MODEL 1
REMARK VINA RESULT:     -10.2      0.000      0.000
REMARK SMILES NNc1ccccc1-c1nc2ccccc2[n-]1
REMARK SMILES IDX 2 1 1 3 3 6 4 7 8 8 5 9 7 10 6 11 9 12 10 13 17 14 11 15
REMARK SMILES IDX 16 16 12 17 15 18 13 19 14 20
REMARK H PARENT 2 2 1 4 1 5
ROOT
ATOM      1  N   UNL     1      42.823 132.045  17.847  1.00  0.00    -0.324 N 
ATOM      2  H   UNL     1      43.047 131.703  16.885  1.00  0.00     0.181 HD
ENDROOT
BRANCH   1   3
ATOM      3  N   UNL     1      41.641 132.780  18.038  1.00  0.00    -0.250 NA
ATOM      4  H   UNL     1      40.846 132.102  17.983  1.00  0.00     0.143 HD
ATOM      5  H   UNL     1      41.532 133.423  17.220  1.00  0.00     0.143 HD
ENDBRANCH   1   3
BRANCH   1   6
ATOM      6  C   UNL     1      43.683 131.707  18.951  1.00  0.00     0.056 A 
ATOM      7  C   UNL     1      43.242 131.925  20.271  1.00  0.00     0.028 A 
ATOM      8  C   UNL     1      44.948 131.095  18.741  1.00  0.00    -0.002 A 
ATOM      9  C   UNL     1      44.014 131.514  21.359  1.00  0.00     0.002 A 
ATOM     10  C   UNL     1      45.700 130.669  19.851  1.00  0.00     0.010 A 
ATOM     11  C   UNL     1      45.236 130.879  21.150  1.00  0.00     0.001 A 
BRANCH   8  12
ATOM     12  C   UNL     1      45.537 130.929  17.392  1.00  0.00    -0.049 A 
ATOM     13  N   UNL     1      46.047 129.744  16.956  1.00  0.00    -0.435 NA
ATOM     14  N   UNL     1      45.687 131.958  16.514  1.00  0.00    -0.435 NA
ATOM     15  C   UNL     1      46.514 130.055  15.739  1.00  0.00    -0.038 A 
ATOM     16  C   UNL     1      46.299 131.372  15.476  1.00  0.00    -0.038 A 
ATOM     17  C   UNL     1      47.145 129.212  14.827  1.00  0.00     0.004 A 
ATOM     18  C   UNL     1      46.697 131.960  14.277  1.00  0.00     0.004 A 
ATOM     19  C   UNL     1      47.560 129.770  13.603  1.00  0.00     0.000 A 
ATOM     20  C   UNL     1      47.337 131.140  13.328  1.00  0.00     0.000 A 
ENDBRANCH   8  12
ENDBRANCH   1   6
TORSDOF 3
ENDMDL
MODEL 2
REMARK VINA RESULT:     -10.0      0.242      1.439
REMARK SMILES NNc1ccccc1-c1nc2ccccc2[n-]1
REMARK SMILES IDX 2 1 1 3 3 6 4 7 8 8 5 9 7 10 6 11 9 12 10 13 17 14 11 15
REMARK SMILES IDX 16 16 12 17 15 18 13 19 14 20
REMARK H PARENT 2 2 1 4 1 5
ROOT
ATOM      1  N   UNL     1      42.751 132.118  17.941  1.00  0.00    -0.324 N 
ATOM      2  H   UNL     1      43.031 131.795  16.987  1.00  0.00     0.181 HD
ENDROOT
BRANCH   1   3
ATOM      3  N   UNL     1      41.557 132.843  18.079  1.00  0.00    -0.250 NA
ATOM      4  H   UNL     1      41.323 133.232  17.137  1.00  0.00     0.143 HD
ATOM      5  H   UNL     1      41.755 133.667  18.692  1.00  0.00     0.143 HD
ENDBRANCH   1   3
BRANCH   1   6
ATOM      6  C   UNL     1      43.552 131.765  19.085  1.00  0.00     0.056 A 
ATOM      7  C   UNL     1      43.045 131.972  20.382  1.00  0.00     0.028 A 
ATOM      8  C   UNL     1      44.823 131.146  18.933  1.00  0.00    -0.002 A 
ATOM      9  C   UNL     1      43.758 131.547  21.504  1.00  0.00     0.002 A 
ATOM     10  C   UNL     1      45.514 130.706  20.076  1.00  0.00     0.010 A 
ATOM     11  C   UNL     1      44.985 130.906  21.352  1.00  0.00     0.001 A 
BRANCH   8  12
ATOM     12  C   UNL     1      45.479 130.990  17.615  1.00  0.00    -0.049 A 
ATOM     13  N   UNL     1      45.539 131.999  16.702  1.00  0.00    -0.435 NA
ATOM     14  N   UNL     1      46.004 129.812  17.180  1.00  0.00    -0.435 NA
ATOM     15  C   UNL     1      46.152 131.417  15.661  1.00  0.00    -0.038 A 
ATOM     16  C   UNL     1      46.429 130.117  15.946  1.00  0.00    -0.038 A 
ATOM     17  C   UNL     1      46.481 131.992  14.436  1.00  0.00     0.004 A 
ATOM     18  C   UNL     1      47.059 129.278  15.029  1.00  0.00     0.004 A 
ATOM     19  C   UNL     1      47.120 131.176  13.483  1.00  0.00     0.000 A 
ATOM     20  C   UNL     1      47.408 129.823  13.779  1.00  0.00     0.000 A 
ENDBRANCH   8  12
ENDBRANCH   1   6
TORSDOF 3
ENDMDL
MODEL 3
REMARK VINA RESULT:      -9.2      1.070      1.226
REMARK SMILES NNc1ccccc1-c1nc2ccccc2[n-]1
REMARK SMILES IDX 2 1 1 3 3 6 4 7 8 8 5 9 7 10 6 11 9 12 10 13 17 14 11 15
REMARK SMILES IDX 16 16 12 17 15 18 13 19 14 20
REMARK H PARENT 2 2 1 4 1 5
ROOT
ATOM      1  N   UNL     1      41.963 131.742  18.859  1.00  0.00    -0.324 N 
ATOM      2  H   UNL     1      41.406 130.887  18.635  1.00  0.00     0.181 HD
ENDROOT
BRANCH   1   3
ATOM      3  N   UNL     1      41.660 132.936  18.184  1.00  0.00    -0.250 NA
ATOM      4  H   UNL     1      41.706 133.707  18.888  1.00  0.00     0.143 HD
ATOM      5  H   UNL     1      40.661 132.881  17.877  1.00  0.00     0.143 HD
ENDBRANCH   1   3
BRANCH   1   6
ATOM      6  C   UNL     1      42.974 131.696  19.884  1.00  0.00     0.056 A 
ATOM      7  C   UNL     1      42.624 131.974  21.220  1.00  0.00     0.028 A 
ATOM      8  C   UNL     1      44.308 131.309  19.588  1.00  0.00    -0.002 A 
ATOM      9  C   UNL     1      43.561 131.838  22.246  1.00  0.00     0.002 A 
ATOM     10  C   UNL     1      45.230 131.157  20.640  1.00  0.00     0.010 A 
ATOM     11  C   UNL     1      44.858 131.421  21.958  1.00  0.00     0.001 A 
BRANCH   8  12
ATOM     12  C   UNL     1      44.789 131.106  18.202  1.00  0.00    -0.049 A 
ATOM     13  N   UNL     1      45.841 130.294  17.903  1.00  0.00    -0.435 NA
ATOM     14  N   UNL     1      44.273 131.767  17.131  1.00  0.00    -0.435 NA
ATOM     15  C   UNL     1      45.963 130.448  16.577  1.00  0.00    -0.038 A 
ATOM     16  C   UNL     1      45.030 131.324  16.118  1.00  0.00    -0.038 A 
ATOM     17  C   UNL     1      46.889 129.843  15.730  1.00  0.00     0.004 A 
ATOM     18  C   UNL     1      44.942 131.671  14.772  1.00  0.00     0.004 A 
ATOM     19  C   UNL     1      46.831 130.167  14.362  1.00  0.00     0.000 A 
ATOM     20  C   UNL     1      45.861 131.078  13.883  1.00  0.00     0.000 A 
ENDBRANCH   8  12
ENDBRANCH   1   6
TORSDOF 3
ENDMDL
MODEL 4
REMARK VINA RESULT:      -9.0      1.557      2.713
REMARK SMILES NNc1ccccc1-c1nc2ccccc2[n-]1
REMARK SMILES IDX 2 1 1 3 3 6 4 7 8 8 5 9 7 10 6 11 9 12 10 13 17 14 11 15
REMARK SMILES IDX 16 16 12 17 15 18 13 19 14 20
REMARK H PARENT 2 2 1 4 1 5
ROOT
ATOM      1  N   UNL     1      46.014 131.089  19.796  1.00  0.00    -0.324 N 
ATOM      2  H   UNL     1      46.796 131.723  19.515  1.00  0.00     0.181 HD
ENDROOT
BRANCH   1   3
ATOM      3  N   UNL     1      46.310 129.975  20.598  1.00  0.00    -0.250 NA
ATOM      4  H   UNL     1      47.188 129.550  20.221  1.00  0.00     0.143 HD
ATOM      5  H   UNL     1      45.556 129.266  20.447  1.00  0.00     0.143 HD
ENDBRANCH   1   3
BRANCH   1   6
ATOM      6  C   UNL     1      44.660 131.400  19.413  1.00  0.00     0.056 A 
ATOM      7  C   UNL     1      43.695 131.652  20.408  1.00  0.00     0.028 A 
ATOM      8  C   UNL     1      44.290 131.525  18.047  1.00  0.00    -0.002 A 
ATOM      9  C   UNL     1      42.403 132.053  20.063  1.00  0.00     0.002 A 
ATOM     10  C   UNL     1      42.990 131.952  17.723  1.00  0.00     0.010 A 
ATOM     11  C   UNL     1      42.054 132.213  18.725  1.00  0.00     0.001 A 
BRANCH   8  12
ATOM     12  C   UNL     1      45.207 131.174  16.939  1.00  0.00    -0.049 A 
ATOM     13  N   UNL     1      45.522 132.048  15.944  1.00  0.00    -0.435 NA
ATOM     14  N   UNL     1      45.745 129.934  16.782  1.00  0.00    -0.435 NA
ATOM     15  C   UNL     1      46.312 131.315  15.147  1.00  0.00    -0.038 A 
ATOM     16  C   UNL     1      46.445 130.057  15.646  1.00  0.00    -0.038 A 
ATOM     17  C   UNL     1      46.932 131.709  13.963  1.00  0.00     0.004 A 
ATOM     18  C   UNL     1      47.209 129.085  15.005  1.00  0.00     0.004 A 
ATOM     19  C   UNL     1      47.715 130.754  13.287  1.00  0.00     0.000 A 
ATOM     20  C   UNL     1      47.853 129.446  13.806  1.00  0.00     0.000 A 
ENDBRANCH   8  12
ENDBRANCH   1   6
TORSDOF 3
ENDMDL
MODEL 5
REMARK VINA RESULT:      -9.0      1.567      2.322
REMARK SMILES NNc1ccccc1-c1nc2ccccc2[n-]1
REMARK SMILES IDX 2 1 1 3 3 6 4 7 8 8 5 9 7 10 6 11 9 12 10 13 17 14 11 15
REMARK SMILES IDX 16 16 12 17 15 18 13 19 14 20
REMARK H PARENT 2 2 1 4 1 5
ROOT
ATOM      1  N   UNL     1      46.023 131.123  19.659  1.00  0.00    -0.324 N 
ATOM      2  H   UNL     1      46.795 131.725  19.292  1.00  0.00     0.181 HD
ENDROOT
BRANCH   1   3
ATOM      3  N   UNL     1      46.352 130.060  20.516  1.00  0.00    -0.250 NA
ATOM      4  H   UNL     1      47.297 129.715  20.229  1.00  0.00     0.143 HD
ATOM      5  H   UNL     1      45.686 129.278  20.322  1.00  0.00     0.143 HD
ENDBRANCH   1   3
BRANCH   1   6
ATOM      6  C   UNL     1      44.654 131.428  19.332  1.00  0.00     0.056 A 
ATOM      7  C   UNL     1      43.735 131.696  20.365  1.00  0.00     0.028 A 
ATOM      8  C   UNL     1      44.223 131.531  17.983  1.00  0.00    -0.002 A 
ATOM      9  C   UNL     1      42.428 132.092  20.073  1.00  0.00     0.002 A 
ATOM     10  C   UNL     1      42.909 131.953  17.711  1.00  0.00     0.010 A 
ATOM     11  C   UNL     1      42.019 132.230  18.749  1.00  0.00     0.001 A 
BRANCH   8  12
ATOM     12  C   UNL     1      45.089 131.161  16.840  1.00  0.00    -0.049 A 
ATOM     13  N   UNL     1      45.626 129.917  16.701  1.00  0.00    -0.435 NA
ATOM     14  N   UNL     1      45.479 132.047  15.884  1.00  0.00    -0.435 NA
ATOM     15  C   UNL     1      46.367 130.039  15.590  1.00  0.00    -0.038 A 
ATOM     16  C   UNL     1      46.279 131.306  15.105  1.00  0.00    -0.038 A 
ATOM     17  C   UNL     1      47.145 129.063  14.972  1.00  0.00     0.004 A 
ATOM     18  C   UNL     1      46.962 131.707  13.958  1.00  0.00     0.004 A 
ATOM     19  C   UNL     1      47.848 129.429  13.809  1.00  0.00     0.000 A 
ATOM     20  C   UNL     1      47.758 130.747  13.303  1.00  0.00     0.000 A 
ENDBRANCH   8  12
ENDBRANCH   1   6
TORSDOF 3
ENDMDL
MODEL 6
REMARK VINA RESULT:      -8.6      1.397      5.876
REMARK SMILES NNc1ccccc1-c1nc2ccccc2[n-]1
REMARK SMILES IDX 2 1 1 3 3 6 4 7 8 8 5 9 7 10 6 11 9 12 10 13 17 14 11 15
REMARK SMILES IDX 16 16 12 17 15 18 13 19 14 20
REMARK H PARENT 2 2 1 4 1 5
ROOT
ATOM      1  N   UNL     1      45.917 128.419  15.523  1.00  0.00    -0.324 N 
ATOM      2  H   UNL     1      46.477 127.757  16.107  1.00  0.00     0.181 HD
ENDROOT
BRANCH   1   3
ATOM      3  N   UNL     1      44.528 128.229  15.441  1.00  0.00    -0.250 NA
ATOM      4  H   UNL     1      44.346 127.663  14.581  1.00  0.00     0.143 HD
ATOM      5  H   UNL     1      44.090 129.164  15.272  1.00  0.00     0.143 HD
ENDBRANCH   1   3
BRANCH   1   6
ATOM      6  C   UNL     1      46.562 129.532  14.875  1.00  0.00     0.056 A 
ATOM      7  C   UNL     1      47.503 129.294  13.854  1.00  0.00     0.028 A 
ATOM      8  C   UNL     1      46.221 130.873  15.198  1.00  0.00    -0.002 A 
ATOM      9  C   UNL     1      48.067 130.354  13.143  1.00  0.00     0.002 A 
ATOM     10  C   UNL     1      46.785 131.924  14.454  1.00  0.00     0.010 A 
ATOM     11  C   UNL     1      47.702 131.665  13.434  1.00  0.00     0.001 A 
BRANCH   8  12
ATOM     12  C   UNL     1      45.327 131.216  16.328  1.00  0.00    -0.049 A 
ATOM     13  N   UNL     1      45.742 131.187  17.625  1.00  0.00    -0.435 NA
ATOM     14  N   UNL     1      44.009 131.512  16.171  1.00  0.00    -0.435 NA
ATOM     15  C   UNL     1      44.626 131.502  18.298  1.00  0.00    -0.038 A 
ATOM     16  C   UNL     1      43.595 131.695  17.433  1.00  0.00    -0.038 A 
ATOM     17  C   UNL     1      44.467 131.623  19.676  1.00  0.00     0.004 A 
ATOM     18  C   UNL     1      42.315 132.026  17.871  1.00  0.00     0.004 A 
ATOM     19  C   UNL     1      43.188 131.958  20.158  1.00  0.00     0.000 A 
ATOM     20  C   UNL     1      42.115 132.159  19.259  1.00  0.00     0.000 A 
ENDBRANCH   8  12
ENDBRANCH   1   6
TORSDOF 3
ENDMDL
MODEL 7
REMARK VINA RESULT:      -8.5      1.503      5.746
REMARK SMILES NNc1ccccc1-c1nc2ccccc2[n-]1
REMARK SMILES IDX 2 1 1 3 3 6 4 7 8 8 5 9 7 10 6 11 9 12 10 13 17 14 11 15
REMARK SMILES IDX 16 16 12 17 15 18 13 19 14 20
REMARK H PARENT 2 2 1 4 1 5
ROOT
ATOM      1  N   UNL     1      44.142 132.204  14.537  1.00  0.00    -0.324 N 
ATOM      2  H   UNL     1      44.220 133.183  14.894  1.00  0.00     0.181 HD
ENDROOT
BRANCH   1   3
ATOM      3  N   UNL     1      42.964 131.826  13.872  1.00  0.00    -0.250 NA
ATOM      4  H   UNL     1      42.197 132.439  14.233  1.00  0.00     0.143 HD
ATOM      5  H   UNL     1      42.726 130.854  14.176  1.00  0.00     0.143 HD
ENDBRANCH   1   3
BRANCH   1   6
ATOM      6  C   UNL     1      45.250 131.294  14.676  1.00  0.00     0.056 A 
ATOM      7  C   UNL     1      45.970 130.893  13.534  1.00  0.00     0.028 A 
ATOM      8  C   UNL     1      45.677 130.843  15.954  1.00  0.00    -0.002 A 
ATOM      9  C   UNL     1      47.108 130.093  13.652  1.00  0.00     0.002 A 
ATOM     10  C   UNL     1      46.839 130.056  16.052  1.00  0.00     0.010 A 
ATOM     11  C   UNL     1      47.548 129.684  14.909  1.00  0.00     0.001 A 
BRANCH   8  12
ATOM     12  C   UNL     1      44.917 131.125  17.193  1.00  0.00    -0.049 A 
ATOM     13  N   UNL     1      43.654 131.635  17.177  1.00  0.00    -0.435 NA
ATOM     14  N   UNL     1      45.442 130.974  18.439  1.00  0.00    -0.435 NA
ATOM     15  C   UNL     1      43.381 131.783  18.481  1.00  0.00    -0.038 A 
ATOM     16  C   UNL     1      44.444 131.389  19.231  1.00  0.00    -0.038 A 
ATOM     17  C   UNL     1      42.209 132.270  19.057  1.00  0.00     0.004 A 
ATOM     18  C   UNL     1      44.428 131.448  20.623  1.00  0.00     0.004 A 
ATOM     19  C   UNL     1      42.155 132.343  20.462  1.00  0.00     0.000 A 
ATOM     20  C   UNL     1      43.260 131.933  21.243  1.00  0.00     0.000 A 
ENDBRANCH   8  12
ENDBRANCH   1   6
TORSDOF 3
ENDMDL
MODEL 8
REMARK VINA RESULT:      -8.5      1.306      5.947
REMARK SMILES NNc1ccccc1-c1nc2ccccc2[n-]1
REMARK SMILES IDX 2 1 1 3 3 6 4 7 8 8 5 9 7 10 6 11 9 12 10 13 17 14 11 15
REMARK SMILES IDX 16 16 12 17 15 18 13 19 14 20
REMARK H PARENT 2 2 1 4 1 5
ROOT
ATOM      1  N   UNL     1      45.667 128.431  15.655  1.00  0.00    -0.324 N 
ATOM      2  H   UNL     1      46.132 127.925  16.442  1.00  0.00     0.181 HD
ENDROOT
BRANCH   1   3
ATOM      3  N   UNL     1      44.399 127.998  15.235  1.00  0.00    -0.250 NA
ATOM      4  H   UNL     1      43.693 128.505  15.817  1.00  0.00     0.143 HD
ATOM      5  H   UNL     1      44.310 126.986  15.488  1.00  0.00     0.143 HD
ENDBRANCH   1   3
BRANCH   1   6
ATOM      6  C   UNL     1      46.299 129.585  15.067  1.00  0.00     0.056 A 
ATOM      7  C   UNL     1      47.194 129.417  13.992  1.00  0.00     0.028 A 
ATOM      8  C   UNL     1      45.987 130.900  15.505  1.00  0.00    -0.002 A 
ATOM      9  C   UNL     1      47.741 130.524  13.340  1.00  0.00     0.002 A 
ATOM     10  C   UNL     1      46.532 132.001  14.819  1.00  0.00     0.010 A 
ATOM     11  C   UNL     1      47.403 131.812  13.746  1.00  0.00     0.001 A 
BRANCH   8  12
ATOM     12  C   UNL     1      45.144 131.164  16.694  1.00  0.00    -0.049 A 
ATOM     13  N   UNL     1      43.845 131.558  16.598  1.00  0.00    -0.435 NA
ATOM     14  N   UNL     1      45.618 131.110  17.968  1.00  0.00    -0.435 NA
ATOM     15  C   UNL     1      43.495 131.734  17.880  1.00  0.00    -0.038 A 
ATOM     16  C   UNL     1      44.550 131.467  18.695  1.00  0.00    -0.038 A 
ATOM     17  C   UNL     1      42.259 132.138  18.379  1.00  0.00     0.004 A 
ATOM     18  C   UNL     1      44.460 131.581  20.080  1.00  0.00     0.004 A 
ATOM     19  C   UNL     1      42.128 132.263  19.775  1.00  0.00     0.000 A 
ATOM     20  C   UNL     1      43.225 131.985  20.624  1.00  0.00     0.000 A 
ENDBRANCH   8  12
ENDBRANCH   1   6
TORSDOF 3
ENDMDL
MODEL 9
REMARK VINA RESULT:      -8.4      1.397      5.628
REMARK SMILES NNc1ccccc1-c1nc2ccccc2[n-]1
REMARK SMILES IDX 2 1 1 3 3 6 4 7 8 8 5 9 7 10 6 11 9 12 10 13 17 14 11 15
REMARK SMILES IDX 16 16 12 17 15 18 13 19 14 20
REMARK H PARENT 2 2 1 4 1 5
ROOT
ATOM      1  N   UNL     1      44.331 132.233  14.497  1.00  0.00    -0.324 N 
ATOM      2  H   UNL     1      44.496 133.244  14.702  1.00  0.00     0.181 HD
ENDROOT
BRANCH   1   3
ATOM      3  N   UNL     1      43.058 131.838  14.055  1.00  0.00    -0.250 NA
ATOM      4  H   UNL     1      42.567 132.700  13.724  1.00  0.00     0.143 HD
ATOM      5  H   UNL     1      42.523 131.502  14.889  1.00  0.00     0.143 HD
ENDBRANCH   1   3
BRANCH   1   6
ATOM      6  C   UNL     1      45.413 131.289  14.609  1.00  0.00     0.056 A 
ATOM      7  C   UNL     1      46.087 130.859  13.449  1.00  0.00     0.028 A 
ATOM      8  C   UNL     1      45.863 130.830  15.877  1.00  0.00    -0.002 A 
ATOM      9  C   UNL     1      47.202 130.023  13.540  1.00  0.00     0.002 A 
ATOM     10  C   UNL     1      47.001 130.006  15.946  1.00  0.00     0.010 A 
ATOM     11  C   UNL     1      47.664 129.606  14.785  1.00  0.00     0.001 A 
BRANCH   8  12
ATOM     12  C   UNL     1      45.148 131.142  17.136  1.00  0.00    -0.049 A 
ATOM     13  N   UNL     1      45.691 130.911  18.363  1.00  0.00    -0.435 NA
ATOM     14  N   UNL     1      43.870 131.609  17.170  1.00  0.00    -0.435 NA
ATOM     15  C   UNL     1      44.705 131.276  19.194  1.00  0.00    -0.038 A 
ATOM     16  C   UNL     1      43.622 131.692  18.484  1.00  0.00    -0.038 A 
ATOM     17  C   UNL     1      44.711 131.252  20.587  1.00  0.00     0.004 A 
ATOM     18  C   UNL     1      42.451 132.119  19.106  1.00  0.00     0.004 A 
ATOM     19  C   UNL     1      43.545 131.679  21.252  1.00  0.00     0.000 A 
ATOM     20  C   UNL     1      42.419 132.111  20.514  1.00  0.00     0.000 A 
ENDBRANCH   8  12
ENDBRANCH   1   6
TORSDOF 3
ENDMDL


