REMARK SMILES Cc1ccc(-c2ccc(/N=C(\O)c3cccc(C)c3)c(C(=O)O[C@H](C)[C@H](C)[N+](=O)[O-])c2)cc1
REMARK SMILES IDX 21 1 22 2 20 3 9 4 8 5 7 6 31 7 6 8 10 9 11 10 12 11 13 13
REMARK SMILES IDX 14 14 19 15 15 16 17 17 16 18 18 19 5 20 4 21 32 22 3 23
REMARK SMILES IDX 33 24 2 25 1 26 23 27 24 28 25 29 26 30 27 31 28 32 29 33
REMARK SMILES IDX 30 34
REMARK H PARENT 12 12
ROOT
ATOM      1  C   UNL     1      -0.751   1.371  -0.799  1.00  0.00     0.340 C 
ATOM      2  O   UNL     1      -1.473   1.974  -1.641  1.00  0.00    -0.246 OA
ENDROOT
BRANCH   1   3
ATOM      3  C   UNL     1      -1.149   0.026  -0.323  1.00  0.00     0.086 A 
ATOM      4  C   UNL     1      -0.187  -0.929   0.077  1.00  0.00     0.082 A 
ATOM      5  C   UNL     1      -0.610  -2.194   0.515  1.00  0.00     0.030 A 
ATOM      6  C   UNL     1      -1.964  -2.527   0.528  1.00  0.00     0.011 A 
ATOM      7  C   UNL     1      -2.511  -0.327  -0.318  1.00  0.00     0.026 A 
ATOM      8  C   UNL     1      -2.929  -1.599   0.107  1.00  0.00    -0.017 A 
BRANCH   4   9
ATOM      9  N   UNL     1       1.211  -0.603   0.056  1.00  0.00    -0.213 NA
BRANCH   9  10
ATOM     10  C   UNL     1       2.145  -1.354  -0.450  1.00  0.00     0.218 C 
BRANCH  10  11
ATOM     11  O   UNL     1       1.815  -2.544  -1.104  1.00  0.00    -0.493 OA
ATOM     12  H   UNL     1       2.523  -3.175  -1.458  1.00  0.00     0.295 HD
ENDBRANCH  10  11
BRANCH  10  13
ATOM     13  C   UNL     1       3.554  -0.918  -0.357  1.00  0.00     0.037 A 
ATOM     14  C   UNL     1       4.448  -1.161  -1.413  1.00  0.00     0.014 A 
ATOM     15  C   UNL     1       4.012  -0.242   0.787  1.00  0.00     0.017 A 
ATOM     16  C   UNL     1       5.775  -0.732  -1.327  1.00  0.00     0.001 A 
ATOM     17  C   UNL     1       5.339   0.208   0.867  1.00  0.00    -0.050 A 
ATOM     18  C   UNL     1       6.222  -0.054  -0.190  1.00  0.00     0.003 A 
ATOM     19  C   UNL     1       5.829   0.906   2.102  1.00  0.00     0.044 C 
ENDBRANCH  10  13
ENDBRANCH   9  10
ENDBRANCH   4   9
BRANCH   8  20
ATOM     20  C   UNL     1      -4.372  -1.955   0.118  1.00  0.00    -0.018 A 
ATOM     21  C   UNL     1      -4.797  -3.229  -0.301  1.00  0.00     0.009 A 
ATOM     22  C   UNL     1      -5.335  -1.027   0.553  1.00  0.00     0.009 A 
ATOM     23  C   UNL     1      -6.154  -3.563  -0.290  1.00  0.00     0.004 A 
ATOM     24  C   UNL     1      -6.691  -1.363   0.564  1.00  0.00     0.004 A 
ATOM     25  C   UNL     1      -7.111  -2.628   0.127  1.00  0.00    -0.051 A 
ATOM     26  C   UNL     1      -8.563  -3.001   0.176  1.00  0.00     0.044 C 
ENDBRANCH   8  20
ENDBRANCH   1   3
BRANCH   1  27
ATOM     27  O   UNL     1       0.408   1.981  -0.303  1.00  0.00    -0.452 OA
BRANCH  27  28
ATOM     28  C   UNL     1       0.968   3.175  -0.856  1.00  0.00     0.247 C 
ATOM     29  C   UNL     1       1.787   2.826  -2.104  1.00  0.00     0.061 C 
BRANCH  28  30
ATOM     30  C   UNL     1       1.811   3.920   0.207  1.00  0.00     0.364 C 
ATOM     31  C   UNL     1       2.871   3.032   0.870  1.00  0.00     0.098 C 
BRANCH  30  32
ATOM     32  N   UNL     1       0.939   4.494   1.234  1.00  0.00     0.026 N 
ATOM     33  O   UNL     1       0.188   3.764   1.913  1.00  0.00    -0.264 OA
ATOM     34  O   UNL     1       1.029   5.833   1.538  1.00  0.00    -0.264 OA
ENDBRANCH  30  32
ENDBRANCH  28  30
ENDBRANCH  27  28
ENDBRANCH   1  27
TORSDOF 10


