MODEL 1
REMARK VINA RESULT:      -8.2      0.000      0.000
REMARK SMILES O/C(=C\C[C@@H]1CCC[C@@H]2C=c3ccccc3=C[C@@]12F)c1ccccc1
REMARK SMILES IDX 3 1 2 2 1 3 20 5 21 6 25 7 22 8 24 9 23 10 4 11 5 12 6 13
REMARK SMILES IDX 18 14 7 15 17 16 9 17 8 18 16 19 10 20 15 21 11 22 14 23
REMARK SMILES IDX 12 24 13 25 19 26
REMARK H PARENT 1 4
ROOT
ATOM      1  C   UNL     1      45.146 131.096  17.122  1.00  0.00     0.020 C 
ENDROOT
BRANCH   1   2
ATOM      2  C   UNL     1      45.774 130.059  16.543  1.00  0.00     0.118 C 
BRANCH   2   3
ATOM      3  O   UNL     1      45.679 128.792  17.121  1.00  0.00    -0.508 OA
ATOM      4  H   UNL     1      45.283 128.004  16.622  1.00  0.00     0.293 HD
ENDBRANCH   2   3
BRANCH   2   5
ATOM      5  C   UNL     1      46.572 130.246  15.305  1.00  0.00     0.016 A 
ATOM      6  C   UNL     1      46.578 131.476  14.619  1.00  0.00     0.012 A 
ATOM      7  C   UNL     1      47.327 129.177  14.793  1.00  0.00     0.012 A 
ATOM      8  C   UNL     1      47.331 131.630  13.452  1.00  0.00     0.001 A 
ATOM      9  C   UNL     1      48.080 129.337  13.625  1.00  0.00     0.001 A 
ATOM     10  C   UNL     1      48.082 130.562  12.955  1.00  0.00     0.000 A 
ENDBRANCH   2   5
ENDBRANCH   1   2
BRANCH   1  11
ATOM     11  C   UNL     1      45.383 131.487  18.557  1.00  0.00     0.038 C 
BRANCH  11  12
ATOM     12  C   UNL     1      44.093 131.402  19.428  1.00  0.00     0.035 C 
ATOM     13  C   UNL     1      43.392 132.784  19.443  1.00  0.00     0.007 C 
ATOM     14  C   UNL     1      44.372 130.943  20.892  1.00  0.00     0.139 C 
ATOM     15  C   UNL     1      42.114 132.782  20.293  1.00  0.00     0.001 C 
ATOM     16  C   UNL     1      44.999 129.566  20.991  1.00  0.00     0.023 C 
ATOM     17  C   UNL     1      43.048 130.918  21.692  1.00  0.00     0.054 C 
ATOM     18  C   UNL     1      42.393 132.305  21.722  1.00  0.00     0.011 C 
ATOM     19  C   UNL     1      44.949 128.878  22.153  1.00  0.00    -0.020 A 
ATOM     20  C   UNL     1      43.296 130.369  23.075  1.00  0.00    -0.011 C 
ATOM     21  C   UNL     1      45.724 127.716  22.315  1.00  0.00     0.008 A 
ATOM     22  C   UNL     1      44.145 129.335  23.237  1.00  0.00    -0.022 A 
ATOM     23  C   UNL     1      45.757 127.053  23.545  1.00  0.00     0.001 A 
ATOM     24  C   UNL     1      44.218 128.673  24.476  1.00  0.00     0.008 A 
ATOM     25  C   UNL     1      45.019 127.540  24.625  1.00  0.00     0.001 A 
ATOM     26  F   UNL     1      45.244 131.843  21.492  1.00  0.00    -0.238 F 
ENDBRANCH  11  12
ENDBRANCH   1  11
TORSDOF 5
ENDMDL
MODEL 2
REMARK VINA RESULT:      -7.7      1.926      3.173
REMARK SMILES O/C(=C\C[C@@H]1CCC[C@@H]2C=c3ccccc3=C[C@@]12F)c1ccccc1
REMARK SMILES IDX 3 1 2 2 1 3 20 5 21 6 25 7 22 8 24 9 23 10 4 11 5 12 6 13
REMARK SMILES IDX 18 14 7 15 17 16 9 17 8 18 16 19 10 20 15 21 11 22 14 23
REMARK SMILES IDX 12 24 13 25 19 26
REMARK H PARENT 1 4
ROOT
ATOM      1  C   UNL     1      44.830 132.074  20.036  1.00  0.00     0.020 C 
ENDROOT
BRANCH   1   2
ATOM      2  C   UNL     1      44.036 131.670  19.031  1.00  0.00     0.118 C 
BRANCH   2   3
ATOM      3  O   UNL     1      42.653 131.647  19.218  1.00  0.00    -0.508 OA
ATOM      4  H   UNL     1      42.229 131.873  20.109  1.00  0.00     0.293 HD
ENDBRANCH   2   3
BRANCH   2   5
ATOM      5  C   UNL     1      44.610 131.242  17.730  1.00  0.00     0.016 A 
ATOM      6  C   UNL     1      45.781 130.463  17.670  1.00  0.00     0.012 A 
ATOM      7  C   UNL     1      43.988 131.630  16.530  1.00  0.00     0.012 A 
ATOM      8  C   UNL     1      46.310 130.074  16.436  1.00  0.00     0.001 A 
ATOM      9  C   UNL     1      44.521 131.237  15.298  1.00  0.00     0.001 A 
ATOM     10  C   UNL     1      45.680 130.460  15.250  1.00  0.00     0.000 A 
ENDBRANCH   2   5
ENDBRANCH   1   2
BRANCH   1  11
ATOM     11  C   UNL     1      45.178 131.184  21.200  1.00  0.00     0.038 C 
BRANCH  11  12
ATOM     12  C   UNL     1      43.919 130.624  21.929  1.00  0.00     0.035 C 
ATOM     13  C   UNL     1      43.242 131.763  22.732  1.00  0.00     0.007 C 
ATOM     14  C   UNL     1      44.244 129.435  22.885  1.00  0.00     0.139 C 
ATOM     15  C   UNL     1      41.996 131.284  23.490  1.00  0.00     0.001 C 
ATOM     16  C   UNL     1      44.852 128.236  22.183  1.00  0.00     0.023 C 
ATOM     17  C   UNL     1      42.950 128.964  23.590  1.00  0.00     0.054 C 
ATOM     18  C   UNL     1      42.319 130.099  24.407  1.00  0.00     0.011 C 
ATOM     19  C   UNL     1      44.834 127.021  22.774  1.00  0.00    -0.020 A 
ATOM     20  C   UNL     1      43.240 127.744  24.430  1.00  0.00    -0.011 C 
ATOM     21  C   UNL     1      45.595 125.968  22.236  1.00  0.00     0.008 A 
ATOM     22  C   UNL     1      44.077 126.798  23.961  1.00  0.00    -0.022 A 
ATOM     23  C   UNL     1      45.662 124.737  22.894  1.00  0.00     0.001 A 
ATOM     24  C   UNL     1      44.184 125.563  24.625  1.00  0.00     0.008 A 
ATOM     25  C   UNL     1      44.972 124.541  24.091  1.00  0.00     0.001 A 
ATOM     26  F   UNL     1      45.152 129.860  23.847  1.00  0.00    -0.238 F 
ENDBRANCH  11  12
ENDBRANCH   1  11
TORSDOF 5
ENDMDL
MODEL 3
REMARK VINA RESULT:      -7.4      1.082      1.225
REMARK SMILES O/C(=C\C[C@@H]1CCC[C@@H]2C=c3ccccc3=C[C@@]12F)c1ccccc1
REMARK SMILES IDX 3 1 2 2 1 3 20 5 21 6 25 7 22 8 24 9 23 10 4 11 5 12 6 13
REMARK SMILES IDX 18 14 7 15 17 16 9 17 8 18 16 19 10 20 15 21 11 22 14 23
REMARK SMILES IDX 12 24 13 25 19 26
REMARK H PARENT 1 4
ROOT
ATOM      1  C   UNL     1      44.831 131.566  17.085  1.00  0.00     0.020 C 
ENDROOT
BRANCH   1   2
ATOM      2  C   UNL     1      45.712 132.039  16.188  1.00  0.00     0.118 C 
BRANCH   2   3
ATOM      3  O   UNL     1      45.940 133.415  16.112  1.00  0.00    -0.508 OA
ATOM      4  H   UNL     1      45.694 134.041  16.869  1.00  0.00     0.293 HD
ENDBRANCH   2   3
BRANCH   2   5
ATOM      5  C   UNL     1      46.436 131.122  15.272  1.00  0.00     0.016 A 
ATOM      6  C   UNL     1      47.091 131.605  14.123  1.00  0.00     0.012 A 
ATOM      7  C   UNL     1      46.462 129.743  15.542  1.00  0.00     0.012 A 
ATOM      8  C   UNL     1      47.763 130.725  13.270  1.00  0.00     0.001 A 
ATOM      9  C   UNL     1      47.137 128.866  14.686  1.00  0.00     0.001 A 
ATOM     10  C   UNL     1      47.787 129.356  13.551  1.00  0.00     0.000 A 
ENDBRANCH   2   5
ENDBRANCH   1   2
BRANCH   1  11
ATOM     11  C   UNL     1      45.247 131.080  18.448  1.00  0.00     0.038 C 
BRANCH  11  12
ATOM     12  C   UNL     1      44.076 131.094  19.477  1.00  0.00     0.035 C 
ATOM     13  C   UNL     1      43.467 132.517  19.541  1.00  0.00     0.007 C 
ATOM     14  C   UNL     1      44.513 130.650  20.907  1.00  0.00     0.139 C 
ATOM     15  C   UNL     1      42.311 132.614  20.546  1.00  0.00     0.001 C 
ATOM     16  C   UNL     1      45.065 129.238  20.966  1.00  0.00     0.023 C 
ATOM     17  C   UNL     1      43.304 130.726  21.869  1.00  0.00     0.054 C 
ATOM     18  C   UNL     1      42.742 132.151  21.942  1.00  0.00     0.011 C 
ATOM     19  C   UNL     1      45.124 128.580  22.144  1.00  0.00    -0.020 A 
ATOM     20  C   UNL     1      43.695 130.191  23.225  1.00  0.00    -0.011 C 
ATOM     21  C   UNL     1      45.842 127.375  22.240  1.00  0.00     0.008 A 
ATOM     22  C   UNL     1      44.495 129.110  23.308  1.00  0.00    -0.022 A 
ATOM     23  C   UNL     1      45.993 126.738  23.475  1.00  0.00     0.001 A 
ATOM     24  C   UNL     1      44.686 128.471  24.546  1.00  0.00     0.008 A 
ATOM     25  C   UNL     1      45.430 127.293  24.625  1.00  0.00     0.001 A 
ATOM     26  F   UNL     1      45.507 131.506  21.366  1.00  0.00    -0.238 F 
ENDBRANCH  11  12
ENDBRANCH   1  11
TORSDOF 5
ENDMDL
MODEL 4
REMARK VINA RESULT:      -7.0      2.070      7.386
REMARK SMILES O/C(=C\C[C@@H]1CCC[C@@H]2C=c3ccccc3=C[C@@]12F)c1ccccc1
REMARK SMILES IDX 3 1 2 2 1 3 20 5 21 6 25 7 22 8 24 9 23 10 4 11 5 12 6 13
REMARK SMILES IDX 18 14 7 15 17 16 9 17 8 18 16 19 10 20 15 21 11 22 14 23
REMARK SMILES IDX 12 24 13 25 19 26
REMARK H PARENT 1 4
ROOT
ATOM      1  C   UNL     1      45.237 130.162  21.293  1.00  0.00     0.020 C 
ENDROOT
BRANCH   1   2
ATOM      2  C   UNL     1      44.751 129.867  22.509  1.00  0.00     0.118 C 
BRANCH   2   3
ATOM      3  O   UNL     1      44.618 130.881  23.459  1.00  0.00    -0.508 OA
ATOM      4  H   UNL     1      43.711 131.195  23.785  1.00  0.00     0.293 HD
ENDBRANCH   2   3
BRANCH   2   5
ATOM      5  C   UNL     1      44.362 128.477  22.858  1.00  0.00     0.016 A 
ATOM      6  C   UNL     1      43.186 128.208  23.585  1.00  0.00     0.012 A 
ATOM      7  C   UNL     1      45.184 127.403  22.474  1.00  0.00     0.012 A 
ATOM      8  C   UNL     1      42.839 126.894  23.909  1.00  0.00     0.001 A 
ATOM      9  C   UNL     1      44.833 126.089  22.800  1.00  0.00     0.001 A 
ATOM     10  C   UNL     1      43.661 125.834  23.517  1.00  0.00     0.000 A 
ENDBRANCH   2   5
ENDBRANCH   1   2
BRANCH   1  11
ATOM     11  C   UNL     1      45.559 131.571  20.870  1.00  0.00     0.038 C 
BRANCH  11  12
ATOM     12  C   UNL     1      44.440 132.209  19.992  1.00  0.00     0.035 C 
ATOM     13  C   UNL     1      43.083 132.101  20.732  1.00  0.00     0.007 C 
ATOM     14  C   UNL     1      44.319 131.551  18.583  1.00  0.00     0.139 C 
ATOM     15  C   UNL     1      41.925 132.698  19.921  1.00  0.00     0.001 C 
ATOM     16  C   UNL     1      45.579 131.661  17.746  1.00  0.00     0.023 C 
ATOM     17  C   UNL     1      43.167 132.217  17.794  1.00  0.00     0.054 C 
ATOM     18  C   UNL     1      41.830 132.064  18.529  1.00  0.00     0.011 C 
ATOM     19  C   UNL     1      45.523 131.496  16.407  1.00  0.00    -0.020 A 
ATOM     20  C   UNL     1      43.119 131.660  16.392  1.00  0.00    -0.011 C 
ATOM     21  C   UNL     1      46.710 131.367  15.665  1.00  0.00     0.008 A 
ATOM     22  C   UNL     1      44.269 131.415  15.734  1.00  0.00    -0.022 A 
ATOM     23  C   UNL     1      46.662 131.096  14.295  1.00  0.00     0.001 A 
ATOM     24  C   UNL     1      44.242 131.109  14.361  1.00  0.00     0.008 A 
ATOM     25  C   UNL     1      45.433 130.953  13.650  1.00  0.00     0.001 A 
ATOM     26  F   UNL     1      44.036 130.198  18.735  1.00  0.00    -0.238 F 
ENDBRANCH  11  12
ENDBRANCH   1  11
TORSDOF 5
ENDMDL
MODEL 5
REMARK VINA RESULT:      -6.6      2.060      7.357
REMARK SMILES O/C(=C\C[C@@H]1CCC[C@@H]2C=c3ccccc3=C[C@@]12F)c1ccccc1
REMARK SMILES IDX 3 1 2 2 1 3 20 5 21 6 25 7 22 8 24 9 23 10 4 11 5 12 6 13
REMARK SMILES IDX 18 14 7 15 17 16 9 17 8 18 16 19 10 20 15 21 11 22 14 23
REMARK SMILES IDX 12 24 13 25 19 26
REMARK H PARENT 1 4
ROOT
ATOM      1  C   UNL     1      44.973 129.763  21.297  1.00  0.00     0.020 C 
ENDROOT
BRANCH   1   2
ATOM      2  C   UNL     1      44.678 129.340  22.537  1.00  0.00     0.118 C 
BRANCH   2   3
ATOM      3  O   UNL     1      44.530 130.275  23.563  1.00  0.00    -0.508 OA
ATOM      4  H   UNL     1      45.020 131.162  23.555  1.00  0.00     0.293 HD
ENDBRANCH   2   3
BRANCH   2   5
ATOM      5  C   UNL     1      44.517 127.893  22.831  1.00  0.00     0.016 A 
ATOM      6  C   UNL     1      45.422 126.940  22.326  1.00  0.00     0.012 A 
ATOM      7  C   UNL     1      43.435 127.456  23.614  1.00  0.00     0.012 A 
ATOM      8  C   UNL     1      45.251 125.582  22.608  1.00  0.00     0.001 A 
ATOM      9  C   UNL     1      43.268 126.096  23.895  1.00  0.00     0.001 A 
ATOM     10  C   UNL     1      44.175 125.159  23.393  1.00  0.00     0.000 A 
ENDBRANCH   2   5
ENDBRANCH   1   2
BRANCH   1  11
ATOM     11  C   UNL     1      45.490 131.150  21.017  1.00  0.00     0.038 C 
BRANCH  11  12
ATOM     12  C   UNL     1      44.498 132.004  20.170  1.00  0.00     0.035 C 
ATOM     13  C   UNL     1      43.143 132.105  20.914  1.00  0.00     0.007 C 
ATOM     14  C   UNL     1      44.266 131.430  18.738  1.00  0.00     0.139 C 
ATOM     15  C   UNL     1      42.107 132.924  20.133  1.00  0.00     0.001 C 
ATOM     16  C   UNL     1      45.526 131.352  17.899  1.00  0.00     0.023 C 
ATOM     17  C   UNL     1      43.247 132.315  17.981  1.00  0.00     0.054 C 
ATOM     18  C   UNL     1      41.903 132.369  18.719  1.00  0.00     0.011 C 
ATOM     19  C   UNL     1      45.442 131.249  16.555  1.00  0.00    -0.020 A 
ATOM     20  C   UNL     1      43.103 131.828  16.560  1.00  0.00    -0.011 C 
ATOM     21  C   UNL     1      46.590 130.944  15.801  1.00  0.00     0.008 A 
ATOM     22  C   UNL     1      44.194 131.412  15.887  1.00  0.00    -0.022 A 
ATOM     23  C   UNL     1      46.496 130.738  14.422  1.00  0.00     0.001 A 
ATOM     24  C   UNL     1      44.115 131.168  14.504  1.00  0.00     0.008 A 
ATOM     25  C   UNL     1      45.261 130.834  13.780  1.00  0.00     0.001 A 
ATOM     26  F   UNL     1      43.753 130.143  18.842  1.00  0.00    -0.238 F 
ENDBRANCH  11  12
ENDBRANCH   1  11
TORSDOF 5
ENDMDL
MODEL 6
REMARK VINA RESULT:      -6.3      1.658      2.610
REMARK SMILES O/C(=C\C[C@@H]1CCC[C@@H]2C=c3ccccc3=C[C@@]12F)c1ccccc1
REMARK SMILES IDX 3 1 2 2 1 3 20 5 21 6 25 7 22 8 24 9 23 10 4 11 5 12 6 13
REMARK SMILES IDX 18 14 7 15 17 16 9 17 8 18 16 19 10 20 15 21 11 22 14 23
REMARK SMILES IDX 12 24 13 25 19 26
REMARK H PARENT 1 4
ROOT
ATOM      1  C   UNL     1      44.223 131.337  19.175  1.00  0.00     0.020 C 
ENDROOT
BRANCH   1   2
ATOM      2  C   UNL     1      43.710 131.750  18.005  1.00  0.00     0.118 C 
BRANCH   2   3
ATOM      3  O   UNL     1      42.492 132.433  17.994  1.00  0.00    -0.508 OA
ATOM      4  H   UNL     1      42.033 132.723  18.849  1.00  0.00     0.293 HD
ENDBRANCH   2   3
BRANCH   2   5
ATOM      5  C   UNL     1      44.415 131.483  16.726  1.00  0.00     0.016 A 
ATOM      6  C   UNL     1      45.685 130.876  16.705  1.00  0.00     0.012 A 
ATOM      7  C   UNL     1      43.817 131.851  15.508  1.00  0.00     0.012 A 
ATOM      8  C   UNL     1      46.336 130.638  15.491  1.00  0.00     0.001 A 
ATOM      9  C   UNL     1      44.471 131.609  14.295  1.00  0.00     0.001 A 
ATOM     10  C   UNL     1      45.730 131.003  14.287  1.00  0.00     0.000 A 
ENDBRANCH   2   5
ENDBRANCH   1   2
BRANCH   1  11
ATOM     11  C   UNL     1      44.146 132.164  20.431  1.00  0.00     0.038 C 
BRANCH  11  12
ATOM     12  C   UNL     1      43.257 131.510  21.531  1.00  0.00     0.035 C 
ATOM     13  C   UNL     1      42.553 132.622  22.350  1.00  0.00     0.007 C 
ATOM     14  C   UNL     1      44.060 130.583  22.495  1.00  0.00     0.139 C 
ATOM     15  C   UNL     1      41.666 132.054  23.466  1.00  0.00     0.001 C 
ATOM     16  C   UNL     1      44.737 129.418  21.798  1.00  0.00     0.023 C 
ATOM     17  C   UNL     1      43.112 130.005  23.572  1.00  0.00     0.054 C 
ATOM     18  C   UNL     1      42.457 131.123  24.392  1.00  0.00     0.011 C 
ATOM     19  C   UNL     1      45.134 128.339  22.508  1.00  0.00    -0.020 A 
ATOM     20  C   UNL     1      43.862 129.021  24.437  1.00  0.00    -0.011 C 
ATOM     21  C   UNL     1      45.961 127.372  21.911  1.00  0.00     0.008 A 
ATOM     22  C   UNL     1      44.753 128.184  23.872  1.00  0.00    -0.022 A 
ATOM     23  C   UNL     1      46.459 126.305  22.663  1.00  0.00     0.001 A 
ATOM     24  C   UNL     1      45.291 127.121  24.621  1.00  0.00     0.008 A 
ATOM     25  C   UNL     1      46.137 126.190  24.017  1.00  0.00     0.001 A 
ATOM     26  F   UNL     1      45.052 131.328  23.121  1.00  0.00    -0.238 F 
ENDBRANCH  11  12
ENDBRANCH   1  11
TORSDOF 5
ENDMDL
MODEL 7
REMARK VINA RESULT:      -6.0      1.089      1.746
REMARK SMILES O/C(=C\C[C@@H]1CCC[C@@H]2C=c3ccccc3=C[C@@]12F)c1ccccc1
REMARK SMILES IDX 3 1 2 2 1 3 20 5 21 6 25 7 22 8 24 9 23 10 4 11 5 12 6 13
REMARK SMILES IDX 18 14 7 15 17 16 9 17 8 18 16 19 10 20 15 21 11 22 14 23
REMARK SMILES IDX 12 24 13 25 19 26
REMARK H PARENT 1 4
ROOT
ATOM      1  C   UNL     1      44.661 130.255  16.050  1.00  0.00     0.020 C 
ENDROOT
BRANCH   1   2
ATOM      2  C   UNL     1      45.429 129.376  15.384  1.00  0.00     0.118 C 
BRANCH   2   3
ATOM      3  O   UNL     1      45.209 128.008  15.555  1.00  0.00    -0.508 OA
ATOM      4  H   UNL     1      45.928 127.321  15.361  1.00  0.00     0.293 HD
ENDBRANCH   2   3
BRANCH   2   5
ATOM      5  C   UNL     1      46.511 129.840  14.480  1.00  0.00     0.016 A 
ATOM      6  C   UNL     1      47.623 129.025  14.194  1.00  0.00     0.012 A 
ATOM      7  C   UNL     1      46.439 131.121  13.904  1.00  0.00     0.012 A 
ATOM      8  C   UNL     1      48.635 129.482  13.345  1.00  0.00     0.001 A 
ATOM      9  C   UNL     1      47.454 131.573  13.053  1.00  0.00     0.001 A 
ATOM     10  C   UNL     1      48.550 130.754  12.774  1.00  0.00     0.000 A 
ENDBRANCH   2   5
ENDBRANCH   1   2
BRANCH   1  11
ATOM     11  C   UNL     1      44.951 130.672  17.468  1.00  0.00     0.038 C 
BRANCH  11  12
ATOM     12  C   UNL     1      43.662 131.030  18.267  1.00  0.00     0.035 C 
ATOM     13  C   UNL     1      43.040 132.324  17.685  1.00  0.00     0.007 C 
ATOM     14  C   UNL     1      43.921 131.218  19.794  1.00  0.00     0.139 C 
ATOM     15  C   UNL     1      41.768 132.750  18.431  1.00  0.00     0.001 C 
ATOM     16  C   UNL     1      44.471 129.980  20.476  1.00  0.00     0.023 C 
ATOM     17  C   UNL     1      42.602 131.603  20.503  1.00  0.00     0.054 C 
ATOM     18  C   UNL     1      42.026 132.906  19.934  1.00  0.00     0.011 C 
ATOM     19  C   UNL     1      44.387 129.850  21.818  1.00  0.00    -0.020 A 
ATOM     20  C   UNL     1      42.825 131.676  21.994  1.00  0.00    -0.011 C 
ATOM     21  C   UNL     1      45.096 128.825  22.470  1.00  0.00     0.008 A 
ATOM     22  C   UNL     1      43.615 130.764  22.593  1.00  0.00    -0.022 A 
ATOM     23  C   UNL     1      45.097 128.743  23.865  1.00  0.00     0.001 A 
ATOM     24  C   UNL     1      43.656 130.683  23.996  1.00  0.00     0.008 A 
ATOM     25  C   UNL     1      44.392 129.677  24.625  1.00  0.00     0.001 A 
ATOM     26  F   UNL     1      44.845 132.239  19.976  1.00  0.00    -0.238 F 
ENDBRANCH  11  12
ENDBRANCH   1  11
TORSDOF 5
ENDMDL
MODEL 8
REMARK VINA RESULT:      -5.8      4.339      7.286
REMARK SMILES O/C(=C\C[C@@H]1CCC[C@@H]2C=c3ccccc3=C[C@@]12F)c1ccccc1
REMARK SMILES IDX 3 1 2 2 1 3 20 5 21 6 25 7 22 8 24 9 23 10 4 11 5 12 6 13
REMARK SMILES IDX 18 14 7 15 17 16 9 17 8 18 16 19 10 20 15 21 11 22 14 23
REMARK SMILES IDX 12 24 13 25 19 26
REMARK H PARENT 1 4
ROOT
ATOM      1  C   UNL     1      47.373 133.329  21.120  1.00  0.00     0.020 C 
ENDROOT
BRANCH   1   2
ATOM      2  C   UNL     1      47.776 133.966  22.231  1.00  0.00     0.118 C 
BRANCH   2   3
ATOM      3  O   UNL     1      47.128 133.709  23.441  1.00  0.00    -0.508 OA
ATOM      4  H   UNL     1      46.131 133.539  23.490  1.00  0.00     0.293 HD
ENDBRANCH   2   3
BRANCH   2   5
ATOM      5  C   UNL     1      48.891 134.945  22.187  1.00  0.00     0.016 A 
ATOM      6  C   UNL     1      49.952 134.885  23.112  1.00  0.00     0.012 A 
ATOM      7  C   UNL     1      48.891 135.963  21.218  1.00  0.00     0.012 A 
ATOM      8  C   UNL     1      50.990 135.819  23.059  1.00  0.00     0.001 A 
ATOM      9  C   UNL     1      49.933 136.895  21.168  1.00  0.00     0.001 A 
ATOM     10  C   UNL     1      50.982 136.823  22.087  1.00  0.00     0.000 A 
ENDBRANCH   2   5
ENDBRANCH   1   2
BRANCH   1  11
ATOM     11  C   UNL     1      46.492 132.108  21.160  1.00  0.00     0.038 C 
BRANCH  11  12
ATOM     12  C   UNL     1      45.056 132.382  20.619  1.00  0.00     0.035 C 
ATOM     13  C   UNL     1      44.016 131.951  21.684  1.00  0.00     0.007 C 
ATOM     14  C   UNL     1      44.759 131.650  19.274  1.00  0.00     0.139 C 
ATOM     15  C   UNL     1      42.572 132.179  21.217  1.00  0.00     0.001 C 
ATOM     16  C   UNL     1      45.684 132.054  18.142  1.00  0.00     0.023 C 
ATOM     17  C   UNL     1      43.308 131.948  18.828  1.00  0.00     0.054 C 
ATOM     18  C   UNL     1      42.297 131.478  19.882  1.00  0.00     0.011 C 
ATOM     19  C   UNL     1      45.333 131.817  16.860  1.00  0.00    -0.020 A 
ATOM     20  C   UNL     1      43.053 131.333  17.473  1.00  0.00    -0.011 C 
ATOM     21  C   UNL     1      46.279 131.975  15.832  1.00  0.00     0.008 A 
ATOM     22  C   UNL     1      44.019 131.373  16.534  1.00  0.00    -0.022 A 
ATOM     23  C   UNL     1      45.956 131.637  14.515  1.00  0.00     0.001 A 
ATOM     24  C   UNL     1      43.723 131.008  15.208  1.00  0.00     0.008 A 
ATOM     25  C   UNL     1      44.688 131.141  14.208  1.00  0.00     0.001 A 
ATOM     26  F   UNL     1      44.901 130.280  19.461  1.00  0.00    -0.238 F 
ENDBRANCH  11  12
ENDBRANCH   1  11
TORSDOF 5
ENDMDL
MODEL 9
REMARK VINA RESULT:      -5.5      1.570      2.399
REMARK SMILES O/C(=C\C[C@@H]1CCC[C@@H]2C=c3ccccc3=C[C@@]12F)c1ccccc1
REMARK SMILES IDX 3 1 2 2 1 3 20 5 21 6 25 7 22 8 24 9 23 10 4 11 5 12 6 13
REMARK SMILES IDX 18 14 7 15 17 16 9 17 8 18 16 19 10 20 15 21 11 22 14 23
REMARK SMILES IDX 12 24 13 25 19 26
REMARK H PARENT 1 4
ROOT
ATOM      1  C   UNL     1      45.972 131.836  16.461  1.00  0.00     0.020 C 
ENDROOT
BRANCH   1   2
ATOM      2  C   UNL     1      45.648 131.264  15.290  1.00  0.00     0.118 C 
BRANCH   2   3
ATOM      3  O   UNL     1      44.308 131.213  14.901  1.00  0.00    -0.508 OA
ATOM      4  H   UNL     1      43.988 130.600  14.160  1.00  0.00     0.293 HD
ENDBRANCH   2   3
BRANCH   2   5
ATOM      5  C   UNL     1      46.692 130.678  14.412  1.00  0.00     0.016 A 
ATOM      6  C   UNL     1      47.272 129.428  14.701  1.00  0.00     0.012 A 
ATOM      7  C   UNL     1      47.126 131.384  13.277  1.00  0.00     0.012 A 
ATOM      8  C   UNL     1      48.258 128.896  13.865  1.00  0.00     0.001 A 
ATOM      9  C   UNL     1      48.112 130.847  12.443  1.00  0.00     0.001 A 
ATOM     10  C   UNL     1      48.678 129.604  12.736  1.00  0.00     0.000 A 
ENDBRANCH   2   5
ENDBRANCH   1   2
BRANCH   1  11
ATOM     11  C   UNL     1      45.677 131.188  17.789  1.00  0.00     0.038 C 
BRANCH  11  12
ATOM     12  C   UNL     1      44.161 131.214  18.149  1.00  0.00     0.035 C 
ATOM     13  C   UNL     1      43.421 132.174  17.184  1.00  0.00     0.007 C 
ATOM     14  C   UNL     1      43.889 131.644  19.623  1.00  0.00     0.139 C 
ATOM     15  C   UNL     1      41.918 132.262  17.485  1.00  0.00     0.001 C 
ATOM     16  C   UNL     1      44.518 130.725  20.653  1.00  0.00     0.023 C 
ATOM     17  C   UNL     1      42.365 131.675  19.885  1.00  0.00     0.054 C 
ATOM     18  C   UNL     1      41.661 132.660  18.943  1.00  0.00     0.011 C 
ATOM     19  C   UNL     1      44.073 130.729  21.929  1.00  0.00    -0.020 A 
ATOM     20  C   UNL     1      42.102 131.982  21.339  1.00  0.00    -0.011 C 
ATOM     21  C   UNL     1      44.800 130.057  22.927  1.00  0.00     0.008 A 
ATOM     22  C   UNL     1      42.889 131.436  22.286  1.00  0.00    -0.022 A 
ATOM     23  C   UNL     1      44.404 130.137  24.265  1.00  0.00     0.001 A 
ATOM     24  C   UNL     1      42.526 131.532  23.642  1.00  0.00     0.008 A 
ATOM     25  C   UNL     1      43.281 130.884  24.622  1.00  0.00     0.001 A 
ATOM     26  F   UNL     1      44.407 132.917  19.828  1.00  0.00    -0.238 F 
ENDBRANCH  11  12
ENDBRANCH   1  11
TORSDOF 5
ENDMDL


