REMARK SMILES Cc1cccc(C(=O)/N=C(/S)Oc2nccc3ccc(-c4cccc([C@H]5CO5)c4)cc23)c1
REMARK SMILES IDX 10 1 11 2 9 4 7 5 8 6 6 7 5 8 32 9 4 10 2 11 3 12 1 13 12 14
REMARK SMILES IDX 13 15 14 16 31 17 15 18 30 19 17 20 16 21 20 22 18 23 19 24
REMARK SMILES IDX 21 25 22 26 29 27 23 28 25 29 24 30 26 31 28 32 27 33
REMARK H PARENT 11 3
ROOT
ATOM      1  C   UNL     1      -3.202   3.780  -0.474  1.00  0.00     0.257 C 
ENDROOT
BRANCH   1   2
ATOM      2  S   UNL     1      -4.905   3.997   0.011  1.00  0.00    -0.084 SA
ATOM      3  H   UNL     1      -4.641   5.267   0.559  1.00  0.00     0.113 HD
ENDBRANCH   1   2
BRANCH   1   4
ATOM      4  N   UNL     1      -2.833   4.171  -1.661  1.00  0.00    -0.167 NA
BRANCH   4   5
ATOM      5  C   UNL     1      -1.549   3.974  -2.276  1.00  0.00     0.280 C 
ATOM      6  O   UNL     1      -1.084   4.896  -2.998  1.00  0.00    -0.267 OA
BRANCH   5   7
ATOM      7  C   UNL     1      -0.783   2.709  -2.140  1.00  0.00     0.042 A 
ATOM      8  C   UNL     1       0.621   2.730  -2.221  1.00  0.00     0.014 A 
ATOM      9  C   UNL     1      -1.437   1.479  -1.941  1.00  0.00     0.017 A 
ATOM     10  C   UNL     1       1.355   1.550  -2.083  1.00  0.00     0.001 A 
ATOM     11  C   UNL     1      -0.699   0.295  -1.784  1.00  0.00    -0.050 A 
ATOM     12  C   UNL     1       0.701   0.336  -1.871  1.00  0.00     0.003 A 
ATOM     13  C   UNL     1      -1.409  -1.006  -1.551  1.00  0.00     0.044 C 
ENDBRANCH   5   7
ENDBRANCH   4   5
ENDBRANCH   1   4
BRANCH   1  14
ATOM     14  O   UNL     1      -2.321   3.177   0.430  1.00  0.00    -0.414 OA
BRANCH  14  15
ATOM     15  C   UNL     1      -1.078   3.717   0.782  1.00  0.00     0.229 A 
ATOM     16  N   UNL     1      -0.852   5.055   0.662  1.00  0.00    -0.221 NA
ATOM     17  C   UNL     1      -0.050   2.875   1.243  1.00  0.00     0.045 A 
ATOM     18  C   UNL     1       0.347   5.615   0.969  1.00  0.00     0.116 A 
ATOM     19  C   UNL     1      -0.236   1.488   1.346  1.00  0.00     0.023 A 
ATOM     20  C   UNL     1       1.213   3.434   1.539  1.00  0.00    -0.011 A 
ATOM     21  C   UNL     1       1.403   4.816   1.410  1.00  0.00     0.029 A 
ATOM     22  C   UNL     1       0.833   0.647   1.696  1.00  0.00    -0.018 A 
ATOM     23  C   UNL     1       2.268   2.599   1.928  1.00  0.00     0.009 A 
ATOM     24  C   UNL     1       2.083   1.215   1.994  1.00  0.00     0.009 A 
BRANCH  22  25
ATOM     25  C   UNL     1       0.654  -0.824   1.678  1.00  0.00    -0.018 A 
ATOM     26  C   UNL     1      -0.505  -1.411   2.217  1.00  0.00     0.009 A 
ATOM     27  C   UNL     1       1.617  -1.648   1.068  1.00  0.00     0.015 A 
ATOM     28  C   UNL     1      -0.694  -2.793   2.150  1.00  0.00     0.001 A 
ATOM     29  C   UNL     1       1.412  -3.033   0.972  1.00  0.00    -0.016 A 
ATOM     30  C   UNL     1       0.261  -3.603   1.532  1.00  0.00     0.006 A 
BRANCH  29  31
ATOM     31  C   UNL     1       2.436  -3.907   0.310  1.00  0.00     0.174 C 
ATOM     32  O   UNL     1       2.809  -3.412  -0.955  1.00  0.00    -0.368 OA
ATOM     33  C   UNL     1       2.007  -4.568  -0.944  1.00  0.00     0.198 C 
ENDBRANCH  29  31
ENDBRANCH  22  25
ENDBRANCH  14  15
ENDBRANCH   1  14
TORSDOF 8


