REMARK SMILES C=Cc1cccc(-c2nc3ccccc3[n-]2)c1NN
REMARK SMILES IDX 3 1 4 2 5 3 6 4 7 5 17 6 2 7 1 8 18 9 19 11 8 14 9 15 16 16
REMARK SMILES IDX 10 17 15 18 11 19 14 20 12 21 13 22
REMARK H PARENT 18 10 19 12 19 13
ROOT
ATOM      1  C   UNL     1       2.119   0.634   1.485  1.00  0.00    -0.001 A 
ATOM      2  C   UNL     1       2.626  -0.477   2.184  1.00  0.00     0.010 A 
ATOM      3  C   UNL     1       2.008  -1.720   2.082  1.00  0.00     0.001 A 
ATOM      4  C   UNL     1       0.874  -1.878   1.291  1.00  0.00     0.010 A 
ATOM      5  C   UNL     1       0.337  -0.793   0.576  1.00  0.00    -0.001 A 
ATOM      6  C   UNL     1       0.969   0.475   0.673  1.00  0.00     0.063 A 
ENDROOT
BRANCH   1   7
ATOM      7  C   UNL     1       2.732   1.976   1.660  1.00  0.00     0.002 C 
ATOM      8  C   UNL     1       4.026   2.165   1.917  1.00  0.00     0.009 C 
ENDBRANCH   1   7
BRANCH   6   9
ATOM      9  N   UNL     1       0.433   1.607  -0.030  1.00  0.00    -0.323 N 
ATOM     10  H   UNL     1      -0.513   1.963   0.230  1.00  0.00     0.181 HD
BRANCH   9  11
ATOM     11  N   UNL     1       1.046   2.097  -1.194  1.00  0.00    -0.250 NA
ATOM     12  H   UNL     1       1.185   1.291  -1.846  1.00  0.00     0.143 HD
ATOM     13  H   UNL     1       1.991   2.458  -0.937  1.00  0.00     0.143 HD
ENDBRANCH   9  11
ENDBRANCH   6   9
BRANCH   5  14
ATOM     14  C   UNL     1      -0.866  -1.026  -0.270  1.00  0.00    -0.049 A 
ATOM     15  N   UNL     1      -1.623  -2.153  -0.170  1.00  0.00    -0.435 NA
ATOM     16  N   UNL     1      -1.295  -0.157  -1.225  1.00  0.00    -0.435 NA
ATOM     17  C   UNL     1      -2.567  -1.964  -1.103  1.00  0.00    -0.038 A 
ATOM     18  C   UNL     1      -2.371  -0.774  -1.731  1.00  0.00    -0.038 A 
ATOM     19  C   UNL     1      -3.619  -2.812  -1.439  1.00  0.00     0.004 A 
ATOM     20  C   UNL     1      -3.210  -0.330  -2.750  1.00  0.00     0.004 A 
ATOM     21  C   UNL     1      -4.490  -2.397  -2.465  1.00  0.00     0.000 A 
ATOM     22  C   UNL     1      -4.286  -1.160  -3.118  1.00  0.00     0.000 A 
ENDBRANCH   5  14
TORSDOF 4


