REMARK SMILES C#Cc1c[nH+]cc([NH2+]c2cc(C)cc(-n3nc4cc(F)ccc4[nH+]3)c2[O-])c1
REMARK SMILES IDX 8 1 7 4 3 5 4 6 27 7 5 8 6 9 2 11 1 12 9 13 10 14 25 15
REMARK SMILES IDX 11 16 14 17 13 18 26 19 12 20 15 21 16 22 24 23 17 24 23 25
REMARK SMILES IDX 18 26 22 27 19 28 21 29 20 31
REMARK H PARENT 8 2 8 3 5 10 24 30
ROOT
ATOM      1  N   UNL     1       2.048  -1.095   2.646  1.00  0.00    -0.277 N 
ATOM      2  H   UNL     1       2.647  -1.494   1.886  1.00  0.00     0.358 HD
ATOM      3  H   UNL     1       2.686  -0.908   3.455  1.00  0.00     0.358 HD
ENDROOT
BRANCH   1   4
ATOM      4  C   UNL     1       1.034  -2.044   3.037  1.00  0.00     0.200 A 
ATOM      5  C   UNL     1      -0.466  -3.878   2.507  1.00  0.00     0.094 A 
ATOM      6  C   UNL     1      -0.968  -3.819   3.811  1.00  0.00     0.324 A 
ATOM      7  C   UNL     1       0.538  -2.986   2.121  1.00  0.00     0.098 A 
ATOM      8  N   UNL     1      -0.482  -2.901   4.689  1.00  0.00    -0.212 N 
ATOM      9  C   UNL     1       0.494  -2.022   4.334  1.00  0.00     0.375 A 
ATOM     10  H   UNL     1      -0.869  -2.869   5.659  1.00  0.00     0.453 HD
BRANCH   5  11
ATOM     11  C   UNL     1      -0.978  -4.846   1.573  1.00  0.00    -0.064 C 
ATOM     12  C   UNL     1      -1.407  -5.656   0.790  1.00  0.00     0.010 C 
ENDBRANCH   5  11
ENDBRANCH   1   4
BRANCH   1  13
ATOM     13  C   UNL     1       1.427   0.134   2.211  1.00  0.00     0.129 A 
ATOM     14  C   UNL     1       1.135   1.139   3.149  1.00  0.00     0.071 A 
ATOM     15  C   UNL     1       1.061   0.326   0.861  1.00  0.00    -0.013 A 
ATOM     16  C   UNL     1       0.511   2.328   2.754  1.00  0.00    -0.043 A 
ATOM     17  C   UNL     1       0.415   1.512   0.458  1.00  0.00     0.126 A 
ATOM     18  C   UNL     1       0.140   2.503   1.415  1.00  0.00     0.037 A 
ATOM     19  O   UNL     1       1.326  -0.672  -0.072  1.00  0.00    -0.867 OA
ATOM     20  C   UNL     1       0.177   3.378   3.773  1.00  0.00     0.044 C 
BRANCH  17  21
ATOM     21  N   UNL     1       0.041   1.719  -0.919  1.00  0.00    -0.013 N 
ATOM     22  N   UNL     1       0.707   1.202  -1.952  1.00  0.00     0.054 NA
ATOM     23  N   UNL     1      -0.999   2.453  -1.313  1.00  0.00    -0.161 N 
ATOM     24  C   UNL     1       0.050   1.633  -3.043  1.00  0.00     0.252 A 
ATOM     25  C   UNL     1      -1.001   2.402  -2.651  1.00  0.00     0.198 A 
ATOM     26  C   UNL     1       0.322   1.379  -4.384  1.00  0.00     0.103 A 
ATOM     27  C   UNL     1      -1.879   2.986  -3.559  1.00  0.00     0.061 A 
ATOM     28  C   UNL     1      -0.542   1.954  -5.339  1.00  0.00     0.128 A 
ATOM     29  C   UNL     1      -1.638   2.753  -4.928  1.00  0.00     0.044 A 
ATOM     30  H   UNL     1      -1.688   2.939  -0.697  1.00  0.00     0.340 HD
ATOM     31  F   UNL     1      -0.324   1.739  -6.660  1.00  0.00    -0.207 F 
ENDBRANCH  17  21
ENDBRANCH   1  13
TORSDOF 4


