REMARK SMILES Cc1ccc(-c2cc(C=O)c(NC(F)(F)C(=O)Cl)cc2F)cc1
REMARK SMILES IDX 12 1 11 3 6 4 7 5 20 6 8 7 19 8 21 9 5 10 2 11 3 12 23 13
REMARK SMILES IDX 4 14 22 15 1 16 9 17 10 18 13 19 14 20 15 21 16 22 17 23
REMARK SMILES IDX 18 24
REMARK H PARENT 12 2
ROOT
ATOM      1  N   UNL     1      -1.486   3.171  -2.187  1.00  0.00    -0.319 N 
ATOM      2  H   UNL     1      -0.933   3.481  -3.018  1.00  0.00     0.167 HD
ENDROOT
BRANCH   1   3
ATOM      3  C   UNL     1      -0.920   2.165  -1.321  1.00  0.00     0.053 A 
ATOM      4  C   UNL     1       0.176   0.073   0.234  1.00  0.00     0.018 A 
ATOM      5  C   UNL     1       1.003   1.075  -0.297  1.00  0.00     0.025 A 
ATOM      6  C   UNL     1      -1.205   0.127  -0.013  1.00  0.00     0.133 A 
ATOM      7  C   UNL     1       0.472   2.131  -1.055  1.00  0.00     0.038 A 
ATOM      8  C   UNL     1      -1.742   1.159  -0.784  1.00  0.00     0.066 A 
ATOM      9  F   UNL     1      -2.032  -0.847   0.446  1.00  0.00    -0.206 F 
BRANCH   4  10
ATOM     10  C   UNL     1       0.764  -1.019   1.047  1.00  0.00    -0.015 A 
ATOM     11  C   UNL     1       1.906  -3.075   2.601  1.00  0.00    -0.051 A 
ATOM     12  C   UNL     1       2.472  -2.723   1.367  1.00  0.00     0.004 A 
ATOM     13  C   UNL     1       0.755  -2.409   3.045  1.00  0.00     0.004 A 
ATOM     14  C   UNL     1       1.911  -1.697   0.601  1.00  0.00     0.009 A 
ATOM     15  C   UNL     1       0.193  -1.383   2.279  1.00  0.00     0.009 A 
ATOM     16  C   UNL     1       2.485  -4.201   3.404  1.00  0.00     0.044 C 
ENDBRANCH   4  10
BRANCH   7  17
ATOM     17  C   UNL     1       1.405   3.193  -1.497  1.00  0.00     0.262 C 
ATOM     18  O   UNL     1       1.001   4.346  -1.803  1.00  0.00    -0.298 OA
ENDBRANCH   7  17
ENDBRANCH   1   3
BRANCH   1  19
ATOM     19  C   UNL     1      -2.785   3.814  -1.965  1.00  0.00     0.397 C 
ATOM     20  F   UNL     1      -3.803   2.926  -2.263  1.00  0.00    -0.173 F 
ATOM     21  F   UNL     1      -2.907   4.901  -2.813  1.00  0.00    -0.173 F 
BRANCH  19  22
ATOM     22  C   UNL     1      -2.901   4.300  -0.545  1.00  0.00     0.313 C 
ATOM     23  O   UNL     1      -2.119   5.136  -0.122  1.00  0.00    -0.272 OA
ATOM     24  Cl  UNL     1      -4.151   3.680   0.526  1.00  0.00    -0.035 Cl
ENDBRANCH  19  22
ENDBRANCH   1  19
TORSDOF 5


