REMARK SMILES Cc1ccnc(-c2ccc3[nH]c(Nc4cn5ccccc5[nH+]4)cc3c2)c1F
REMARK SMILES IDX 7 1 8 2 9 3 10 4 11 5 12 6 23 7 24 8 25 9 6 11 2 12 3 13
REMARK SMILES IDX 26 14 4 15 5 16 1 17 27 18 13 19 14 21 15 22 22 23 16 24
REMARK SMILES IDX 21 25 17 26 20 27 18 28 19 29
REMARK H PARENT 11 10 13 20 22 30
ROOT
ATOM      1  C   UNL     1       2.974  -0.646  -0.523  1.00  0.00     0.004 A 
ATOM      2  C   UNL     1       2.231  -1.836  -0.747  1.00  0.00     0.012 A 
ATOM      3  C   UNL     1       0.827  -1.809  -0.808  1.00  0.00     0.027 A 
ATOM      4  C   UNL     1       0.191  -0.581  -0.648  1.00  0.00     0.048 A 
ATOM      5  N   UNL     1      -1.129  -0.335  -0.696  1.00  0.00    -0.329 N 
ATOM      6  C   UNL     1      -1.249   1.002  -0.512  1.00  0.00     0.168 A 
ATOM      7  C   UNL     1      -0.007   1.611  -0.370  1.00  0.00     0.072 A 
ATOM      8  C   UNL     1       0.899   0.575  -0.450  1.00  0.00     0.004 A 
ATOM      9  C   UNL     1       2.290   0.586  -0.387  1.00  0.00     0.021 A 
ATOM     10  H   UNL     1      -1.887  -1.027  -0.890  1.00  0.00     0.169 HD
ENDROOT
BRANCH   1  11
ATOM     11  C   UNL     1       4.454  -0.705  -0.484  1.00  0.00     0.106 A 
ATOM     12  C   UNL     1       6.608  -0.022   0.414  1.00  0.00    -0.012 A 
ATOM     13  C   UNL     1       7.233  -0.897  -0.484  1.00  0.00     0.026 A 
ATOM     14  C   UNL     1       5.206   0.064   0.427  1.00  0.00     0.152 A 
ATOM     15  C   UNL     1       6.456  -1.655  -1.359  1.00  0.00     0.112 A 
ATOM     16  N   UNL     1       5.103  -1.544  -1.339  1.00  0.00    -0.253 NA
ATOM     17  C   UNL     1       7.425   0.765   1.397  1.00  0.00     0.047 C 
ATOM     18  F   UNL     1       4.589   0.848   1.350  1.00  0.00    -0.204 F 
ENDBRANCH   1  11
BRANCH   6  19
ATOM     19  N   UNL     1      -2.492   1.716  -0.559  1.00  0.00    -0.257 N 
ATOM     20  H   UNL     1      -2.471   2.726  -0.822  1.00  0.00     0.265 HD
BRANCH  19  21
ATOM     21  C   UNL     1      -3.761   1.129  -0.243  1.00  0.00     0.257 A 
ATOM     22  C   UNL     1      -3.982   0.014   0.557  1.00  0.00     0.248 A 
ATOM     23  N   UNL     1      -4.942   1.671  -0.616  1.00  0.00    -0.243 N 
ATOM     24  N   UNL     1      -5.314  -0.134   0.653  1.00  0.00    -0.233 N 
ATOM     25  C   UNL     1      -5.865   0.867  -0.056  1.00  0.00     0.230 A 
ATOM     26  C   UNL     1      -6.041  -1.062   1.326  1.00  0.00     0.168 A 
ATOM     27  C   UNL     1      -7.249   1.007  -0.145  1.00  0.00     0.081 A 
ATOM     28  C   UNL     1      -7.440  -0.974   1.270  1.00  0.00     0.035 A 
ATOM     29  C   UNL     1      -8.042   0.064   0.531  1.00  0.00     0.010 A 
ATOM     30  H   UNL     1      -5.101   2.525  -1.197  1.00  0.00     0.267 HD
ENDBRANCH  19  21
ENDBRANCH   6  19
TORSDOF 3


