REMARK SMILES CC(=O)n1nc2cc(-c3cnc(F)cc3C)ccc2c1C
REMARK SMILES IDX 4 1 5 2 6 3 7 4 8 5 17 6 18 7 19 8 20 9 21 10 2 11 1 12 3 13
REMARK SMILES IDX 9 14 10 15 15 16 11 17 14 18 12 19 16 20 13 21
REMARK H PARENT
ROOT
ATOM      1  N   UNL     1       2.608   1.455  -1.461  1.00  0.00    -0.204 N 
ATOM      2  N   UNL     1       2.596   0.334  -0.744  1.00  0.00    -0.165 NA
ATOM      3  C   UNL     1       1.310  -0.038  -0.620  1.00  0.00     0.094 A 
ATOM      4  C   UNL     1       0.812  -1.152   0.049  1.00  0.00     0.039 A 
ATOM      5  C   UNL     1      -0.587  -1.348   0.060  1.00  0.00    -0.014 A 
ATOM      6  C   UNL     1      -1.433  -0.430  -0.618  1.00  0.00     0.009 A 
ATOM      7  C   UNL     1      -0.895   0.686  -1.284  1.00  0.00     0.013 A 
ATOM      8  C   UNL     1       0.490   0.849  -1.260  1.00  0.00     0.023 A 
ATOM      9  C   UNL     1       1.334   1.802  -1.796  1.00  0.00     0.052 A 
ATOM     10  C   UNL     1       0.930   3.001  -2.602  1.00  0.00     0.067 C 
ENDROOT
BRANCH   1  11
ATOM     11  C   UNL     1       3.825   2.146  -1.797  1.00  0.00     0.243 C 
ATOM     12  C   UNL     1       5.146   1.613  -1.338  1.00  0.00     0.117 C 
ATOM     13  O   UNL     1       3.796   3.204  -2.480  1.00  0.00    -0.273 OA
ENDBRANCH   1  11
BRANCH   5  14
ATOM     14  C   UNL     1      -1.161  -2.526   0.749  1.00  0.00     0.003 A 
ATOM     15  C   UNL     1      -0.757  -3.810   0.350  1.00  0.00     0.123 A 
ATOM     16  C   UNL     1      -2.099  -2.404   1.802  1.00  0.00    -0.037 A 
ATOM     17  N   UNL     1      -1.283  -4.913   0.942  1.00  0.00    -0.228 NA
ATOM     18  C   UNL     1      -2.631  -3.568   2.378  1.00  0.00     0.064 A 
ATOM     19  C   UNL     1      -2.205  -4.820   1.933  1.00  0.00     0.213 A 
ATOM     20  C   UNL     1      -2.555  -1.063   2.315  1.00  0.00     0.045 C 
ATOM     21  F   UNL     1      -2.708  -5.947   2.493  1.00  0.00    -0.185 F 
ENDBRANCH   5  14
TORSDOF 2


