REMARK SMILES CC(C)[C@H](N=O)C(=O)N(c1ccc2[nH]ccc2c1)c1cccc2c1CCC2
REMARK SMILES IDX 7 1 8 2 4 3 2 4 1 5 3 6 5 7 6 8 9 9 10 10 11 11 18 12 12 13
REMARK SMILES IDX 17 14 13 15 16 16 14 17 15 18 19 20 20 21 24 22 21 23 23 24
REMARK SMILES IDX 25 25 22 26 27 27 26 28
REMARK H PARENT 14 19
ROOT
ATOM      1  C   UNL     1      -1.563  -1.528   1.670  1.00  0.00     0.260 C 
ATOM      2  O   UNL     1      -2.747  -1.895   1.905  1.00  0.00    -0.271 OA
ENDROOT
BRANCH   1   3
ATOM      3  C   UNL     1      -0.514  -1.700   2.756  1.00  0.00     0.243 C 
BRANCH   3   4
ATOM      4  C   UNL     1      -0.044  -3.178   2.865  1.00  0.00     0.021 C 
ATOM      5  C   UNL     1       0.614  -3.654   1.558  1.00  0.00     0.010 C 
ATOM      6  C   UNL     1       0.949  -3.363   4.025  1.00  0.00     0.010 C 
ENDBRANCH   3   4
BRANCH   3   7
ATOM      7  N   UNL     1      -1.034  -1.219   4.021  1.00  0.00    -0.056 NA
ATOM      8  O   UNL     1      -1.946  -1.764   4.569  1.00  0.00    -0.150 OA
ENDBRANCH   3   7
ENDBRANCH   1   3
BRANCH   1   9
ATOM      9  N   UNL     1      -1.227  -1.013   0.361  1.00  0.00    -0.279 N 
BRANCH   9  10
ATOM     10  C   UNL     1      -2.055  -1.311  -0.784  1.00  0.00     0.050 A 
ATOM     11  C   UNL     1      -2.584  -2.617  -0.973  1.00  0.00     0.029 A 
ATOM     12  C   UNL     1      -2.332  -0.306  -1.742  1.00  0.00     0.037 A 
ATOM     13  C   UNL     1      -3.384  -2.917  -2.089  1.00  0.00     0.029 A 
ATOM     14  C   UNL     1      -3.127  -0.639  -2.834  1.00  0.00     0.001 A 
ATOM     15  C   UNL     1      -3.637  -1.897  -3.002  1.00  0.00     0.045 A 
ATOM     16  C   UNL     1      -3.556   0.125  -3.897  1.00  0.00     0.028 A 
ATOM     17  N   UNL     1      -4.371  -1.969  -4.125  1.00  0.00    -0.361 N 
ATOM     18  C   UNL     1      -4.325  -0.734  -4.676  1.00  0.00     0.083 A 
ATOM     19  H   UNL     1      -4.876  -2.803  -4.498  1.00  0.00     0.166 HD
ENDBRANCH   9  10
BRANCH   9  20
ATOM     20  C   UNL     1      -0.071  -0.178   0.176  1.00  0.00     0.052 A 
ATOM     21  C   UNL     1       1.003  -0.619  -0.618  1.00  0.00     0.027 A 
ATOM     22  C   UNL     1       0.002   1.102   0.750  1.00  0.00    -0.021 A 
ATOM     23  C   UNL     1       2.128   0.202  -0.807  1.00  0.00     0.002 A 
ATOM     24  C   UNL     1       1.099   1.903   0.554  1.00  0.00    -0.043 A 
ATOM     25  C   UNL     1      -1.034   1.779   1.568  1.00  0.00     0.038 C 
ATOM     26  C   UNL     1       2.181   1.473  -0.218  1.00  0.00     0.004 A 
ATOM     27  C   UNL     1       0.962   3.216   1.222  1.00  0.00     0.036 C 
ATOM     28  C   UNL     1      -0.453   3.182   1.827  1.00  0.00     0.010 C 
ENDBRANCH   9  20
ENDBRANCH   1   9
TORSDOF 6


