REMARK SMILES C[C@@H]1CCc2ccc(-c3cccnc3F)nc2[C@H]1F
REMARK SMILES IDX 1 1 2 2 3 3 4 4 5 5 6 6 7 7 8 8 16 9 17 10 18 11 19 12 9 13
REMARK SMILES IDX 10 14 14 15 11 16 13 17 12 18 15 19
REMARK H PARENT
ROOT
ATOM      1  C   UNL     1      -4.289   1.693  -0.275  1.00  0.00     0.011 C 
ATOM      2  C   UNL     1      -3.240   0.591  -0.081  1.00  0.00     0.027 C 
ATOM      3  C   UNL     1      -3.272   0.067   1.363  1.00  0.00     0.011 C 
ATOM      4  C   UNL     1      -2.327  -1.128   1.520  1.00  0.00     0.038 C 
ATOM      5  C   UNL     1      -0.958  -0.861   0.942  1.00  0.00    -0.023 A 
ATOM      6  C   UNL     1       0.112  -1.690   1.301  1.00  0.00     0.008 A 
ATOM      7  C   UNL     1       1.371  -1.500   0.732  1.00  0.00     0.029 A 
ATOM      8  C   UNL     1       1.558  -0.479  -0.213  1.00  0.00     0.075 A 
ATOM      9  N   UNL     1       0.501   0.309  -0.552  1.00  0.00    -0.249 NA
ATOM     10  C   UNL     1      -0.743   0.141  -0.028  1.00  0.00     0.079 A 
ATOM     11  C   UNL     1      -1.829   1.112  -0.420  1.00  0.00     0.218 C 
ATOM     12  F   UNL     1      -1.747   1.365  -1.780  1.00  0.00    -0.240 F 
ENDROOT
BRANCH   8  13
ATOM     13  C   UNL     1       2.882  -0.238  -0.841  1.00  0.00     0.055 A 
ATOM     14  C   UNL     1       3.761  -1.303  -1.111  1.00  0.00     0.017 A 
ATOM     15  C   UNL     1       3.284   1.063  -1.205  1.00  0.00     0.222 A 
ATOM     16  C   UNL     1       4.996  -1.062  -1.713  1.00  0.00     0.021 A 
ATOM     17  N   UNL     1       4.495   1.268  -1.789  1.00  0.00    -0.228 NA
ATOM     18  C   UNL     1       5.350   0.244  -2.048  1.00  0.00     0.114 A 
ATOM     19  F   UNL     1       2.488   2.133  -0.957  1.00  0.00    -0.184 F 
ENDBRANCH   8  13
TORSDOF 1


