MODEL 1
REMARK VINA RESULT:      -9.8      0.000      0.000
REMARK SMILES C=Cc1cc(-c2ccc(C(C)=O)nc2)cc([NH2+]c2ccc(C)c(F)c2)c1[O-]
REMARK SMILES IDX 3 1 4 2 5 3 15 4 16 5 26 6 27 7 2 8 1 9 6 10 7 11 14 12 8 13
REMARK SMILES IDX 13 14 9 15 10 16 11 17 12 18 17 19 18 22 19 23 25 24 20 25
REMARK SMILES IDX 23 26 21 27 24 28 22 29
REMARK H PARENT 17 20 17 21
ROOT
ATOM      1  C   UNL     1      42.850 132.196  19.871  1.00  0.00    -0.028 A 
ATOM      2  C   UNL     1      43.526 131.991  18.654  1.00  0.00     0.016 A 
ATOM      3  C   UNL     1      44.740 131.287  18.612  1.00  0.00    -0.010 A 
ATOM      4  C   UNL     1      45.275 130.775  19.803  1.00  0.00     0.076 A 
ATOM      5  C   UNL     1      44.610 130.951  21.028  1.00  0.00     0.127 A 
ATOM      6  C   UNL     1      43.393 131.664  21.056  1.00  0.00    -0.038 A 
ATOM      7  O   UNL     1      42.730 131.848  22.266  1.00  0.00    -0.868 OA
ENDROOT
BRANCH   1   8
ATOM      8  C   UNL     1      41.557 132.928  19.925  1.00  0.00    -0.000 C 
ATOM      9  C   UNL     1      41.074 133.495  21.031  1.00  0.00     0.009 C 
ENDBRANCH   1   8
BRANCH   3  10
ATOM     10  C   UNL     1      45.448 131.084  17.322  1.00  0.00     0.000 A 
ATOM     11  C   UNL     1      45.490 132.102  16.356  1.00  0.00     0.013 A 
ATOM     12  C   UNL     1      46.097 129.871  17.037  1.00  0.00     0.120 A 
ATOM     13  C   UNL     1      46.161 131.901  15.148  1.00  0.00     0.033 A 
ATOM     14  N   UNL     1      46.743 129.698  15.854  1.00  0.00    -0.253 NA
ATOM     15  C   UNL     1      46.795 130.673  14.905  1.00  0.00     0.106 A 
BRANCH  15  16
ATOM     16  C   UNL     1      47.515 130.424  13.638  1.00  0.00     0.178 C 
ATOM     17  C   UNL     1      48.510 129.309  13.533  1.00  0.00     0.095 C 
ATOM     18  O   UNL     1      47.299 131.150  12.630  1.00  0.00    -0.293 OA
ENDBRANCH  15  16
ENDBRANCH   3  10
BRANCH   5  19
ATOM     19  N   UNL     1      45.201 130.442  22.244  1.00  0.00    -0.282 N 
ATOM     20  H   UNL     1      46.242 130.389  22.155  1.00  0.00     0.358 HD
ATOM     21  H   UNL     1      45.007 131.098  23.037  1.00  0.00     0.358 HD
BRANCH  19  22
ATOM     22  C   UNL     1      44.656 129.139  22.545  1.00  0.00     0.137 A 
ATOM     23  C   UNL     1      43.491 129.014  23.320  1.00  0.00     0.068 A 
ATOM     24  C   UNL     1      45.307 127.975  22.098  1.00  0.00     0.107 A 
ATOM     25  C   UNL     1      42.983 127.751  23.636  1.00  0.00     0.012 A 
ATOM     26  C   UNL     1      44.799 126.712  22.413  1.00  0.00     0.132 A 
ATOM     27  C   UNL     1      43.626 126.592  23.176  1.00  0.00    -0.015 A 
ATOM     28  F   UNL     1      45.453 125.605  21.977  1.00  0.00    -0.206 F 
ATOM     29  C   UNL     1      43.096 125.235  23.539  1.00  0.00     0.047 C 
ENDBRANCH  19  22
ENDBRANCH   5  19
TORSDOF 5
ENDMDL
MODEL 2
REMARK VINA RESULT:      -8.2      0.710      1.058
REMARK SMILES C=Cc1cc(-c2ccc(C(C)=O)nc2)cc([NH2+]c2ccc(C)c(F)c2)c1[O-]
REMARK SMILES IDX 3 1 4 2 5 3 15 4 16 5 26 6 27 7 2 8 1 9 6 10 7 11 14 12 8 13
REMARK SMILES IDX 13 14 9 15 10 16 11 17 12 18 17 19 18 22 19 23 25 24 20 25
REMARK SMILES IDX 23 26 21 27 24 28 22 29
REMARK H PARENT 17 20 17 21
ROOT
ATOM      1  C   UNL     1      42.817 132.046  20.373  1.00  0.00    -0.028 A 
ATOM      2  C   UNL     1      43.469 131.870  19.139  1.00  0.00     0.016 A 
ATOM      3  C   UNL     1      44.648 131.114  19.046  1.00  0.00    -0.010 A 
ATOM      4  C   UNL     1      45.172 130.521  20.204  1.00  0.00     0.076 A 
ATOM      5  C   UNL     1      44.530 130.666  21.445  1.00  0.00     0.127 A 
ATOM      6  C   UNL     1      43.348 131.432  21.524  1.00  0.00    -0.038 A 
ATOM      7  O   UNL     1      42.708 131.587  22.750  1.00  0.00    -0.868 OA
ENDROOT
BRANCH   1   8
ATOM      8  C   UNL     1      41.561 132.833  20.480  1.00  0.00    -0.000 C 
ATOM      9  C   UNL     1      41.466 134.124  20.157  1.00  0.00     0.009 C 
ENDBRANCH   1   8
BRANCH   3  10
ATOM     10  C   UNL     1      45.332 130.943  17.738  1.00  0.00     0.000 A 
ATOM     11  C   UNL     1      46.127 129.815  17.485  1.00  0.00     0.013 A 
ATOM     12  C   UNL     1      45.197 131.903  16.722  1.00  0.00     0.120 A 
ATOM     13  C   UNL     1      46.763 129.663  16.251  1.00  0.00     0.033 A 
ATOM     14  N   UNL     1      45.827 131.734  15.529  1.00  0.00    -0.253 NA
ATOM     15  C   UNL     1      46.602 130.647  15.264  1.00  0.00     0.106 A 
BRANCH  15  16
ATOM     16  C   UNL     1      47.259 130.520  13.946  1.00  0.00     0.178 C 
ATOM     17  C   UNL     1      48.244 129.422  13.687  1.00  0.00     0.095 C 
ATOM     18  O   UNL     1      46.996 131.338  13.023  1.00  0.00    -0.293 OA
ENDBRANCH  15  16
ENDBRANCH   3  10
BRANCH   5  19
ATOM     19  N   UNL     1      45.110 130.071  22.626  1.00  0.00    -0.282 N 
ATOM     20  H   UNL     1      46.155 130.070  22.565  1.00  0.00     0.358 HD
ATOM     21  H   UNL     1      44.867 130.642  23.470  1.00  0.00     0.358 HD
BRANCH  19  22
ATOM     22  C   UNL     1      44.616 128.725  22.790  1.00  0.00     0.137 A 
ATOM     23  C   UNL     1      43.421 128.483  23.489  1.00  0.00     0.068 A 
ATOM     24  C   UNL     1      45.344 127.633  22.285  1.00  0.00     0.107 A 
ATOM     25  C   UNL     1      42.959 127.176  23.673  1.00  0.00     0.012 A 
ATOM     26  C   UNL     1      44.884 126.326  22.469  1.00  0.00     0.132 A 
ATOM     27  C   UNL     1      43.681 126.091  23.155  1.00  0.00    -0.015 A 
ATOM     28  F   UNL     1      45.612 125.290  21.980  1.00  0.00    -0.206 F 
ATOM     29  C   UNL     1      43.200 124.686  23.377  1.00  0.00     0.047 C 
ENDBRANCH  19  22
ENDBRANCH   5  19
TORSDOF 5
ENDMDL


