REMARK SMILES CC1=CCC=C[C@H]1C(=O)Oc1ccc(N(C(=O)CC#N)c2ccc3cc[nH]c3c2)c(F)c1
REMARK SMILES IDX 11 1 12 2 13 3 14 4 30 5 31 6 32 7 10 8 8 9 9 10 7 11 2 12
REMARK SMILES IDX 3 13 4 14 6 15 5 16 1 17 15 18 16 19 17 20 18 21 19 22 20 23
REMARK SMILES IDX 21 24 22 25 29 26 23 27 28 28 24 29 27 30 25 31 26 32
REMARK H PARENT 27 33
ROOT
ATOM      1  C   UNL     1      -1.211   0.040  -0.326  1.00  0.00     0.133 A 
ATOM      2  C   UNL     1      -0.846   1.142   0.468  1.00  0.00     0.049 A 
ATOM      3  C   UNL     1       0.315   1.863   0.180  1.00  0.00     0.034 A 
ATOM      4  C   UNL     1       1.116   1.508  -0.914  1.00  0.00     0.085 A 
ATOM      5  C   UNL     1       0.749   0.413  -1.712  1.00  0.00     0.151 A 
ATOM      6  F   UNL     1       1.534   0.025  -2.749  1.00  0.00    -0.205 F 
ATOM      7  C   UNL     1      -0.413  -0.307  -1.423  1.00  0.00     0.088 A 
ENDROOT
BRANCH   1   8
ATOM      8  O   UNL     1      -2.372  -0.709  -0.084  1.00  0.00    -0.426 OA
BRANCH   8   9
ATOM      9  C   UNL     1      -2.984  -0.879   1.165  1.00  0.00     0.322 C 
ATOM     10  O   UNL     1      -2.349  -0.659   2.232  1.00  0.00    -0.251 OA
BRANCH   9  11
ATOM     11  C   UNL     1      -4.381  -1.419   1.234  1.00  0.00     0.147 C 
ATOM     12  C   UNL     1      -5.295  -0.617   0.323  1.00  0.00    -0.059 C 
ATOM     13  C   UNL     1      -5.594  -1.062  -0.915  1.00  0.00    -0.023 C 
ATOM     14  C   UNL     1      -5.017  -2.346  -1.453  1.00  0.00     0.054 C 
ATOM     15  C   UNL     1      -4.373  -2.888   0.883  1.00  0.00    -0.012 C 
ATOM     16  C   UNL     1      -4.675  -3.315  -0.352  1.00  0.00    -0.026 C 
ATOM     17  C   UNL     1      -5.829   0.713   0.780  1.00  0.00     0.040 C 
ENDBRANCH   9  11
ENDBRANCH   8   9
ENDBRANCH   1   8
BRANCH   4  18
ATOM     18  N   UNL     1       2.314   2.251  -1.198  1.00  0.00    -0.277 N 
BRANCH  18  19
ATOM     19  C   UNL     1       2.446   2.963  -2.447  1.00  0.00     0.245 C 
ATOM     20  O   UNL     1       3.587   3.124  -2.959  1.00  0.00    -0.273 OA
BRANCH  19  21
ATOM     21  C   UNL     1       1.248   3.521  -3.160  1.00  0.00     0.220 C 
BRANCH  21  22
ATOM     22  C   UNL     1       0.870   2.652  -4.279  1.00  0.00     0.072 C 
ATOM     23  N   UNL     1       0.571   1.968  -5.162  1.00  0.00    -0.198 NA
ENDBRANCH  21  22
ENDBRANCH  19  21
ENDBRANCH  18  19
BRANCH  18  24
ATOM     24  C   UNL     1       3.376   2.283  -0.220  1.00  0.00     0.051 A 
ATOM     25  C   UNL     1       4.105   3.481   0.013  1.00  0.00     0.027 A 
ATOM     26  C   UNL     1       3.683   1.126   0.535  1.00  0.00     0.053 A 
ATOM     27  C   UNL     1       5.131   3.525   0.974  1.00  0.00     0.012 A 
ATOM     28  C   UNL     1       4.705   1.206   1.478  1.00  0.00     0.047 A 
ATOM     29  C   UNL     1       5.403   2.363   1.689  1.00  0.00    -0.000 A 
ATOM     30  N   UNL     1       5.148   0.228   2.285  1.00  0.00    -0.361 N 
ATOM     31  C   UNL     1       6.331   2.112   2.675  1.00  0.00     0.028 A 
ATOM     32  C   UNL     1       6.142   0.778   3.020  1.00  0.00     0.083 A 
ATOM     33  H   UNL     1       4.800  -0.755   2.337  1.00  0.00     0.166 HD
ENDBRANCH  18  24
ENDBRANCH   4  18
TORSDOF 8


