REMARK SMILES C=Cc1ccc(-c2cc(F)cc(F)c2O)[nH+]c1
REMARK SMILES IDX 3 1 4 2 5 3 6 4 16 5 17 6 2 8 1 9 7 10 8 11 14 12 9 13 12 14
REMARK SMILES IDX 11 15 10 16 13 17 15 18
REMARK H PARENT 16 7 15 19
ROOT
ATOM      1  C   UNL     1       2.137  -2.551   0.092  1.00  0.00     0.038 A 
ATOM      2  C   UNL     1       2.836  -1.338   0.048  1.00  0.00     0.021 A 
ATOM      3  C   UNL     1       2.198  -0.171  -0.370  1.00  0.00     0.081 A 
ATOM      4  C   UNL     1       0.850  -0.216  -0.751  1.00  0.00     0.214 A 
ATOM      5  N   UNL     1       0.186  -1.408  -0.724  1.00  0.00    -0.210 N 
ATOM      6  C   UNL     1       0.791  -2.559  -0.319  1.00  0.00     0.314 A 
ATOM      7  H   UNL     1      -0.807  -1.460  -1.044  1.00  0.00     0.453 HD
ENDROOT
BRANCH   1   8
ATOM      8  C   UNL     1       2.853  -3.773   0.535  1.00  0.00     0.006 C 
ATOM      9  C   UNL     1       2.251  -4.902   0.910  1.00  0.00     0.009 C 
ENDBRANCH   1   8
BRANCH   4  10
ATOM     10  C   UNL     1       0.158   1.018  -1.198  1.00  0.00     0.094 A 
ATOM     11  C   UNL     1       0.769   1.856  -2.148  1.00  0.00     0.058 A 
ATOM     12  C   UNL     1      -1.108   1.368  -0.682  1.00  0.00     0.165 A 
ATOM     13  C   UNL     1       0.126   3.015  -2.589  1.00  0.00     0.127 A 
ATOM     14  C   UNL     1      -1.749   2.533  -1.136  1.00  0.00     0.168 A 
ATOM     15  C   UNL     1      -1.132   3.351  -2.086  1.00  0.00     0.082 A 
ATOM     16  F   UNL     1       0.721   3.811  -3.510  1.00  0.00    -0.207 F 
ATOM     17  F   UNL     1      -2.967   2.881  -0.651  1.00  0.00    -0.203 F 
BRANCH  12  18
ATOM     18  O   UNL     1      -1.712   0.570   0.291  1.00  0.00    -0.504 OA
ATOM     19  H   UNL     1      -2.617   0.796   0.686  1.00  0.00     0.293 HD
ENDBRANCH  12  18
ENDBRANCH   4  10
TORSDOF 3


