MODEL 1
REMARK VINA RESULT:      -8.5      0.000      0.000
REMARK SMILES Cc1cc(-c2c[nH+]c3c(c2)C(=O)NC3)c(N)c2cc[nH]c12
REMARK SMILES IDX 1 1 2 2 3 3 4 4 15 5 17 6 18 7 19 8 20 9 21 10 5 12 6 13
REMARK SMILES IDX 10 14 7 15 9 16 8 17 11 18 14 19 13 20 12 22 16 24
REMARK H PARENT 20 11 7 21 13 23 16 25 16 26
ROOT
ATOM      1  C   UNL     1      41.129 133.345  20.803  1.00  0.00     0.046 C 
ATOM      2  C   UNL     1      42.344 132.465  20.806  1.00  0.00    -0.026 A 
ATOM      3  C   UNL     1      43.015 132.142  19.608  1.00  0.00     0.016 A 
ATOM      4  C   UNL     1      44.168 131.317  19.612  1.00  0.00     0.012 A 
ATOM      5  C   UNL     1      44.652 130.784  20.839  1.00  0.00     0.049 A 
ATOM      6  C   UNL     1      43.968 131.132  22.010  1.00  0.00     0.023 A 
ATOM      7  C   UNL     1      44.192 130.779  23.328  1.00  0.00     0.030 A 
ATOM      8  C   UNL     1      43.190 131.408  24.055  1.00  0.00     0.083 A 
ATOM      9  N   UNL     1      42.380 132.115  23.240  1.00  0.00    -0.361 N 
ATOM     10  C   UNL     1      42.859 131.941  21.995  1.00  0.00     0.050 A 
ATOM     11  H   UNL     1      41.547 132.676  23.528  1.00  0.00     0.166 HD
ENDROOT
BRANCH   4  12
ATOM     12  C   UNL     1      44.853 131.059  18.327  1.00  0.00     0.049 A 
ATOM     13  C   UNL     1      46.109 130.403  18.304  1.00  0.00     0.315 A 
ATOM     14  C   UNL     1      44.245 131.420  17.107  1.00  0.00     0.035 A 
ATOM     15  N   UNL     1      46.736 130.139  17.118  1.00  0.00    -0.212 N 
ATOM     16  C   UNL     1      44.928 131.130  15.932  1.00  0.00     0.109 A 
ATOM     17  C   UNL     1      46.148 130.503  15.950  1.00  0.00     0.211 A 
ATOM     18  C   UNL     1      44.592 131.362  14.551  1.00  0.00     0.258 C 
ATOM     19  C   UNL     1      46.680 130.292  14.561  1.00  0.00     0.225 C 
ATOM     20  N   UNL     1      45.631 130.866  13.715  1.00  0.00    -0.342 N 
ATOM     21  H   UNL     1      47.663 129.658  17.112  1.00  0.00     0.453 HD
ATOM     22  O   UNL     1      43.544 131.916  14.126  1.00  0.00    -0.269 OA
ATOM     23  H   UNL     1      45.643 130.906  12.671  1.00  0.00     0.164 HD
ENDBRANCH   4  12
BRANCH   5  24
ATOM     24  N   UNL     1      45.768 129.883  20.886  1.00  0.00    -0.398 N 
ATOM     25  H   UNL     1      45.789 129.084  21.557  1.00  0.00     0.156 HD
ATOM     26  H   UNL     1      46.562 129.956  20.212  1.00  0.00     0.156 HD
ENDBRANCH   5  24
TORSDOF 2
ENDMDL
MODEL 2
REMARK VINA RESULT:      -7.9      2.306      6.855
REMARK SMILES Cc1cc(-c2c[nH+]c3c(c2)C(=O)NC3)c(N)c2cc[nH]c12
REMARK SMILES IDX 1 1 2 2 3 3 4 4 15 5 17 6 18 7 19 8 20 9 21 10 5 12 6 13
REMARK SMILES IDX 10 14 7 15 9 16 8 17 11 18 14 19 13 20 12 22 16 24
REMARK H PARENT 20 11 7 21 13 23 16 25 16 26
ROOT
ATOM      1  C   UNL     1      43.169 131.821  14.060  1.00  0.00     0.046 C 
ATOM      2  C   UNL     1      43.954 131.451  15.285  1.00  0.00    -0.026 A 
ATOM      3  C   UNL     1      43.463 131.726  16.577  1.00  0.00     0.016 A 
ATOM      4  C   UNL     1      44.202 131.369  17.734  1.00  0.00     0.012 A 
ATOM      5  C   UNL     1      45.470 130.741  17.598  1.00  0.00     0.049 A 
ATOM      6  C   UNL     1      45.923 130.472  16.300  1.00  0.00     0.023 A 
ATOM      7  C   UNL     1      47.091 129.884  15.852  1.00  0.00     0.030 A 
ATOM      8  C   UNL     1      47.004 129.895  14.466  1.00  0.00     0.083 A 
ATOM      9  N   UNL     1      45.847 130.462  14.065  1.00  0.00    -0.361 N 
ATOM     10  C   UNL     1      45.194 130.814  15.187  1.00  0.00     0.050 A 
ATOM     11  H   UNL     1      45.535 130.601  13.078  1.00  0.00     0.166 HD
ENDROOT
BRANCH   4  12
ATOM     12  C   UNL     1      43.607 131.642  19.061  1.00  0.00     0.049 A 
ATOM     13  C   UNL     1      42.493 132.510  19.182  1.00  0.00     0.315 A 
ATOM     14  C   UNL     1      44.111 131.007  20.214  1.00  0.00     0.035 A 
ATOM     15  N   UNL     1      41.924 132.747  20.401  1.00  0.00    -0.212 N 
ATOM     16  C   UNL     1      43.496 131.287  21.429  1.00  0.00     0.109 A 
ATOM     17  C   UNL     1      42.426 132.142  21.509  1.00  0.00     0.211 A 
ATOM     18  C   UNL     1      43.761 130.817  22.763  1.00  0.00     0.258 C 
ATOM     19  C   UNL     1      41.931 132.276  22.920  1.00  0.00     0.225 C 
ATOM     20  N   UNL     1      42.833 131.399  23.671  1.00  0.00    -0.342 N 
ATOM     21  H   UNL     1      41.106 133.392  20.481  1.00  0.00     0.453 HD
ATOM     22  O   UNL     1      44.670 130.011  23.099  1.00  0.00    -0.269 OA
ATOM     23  H   UNL     1      42.801 131.229  24.702  1.00  0.00     0.164 HD
ENDBRANCH   4  12
BRANCH   5  24
ATOM     24  N   UNL     1      46.289 130.431  18.735  1.00  0.00    -0.398 N 
ATOM     25  H   UNL     1      46.874 131.162  19.194  1.00  0.00     0.156 HD
ATOM     26  H   UNL     1      46.278 129.485  19.177  1.00  0.00     0.156 HD
ENDBRANCH   5  24
TORSDOF 2
ENDMDL
MODEL 3
REMARK VINA RESULT:      -7.8      1.754      2.187
REMARK SMILES Cc1cc(-c2c[nH+]c3c(c2)C(=O)NC3)c(N)c2cc[nH]c12
REMARK SMILES IDX 1 1 2 2 3 3 4 4 15 5 17 6 18 7 19 8 20 9 21 10 5 12 6 13
REMARK SMILES IDX 10 14 7 15 9 16 8 17 11 18 14 19 13 20 12 22 16 24
REMARK H PARENT 20 11 7 21 13 23 16 25 16 26
ROOT
ATOM      1  C   UNL     1      41.269 132.831  19.714  1.00  0.00     0.046 C 
ATOM      2  C   UNL     1      42.612 132.165  19.640  1.00  0.00    -0.026 A 
ATOM      3  C   UNL     1      43.322 132.087  18.425  1.00  0.00     0.016 A 
ATOM      4  C   UNL     1      44.595 131.465  18.357  1.00  0.00     0.012 A 
ATOM      5  C   UNL     1      45.164 130.889  19.527  1.00  0.00     0.049 A 
ATOM      6  C   UNL     1      44.437 130.994  20.719  1.00  0.00     0.023 A 
ATOM      7  C   UNL     1      44.720 130.543  21.995  1.00  0.00     0.030 A 
ATOM      8  C   UNL     1      43.632 130.919  22.771  1.00  0.00     0.083 A 
ATOM      9  N   UNL     1      42.713 131.568  22.024  1.00  0.00    -0.361 N 
ATOM     10  C   UNL     1      43.210 131.608  20.774  1.00  0.00     0.050 A 
ATOM     11  H   UNL     1      41.801 131.951  22.359  1.00  0.00     0.166 HD
ENDROOT
BRANCH   4  12
ATOM     12  C   UNL     1      45.308 131.460  17.061  1.00  0.00     0.049 A 
ATOM     13  C   UNL     1      45.525 132.671  16.358  1.00  0.00     0.315 A 
ATOM     14  C   UNL     1      45.822 130.259  16.532  1.00  0.00     0.035 A 
ATOM     15  N   UNL     1      46.204 132.677  15.172  1.00  0.00    -0.212 N 
ATOM     16  C   UNL     1      46.502 130.322  15.322  1.00  0.00     0.109 A 
ATOM     17  C   UNL     1      46.682 131.512  14.664  1.00  0.00     0.211 A 
ATOM     18  C   UNL     1      47.134 129.301  14.528  1.00  0.00     0.258 C 
ATOM     19  C   UNL     1      47.451 131.326  13.388  1.00  0.00     0.225 C 
ATOM     20  N   UNL     1      47.709 129.884  13.364  1.00  0.00    -0.342 N 
ATOM     21  H   UNL     1      46.355 133.575  14.660  1.00  0.00     0.453 HD
ATOM     22  O   UNL     1      47.184 128.073  14.803  1.00  0.00    -0.269 OA
ATOM     23  H   UNL     1      48.228 129.369  12.618  1.00  0.00     0.164 HD
ENDBRANCH   4  12
BRANCH   5  24
ATOM     24  N   UNL     1      46.412 130.182  19.493  1.00  0.00    -0.398 N 
ATOM     25  H   UNL     1      47.111 130.283  20.261  1.00  0.00     0.156 HD
ATOM     26  H   UNL     1      46.635 129.498  18.737  1.00  0.00     0.156 HD
ENDBRANCH   5  24
TORSDOF 2
ENDMDL
MODEL 4
REMARK VINA RESULT:      -7.3      1.806      6.702
REMARK SMILES Cc1cc(-c2c[nH+]c3c(c2)C(=O)NC3)c(N)c2cc[nH]c12
REMARK SMILES IDX 1 1 2 2 3 3 4 4 15 5 17 6 18 7 19 8 20 9 21 10 5 12 6 13
REMARK SMILES IDX 10 14 7 15 9 16 8 17 11 18 14 19 13 20 12 22 16 24
REMARK H PARENT 20 11 7 21 13 23 16 25 16 26
ROOT
ATOM      1  C   UNL     1      43.197 131.989  13.918  1.00  0.00     0.046 C 
ATOM      2  C   UNL     1      44.186 131.495  14.932  1.00  0.00    -0.026 A 
ATOM      3  C   UNL     1      43.914 131.571  16.314  1.00  0.00     0.016 A 
ATOM      4  C   UNL     1      44.846 131.097  17.272  1.00  0.00     0.012 A 
ATOM      5  C   UNL     1      46.088 130.553  16.842  1.00  0.00     0.049 A 
ATOM      6  C   UNL     1      46.321 130.483  15.463  1.00  0.00     0.023 A 
ATOM      7  C   UNL     1      47.410 130.016  14.751  1.00  0.00     0.030 A 
ATOM      8  C   UNL     1      47.090 130.209  13.414  1.00  0.00     0.083 A 
ATOM      9  N   UNL     1      45.868 130.770  13.291  1.00  0.00    -0.361 N 
ATOM     10  C   UNL     1      45.407 130.936  14.544  1.00  0.00     0.050 A 
ATOM     11  H   UNL     1      45.390 131.025  12.398  1.00  0.00     0.166 HD
ENDROOT
BRANCH   4  12
ATOM     12  C   UNL     1      44.478 131.160  18.704  1.00  0.00     0.049 A 
ATOM     13  C   UNL     1      45.290 130.532  19.680  1.00  0.00     0.315 A 
ATOM     14  C   UNL     1      43.342 131.885  19.118  1.00  0.00     0.035 A 
ATOM     15  N   UNL     1      44.969 130.607  21.006  1.00  0.00    -0.212 N 
ATOM     16  C   UNL     1      43.061 131.926  20.478  1.00  0.00     0.109 A 
ATOM     17  C   UNL     1      43.864 131.296  21.394  1.00  0.00     0.211 A 
ATOM     18  C   UNL     1      42.001 132.564  21.215  1.00  0.00     0.258 C 
ATOM     19  C   UNL     1      43.362 131.491  22.796  1.00  0.00     0.225 C 
ATOM     20  N   UNL     1      42.164 132.313  22.606  1.00  0.00    -0.342 N 
ATOM     21  H   UNL     1      45.572 130.137  21.718  1.00  0.00     0.453 HD
ATOM     22  O   UNL     1      41.062 133.244  20.723  1.00  0.00    -0.269 OA
ATOM     23  H   UNL     1      41.535 132.659  23.365  1.00  0.00     0.164 HD
ENDBRANCH   4  12
BRANCH   5  24
ATOM     24  N   UNL     1      47.095 130.132  17.774  1.00  0.00    -0.398 N 
ATOM     25  H   UNL     1      46.846 129.851  18.747  1.00  0.00     0.156 HD
ATOM     26  H   UNL     1      48.095 130.031  17.493  1.00  0.00     0.156 HD
ENDBRANCH   5  24
TORSDOF 2
ENDMDL
MODEL 5
REMARK VINA RESULT:      -7.1      1.567      2.050
REMARK SMILES Cc1cc(-c2c[nH+]c3c(c2)C(=O)NC3)c(N)c2cc[nH]c12
REMARK SMILES IDX 1 1 2 2 3 3 4 4 15 5 17 6 18 7 19 8 20 9 21 10 5 12 6 13
REMARK SMILES IDX 10 14 7 15 9 16 8 17 11 18 14 19 13 20 12 22 16 24
REMARK H PARENT 20 11 7 21 13 23 16 25 16 26
ROOT
ATOM      1  C   UNL     1      41.174 133.152  20.615  1.00  0.00     0.046 C 
ATOM      2  C   UNL     1      42.429 132.385  20.316  1.00  0.00    -0.026 A 
ATOM      3  C   UNL     1      42.866 132.190  18.990  1.00  0.00     0.016 A 
ATOM      4  C   UNL     1      44.056 131.472  18.708  1.00  0.00     0.012 A 
ATOM      5  C   UNL     1      44.817 130.917  19.774  1.00  0.00     0.049 A 
ATOM      6  C   UNL     1      44.360 131.140  21.079  1.00  0.00     0.023 A 
ATOM      7  C   UNL     1      44.871 130.737  22.298  1.00  0.00     0.030 A 
ATOM      8  C   UNL     1      43.992 131.234  23.252  1.00  0.00     0.083 A 
ATOM      9  N   UNL     1      42.982 131.909  22.664  1.00  0.00    -0.361 N 
ATOM     10  C   UNL     1      43.211 131.846  21.340  1.00  0.00     0.050 A 
ATOM     11  H   UNL     1      42.185 132.377  23.150  1.00  0.00     0.166 HD
ENDROOT
BRANCH   4  12
ATOM     12  C   UNL     1      44.485 131.345  17.297  1.00  0.00     0.049 A 
ATOM     13  C   UNL     1      43.706 131.912  16.259  1.00  0.00     0.315 A 
ATOM     14  C   UNL     1      45.695 130.700  16.974  1.00  0.00     0.035 A 
ATOM     15  N   UNL     1      44.108 131.819  14.956  1.00  0.00    -0.212 N 
ATOM     16  C   UNL     1      46.056 130.632  15.633  1.00  0.00     0.109 A 
ATOM     17  C   UNL     1      45.269 131.183  14.653  1.00  0.00     0.211 A 
ATOM     18  C   UNL     1      47.201 130.056  14.981  1.00  0.00     0.258 C 
ATOM     19  C   UNL     1      45.870 130.990  13.291  1.00  0.00     0.225 C 
ATOM     20  N   UNL     1      47.108 130.260  13.576  1.00  0.00    -0.342 N 
ATOM     21  H   UNL     1      43.525 132.237  14.197  1.00  0.00     0.453 HD
ATOM     22  O   UNL     1      48.154 129.457  15.547  1.00  0.00    -0.269 OA
ATOM     23  H   UNL     1      47.806 129.942  12.866  1.00  0.00     0.164 HD
ENDBRANCH   4  12
BRANCH   5  24
ATOM     24  N   UNL     1      45.985 130.118  19.537  1.00  0.00    -0.398 N 
ATOM     25  H   UNL     1      45.906 129.119  19.247  1.00  0.00     0.156 HD
ATOM     26  H   UNL     1      46.946 130.523  19.583  1.00  0.00     0.156 HD
ENDBRANCH   5  24
TORSDOF 2
ENDMDL
MODEL 6
REMARK VINA RESULT:      -6.5      1.168      2.266
REMARK SMILES Cc1cc(-c2c[nH+]c3c(c2)C(=O)NC3)c(N)c2cc[nH]c12
REMARK SMILES IDX 1 1 2 2 3 3 4 4 15 5 17 6 18 7 19 8 20 9 21 10 5 12 6 13
REMARK SMILES IDX 10 14 7 15 9 16 8 17 11 18 14 19 13 20 12 22 16 24
REMARK H PARENT 20 11 7 21 13 23 16 25 16 26
ROOT
ATOM      1  C   UNL     1      44.396 130.858  23.364  1.00  0.00     0.046 C 
ATOM      2  C   UNL     1      43.835 131.329  22.054  1.00  0.00    -0.026 A 
ATOM      3  C   UNL     1      44.502 131.072  20.839  1.00  0.00     0.016 A 
ATOM      4  C   UNL     1      43.967 131.510  19.601  1.00  0.00     0.012 A 
ATOM      5  C   UNL     1      42.746 132.241  19.577  1.00  0.00     0.049 A 
ATOM      6  C   UNL     1      42.105 132.470  20.801  1.00  0.00     0.023 A 
ATOM      7  C   UNL     1      40.930 133.135  21.097  1.00  0.00     0.030 A 
ATOM      8  C   UNL     1      40.798 133.059  22.477  1.00  0.00     0.083 A 
ATOM      9  N   UNL     1      41.834 132.385  23.019  1.00  0.00    -0.361 N 
ATOM     10  C   UNL     1      42.628 132.031  21.992  1.00  0.00     0.050 A 
ATOM     11  H   UNL     1      41.983 132.189  24.034  1.00  0.00     0.166 HD
ENDROOT
BRANCH   4  12
ATOM     12  C   UNL     1      44.692 131.164  18.358  1.00  0.00     0.049 A 
ATOM     13  C   UNL     1      45.914 130.451  18.418  1.00  0.00     0.315 A 
ATOM     14  C   UNL     1      44.152 131.500  17.100  1.00  0.00     0.035 A 
ATOM     15  N   UNL     1      46.577 130.108  17.273  1.00  0.00    -0.212 N 
ATOM     16  C   UNL     1      44.869 131.128  15.968  1.00  0.00     0.109 A 
ATOM     17  C   UNL     1      46.056 130.448  16.066  1.00  0.00     0.211 A 
ATOM     18  C   UNL     1      44.603 131.315  14.566  1.00  0.00     0.258 C 
ATOM     19  C   UNL     1      46.635 130.152  14.712  1.00  0.00     0.225 C 
ATOM     20  N   UNL     1      45.651 130.737  13.797  1.00  0.00    -0.342 N 
ATOM     21  H   UNL     1      47.480 129.585  17.327  1.00  0.00     0.453 HD
ATOM     22  O   UNL     1      43.601 131.898  14.073  1.00  0.00    -0.269 OA
ATOM     23  H   UNL     1      45.708 130.730  12.754  1.00  0.00     0.164 HD
ENDBRANCH   4  12
BRANCH   5  24
ATOM     24  N   UNL     1      42.205 132.772  18.359  1.00  0.00    -0.398 N 
ATOM     25  H   UNL     1      41.267 132.476  18.011  1.00  0.00     0.156 HD
ATOM     26  H   UNL     1      42.699 133.515  17.817  1.00  0.00     0.156 HD
ENDBRANCH   5  24
TORSDOF 2
ENDMDL
MODEL 7
REMARK VINA RESULT:      -6.4      2.638      6.972
REMARK SMILES Cc1cc(-c2c[nH+]c3c(c2)C(=O)NC3)c(N)c2cc[nH]c12
REMARK SMILES IDX 1 1 2 2 3 3 4 4 15 5 17 6 18 7 19 8 20 9 21 10 5 12 6 13
REMARK SMILES IDX 10 14 7 15 9 16 8 17 11 18 14 19 13 20 12 22 16 24
REMARK H PARENT 20 11 7 21 13 23 16 25 16 26
ROOT
ATOM      1  C   UNL     1      47.151 129.701  15.882  1.00  0.00     0.046 C 
ATOM      2  C   UNL     1      45.968 130.385  16.504  1.00  0.00    -0.026 A 
ATOM      3  C   UNL     1      45.855 130.520  17.903  1.00  0.00     0.016 A 
ATOM      4  C   UNL     1      44.742 131.173  18.489  1.00  0.00     0.012 A 
ATOM      5  C   UNL     1      43.705 131.686  17.661  1.00  0.00     0.049 A 
ATOM      6  C   UNL     1      43.855 131.544  16.275  1.00  0.00     0.023 A 
ATOM      7  C   UNL     1      43.035 131.931  15.232  1.00  0.00     0.030 A 
ATOM      8  C   UNL     1      43.683 131.516  14.077  1.00  0.00     0.083 A 
ATOM      9  N   UNL     1      44.846 130.900  14.377  1.00  0.00    -0.361 N 
ATOM     10  C   UNL     1      44.943 130.918  15.718  1.00  0.00     0.050 A 
ATOM     11  H   UNL     1      45.523 130.489  13.696  1.00  0.00     0.166 HD
ENDROOT
BRANCH   4  12
ATOM     12  C   UNL     1      44.709 131.324  19.961  1.00  0.00     0.049 A 
ATOM     13  C   UNL     1      45.603 132.211  20.609  1.00  0.00     0.315 A 
ATOM     14  C   UNL     1      43.758 130.623  20.730  1.00  0.00     0.035 A 
ATOM     15  N   UNL     1      45.562 132.374  21.966  1.00  0.00    -0.212 N 
ATOM     16  C   UNL     1      43.762 130.824  22.105  1.00  0.00     0.109 A 
ATOM     17  C   UNL     1      44.651 131.683  22.699  1.00  0.00     0.211 A 
ATOM     18  C   UNL     1      42.942 130.274  23.152  1.00  0.00     0.258 C 
ATOM     19  C   UNL     1      44.455 131.738  24.187  1.00  0.00     0.225 C 
ATOM     20  N   UNL     1      43.343 130.810  24.408  1.00  0.00    -0.342 N 
ATOM     21  H   UNL     1      46.227 133.028  22.435  1.00  0.00     0.453 HD
ATOM     22  O   UNL     1      42.006 129.444  23.003  1.00  0.00    -0.269 OA
ATOM     23  H   UNL     1      42.915 130.580  25.333  1.00  0.00     0.164 HD
ENDBRANCH   4  12
BRANCH   5  24
ATOM     24  N   UNL     1      42.523 132.286  18.209  1.00  0.00    -0.398 N 
ATOM     25  H   UNL     1      42.013 133.039  17.699  1.00  0.00     0.156 HD
ATOM     26  H   UNL     1      42.099 131.947  19.101  1.00  0.00     0.156 HD
ENDBRANCH   5  24
TORSDOF 2
ENDMDL
MODEL 8
REMARK VINA RESULT:      -6.2      2.647      7.181
REMARK SMILES Cc1cc(-c2c[nH+]c3c(c2)C(=O)NC3)c(N)c2cc[nH]c12
REMARK SMILES IDX 1 1 2 2 3 3 4 4 15 5 17 6 18 7 19 8 20 9 21 10 5 12 6 13
REMARK SMILES IDX 10 14 7 15 9 16 8 17 11 18 14 19 13 20 12 22 16 24
REMARK H PARENT 20 11 7 21 13 23 16 25 16 26
ROOT
ATOM      1  C   UNL     1      47.029 129.845  16.590  1.00  0.00     0.046 C 
ATOM      2  C   UNL     1      45.714 130.509  16.881  1.00  0.00    -0.026 A 
ATOM      3  C   UNL     1      45.251 130.662  18.204  1.00  0.00     0.016 A 
ATOM      4  C   UNL     1      44.013 131.296  18.479  1.00  0.00     0.012 A 
ATOM      5  C   UNL     1      43.207 131.770  17.407  1.00  0.00     0.049 A 
ATOM      6  C   UNL     1      43.702 131.611  16.107  1.00  0.00     0.023 A 
ATOM      7  C   UNL     1      43.162 131.961  14.884  1.00  0.00     0.030 A 
ATOM      8  C   UNL     1      44.088 131.546  13.936  1.00  0.00     0.083 A 
ATOM      9  N   UNL     1      45.151 130.964  14.531  1.00  0.00    -0.361 N 
ATOM     10  C   UNL     1      44.907 131.005  15.853  1.00  0.00     0.050 A 
ATOM     11  H   UNL     1      45.985 130.560  14.050  1.00  0.00     0.166 HD
ENDROOT
BRANCH   4  12
ATOM     12  C   UNL     1      43.609 131.468  19.892  1.00  0.00     0.049 A 
ATOM     13  C   UNL     1      42.642 132.441  20.246  1.00  0.00     0.315 A 
ATOM     14  C   UNL     1      44.146 130.637  20.896  1.00  0.00     0.035 A 
ATOM     15  N   UNL     1      42.246 132.589  21.546  1.00  0.00    -0.212 N 
ATOM     16  C   UNL     1      43.711 130.833  22.201  1.00  0.00     0.109 A 
ATOM     17  C   UNL     1      42.780 131.793  22.508  1.00  0.00     0.211 A 
ATOM     18  C   UNL     1      44.054 130.169  23.431  1.00  0.00     0.258 C 
ATOM     19  C   UNL     1      42.465 131.806  23.976  1.00  0.00     0.225 C 
ATOM     20  N   UNL     1      43.318 130.740  24.507  1.00  0.00    -0.342 N 
ATOM     21  H   UNL     1      41.535 133.312  21.798  1.00  0.00     0.453 HD
ATOM     22  O   UNL     1      44.878 129.225  23.559  1.00  0.00    -0.269 OA
ATOM     23  H   UNL     1      43.376 130.446  25.508  1.00  0.00     0.164 HD
ENDBRANCH   4  12
BRANCH   5  24
ATOM     24  N   UNL     1      41.913 132.348  17.630  1.00  0.00    -0.398 N 
ATOM     25  H   UNL     1      41.041 131.830  17.384  1.00  0.00     0.156 HD
ATOM     26  H   UNL     1      41.798 133.272  18.101  1.00  0.00     0.156 HD
ENDBRANCH   5  24
TORSDOF 2
ENDMDL
MODEL 9
REMARK VINA RESULT:      -6.2      2.235      6.911
REMARK SMILES Cc1cc(-c2c[nH+]c3c(c2)C(=O)NC3)c(N)c2cc[nH]c12
REMARK SMILES IDX 1 1 2 2 3 3 4 4 15 5 17 6 18 7 19 8 20 9 21 10 5 12 6 13
REMARK SMILES IDX 10 14 7 15 9 16 8 17 11 18 14 19 13 20 12 22 16 24
REMARK H PARENT 20 11 7 21 13 23 16 25 16 26
ROOT
ATOM      1  C   UNL     1      47.329 129.742  15.524  1.00  0.00     0.046 C 
ATOM      2  C   UNL     1      46.090 130.358  16.105  1.00  0.00    -0.026 A 
ATOM      3  C   UNL     1      45.883 130.404  17.499  1.00  0.00     0.016 A 
ATOM      4  C   UNL     1      44.716 130.993  18.049  1.00  0.00     0.012 A 
ATOM      5  C   UNL     1      43.721 131.530  17.186  1.00  0.00     0.049 A 
ATOM      6  C   UNL     1      43.963 131.477  15.807  1.00  0.00     0.023 A 
ATOM      7  C   UNL     1      43.201 131.906  14.737  1.00  0.00     0.030 A 
ATOM      8  C   UNL     1      43.935 131.579  13.605  1.00  0.00     0.083 A 
ATOM      9  N   UNL     1      45.093 130.975  13.944  1.00  0.00    -0.361 N 
ATOM     10  C   UNL     1      45.102 130.913  15.288  1.00  0.00     0.050 A 
ATOM     11  H   UNL     1      45.824 130.623  13.286  1.00  0.00     0.166 HD
ENDROOT
BRANCH   4  12
ATOM     12  C   UNL     1      44.584 131.053  19.522  1.00  0.00     0.049 A 
ATOM     13  C   UNL     1      45.613 130.546  20.354  1.00  0.00     0.315 A 
ATOM     14  C   UNL     1      43.456 131.656  20.114  1.00  0.00     0.035 A 
ATOM     15  N   UNL     1      45.508 130.620  21.714  1.00  0.00    -0.212 N 
ATOM     16  C   UNL     1      43.400 131.702  21.502  1.00  0.00     0.109 A 
ATOM     17  C   UNL     1      44.411 131.190  22.275  1.00  0.00     0.211 A 
ATOM     18  C   UNL     1      42.410 132.236  22.400  1.00  0.00     0.258 C 
ATOM     19  C   UNL     1      44.127 131.365  23.740  1.00  0.00     0.225 C 
ATOM     20  N   UNL     1      42.828 132.042  23.746  1.00  0.00    -0.342 N 
ATOM     21  H   UNL     1      46.270 130.240  22.320  1.00  0.00     0.453 HD
ATOM     22  O   UNL     1      41.331 132.793  22.066  1.00  0.00    -0.269 OA
ATOM     23  H   UNL     1      42.296 132.335  24.597  1.00  0.00     0.164 HD
ENDBRANCH   4  12
BRANCH   5  24
ATOM     24  N   UNL     1      42.489 132.065  17.690  1.00  0.00    -0.398 N 
ATOM     25  H   UNL     1      41.623 132.067  17.109  1.00  0.00     0.156 HD
ATOM     26  H   UNL     1      42.402 132.411  18.671  1.00  0.00     0.156 HD
ENDBRANCH   5  24
TORSDOF 2
ENDMDL


