REMARK SMILES CC(=O)c1ccc(-c2cccc([C@@H]3CO3)c2)cc1
REMARK SMILES IDX 4 1 5 2 6 3 7 4 17 5 18 6 2 7 1 8 3 9 8 10 9 11 16 12 10 13
REMARK SMILES IDX 12 14 11 15 13 16 14 17 15 18
REMARK H PARENT
ROOT
ATOM      1  C   UNL     1      -3.141   1.295   0.464  1.00  0.00     0.017 A 
ATOM      2  C   UNL     1      -2.792   0.643  -0.734  1.00  0.00     0.012 A 
ATOM      3  C   UNL     1      -1.452   0.513  -1.110  1.00  0.00     0.009 A 
ATOM      4  C   UNL     1      -0.428   1.030  -0.300  1.00  0.00    -0.018 A 
ATOM      5  C   UNL     1      -0.773   1.682   0.896  1.00  0.00     0.009 A 
ATOM      6  C   UNL     1      -2.113   1.812   1.273  1.00  0.00     0.012 A 
ENDROOT
BRANCH   1   7
ATOM      7  C   UNL     1      -4.562   1.442   0.880  1.00  0.00     0.159 C 
ATOM      8  C   UNL     1      -5.690   0.905   0.051  1.00  0.00     0.093 C 
ATOM      9  O   UNL     1      -4.840   2.035   1.958  1.00  0.00    -0.295 OA
ENDBRANCH   1   7
BRANCH   4  10
ATOM     10  C   UNL     1       0.996   0.891  -0.701  1.00  0.00    -0.018 A 
ATOM     11  C   UNL     1       1.897   1.956  -0.517  1.00  0.00     0.009 A 
ATOM     12  C   UNL     1       1.465  -0.309  -1.267  1.00  0.00     0.015 A 
ATOM     13  C   UNL     1       3.237   1.821  -0.889  1.00  0.00     0.001 A 
ATOM     14  C   UNL     1       2.807  -0.438  -1.656  1.00  0.00    -0.016 A 
ATOM     15  C   UNL     1       3.694   0.627  -1.450  1.00  0.00     0.006 A 
BRANCH  14  16
ATOM     16  C   UNL     1       3.309  -1.733  -2.224  1.00  0.00     0.174 C 
ATOM     17  C   UNL     1       3.799  -1.685  -3.621  1.00  0.00     0.198 C 
ATOM     18  O   UNL     1       2.517  -2.172  -3.304  1.00  0.00    -0.368 OA
ENDBRANCH  14  16
ENDBRANCH   4  10
TORSDOF 3


