MODEL 1
REMARK VINA RESULT:     -10.4      0.000      0.000
REMARK SMILES Nc1c(C(=O)NCc2ccc[nH]2)ccc2cc[nH]c12
REMARK SMILES IDX 4 1 5 2 6 3 3 5 2 6 19 7 13 8 18 9 15 10 14 11 17 12 16 13
REMARK SMILES IDX 1 15 7 18 8 19 9 20 12 21 10 22 11 23
REMARK H PARENT 6 4 18 14 1 16 1 17 12 24
ROOT
ATOM      1  C   UNL     1      44.273 131.648  17.295  1.00  0.00     0.253 C 
ATOM      2  O   UNL     1      43.175 131.674  16.675  1.00  0.00    -0.269 OA
ATOM      3  N   UNL     1      45.509 131.703  16.566  1.00  0.00    -0.346 N 
ATOM      4  H   UNL     1      46.415 131.689  17.088  1.00  0.00     0.164 HD
ENDROOT
BRANCH   1   5
ATOM      5  C   UNL     1      44.280 131.529  18.769  1.00  0.00     0.064 A 
ATOM      6  C   UNL     1      43.176 131.960  19.561  1.00  0.00     0.069 A 
ATOM      7  C   UNL     1      43.247 131.739  20.947  1.00  0.00     0.070 A 
ATOM      8  C   UNL     1      45.402 130.927  19.395  1.00  0.00     0.017 A 
ATOM      9  N   UNL     1      42.339 132.063  21.888  1.00  0.00    -0.359 N 
ATOM     10  C   UNL     1      44.340 131.150  21.527  1.00  0.00     0.002 A 
ATOM     11  C   UNL     1      45.438 130.735  20.784  1.00  0.00     0.011 A 
ATOM     12  C   UNL     1      42.865 131.667  23.069  1.00  0.00     0.083 A 
ATOM     13  C   UNL     1      44.115 131.091  22.884  1.00  0.00     0.028 A 
ATOM     14  H   UNL     1      41.415 132.528  21.758  1.00  0.00     0.166 HD
BRANCH   6  15
ATOM     15  N   UNL     1      42.052 132.644  18.986  1.00  0.00    -0.396 N 
ATOM     16  H   UNL     1      41.383 132.156  18.354  1.00  0.00     0.156 HD
ATOM     17  H   UNL     1      41.826 133.631  19.237  1.00  0.00     0.156 HD
ENDBRANCH   6  15
ENDBRANCH   1   5
BRANCH   3  18
ATOM     18  C   UNL     1      45.554 131.838  15.112  1.00  0.00     0.170 C 
BRANCH  18  19
ATOM     19  C   UNL     1      46.606 130.936  14.543  1.00  0.00     0.034 A 
ATOM     20  C   UNL     1      47.348 131.191  13.407  1.00  0.00     0.025 A 
ATOM     21  N   UNL     1      46.910 129.722  15.038  1.00  0.00    -0.364 N 
ATOM     22  C   UNL     1      48.147 130.082  13.213  1.00  0.00     0.020 A 
ATOM     23  C   UNL     1      47.852 129.199  14.233  1.00  0.00     0.082 A 
ATOM     24  H   UNL     1      46.491 129.265  15.879  1.00  0.00     0.166 HD
ENDBRANCH  18  19
ENDBRANCH   3  18
TORSDOF 4
ENDMDL
MODEL 2
REMARK VINA RESULT:      -9.4      1.567      2.070
REMARK SMILES Nc1c(C(=O)NCc2ccc[nH]2)ccc2cc[nH]c12
REMARK SMILES IDX 4 1 5 2 6 3 3 5 2 6 19 7 13 8 18 9 15 10 14 11 17 12 16 13
REMARK SMILES IDX 1 15 7 18 8 19 9 20 12 21 10 22 11 23
REMARK H PARENT 6 4 18 14 1 16 1 17 12 24
ROOT
ATOM      1  C   UNL     1      44.687 131.701  16.746  1.00  0.00     0.253 C 
ATOM      2  O   UNL     1      45.747 132.336  16.497  1.00  0.00    -0.269 OA
ATOM      3  N   UNL     1      43.953 131.083  15.678  1.00  0.00    -0.346 N 
ATOM      4  H   UNL     1      43.079 130.552  15.895  1.00  0.00     0.164 HD
ENDROOT
BRANCH   1   5
ATOM      5  C   UNL     1      44.190 131.623  18.137  1.00  0.00     0.064 A 
ATOM      6  C   UNL     1      45.014 131.158  19.203  1.00  0.00     0.069 A 
ATOM      7  C   UNL     1      44.474 131.188  20.500  1.00  0.00     0.070 A 
ATOM      8  C   UNL     1      42.870 132.068  18.411  1.00  0.00     0.017 A 
ATOM      9  N   UNL     1      45.055 130.797  21.651  1.00  0.00    -0.359 N 
ATOM     10  C   UNL     1      43.199 131.629  20.739  1.00  0.00     0.002 A 
ATOM     11  C   UNL     1      42.366 132.072  19.720  1.00  0.00     0.011 A 
ATOM     12  C   UNL     1      44.137 131.001  22.622  1.00  0.00     0.083 A 
ATOM     13  C   UNL     1      42.964 131.520  22.091  1.00  0.00     0.028 A 
ATOM     14  H   UNL     1      46.013 130.410  21.790  1.00  0.00     0.166 HD
BRANCH   6  15
ATOM     15  N   UNL     1      46.326 130.624  18.969  1.00  0.00    -0.396 N 
ATOM     16  H   UNL     1      46.871 130.873  18.115  1.00  0.00     0.156 HD
ATOM     17  H   UNL     1      46.809 130.028  19.676  1.00  0.00     0.156 HD
ENDBRANCH   6  15
ENDBRANCH   1   5
BRANCH   3  18
ATOM     18  C   UNL     1      44.411 131.118  14.292  1.00  0.00     0.170 C 
BRANCH  18  19
ATOM     19  C   UNL     1      45.797 130.560  14.192  1.00  0.00     0.034 A 
ATOM     20  C   UNL     1      46.788 131.022  13.348  1.00  0.00     0.025 A 
ATOM     21  N   UNL     1      46.229 129.481  14.873  1.00  0.00    -0.364 N 
ATOM     22  C   UNL     1      47.873 130.190  13.536  1.00  0.00     0.020 A 
ATOM     23  C   UNL     1      47.495 129.255  14.479  1.00  0.00     0.082 A 
ATOM     24  H   UNL     1      45.686 128.919  15.565  1.00  0.00     0.166 HD
ENDBRANCH  18  19
ENDBRANCH   3  18
TORSDOF 4
ENDMDL
MODEL 3
REMARK VINA RESULT:      -9.3      0.848      1.043
REMARK SMILES Nc1c(C(=O)NCc2ccc[nH]2)ccc2cc[nH]c12
REMARK SMILES IDX 4 1 5 2 6 3 3 5 2 6 19 7 13 8 18 9 15 10 14 11 17 12 16 13
REMARK SMILES IDX 1 15 7 18 8 19 9 20 12 21 10 22 11 23
REMARK H PARENT 6 4 18 14 1 16 1 17 12 24
ROOT
ATOM      1  C   UNL     1      44.053 131.433  16.957  1.00  0.00     0.253 C 
ATOM      2  O   UNL     1      43.152 132.127  16.413  1.00  0.00    -0.269 OA
ATOM      3  N   UNL     1      44.933 130.638  16.147  1.00  0.00    -0.346 N 
ATOM      4  H   UNL     1      45.682 130.071  16.606  1.00  0.00     0.164 HD
ENDROOT
BRANCH   1   5
ATOM      5  C   UNL     1      44.176 131.418  18.430  1.00  0.00     0.064 A 
ATOM      6  C   UNL     1      43.107 131.832  19.276  1.00  0.00     0.069 A 
ATOM      7  C   UNL     1      43.295 131.714  20.664  1.00  0.00     0.070 A 
ATOM      8  C   UNL     1      45.381 130.935  19.005  1.00  0.00     0.017 A 
ATOM      9  N   UNL     1      42.438 132.044  21.650  1.00  0.00    -0.359 N 
ATOM     10  C   UNL     1      44.465 131.238  21.194  1.00  0.00     0.002 A 
ATOM     11  C   UNL     1      45.531 130.843  20.396  1.00  0.00     0.011 A 
ATOM     12  C   UNL     1      43.075 131.767  22.809  1.00  0.00     0.083 A 
ATOM     13  C   UNL     1      44.345 131.261  22.566  1.00  0.00     0.028 A 
ATOM     14  H   UNL     1      41.477 132.439  21.562  1.00  0.00     0.166 HD
BRANCH   6  15
ATOM     15  N   UNL     1      41.899 132.401  18.748  1.00  0.00    -0.396 N 
ATOM     16  H   UNL     1      41.103 132.662  19.368  1.00  0.00     0.156 HD
ATOM     17  H   UNL     1      41.803 132.639  17.737  1.00  0.00     0.156 HD
ENDBRANCH   6  15
ENDBRANCH   1   5
BRANCH   3  18
ATOM     18  C   UNL     1      44.861 130.632  14.689  1.00  0.00     0.170 C 
BRANCH  18  19
ATOM     19  C   UNL     1      46.226 130.430  14.105  1.00  0.00     0.034 A 
ATOM     20  C   UNL     1      47.087 129.398  14.422  1.00  0.00     0.025 A 
ATOM     21  N   UNL     1      46.813 131.280  13.241  1.00  0.00    -0.364 N 
ATOM     22  C   UNL     1      48.245 129.630  13.707  1.00  0.00     0.020 A 
ATOM     23  C   UNL     1      48.042 130.795  12.993  1.00  0.00     0.082 A 
ATOM     24  H   UNL     1      46.401 132.155  12.847  1.00  0.00     0.166 HD
ENDBRANCH  18  19
ENDBRANCH   3  18
TORSDOF 4
ENDMDL
MODEL 4
REMARK VINA RESULT:      -9.0      1.388      1.879
REMARK SMILES Nc1c(C(=O)NCc2ccc[nH]2)ccc2cc[nH]c12
REMARK SMILES IDX 4 1 5 2 6 3 3 5 2 6 19 7 13 8 18 9 15 10 14 11 17 12 16 13
REMARK SMILES IDX 1 15 7 18 8 19 9 20 12 21 10 22 11 23
REMARK H PARENT 6 4 18 14 1 16 1 17 12 24
ROOT
ATOM      1  C   UNL     1      44.299 131.749  16.806  1.00  0.00     0.253 C 
ATOM      2  O   UNL     1      43.433 131.462  15.935  1.00  0.00    -0.269 OA
ATOM      3  N   UNL     1      45.617 132.151  16.402  1.00  0.00    -0.346 N 
ATOM      4  H   UNL     1      46.327 132.394  17.130  1.00  0.00     0.164 HD
ENDROOT
BRANCH   1   5
ATOM      5  C   UNL     1      43.959 131.639  18.241  1.00  0.00     0.064 A 
ATOM      6  C   UNL     1      44.869 131.083  19.187  1.00  0.00     0.069 A 
ATOM      7  C   UNL     1      44.483 131.087  20.538  1.00  0.00     0.070 A 
ATOM      8  C   UNL     1      42.708 132.143  18.682  1.00  0.00     0.017 A 
ATOM      9  N   UNL     1      45.166 130.615  21.599  1.00  0.00    -0.359 N 
ATOM     10  C   UNL     1      43.272 131.586  20.939  1.00  0.00     0.002 A 
ATOM     11  C   UNL     1      42.357 132.119  20.040  1.00  0.00     0.011 A 
ATOM     12  C   UNL     1      44.379 130.827  22.677  1.00  0.00     0.083 A 
ATOM     13  C   UNL     1      43.186 131.432  22.305  1.00  0.00     0.028 A 
ATOM     14  H   UNL     1      46.109 130.169  21.611  1.00  0.00     0.166 HD
BRANCH   6  15
ATOM     15  N   UNL     1      46.112 130.488  18.783  1.00  0.00    -0.396 N 
ATOM     16  H   UNL     1      47.027 130.866  19.108  1.00  0.00     0.156 HD
ATOM     17  H   UNL     1      46.141 129.616  18.211  1.00  0.00     0.156 HD
ENDBRANCH   6  15
ENDBRANCH   1   5
BRANCH   3  18
ATOM     18  C   UNL     1      45.996 132.290  14.999  1.00  0.00     0.170 C 
BRANCH  18  19
ATOM     19  C   UNL     1      46.838 131.126  14.573  1.00  0.00     0.034 A 
ATOM     20  C   UNL     1      47.519 131.027  13.376  1.00  0.00     0.025 A 
ATOM     21  N   UNL     1      46.979 129.993  15.287  1.00  0.00    -0.364 N 
ATOM     22  C   UNL     1      48.108 129.778  13.372  1.00  0.00     0.020 A 
ATOM     23  C   UNL     1      47.755 129.170  14.561  1.00  0.00     0.082 A 
ATOM     24  H   UNL     1      46.559 129.785  16.221  1.00  0.00     0.166 HD
ENDBRANCH  18  19
ENDBRANCH   3  18
TORSDOF 4
ENDMDL
MODEL 5
REMARK VINA RESULT:      -8.7      1.407      6.952
REMARK SMILES Nc1c(C(=O)NCc2ccc[nH]2)ccc2cc[nH]c12
REMARK SMILES IDX 4 1 5 2 6 3 3 5 2 6 19 7 13 8 18 9 15 10 14 11 17 12 16 13
REMARK SMILES IDX 1 15 7 18 8 19 9 20 12 21 10 22 11 23
REMARK H PARENT 6 4 18 14 1 16 1 17 12 24
ROOT
ATOM      1  C   UNL     1      43.453 131.690  18.166  1.00  0.00     0.253 C 
ATOM      2  O   UNL     1      42.209 131.834  18.023  1.00  0.00    -0.269 OA
ATOM      3  N   UNL     1      44.048 131.847  19.464  1.00  0.00    -0.346 N 
ATOM      4  H   UNL     1      45.080 131.719  19.576  1.00  0.00     0.164 HD
ENDROOT
BRANCH   1   5
ATOM      5  C   UNL     1      44.297 131.392  16.989  1.00  0.00     0.064 A 
ATOM      6  C   UNL     1      45.516 130.663  17.106  1.00  0.00     0.069 A 
ATOM      7  C   UNL     1      46.211 130.369  15.921  1.00  0.00     0.070 A 
ATOM      8  C   UNL     1      43.848 131.811  15.710  1.00  0.00     0.017 A 
ATOM      9  N   UNL     1      47.376 129.706  15.783  1.00  0.00    -0.359 N 
ATOM     10  C   UNL     1      45.753 130.779  14.696  1.00  0.00     0.002 A 
ATOM     11  C   UNL     1      44.578 131.505  14.552  1.00  0.00     0.011 A 
ATOM     12  C   UNL     1      47.647 129.694  14.459  1.00  0.00     0.083 A 
ATOM     13  C   UNL     1      46.655 130.355  13.746  1.00  0.00     0.028 A 
ATOM     14  H   UNL     1      47.968 129.282  16.530  1.00  0.00     0.166 HD
BRANCH   6  15
ATOM     15  N   UNL     1      46.055 130.286  18.382  1.00  0.00    -0.396 N 
ATOM     16  H   UNL     1      46.972 130.651  18.715  1.00  0.00     0.156 HD
ATOM     17  H   UNL     1      45.516 129.692  19.049  1.00  0.00     0.156 HD
ENDBRANCH   6  15
ENDBRANCH   1   5
BRANCH   3  18
ATOM     18  C   UNL     1      43.256 132.125  20.659  1.00  0.00     0.170 C 
BRANCH  18  19
ATOM     19  C   UNL     1      43.458 131.044  21.676  1.00  0.00     0.034 A 
ATOM     20  C   UNL     1      44.641 130.366  21.899  1.00  0.00     0.025 A 
ATOM     21  N   UNL     1      42.481 130.550  22.460  1.00  0.00    -0.364 N 
ATOM     22  C   UNL     1      44.367 129.425  22.870  1.00  0.00     0.020 A 
ATOM     23  C   UNL     1      43.031 129.565  23.191  1.00  0.00     0.082 A 
ATOM     24  H   UNL     1      41.485 130.860  22.488  1.00  0.00     0.166 HD
ENDBRANCH  18  19
ENDBRANCH   3  18
TORSDOF 4
ENDMDL
MODEL 6
REMARK VINA RESULT:      -8.1      1.652      7.062
REMARK SMILES Nc1c(C(=O)NCc2ccc[nH]2)ccc2cc[nH]c12
REMARK SMILES IDX 4 1 5 2 6 3 3 5 2 6 19 7 13 8 18 9 15 10 14 11 17 12 16 13
REMARK SMILES IDX 1 15 7 18 8 19 9 20 12 21 10 22 11 23
REMARK H PARENT 6 4 18 14 1 16 1 17 12 24
ROOT
ATOM      1  C   UNL     1      44.475 131.469  17.739  1.00  0.00     0.253 C 
ATOM      2  O   UNL     1      43.288 131.838  17.526  1.00  0.00    -0.269 OA
ATOM      3  N   UNL     1      45.049 131.620  19.047  1.00  0.00    -0.346 N 
ATOM      4  H   UNL     1      46.032 131.305  19.216  1.00  0.00     0.164 HD
ENDROOT
BRANCH   1   5
ATOM      5  C   UNL     1      45.280 130.911  16.630  1.00  0.00     0.064 A 
ATOM      6  C   UNL     1      45.927 131.752  15.678  1.00  0.00     0.069 A 
ATOM      7  C   UNL     1      46.726 131.130  14.704  1.00  0.00     0.070 A 
ATOM      8  C   UNL     1      45.439 129.504  16.549  1.00  0.00     0.017 A 
ATOM      9  N   UNL     1      47.423 131.710  13.706  1.00  0.00    -0.359 N 
ATOM     10  C   UNL     1      46.869 129.769  14.651  1.00  0.00     0.002 A 
ATOM     11  C   UNL     1      46.238 128.923  15.553  1.00  0.00     0.011 A 
ATOM     12  C   UNL     1      48.014 130.703  13.026  1.00  0.00     0.083 A 
ATOM     13  C   UNL     1      47.692 129.474  13.586  1.00  0.00     0.028 A 
ATOM     14  H   UNL     1      47.502 132.726  13.482  1.00  0.00     0.166 HD
BRANCH   6  15
ATOM     15  N   UNL     1      45.735 133.175  15.668  1.00  0.00    -0.396 N 
ATOM     16  H   UNL     1      46.092 133.766  14.888  1.00  0.00     0.156 HD
ATOM     17  H   UNL     1      45.171 133.656  16.401  1.00  0.00     0.156 HD
ENDBRANCH   6  15
ENDBRANCH   1   5
BRANCH   3  18
ATOM     18  C   UNL     1      44.291 132.150  20.177  1.00  0.00     0.170 C 
BRANCH  18  19
ATOM     19  C   UNL     1      44.127 131.096  21.228  1.00  0.00     0.034 A 
ATOM     20  C   UNL     1      42.996 130.901  21.997  1.00  0.00     0.025 A 
ATOM     21  N   UNL     1      45.099 130.243  21.603  1.00  0.00    -0.364 N 
ATOM     22  C   UNL     1      43.296 129.875  22.870  1.00  0.00     0.020 A 
ATOM     23  C   UNL     1      44.596 129.495  22.600  1.00  0.00     0.082 A 
ATOM     24  H   UNL     1      46.063 130.178  21.206  1.00  0.00     0.166 HD
ENDBRANCH  18  19
ENDBRANCH   3  18
TORSDOF 4
ENDMDL
MODEL 7
REMARK VINA RESULT:      -7.7      1.481      7.073
REMARK SMILES Nc1c(C(=O)NCc2ccc[nH]2)ccc2cc[nH]c12
REMARK SMILES IDX 4 1 5 2 6 3 3 5 2 6 19 7 13 8 18 9 15 10 14 11 17 12 16 13
REMARK SMILES IDX 1 15 7 18 8 19 9 20 12 21 10 22 11 23
REMARK H PARENT 6 4 18 14 1 16 1 17 12 24
ROOT
ATOM      1  C   UNL     1      43.818 131.527  17.676  1.00  0.00     0.253 C 
ATOM      2  O   UNL     1      42.677 131.825  17.229  1.00  0.00    -0.269 OA
ATOM      3  N   UNL     1      44.108 131.697  19.072  1.00  0.00    -0.346 N 
ATOM      4  H   UNL     1      45.054 131.441  19.436  1.00  0.00     0.164 HD
ENDROOT
BRANCH   1   5
ATOM      5  C   UNL     1      44.861 131.034  16.751  1.00  0.00     0.064 A 
ATOM      6  C   UNL     1      44.904 131.439  15.385  1.00  0.00     0.069 A 
ATOM      7  C   UNL     1      45.975 130.972  14.604  1.00  0.00     0.070 A 
ATOM      8  C   UNL     1      45.866 130.171  17.261  1.00  0.00     0.017 A 
ATOM      9  N   UNL     1      46.220 131.212  13.301  1.00  0.00    -0.359 N 
ATOM     10  C   UNL     1      46.936 130.145  15.122  1.00  0.00     0.002 A 
ATOM     11  C   UNL     1      46.913 129.720  16.444  1.00  0.00     0.011 A 
ATOM     12  C   UNL     1      47.350 130.534  13.001  1.00  0.00     0.083 A 
ATOM     13  C   UNL     1      47.828 129.854  14.113  1.00  0.00     0.028 A 
ATOM     14  H   UNL     1      45.664 131.795  12.638  1.00  0.00     0.166 HD
BRANCH   6  15
ATOM     15  N   UNL     1      43.869 132.246  14.801  1.00  0.00    -0.396 N 
ATOM     16  H   UNL     1      43.698 133.224  15.118  1.00  0.00     0.156 HD
ATOM     17  H   UNL     1      43.302 131.908  13.993  1.00  0.00     0.156 HD
ENDBRANCH   6  15
ENDBRANCH   1   5
BRANCH   3  18
ATOM     18  C   UNL     1      43.106 132.165  20.027  1.00  0.00     0.170 C 
BRANCH  18  19
ATOM     19  C   UNL     1      43.327 131.523  21.363  1.00  0.00     0.034 A 
ATOM     20  C   UNL     1      42.648 131.837  22.523  1.00  0.00     0.025 A 
ATOM     21  N   UNL     1      44.274 130.599  21.610  1.00  0.00    -0.364 N 
ATOM     22  C   UNL     1      43.204 131.057  23.517  1.00  0.00     0.020 A 
ATOM     23  C   UNL     1      44.200 130.309  22.921  1.00  0.00     0.082 A 
ATOM     24  H   UNL     1      44.946 130.191  20.923  1.00  0.00     0.166 HD
ENDBRANCH  18  19
ENDBRANCH   3  18
TORSDOF 4
ENDMDL
MODEL 8
REMARK VINA RESULT:      -7.6      2.025      7.040
REMARK SMILES Nc1c(C(=O)NCc2ccc[nH]2)ccc2cc[nH]c12
REMARK SMILES IDX 4 1 5 2 6 3 3 5 2 6 19 7 13 8 18 9 15 10 14 11 17 12 16 13
REMARK SMILES IDX 1 15 7 18 8 19 9 20 12 21 10 22 11 23
REMARK H PARENT 6 4 18 14 1 16 1 17 12 24
ROOT
ATOM      1  C   UNL     1      43.953 131.649  20.085  1.00  0.00     0.253 C 
ATOM      2  O   UNL     1      43.070 132.531  20.269  1.00  0.00    -0.269 OA
ATOM      3  N   UNL     1      44.551 130.988  21.211  1.00  0.00    -0.346 N 
ATOM      4  H   UNL     1      45.277 130.253  21.050  1.00  0.00     0.164 HD
ENDROOT
BRANCH   1   5
ATOM      5  C   UNL     1      44.390 131.324  18.710  1.00  0.00     0.064 A 
ATOM      6  C   UNL     1      43.620 131.701  17.571  1.00  0.00     0.069 A 
ATOM      7  C   UNL     1      44.153 131.410  16.304  1.00  0.00     0.070 A 
ATOM      8  C   UNL     1      45.630 130.659  18.532  1.00  0.00     0.017 A 
ATOM      9  N   UNL     1      43.612 131.661  15.096  1.00  0.00    -0.359 N 
ATOM     10  C   UNL     1      45.357 130.773  16.159  1.00  0.00     0.002 A 
ATOM     11  C   UNL     1      46.122 130.378  17.249  1.00  0.00     0.011 A 
ATOM     12  C   UNL     1      44.487 131.183  14.185  1.00  0.00     0.083 A 
ATOM     13  C   UNL     1      45.591 130.620  14.810  1.00  0.00     0.028 A 
ATOM     14  H   UNL     1      42.702 132.126  14.883  1.00  0.00     0.166 HD
BRANCH   6  15
ATOM     15  N   UNL     1      42.323 132.305  17.698  1.00  0.00    -0.396 N 
ATOM     16  H   UNL     1      41.956 132.961  16.977  1.00  0.00     0.156 HD
ATOM     17  H   UNL     1      41.677 132.053  18.476  1.00  0.00     0.156 HD
ENDBRANCH   6  15
ENDBRANCH   1   5
BRANCH   3  18
ATOM     18  C   UNL     1      44.143 131.262  22.586  1.00  0.00     0.170 C 
BRANCH  18  19
ATOM     19  C   UNL     1      43.464 130.062  23.172  1.00  0.00     0.034 A 
ATOM     20  C   UNL     1      44.096 128.905  23.581  1.00  0.00     0.025 A 
ATOM     21  N   UNL     1      42.129 129.940  23.309  1.00  0.00    -0.364 N 
ATOM     22  C   UNL     1      43.097 128.047  23.995  1.00  0.00     0.020 A 
ATOM     23  C   UNL     1      41.902 128.715  23.813  1.00  0.00     0.082 A 
ATOM     24  H   UNL     1      41.407 130.652  23.062  1.00  0.00     0.166 HD
ENDBRANCH  18  19
ENDBRANCH   3  18
TORSDOF 4
ENDMDL


