REMARK SMILES Nc1cc(F)c[n-]/c1=N\c1ccc2[nH+]c([NH2+]c3cc4cccc(F)c4[nH]3)cn2c1
REMARK SMILES IDX 10 1 11 2 12 3 13 4 28 5 29 6 27 7 15 8 14 9 9 11 8 12 6 13
REMARK SMILES IDX 7 14 4 15 3 16 2 17 5 18 1 19 16 22 17 25 18 26 26 27 19 28
REMARK SMILES IDX 25 29 20 30 23 31 21 32 22 33 24 35
REMARK H PARENT 14 10 1 20 1 21 16 23 16 24 26 34
ROOT
ATOM      1  C   UNL     1      -1.600   3.015   2.042  1.00  0.00    -0.001 A 
ATOM      2  C   UNL     1      -0.595   3.859   1.524  1.00  0.00     0.016 A 
ATOM      3  C   UNL     1      -0.191   3.756   0.183  1.00  0.00     0.100 A 
ATOM      4  C   UNL     1      -0.835   2.814  -0.614  1.00  0.00     0.288 A 
ATOM      5  N   UNL     1      -1.811   2.036  -0.113  1.00  0.00    -0.196 N 
ATOM      6  C   UNL     1      -2.231   2.096   1.175  1.00  0.00     0.210 A 
ATOM      7  C   UNL     1      -2.228   1.247  -1.118  1.00  0.00     0.322 A 
ATOM      8  C   UNL     1      -1.472   1.588  -2.231  1.00  0.00     0.333 A 
ATOM      9  N   UNL     1      -0.591   2.565  -1.914  1.00  0.00    -0.191 N 
ATOM     10  H   UNL     1       0.124   3.010  -2.532  1.00  0.00     0.318 HD
ENDROOT
BRANCH   1  11
ATOM     11  N   UNL     1      -2.005   3.179   3.412  1.00  0.00    -0.431 NA
BRANCH  11  12
ATOM     12  C   UNL     1      -2.379   2.243   4.238  1.00  0.00    -0.035 A 
ATOM     13  C   UNL     1      -2.687  -0.072   4.718  1.00  0.00     0.018 A 
ATOM     14  N   UNL     1      -2.328   0.929   3.873  1.00  0.00    -0.438 NA
ATOM     15  C   UNL     1      -3.118   0.226   6.010  1.00  0.00     0.121 A 
ATOM     16  C   UNL     1      -3.171   1.558   6.421  1.00  0.00     0.064 A 
ATOM     17  C   UNL     1      -2.798   2.583   5.541  1.00  0.00     0.033 A 
ATOM     18  F   UNL     1      -3.477  -0.768   6.860  1.00  0.00    -0.207 F 
BRANCH  17  19
ATOM     19  N   UNL     1      -2.852   3.947   5.976  1.00  0.00    -0.399 N 
ATOM     20  H   UNL     1      -3.164   4.184   6.944  1.00  0.00     0.156 HD
ATOM     21  H   UNL     1      -2.584   4.734   5.344  1.00  0.00     0.156 HD
ENDBRANCH  17  19
ENDBRANCH  11  12
ENDBRANCH   1  11
BRANCH   8  22
ATOM     22  N   UNL     1      -1.518   0.934  -3.506  1.00  0.00    -0.229 N 
ATOM     23  H   UNL     1      -2.483   0.572  -3.686  1.00  0.00     0.363 HD
ATOM     24  H   UNL     1      -1.268   1.615  -4.258  1.00  0.00     0.363 HD
BRANCH  22  25
ATOM     25  C   UNL     1      -0.580  -0.151  -3.507  1.00  0.00     0.211 A 
ATOM     26  C   UNL     1      -0.868  -1.454  -3.105  1.00  0.00     0.099 A 
ATOM     27  N   UNL     1       0.732  -0.001  -3.807  1.00  0.00    -0.307 N 
ATOM     28  C   UNL     1       0.338  -2.115  -3.187  1.00  0.00     0.009 A 
ATOM     29  C   UNL     1       1.280  -1.212  -3.612  1.00  0.00     0.086 A 
ATOM     30  C   UNL     1       0.664  -3.439  -2.901  1.00  0.00     0.011 A 
ATOM     31  C   UNL     1       2.616  -1.576  -3.780  1.00  0.00     0.147 A 
ATOM     32  C   UNL     1       2.005  -3.835  -3.065  1.00  0.00     0.004 A 
ATOM     33  C   UNL     1       2.977  -2.907  -3.503  1.00  0.00     0.041 A 
ATOM     34  H   UNL     1       1.216   0.875  -4.107  1.00  0.00     0.172 HD
ATOM     35  F   UNL     1       3.542  -0.676  -4.195  1.00  0.00    -0.205 F 
ENDBRANCH  22  25
ENDBRANCH   8  22
TORSDOF 5


