REMARK SMILES [NH3+]/C=C(\O)c1ccc(-c2c[nH+]c3cc[nH+]n3c2)c2c[n-]nc12
REMARK SMILES IDX 3 1 4 2 2 4 1 5 5 9 6 10 22 11 7 12 21 13 18 14 8 15 20 16
REMARK SMILES IDX 19 17 9 18 17 19 10 20 16 21 11 22 12 23 15 24 13 25 14 26
REMARK H PARENT 4 3 1 6 1 7 1 8 11 27 15 28
ROOT
ATOM      1  C   UNL     1       2.201   2.167  -2.652  1.00  0.00     0.178 C 
ENDROOT
BRANCH   1   2
ATOM      2  O   UNL     1       1.875   2.339  -4.002  1.00  0.00    -0.503 OA
ATOM      3  H   UNL     1       2.553   2.580  -4.714  1.00  0.00     0.293 HD
ENDBRANCH   1   2
BRANCH   1   4
ATOM      4  C   UNL     1       3.469   2.311  -2.220  1.00  0.00     0.265 C 
BRANCH   4   5
ATOM      5  N   UNL     1       4.542   2.664  -3.102  1.00  0.00    -0.328 N 
ATOM      6  H   UNL     1       5.430   2.720  -2.554  1.00  0.00     0.350 HD
ATOM      7  H   UNL     1       4.353   3.598  -3.532  1.00  0.00     0.350 HD
ATOM      8  H   UNL     1       4.649   1.932  -3.840  1.00  0.00     0.350 HD
ENDBRANCH   4   5
ENDBRANCH   1   4
BRANCH   1   9
ATOM      9  C   UNL     1       1.109   1.809  -1.712  1.00  0.00     0.046 A 
ATOM     10  C   UNL     1       1.092   2.258  -0.369  1.00  0.00     0.015 A 
ATOM     11  C   UNL     1       0.015   1.039  -2.132  1.00  0.00     0.059 A 
ATOM     12  C   UNL     1       0.029   1.922   0.496  1.00  0.00     0.010 A 
ATOM     13  N   UNL     1      -0.211   0.526  -3.355  1.00  0.00    -0.367 NA
ATOM     14  C   UNL     1      -1.011   0.709  -1.289  1.00  0.00    -0.014 A 
ATOM     15  C   UNL     1      -1.047   1.125   0.048  1.00  0.00    -0.003 A 
ATOM     16  N   UNL     1      -1.373  -0.116  -3.311  1.00  0.00    -0.581 NA
ATOM     17  C   UNL     1      -1.889  -0.018  -2.064  1.00  0.00    -0.113 A 
BRANCH  15  18
ATOM     18  C   UNL     1      -2.154   0.762   0.962  1.00  0.00     0.067 A 
ATOM     19  C   UNL     1      -2.759   1.736   1.780  1.00  0.00     0.290 A 
ATOM     20  C   UNL     1      -2.614  -0.574   1.062  1.00  0.00     0.210 A 
ATOM     21  N   UNL     1      -3.758   1.343   2.604  1.00  0.00     0.008 N 
ATOM     22  N   UNL     1      -3.628  -0.900   1.917  1.00  0.00    -0.242 N 
ATOM     23  C   UNL     1      -4.182   0.078   2.674  1.00  0.00     0.346 A 
ATOM     24  N   UNL     1      -4.457   2.087   3.441  1.00  0.00    -0.055 N 
ATOM     25  C   UNL     1      -5.204  -0.025   3.595  1.00  0.00     0.180 A 
ATOM     26  C   UNL     1      -5.349   1.281   4.062  1.00  0.00     0.364 A 
ATOM     27  H   UNL     1      -3.963  -1.887   1.989  1.00  0.00     0.312 HD
ATOM     28  H   UNL     1      -4.333   3.114   3.587  1.00  0.00     0.514 HD
ENDBRANCH  15  18
ENDBRANCH   1   9
TORSDOF 5


