REMARK SMILES CC(=O)c1ccc(/C(N=[N+]=[N-])=N/[C@@H]2C=CCC2)c(F)c1[O-]
REMARK SMILES IDX 8 1 12 2 13 3 15 4 14 5 16 6 17 7 9 8 10 9 11 10 7 11 6 12
REMARK SMILES IDX 18 13 5 14 20 15 4 16 19 17 21 18 2 19 3 20 1 21
REMARK H PARENT
ROOT
ATOM      1  C   UNL     1       0.801  -0.668  -0.747  1.00  0.00     0.132 C 
ENDROOT
BRANCH   1   2
ATOM      2  N   UNL     1       1.601   0.300  -0.405  1.00  0.00    -0.275 NA
BRANCH   2   3
ATOM      3  C   UNL     1       3.029   0.353  -0.721  1.00  0.00     0.128 C 
ATOM      4  C   UNL     1       4.606   0.035   0.975  1.00  0.00    -0.029 C 
ATOM      5  C   UNL     1       3.789  -0.590   0.147  1.00  0.00    -0.005 C 
ATOM      6  C   UNL     1       4.548   1.511   0.819  1.00  0.00     0.029 C 
ATOM      7  C   UNL     1       3.603   1.733  -0.366  1.00  0.00     0.035 C 
ENDBRANCH   2   3
ENDBRANCH   1   2
BRANCH   1   8
ATOM      8  N   UNL     1       1.300  -1.777  -1.512  1.00  0.00    -0.041 NA
BRANCH   8   9
ATOM      9  N   UNL     1       0.549  -2.592  -2.049  1.00  0.00     0.007 N 
ATOM     10  N   UNL     1      -0.199  -3.406  -2.588  1.00  0.00    -0.003 NA
ENDBRANCH   8   9
ENDBRANCH   1   8
BRANCH   1  11
ATOM     11  C   UNL     1      -0.624  -0.579  -0.358  1.00  0.00     0.037 A 
ATOM     12  C   UNL     1      -1.329   0.613  -0.570  1.00  0.00     0.014 A 
ATOM     13  C   UNL     1      -1.277  -1.661   0.256  1.00  0.00     0.125 A 
ATOM     14  C   UNL     1      -2.673   0.717  -0.208  1.00  0.00     0.012 A 
ATOM     15  C   UNL     1      -2.625  -1.560   0.625  1.00  0.00    -0.060 A 
ATOM     16  C   UNL     1      -3.346  -0.367   0.388  1.00  0.00     0.012 A 
ATOM     17  F   UNL     1      -0.597  -2.801   0.542  1.00  0.00    -0.207 F 
ATOM     18  O   UNL     1      -3.229  -2.652   1.241  1.00  0.00    -0.870 OA
BRANCH  16  19
ATOM     19  C   UNL     1      -4.785  -0.246   0.761  1.00  0.00     0.159 C 
ATOM     20  O   UNL     1      -5.463  -1.280   1.012  1.00  0.00    -0.295 OA
ATOM     21  C   UNL     1      -5.477   1.083   0.817  1.00  0.00     0.093 C 
ENDBRANCH  16  19
ENDBRANCH   1  11
TORSDOF 6


