REMARK SMILES Nc1cc(F)c[nH]/c1=N\c1c[nH]c2nccc-2c1
REMARK SMILES IDX 8 1 2 2 3 3 4 4 5 5 6 6 7 7 9 9 10 10 15 11 14 12 16 13
REMARK SMILES IDX 13 14 17 15 12 16 18 17 11 18 1 20
REMARK H PARENT 7 8 12 19 1 21 1 22
ROOT
ATOM      1  C   UNL     1       0.571  -1.440   1.193  1.00  0.00     0.154 A 
ATOM      2  C   UNL     1       0.811  -2.281   2.300  1.00  0.00     0.078 A 
ATOM      3  C   UNL     1       0.274  -3.575   2.301  1.00  0.00     0.070 A 
ATOM      4  C   UNL     1      -0.474  -4.022   1.215  1.00  0.00     0.141 A 
ATOM      5  F   UNL     1      -0.993  -5.275   1.211  1.00  0.00    -0.205 F 
ATOM      6  C   UNL     1      -0.672  -3.176   0.127  1.00  0.00     0.123 A 
ATOM      7  N   UNL     1      -0.149  -1.919   0.128  1.00  0.00    -0.342 N 
ATOM      8  H   UNL     1      -0.289  -1.349  -0.734  1.00  0.00     0.168 HD
ENDROOT
BRANCH   1   9
ATOM      9  N   UNL     1       1.073  -0.234   1.191  1.00  0.00    -0.228 NA
BRANCH   9  10
ATOM     10  C   UNL     1       0.858   0.799   0.220  1.00  0.00     0.082 A 
ATOM     11  C   UNL     1      -1.115   3.855  -2.435  1.00  0.00     0.114 A 
ATOM     12  N   UNL     1       0.243   3.897  -2.387  1.00  0.00    -0.239 NA
ATOM     13  C   UNL     1      -1.653   2.846  -1.632  1.00  0.00     0.032 A 
ATOM     14  C   UNL     1       0.575   2.901  -1.550  1.00  0.00     0.137 A 
ATOM     15  C   UNL     1      -0.575   2.224  -1.058  1.00  0.00     0.021 A 
ATOM     16  N   UNL     1       1.824   2.558  -1.155  1.00  0.00    -0.344 N 
ATOM     17  C   UNL     1      -0.452   1.177  -0.160  1.00  0.00     0.042 A 
ATOM     18  C   UNL     1       1.976   1.524  -0.271  1.00  0.00     0.112 A 
ATOM     19  H   UNL     1       2.657   3.077  -1.513  1.00  0.00     0.168 HD
ENDBRANCH   9  10
ENDBRANCH   1   9
BRANCH   2  20
ATOM     20  N   UNL     1       1.579  -1.835   3.426  1.00  0.00    -0.396 N 
ATOM     21  H   UNL     1       1.745  -2.468   4.240  1.00  0.00     0.156 HD
ATOM     22  H   UNL     1       1.991  -0.876   3.463  1.00  0.00     0.156 HD
ENDBRANCH   2  20
TORSDOF 3


