REMARK SMILES C=Cc1cc(-c2ccc(C)c3n[nH]cc23)ccc1O
REMARK SMILES IDX 3 1 4 2 5 3 16 4 17 5 18 6 2 7 1 8 19 9 6 11 7 12 15 13 8 14
REMARK SMILES IDX 14 15 11 16 9 17 13 18 12 19 10 20
REMARK H PARENT 19 10 13 21
ROOT
ATOM      1  C   UNL     1      -0.971   2.788  -2.284  1.00  0.00     0.016 A 
ATOM      2  C   UNL     1      -1.016   1.653  -1.448  1.00  0.00     0.020 A 
ATOM      3  C   UNL     1      -0.944   1.783  -0.051  1.00  0.00    -0.017 A 
ATOM      4  C   UNL     1      -0.859   3.063   0.514  1.00  0.00     0.012 A 
ATOM      5  C   UNL     1      -0.833   4.194  -0.301  1.00  0.00     0.047 A 
ATOM      6  C   UNL     1      -0.889   4.066  -1.696  1.00  0.00     0.122 A 
ENDROOT
BRANCH   1   7
ATOM      7  C   UNL     1      -1.049   2.667  -3.762  1.00  0.00     0.004 C 
ATOM      8  C   UNL     1      -0.681   1.577  -4.436  1.00  0.00     0.009 C 
ENDBRANCH   1   7
BRANCH   6   9
ATOM      9  O   UNL     1      -0.856   5.208  -2.497  1.00  0.00    -0.507 OA
ATOM     10  H   UNL     1      -0.795   6.137  -2.097  1.00  0.00     0.293 HD
ENDBRANCH   6   9
BRANCH   3  11
ATOM     11  C   UNL     1      -0.991   0.586   0.821  1.00  0.00    -0.007 A 
ATOM     12  C   UNL     1      -1.862   0.534   1.933  1.00  0.00     0.010 A 
ATOM     13  C   UNL     1      -0.191  -0.542   0.589  1.00  0.00     0.028 A 
ATOM     14  C   UNL     1      -1.918  -0.612   2.757  1.00  0.00     0.006 A 
ATOM     15  C   UNL     1       0.776  -0.824  -0.353  1.00  0.00     0.114 A 
ATOM     16  C   UNL     1      -0.241  -1.651   1.393  1.00  0.00     0.096 A 
ATOM     17  C   UNL     1      -1.091  -1.726   2.499  1.00  0.00    -0.023 A 
ATOM     18  N   UNL     1       1.247  -2.064  -0.095  1.00  0.00    -0.284 N 
ATOM     19  N   UNL     1       0.637  -2.578   0.967  1.00  0.00    -0.175 NA
ATOM     20  C   UNL     1      -1.156  -2.959   3.350  1.00  0.00     0.047 C 
ATOM     21  H   UNL     1       1.990  -2.557  -0.637  1.00  0.00     0.189 HD
ENDBRANCH   3  11
TORSDOF 3


