REMARK SMILES Oc1ccc(/N=c2\ccc3ccc(-c4ccc[nH+]c4F)[nH]c-3c2F)c(F)c1
REMARK SMILES IDX 6 1 5 2 2 3 3 4 27 5 4 6 25 7 26 8 1 9 7 11 8 12 23 13 9 14
REMARK SMILES IDX 22 15 10 16 21 17 11 18 13 19 12 20 24 21 14 23 15 24 19 25
REMARK SMILES IDX 16 26 18 27 17 28 20 29
REMARK H PARENT 1 10 21 22 18 30
ROOT
ATOM      1  N   UNL     1       2.571   0.762   0.292  1.00  0.00    -0.243 NA
ENDROOT
BRANCH   1   2
ATOM      2  C   UNL     1       3.722   1.170   1.048  1.00  0.00     0.100 A 
ATOM      3  C   UNL     1       6.032   2.020   2.403  1.00  0.00     0.118 A 
ATOM      4  C   UNL     1       4.839   2.738   2.533  1.00  0.00     0.048 A 
ATOM      5  C   UNL     1       6.075   0.888   1.578  1.00  0.00     0.087 A 
ATOM      6  C   UNL     1       3.691   2.325   1.850  1.00  0.00     0.035 A 
ATOM      7  C   UNL     1       4.928   0.472   0.893  1.00  0.00     0.152 A 
ATOM      8  F   UNL     1       4.986  -0.618   0.088  1.00  0.00    -0.204 F 
BRANCH   3   9
ATOM      9  O   UNL     1       7.167   2.442   3.090  1.00  0.00    -0.508 OA
ATOM     10  H   UNL     1       8.047   1.945   3.015  1.00  0.00     0.293 HD
ENDBRANCH   3   9
ENDBRANCH   1   2
BRANCH   1  11
ATOM     11  C   UNL     1       1.354   0.574   0.728  1.00  0.00     0.102 A 
ATOM     12  C   UNL     1       1.030   0.623   2.105  1.00  0.00     0.032 A 
ATOM     13  C   UNL     1       0.354   0.271  -0.213  1.00  0.00     0.172 A 
ATOM     14  C   UNL     1      -0.277   0.411   2.552  1.00  0.00     0.013 A 
ATOM     15  C   UNL     1      -0.969   0.054   0.198  1.00  0.00     0.084 A 
ATOM     16  C   UNL     1      -1.292   0.131   1.638  1.00  0.00     0.001 A 
ATOM     17  N   UNL     1      -1.960  -0.229  -0.694  1.00  0.00    -0.352 N 
ATOM     18  C   UNL     1      -2.608  -0.093   2.036  1.00  0.00     0.012 A 
ATOM     19  C   UNL     1      -3.250  -0.439  -0.288  1.00  0.00     0.055 A 
ATOM     20  C   UNL     1      -3.582  -0.377   1.079  1.00  0.00     0.028 A 
ATOM     21  F   UNL     1       0.674   0.203  -1.532  1.00  0.00    -0.202 F 
ATOM     22  H   UNL     1      -1.728  -0.310  -1.710  1.00  0.00     0.167 HD
BRANCH  19  23
ATOM     23  C   UNL     1      -4.303  -0.740  -1.288  1.00  0.00     0.102 A 
ATOM     24  C   UNL     1      -5.205  -1.795  -1.076  1.00  0.00     0.026 A 
ATOM     25  C   UNL     1      -4.424   0.018  -2.468  1.00  0.00     0.367 A 
ATOM     26  C   UNL     1      -6.188  -2.078  -2.024  1.00  0.00     0.072 A 
ATOM     27  N   UNL     1      -5.394  -0.279  -3.377  1.00  0.00    -0.186 N 
ATOM     28  C   UNL     1      -6.267  -1.303  -3.180  1.00  0.00     0.309 A 
ATOM     29  F   UNL     1      -3.603   1.075  -2.696  1.00  0.00    -0.135 F 
ATOM     30  H   UNL     1      -5.474   0.297  -4.245  1.00  0.00     0.456 HD
ENDBRANCH  19  23
ENDBRANCH   1  11
TORSDOF 4


