REMARK SMILES Cc1ccc(-c2ccc(N(C(=O)[C@@H](C)C(F)(F)F)c3cc4ccccc4[nH]3)c(C=O)c2)cc1
REMARK SMILES IDX 10 1 9 2 6 3 7 4 31 5 8 6 28 7 5 8 2 9 3 10 33 11 4 12 32 13
REMARK SMILES IDX 1 14 29 15 30 16 11 17 12 18 13 19 14 20 15 21 16 22 17 23
REMARK SMILES IDX 18 24 19 25 20 26 27 27 21 28 26 29 22 30 25 31 23 32 24 33
REMARK H PARENT 27 34
ROOT
ATOM      1  N   UNL     1       1.554  -0.006  -1.608  1.00  0.00    -0.265 N 
ENDROOT
BRANCH   1   2
ATOM      2  C   UNL     1       0.917  -0.422  -0.389  1.00  0.00     0.061 A 
ATOM      3  C   UNL     1      -0.269  -1.296   2.015  1.00  0.00    -0.018 A 
ATOM      4  C   UNL     1       1.127  -1.279   1.873  1.00  0.00     0.011 A 
ATOM      5  C   UNL     1      -1.070  -0.863   0.943  1.00  0.00     0.022 A 
ATOM      6  C   UNL     1       1.712  -0.847   0.683  1.00  0.00     0.028 A 
ATOM      7  C   UNL     1      -0.491  -0.419  -0.260  1.00  0.00     0.039 A 
BRANCH   3   8
ATOM      8  C   UNL     1      -0.892  -1.760   3.282  1.00  0.00    -0.018 A 
ATOM      9  C   UNL     1      -2.082  -2.632   5.685  1.00  0.00    -0.051 A 
ATOM     10  C   UNL     1      -2.623  -3.013   4.449  1.00  0.00     0.004 A 
ATOM     11  C   UNL     1      -0.929  -1.834   5.715  1.00  0.00     0.004 A 
ATOM     12  C   UNL     1      -2.038  -2.575   3.257  1.00  0.00     0.009 A 
ATOM     13  C   UNL     1      -0.342  -1.397   4.524  1.00  0.00     0.009 A 
ATOM     14  C   UNL     1      -2.687  -3.134   6.963  1.00  0.00     0.044 C 
ENDBRANCH   3   8
BRANCH   7  15
ATOM     15  C   UNL     1      -1.352   0.078  -1.356  1.00  0.00     0.262 C 
ATOM     16  O   UNL     1      -2.608   0.018  -1.274  1.00  0.00    -0.298 OA
ENDBRANCH   7  15
ENDBRANCH   1   2
BRANCH   1  17
ATOM     17  C   UNL     1       2.366   1.186  -1.617  1.00  0.00     0.244 C 
ATOM     18  O   UNL     1       3.408   1.226  -2.327  1.00  0.00    -0.273 OA
BRANCH  17  19
ATOM     19  C   UNL     1       1.991   2.393  -0.785  1.00  0.00     0.181 C 
ATOM     20  C   UNL     1       3.074   2.674   0.264  1.00  0.00     0.028 C 
BRANCH  19  21
ATOM     21  C   UNL     1       1.736   3.619  -1.681  1.00  0.00     0.400 C 
ATOM     22  F   UNL     1       0.762   3.320  -2.618  1.00  0.00    -0.170 F 
ATOM     23  F   UNL     1       1.293   4.681  -0.912  1.00  0.00    -0.170 F 
ATOM     24  F   UNL     1       2.893   3.997  -2.341  1.00  0.00    -0.170 F 
ENDBRANCH  19  21
ENDBRANCH  17  19
ENDBRANCH   1  17
BRANCH   1  25
ATOM     25  C   UNL     1       1.462  -0.849  -2.774  1.00  0.00     0.118 A 
ATOM     26  C   UNL     1       1.680  -0.433  -4.089  1.00  0.00     0.056 A 
ATOM     27  N   UNL     1       1.083  -2.150  -2.729  1.00  0.00    -0.341 N 
ATOM     28  C   UNL     1       1.425  -1.549  -4.856  1.00  0.00     0.002 A 
ATOM     29  C   UNL     1       1.069  -2.564  -4.006  1.00  0.00     0.047 A 
ATOM     30  C   UNL     1       1.472  -1.727  -6.237  1.00  0.00     0.010 A 
ATOM     31  C   UNL     1       0.736  -3.833  -4.481  1.00  0.00     0.027 A 
ATOM     32  C   UNL     1       1.143  -2.998  -6.745  1.00  0.00     0.001 A 
ATOM     33  C   UNL     1       0.777  -4.046  -5.871  1.00  0.00     0.002 A 
ATOM     34  H   UNL     1       0.846  -2.717  -1.884  1.00  0.00     0.168 HD
ENDBRANCH   1  25
TORSDOF 7


