MODEL 1
REMARK VINA RESULT:      -7.6      0.000      0.000
REMARK SMILES C=C(/C=C(\O)N(N)c1ccccc1-c1nc2ccccc2[nH]1)C(C)=O
REMARK SMILES IDX 4 1 5 2 3 4 2 5 1 6 23 7 25 8 24 9 6 10 8 11 9 12 13 13
REMARK SMILES IDX 10 14 12 15 11 16 14 17 15 18 22 19 16 20 21 21 17 22 20 23
REMARK SMILES IDX 18 24 19 25 7 27
REMARK H PARENT 5 3 22 26 7 28 7 29
ROOT
ATOM      1  C   UNL     1      45.413 130.762  21.088  1.00  0.00     0.206 C 
ENDROOT
BRANCH   1   2
ATOM      2  O   UNL     1      45.675 131.795  21.992  1.00  0.00    -0.494 OA
ATOM      3  H   UNL     1      45.807 131.620  22.980  1.00  0.00     0.295 HD
ENDBRANCH   1   2
BRANCH   1   4
ATOM      4  C   UNL     1      45.326 129.498  21.537  1.00  0.00     0.079 C 
BRANCH   4   5
ATOM      5  C   UNL     1      44.393 129.075  22.609  1.00  0.00     0.015 C 
ATOM      6  C   UNL     1      43.604 130.002  23.162  1.00  0.00     0.021 C 
BRANCH   5   7
ATOM      7  C   UNL     1      44.408 127.680  23.125  1.00  0.00     0.159 C 
ATOM      8  O   UNL     1      43.325 127.045  23.228  1.00  0.00    -0.295 OA
ATOM      9  C   UNL     1      45.686 126.983  23.488  1.00  0.00     0.093 C 
ENDBRANCH   5   7
ENDBRANCH   4   5
ENDBRANCH   1   4
BRANCH   1  10
ATOM     10  N   UNL     1      45.267 131.068  19.681  1.00  0.00    -0.248 N 
BRANCH  10  11
ATOM     11  C   UNL     1      44.031 131.613  19.187  1.00  0.00     0.072 A 
ATOM     12  C   UNL     1      43.062 132.052  20.105  1.00  0.00     0.029 A 
ATOM     13  C   UNL     1      43.739 131.638  17.800  1.00  0.00     0.043 A 
ATOM     14  C   UNL     1      41.814 132.492  19.663  1.00  0.00     0.002 A 
ATOM     15  C   UNL     1      42.467 132.064  17.375  1.00  0.00     0.014 A 
ATOM     16  C   UNL     1      41.515 132.491  18.302  1.00  0.00     0.001 A 
BRANCH  13  17
ATOM     17  C   UNL     1      44.740 131.262  16.778  1.00  0.00     0.140 A 
ATOM     18  N   UNL     1      45.026 129.967  16.470  1.00  0.00    -0.228 NA
ATOM     19  N   UNL     1      45.421 132.160  16.022  1.00  0.00    -0.338 N 
ATOM     20  C   UNL     1      45.939 130.087  15.490  1.00  0.00     0.089 A 
ATOM     21  C   UNL     1      46.177 131.401  15.220  1.00  0.00     0.066 A 
ATOM     22  C   UNL     1      46.582 129.066  14.795  1.00  0.00     0.030 A 
ATOM     23  C   UNL     1      47.071 131.806  14.232  1.00  0.00     0.028 A 
ATOM     24  C   UNL     1      47.499 129.436  13.792  1.00  0.00     0.002 A 
ATOM     25  C   UNL     1      47.742 130.801  13.511  1.00  0.00     0.002 A 
ATOM     26  H   UNL     1      45.352 133.203  16.027  1.00  0.00     0.168 HD
ENDBRANCH  13  17
ENDBRANCH  10  11
BRANCH  10  27
ATOM     27  N   UNL     1      46.267 130.742  18.745  1.00  0.00    -0.240 NA
ATOM     28  H   UNL     1      46.795 131.611  18.505  1.00  0.00     0.144 HD
ATOM     29  H   UNL     1      46.921 130.062  19.196  1.00  0.00     0.144 HD
ENDBRANCH  10  27
ENDBRANCH   1  10
TORSDOF 8
ENDMDL
MODEL 2
REMARK VINA RESULT:      -7.5      0.694      1.304
REMARK SMILES C=C(/C=C(\O)N(N)c1ccccc1-c1nc2ccccc2[nH]1)C(C)=O
REMARK SMILES IDX 4 1 5 2 3 4 2 5 1 6 23 7 25 8 24 9 6 10 8 11 9 12 13 13
REMARK SMILES IDX 10 14 12 15 11 16 14 17 15 18 22 19 16 20 21 21 17 22 20 23
REMARK SMILES IDX 18 24 19 25 7 27
REMARK H PARENT 5 3 22 26 7 28 7 29
ROOT
ATOM      1  C   UNL     1      45.283 130.699  21.311  1.00  0.00     0.206 C 
ENDROOT
BRANCH   1   2
ATOM      2  O   UNL     1      45.711 131.609  22.281  1.00  0.00    -0.494 OA
ATOM      3  H   UNL     1      45.776 132.601  22.091  1.00  0.00     0.295 HD
ENDBRANCH   1   2
BRANCH   1   4
ATOM      4  C   UNL     1      45.012 129.431  21.670  1.00  0.00     0.079 C 
BRANCH   4   5
ATOM      5  C   UNL     1      44.433 129.061  22.984  1.00  0.00     0.015 C 
ATOM      6  C   UNL     1      45.005 128.066  23.670  1.00  0.00     0.021 C 
BRANCH   5   7
ATOM      7  C   UNL     1      43.189 129.710  23.476  1.00  0.00     0.159 C 
ATOM      8  O   UNL     1      42.070 129.216  23.173  1.00  0.00    -0.295 OA
ATOM      9  C   UNL     1      43.222 130.916  24.367  1.00  0.00     0.093 C 
ENDBRANCH   5   7
ENDBRANCH   4   5
ENDBRANCH   1   4
BRANCH   1  10
ATOM     10  N   UNL     1      45.166 131.128  19.935  1.00  0.00    -0.248 N 
BRANCH  10  11
ATOM     11  C   UNL     1      43.933 131.698  19.460  1.00  0.00     0.072 A 
ATOM     12  C   UNL     1      42.992 132.164  20.394  1.00  0.00     0.029 A 
ATOM     13  C   UNL     1      43.615 131.721  18.079  1.00  0.00     0.043 A 
ATOM     14  C   UNL     1      41.745 132.629  19.973  1.00  0.00     0.002 A 
ATOM     15  C   UNL     1      42.346 132.173  17.676  1.00  0.00     0.014 A 
ATOM     16  C   UNL     1      41.421 132.627  18.618  1.00  0.00     0.001 A 
BRANCH  13  17
ATOM     17  C   UNL     1      44.588 131.317  17.041  1.00  0.00     0.140 A 
ATOM     18  N   UNL     1      44.813 130.016  16.710  1.00  0.00    -0.228 NA
ATOM     19  N   UNL     1      45.301 132.196  16.291  1.00  0.00    -0.338 N 
ATOM     20  C   UNL     1      45.720 130.110  15.723  1.00  0.00     0.089 A 
ATOM     21  C   UNL     1      46.014 131.416  15.470  1.00  0.00     0.066 A 
ATOM     22  C   UNL     1      46.310 129.073  15.005  1.00  0.00     0.030 A 
ATOM     23  C   UNL     1      46.915 131.797  14.479  1.00  0.00     0.028 A 
ATOM     24  C   UNL     1      47.232 129.417  13.998  1.00  0.00     0.002 A 
ATOM     25  C   UNL     1      47.533 130.774  13.735  1.00  0.00     0.002 A 
ATOM     26  H   UNL     1      45.278 133.240  16.313  1.00  0.00     0.168 HD
ENDBRANCH  13  17
ENDBRANCH  10  11
BRANCH  10  27
ATOM     27  N   UNL     1      46.193 130.903  18.999  1.00  0.00    -0.240 NA
ATOM     28  H   UNL     1      46.974 130.398  19.477  1.00  0.00     0.144 HD
ATOM     29  H   UNL     1      45.810 130.293  18.241  1.00  0.00     0.144 HD
ENDBRANCH  10  27
ENDBRANCH   1  10
TORSDOF 8
ENDMDL
MODEL 3
REMARK VINA RESULT:      -7.3      1.151      1.834
REMARK SMILES C=C(/C=C(\O)N(N)c1ccccc1-c1nc2ccccc2[nH]1)C(C)=O
REMARK SMILES IDX 4 1 5 2 3 4 2 5 1 6 23 7 25 8 24 9 6 10 8 11 9 12 13 13
REMARK SMILES IDX 10 14 12 15 11 16 14 17 15 18 22 19 16 20 21 21 17 22 20 23
REMARK SMILES IDX 18 24 19 25 7 27
REMARK H PARENT 5 3 22 26 7 28 7 29
ROOT
ATOM      1  C   UNL     1      45.806 131.645  21.002  1.00  0.00     0.206 C 
ENDROOT
BRANCH   1   2
ATOM      2  O   UNL     1      47.101 132.149  21.155  1.00  0.00    -0.494 OA
ATOM      3  H   UNL     1      47.274 133.129  21.339  1.00  0.00     0.295 HD
ENDBRANCH   1   2
BRANCH   1   4
ATOM      4  C   UNL     1      45.031 131.476  22.087  1.00  0.00     0.079 C 
BRANCH   4   5
ATOM      5  C   UNL     1      44.472 130.165  22.495  1.00  0.00     0.015 C 
ATOM      6  C   UNL     1      45.039 129.056  22.008  1.00  0.00     0.021 C 
BRANCH   5   7
ATOM      7  C   UNL     1      43.250 130.089  23.339  1.00  0.00     0.159 C 
ATOM      8  O   UNL     1      42.465 131.074  23.386  1.00  0.00    -0.295 OA
ATOM      9  C   UNL     1      42.893 128.852  24.109  1.00  0.00     0.093 C 
ENDBRANCH   5   7
ENDBRANCH   4   5
ENDBRANCH   1   4
BRANCH   1  10
ATOM     10  N   UNL     1      45.334 131.288  19.682  1.00  0.00    -0.248 N 
BRANCH  10  11
ATOM     11  C   UNL     1      44.049 131.748  19.228  1.00  0.00     0.072 A 
ATOM     12  C   UNL     1      43.113 132.204  20.173  1.00  0.00     0.029 A 
ATOM     13  C   UNL     1      43.678 131.671  17.862  1.00  0.00     0.043 A 
ATOM     14  C   UNL     1      41.824 132.563  19.778  1.00  0.00     0.002 A 
ATOM     15  C   UNL     1      42.367 132.016  17.487  1.00  0.00     0.014 A 
ATOM     16  C   UNL     1      41.449 132.461  18.440  1.00  0.00     0.001 A 
BRANCH  13  17
ATOM     17  C   UNL     1      44.636 131.272  16.808  1.00  0.00     0.140 A 
ATOM     18  N   UNL     1      45.359 132.176  16.090  1.00  0.00    -0.228 NA
ATOM     19  N   UNL     1      44.923 129.982  16.496  1.00  0.00    -0.338 N 
ATOM     20  C   UNL     1      46.108 131.395  15.292  1.00  0.00     0.089 A 
ATOM     21  C   UNL     1      45.848 130.080  15.535  1.00  0.00     0.066 A 
ATOM     22  C   UNL     1      47.044 131.796  14.342  1.00  0.00     0.030 A 
ATOM     23  C   UNL     1      46.502 129.056  14.854  1.00  0.00     0.028 A 
ATOM     24  C   UNL     1      47.722 130.789  13.628  1.00  0.00     0.002 A 
ATOM     25  C   UNL     1      47.453 129.424  13.884  1.00  0.00     0.002 A 
ATOM     26  H   UNL     1      44.546 129.108  16.927  1.00  0.00     0.168 HD
ENDBRANCH  13  17
ENDBRANCH  10  11
BRANCH  10  27
ATOM     27  N   UNL     1      46.048 130.401  18.855  1.00  0.00    -0.240 NA
ATOM     28  H   UNL     1      45.389 130.001  18.148  1.00  0.00     0.144 HD
ATOM     29  H   UNL     1      46.786 130.948  18.357  1.00  0.00     0.144 HD
ENDBRANCH  10  27
ENDBRANCH   1  10
TORSDOF 8
ENDMDL
MODEL 4
REMARK VINA RESULT:      -7.2      1.475      1.878
REMARK SMILES C=C(/C=C(\O)N(N)c1ccccc1-c1nc2ccccc2[nH]1)C(C)=O
REMARK SMILES IDX 4 1 5 2 3 4 2 5 1 6 23 7 25 8 24 9 6 10 8 11 9 12 13 13
REMARK SMILES IDX 10 14 12 15 11 16 14 17 15 18 22 19 16 20 21 21 17 22 20 23
REMARK SMILES IDX 18 24 19 25 7 27
REMARK H PARENT 5 3 22 26 7 28 7 29
ROOT
ATOM      1  C   UNL     1      45.238 129.601  21.558  1.00  0.00     0.206 C 
ENDROOT
BRANCH   1   2
ATOM      2  O   UNL     1      45.764 128.562  20.786  1.00  0.00    -0.494 OA
ATOM      3  H   UNL     1      45.231 127.727  20.577  1.00  0.00     0.295 HD
ENDBRANCH   1   2
BRANCH   1   4
ATOM      4  C   UNL     1      44.729 129.328  22.772  1.00  0.00     0.079 C 
BRANCH   4   5
ATOM      5  C   UNL     1      44.036 128.059  23.101  1.00  0.00     0.015 C 
ATOM      6  C   UNL     1      42.808 128.126  23.624  1.00  0.00     0.021 C 
BRANCH   5   7
ATOM      7  C   UNL     1      44.730 126.753  22.948  1.00  0.00     0.159 C 
ATOM      8  O   UNL     1      45.975 126.686  23.132  1.00  0.00    -0.295 OA
ATOM      9  C   UNL     1      43.984 125.492  22.623  1.00  0.00     0.093 C 
ENDBRANCH   5   7
ENDBRANCH   4   5
ENDBRANCH   1   4
BRANCH   1  10
ATOM     10  N   UNL     1      45.224 130.947  21.026  1.00  0.00    -0.248 N 
BRANCH  10  11
ATOM     11  C   UNL     1      43.973 131.616  20.790  1.00  0.00     0.072 A 
ATOM     12  C   UNL     1      43.185 131.998  21.890  1.00  0.00     0.029 A 
ATOM     13  C   UNL     1      43.483 131.823  19.476  1.00  0.00     0.043 A 
ATOM     14  C   UNL     1      41.922 132.559  21.697  1.00  0.00     0.002 A 
ATOM     15  C   UNL     1      42.199 132.369  19.302  1.00  0.00     0.014 A 
ATOM     16  C   UNL     1      41.427 132.736  20.406  1.00  0.00     0.001 A 
BRANCH  13  17
ATOM     17  C   UNL     1      44.293 131.515  18.277  1.00  0.00     0.140 A 
ATOM     18  N   UNL     1      45.238 130.535  18.260  1.00  0.00    -0.228 NA
ATOM     19  N   UNL     1      44.135 132.135  17.079  1.00  0.00    -0.338 N 
ATOM     20  C   UNL     1      45.688 130.575  16.994  1.00  0.00     0.089 A 
ATOM     21  C   UNL     1      45.027 131.533  16.285  1.00  0.00     0.066 A 
ATOM     22  C   UNL     1      46.671 129.779  16.412  1.00  0.00     0.030 A 
ATOM     23  C   UNL     1      45.288 131.774  14.938  1.00  0.00     0.028 A 
ATOM     24  C   UNL     1      46.968 129.996  15.053  1.00  0.00     0.002 A 
ATOM     25  C   UNL     1      46.279 130.989  14.318  1.00  0.00     0.002 A 
ATOM     26  H   UNL     1      43.453 132.881  16.817  1.00  0.00     0.168 HD
ENDBRANCH  13  17
ENDBRANCH  10  11
BRANCH  10  27
ATOM     27  N   UNL     1      46.407 131.593  20.618  1.00  0.00    -0.240 NA
ATOM     28  H   UNL     1      46.244 132.625  20.631  1.00  0.00     0.144 HD
ATOM     29  H   UNL     1      47.156 131.360  21.308  1.00  0.00     0.144 HD
ENDBRANCH  10  27
ENDBRANCH   1  10
TORSDOF 8
ENDMDL
MODEL 5
REMARK VINA RESULT:      -7.0      1.202      1.307
REMARK SMILES C=C(/C=C(\O)N(N)c1ccccc1-c1nc2ccccc2[nH]1)C(C)=O
REMARK SMILES IDX 4 1 5 2 3 4 2 5 1 6 23 7 25 8 24 9 6 10 8 11 9 12 13 13
REMARK SMILES IDX 10 14 12 15 11 16 14 17 15 18 22 19 16 20 21 21 17 22 20 23
REMARK SMILES IDX 18 24 19 25 7 27
REMARK H PARENT 5 3 22 26 7 28 7 29
ROOT
ATOM      1  C   UNL     1      45.340 130.254  21.082  1.00  0.00     0.206 C 
ENDROOT
BRANCH   1   2
ATOM      2  O   UNL     1      45.838 129.226  20.277  1.00  0.00    -0.494 OA
ATOM      3  H   UNL     1      45.652 129.189  19.282  1.00  0.00     0.295 HD
ENDBRANCH   1   2
BRANCH   1   4
ATOM      4  C   UNL     1      45.027 129.994  22.364  1.00  0.00     0.079 C 
BRANCH   4   5
ATOM      5  C   UNL     1      44.083 128.926  22.773  1.00  0.00     0.015 C 
ATOM      6  C   UNL     1      42.824 129.272  23.064  1.00  0.00     0.021 C 
BRANCH   5   7
ATOM      7  C   UNL     1      44.551 127.526  22.955  1.00  0.00     0.159 C 
ATOM      8  O   UNL     1      45.157 126.947  22.013  1.00  0.00    -0.295 OA
ATOM      9  C   UNL     1      44.365 126.789  24.248  1.00  0.00     0.093 C 
ENDBRANCH   5   7
ENDBRANCH   4   5
ENDBRANCH   1   4
BRANCH   1  10
ATOM     10  N   UNL     1      45.146 131.571  20.516  1.00  0.00    -0.248 N 
BRANCH  10  11
ATOM     11  C   UNL     1      43.829 132.002  20.131  1.00  0.00     0.072 A 
ATOM     12  C   UNL     1      42.938 132.448  21.123  1.00  0.00     0.029 A 
ATOM     13  C   UNL     1      43.386 131.909  18.788  1.00  0.00     0.043 A 
ATOM     14  C   UNL     1      41.622 132.779  20.798  1.00  0.00     0.002 A 
ATOM     15  C   UNL     1      42.050 132.225  18.483  1.00  0.00     0.014 A 
ATOM     16  C   UNL     1      41.177 132.660  19.482  1.00  0.00     0.001 A 
BRANCH  13  17
ATOM     17  C   UNL     1      44.293 131.520  17.685  1.00  0.00     0.140 A 
ATOM     18  N   UNL     1      44.441 130.231  17.275  1.00  0.00    -0.228 NA
ATOM     19  N   UNL     1      45.014 132.407  16.952  1.00  0.00    -0.338 N 
ATOM     20  C   UNL     1      45.308 130.340  16.253  1.00  0.00     0.089 A 
ATOM     21  C   UNL     1      45.652 131.644  16.059  1.00  0.00     0.066 A 
ATOM     22  C   UNL     1      45.817 129.319  15.454  1.00  0.00     0.030 A 
ATOM     23  C   UNL     1      46.527 132.039  15.049  1.00  0.00     0.028 A 
ATOM     24  C   UNL     1      46.710 129.678  14.426  1.00  0.00     0.002 A 
ATOM     25  C   UNL     1      47.063 131.032  14.223  1.00  0.00     0.002 A 
ATOM     26  H   UNL     1      45.041 133.449  17.032  1.00  0.00     0.168 HD
ENDBRANCH  13  17
ENDBRANCH  10  11
BRANCH  10  27
ATOM     27  N   UNL     1      46.231 132.417  20.220  1.00  0.00    -0.240 NA
ATOM     28  H   UNL     1      46.973 132.271  20.942  1.00  0.00     0.144 HD
ATOM     29  H   UNL     1      46.609 132.141  19.286  1.00  0.00     0.144 HD
ENDBRANCH  10  27
ENDBRANCH   1  10
TORSDOF 8
ENDMDL
MODEL 6
REMARK VINA RESULT:      -6.7      0.958      1.539
REMARK SMILES C=C(/C=C(\O)N(N)c1ccccc1-c1nc2ccccc2[nH]1)C(C)=O
REMARK SMILES IDX 4 1 5 2 3 4 2 5 1 6 23 7 25 8 24 9 6 10 8 11 9 12 13 13
REMARK SMILES IDX 10 14 12 15 11 16 14 17 15 18 22 19 16 20 21 21 17 22 20 23
REMARK SMILES IDX 18 24 19 25 7 27
REMARK H PARENT 5 3 22 26 7 28 7 29
ROOT
ATOM      1  C   UNL     1      45.173 130.027  21.154  1.00  0.00     0.206 C 
ENDROOT
BRANCH   1   2
ATOM      2  O   UNL     1      45.435 128.661  21.027  1.00  0.00    -0.494 OA
ATOM      3  H   UNL     1      45.346 128.024  21.810  1.00  0.00     0.295 HD
ENDBRANCH   1   2
BRANCH   1   4
ATOM      4  C   UNL     1      44.901 130.537  22.369  1.00  0.00     0.079 C 
BRANCH   4   5
ATOM      5  C   UNL     1      43.803 130.044  23.233  1.00  0.00     0.015 C 
ATOM      6  C   UNL     1      42.876 130.918  23.640  1.00  0.00     0.021 C 
BRANCH   5   7
ATOM      7  C   UNL     1      43.790 128.638  23.719  1.00  0.00     0.159 C 
ATOM      8  O   UNL     1      42.719 127.975  23.671  1.00  0.00    -0.295 OA
ATOM      9  C   UNL     1      45.029 127.963  24.228  1.00  0.00     0.093 C 
ENDBRANCH   5   7
ENDBRANCH   4   5
ENDBRANCH   1   4
BRANCH   1  10
ATOM     10  N   UNL     1      45.172 130.864  19.974  1.00  0.00    -0.248 N 
BRANCH  10  11
ATOM     11  C   UNL     1      43.971 131.550  19.578  1.00  0.00     0.072 A 
ATOM     12  C   UNL     1      43.093 132.018  20.570  1.00  0.00     0.029 A 
ATOM     13  C   UNL     1      43.617 131.688  18.212  1.00  0.00     0.043 A 
ATOM     14  C   UNL     1      41.872 132.598  20.221  1.00  0.00     0.002 A 
ATOM     15  C   UNL     1      42.373 132.254  17.880  1.00  0.00     0.014 A 
ATOM     16  C   UNL     1      41.510 132.708  18.880  1.00  0.00     0.001 A 
BRANCH  13  17
ATOM     17  C   UNL     1      44.528 131.286  17.119  1.00  0.00     0.140 A 
ATOM     18  N   UNL     1      45.224 132.187  16.373  1.00  0.00    -0.228 NA
ATOM     19  N   UNL     1      44.795 129.994  16.794  1.00  0.00    -0.338 N 
ATOM     20  C   UNL     1      45.935 131.403  15.543  1.00  0.00     0.089 A 
ATOM     21  C   UNL     1      45.679 130.089  15.794  1.00  0.00     0.066 A 
ATOM     22  C   UNL     1      46.833 131.800  14.555  1.00  0.00     0.030 A 
ATOM     23  C   UNL     1      46.300 129.062  15.086  1.00  0.00     0.028 A 
ATOM     24  C   UNL     1      47.476 130.792  13.812  1.00  0.00     0.002 A 
ATOM     25  C   UNL     1      47.211 129.428  14.077  1.00  0.00     0.002 A 
ATOM     26  H   UNL     1      44.432 129.122  17.239  1.00  0.00     0.168 HD
ENDBRANCH  13  17
ENDBRANCH  10  11
BRANCH  10  27
ATOM     27  N   UNL     1      46.290 130.944  19.122  1.00  0.00    -0.240 NA
ATOM     28  H   UNL     1      46.425 130.015  18.663  1.00  0.00     0.144 HD
ATOM     29  H   UNL     1      46.085 131.658  18.388  1.00  0.00     0.144 HD
ENDBRANCH  10  27
ENDBRANCH   1  10
TORSDOF 8
ENDMDL
MODEL 7
REMARK VINA RESULT:      -6.6      2.557      3.739
REMARK SMILES C=C(/C=C(\O)N(N)c1ccccc1-c1nc2ccccc2[nH]1)C(C)=O
REMARK SMILES IDX 4 1 5 2 3 4 2 5 1 6 23 7 25 8 24 9 6 10 8 11 9 12 13 13
REMARK SMILES IDX 10 14 12 15 11 16 14 17 15 18 22 19 16 20 21 21 17 22 20 23
REMARK SMILES IDX 18 24 19 25 7 27
REMARK H PARENT 5 3 22 26 7 28 7 29
ROOT
ATOM      1  C   UNL     1      46.838 132.171  20.986  1.00  0.00     0.206 C 
ENDROOT
BRANCH   1   2
ATOM      2  O   UNL     1      48.199 131.869  20.886  1.00  0.00    -0.494 OA
ATOM      3  H   UNL     1      48.915 132.564  21.059  1.00  0.00     0.295 HD
ENDBRANCH   1   2
BRANCH   1   4
ATOM      4  C   UNL     1      46.456 133.287  21.632  1.00  0.00     0.079 C 
BRANCH   4   5
ATOM      5  C   UNL     1      47.290 133.965  22.653  1.00  0.00     0.015 C 
ATOM      6  C   UNL     1      46.867 133.956  23.922  1.00  0.00     0.021 C 
BRANCH   5   7
ATOM      7  C   UNL     1      48.508 134.722  22.260  1.00  0.00     0.159 C 
ATOM      8  O   UNL     1      48.470 135.479  21.254  1.00  0.00    -0.295 OA
ATOM      9  C   UNL     1      49.778 134.647  23.054  1.00  0.00     0.093 C 
ENDBRANCH   5   7
ENDBRANCH   4   5
ENDBRANCH   1   4
BRANCH   1  10
ATOM     10  N   UNL     1      45.865 131.265  20.415  1.00  0.00    -0.248 N 
BRANCH  10  11
ATOM     11  C   UNL     1      44.531 131.724  20.134  1.00  0.00     0.072 A 
ATOM     12  C   UNL     1      43.698 132.099  21.203  1.00  0.00     0.029 A 
ATOM     13  C   UNL     1      44.014 131.726  18.815  1.00  0.00     0.043 A 
ATOM     14  C   UNL     1      42.368 132.453  20.975  1.00  0.00     0.002 A 
ATOM     15  C   UNL     1      42.665 132.065  18.607  1.00  0.00     0.014 A 
ATOM     16  C   UNL     1      41.851 132.429  19.682  1.00  0.00     0.001 A 
BRANCH  13  17
ATOM     17  C   UNL     1      44.857 131.417  17.639  1.00  0.00     0.140 A 
ATOM     18  N   UNL     1      45.351 130.172  17.396  1.00  0.00    -0.228 NA
ATOM     19  N   UNL     1      45.171 132.320  16.675  1.00  0.00    -0.338 N 
ATOM     20  C   UNL     1      46.011 130.332  16.236  1.00  0.00     0.089 A 
ATOM     21  C   UNL     1      45.903 131.620  15.802  1.00  0.00     0.066 A 
ATOM     22  C   UNL     1      46.713 129.371  15.513  1.00  0.00     0.030 A 
ATOM     23  C   UNL     1      46.482 132.054  14.612  1.00  0.00     0.028 A 
ATOM     24  C   UNL     1      47.318 129.772  14.307  1.00  0.00     0.002 A 
ATOM     25  C   UNL     1      47.203 131.109  13.857  1.00  0.00     0.002 A 
ATOM     26  H   UNL     1      44.881 133.321  16.600  1.00  0.00     0.168 HD
ENDBRANCH  13  17
ENDBRANCH  10  11
BRANCH  10  27
ATOM     27  N   UNL     1      46.147 129.899  20.226  1.00  0.00    -0.240 NA
ATOM     28  H   UNL     1      45.355 129.465  19.701  1.00  0.00     0.144 HD
ATOM     29  H   UNL     1      47.016 129.826  19.650  1.00  0.00     0.144 HD
ENDBRANCH  10  27
ENDBRANCH   1  10
TORSDOF 8
ENDMDL
MODEL 8
REMARK VINA RESULT:      -6.4      0.990      1.743
REMARK SMILES C=C(/C=C(\O)N(N)c1ccccc1-c1nc2ccccc2[nH]1)C(C)=O
REMARK SMILES IDX 4 1 5 2 3 4 2 5 1 6 23 7 25 8 24 9 6 10 8 11 9 12 13 13
REMARK SMILES IDX 10 14 12 15 11 16 14 17 15 18 22 19 16 20 21 21 17 22 20 23
REMARK SMILES IDX 18 24 19 25 7 27
REMARK H PARENT 5 3 22 26 7 28 7 29
ROOT
ATOM      1  C   UNL     1      45.830 131.793  20.816  1.00  0.00     0.206 C 
ENDROOT
BRANCH   1   2
ATOM      2  O   UNL     1      47.213 131.823  21.013  1.00  0.00    -0.494 OA
ATOM      3  H   UNL     1      47.864 131.795  20.238  1.00  0.00     0.295 HD
ENDBRANCH   1   2
BRANCH   1   4
ATOM      4  C   UNL     1      45.015 132.224  21.795  1.00  0.00     0.079 C 
BRANCH   4   5
ATOM      5  C   UNL     1      44.506 131.349  22.878  1.00  0.00     0.015 C 
ATOM      6  C   UNL     1      44.539 131.811  24.133  1.00  0.00     0.021 C 
BRANCH   5   7
ATOM      7  C   UNL     1      44.068 129.958  22.589  1.00  0.00     0.159 C 
ATOM      8  O   UNL     1      42.838 129.682  22.590  1.00  0.00    -0.295 OA
ATOM      9  C   UNL     1      45.046 128.872  22.250  1.00  0.00     0.093 C 
ENDBRANCH   5   7
ENDBRANCH   4   5
ENDBRANCH   1   4
BRANCH   1  10
ATOM     10  N   UNL     1      45.299 131.273  19.574  1.00  0.00    -0.248 N 
BRANCH  10  11
ATOM     11  C   UNL     1      44.016 131.716  19.098  1.00  0.00     0.072 A 
ATOM     12  C   UNL     1      43.057 132.154  20.027  1.00  0.00     0.029 A 
ATOM     13  C   UNL     1      43.673 131.639  17.725  1.00  0.00     0.043 A 
ATOM     14  C   UNL     1      41.770 132.495  19.609  1.00  0.00     0.002 A 
ATOM     15  C   UNL     1      42.364 131.965  17.326  1.00  0.00     0.014 A 
ATOM     16  C   UNL     1      41.422 132.393  18.264  1.00  0.00     0.001 A 
BRANCH  13  17
ATOM     17  C   UNL     1      44.657 131.258  16.688  1.00  0.00     0.140 A 
ATOM     18  N   UNL     1      45.386 132.175  15.994  1.00  0.00    -0.228 NA
ATOM     19  N   UNL     1      44.962 129.973  16.371  1.00  0.00    -0.338 N 
ATOM     20  C   UNL     1      46.158 131.408  15.205  1.00  0.00     0.089 A 
ATOM     21  C   UNL     1      45.905 130.088  15.430  1.00  0.00     0.066 A 
ATOM     22  C   UNL     1      47.110 131.825  14.278  1.00  0.00     0.030 A 
ATOM     23  C   UNL     1      46.583 129.076  14.755  1.00  0.00     0.028 A 
ATOM     24  C   UNL     1      47.813 130.832  13.570  1.00  0.00     0.002 A 
ATOM     25  C   UNL     1      47.551 129.462  13.808  1.00  0.00     0.002 A 
ATOM     26  H   UNL     1      44.583 129.092  16.786  1.00  0.00     0.168 HD
ENDBRANCH  13  17
ENDBRANCH  10  11
BRANCH  10  27
ATOM     27  N   UNL     1      45.953 130.251  18.861  1.00  0.00    -0.240 NA
ATOM     28  H   UNL     1      45.710 130.344  17.848  1.00  0.00     0.144 HD
ATOM     29  H   UNL     1      46.983 130.385  18.976  1.00  0.00     0.144 HD
ENDBRANCH  10  27
ENDBRANCH   1  10
TORSDOF 8
ENDMDL
MODEL 9
REMARK VINA RESULT:      -6.2      2.561      4.048
REMARK SMILES C=C(/C=C(\O)N(N)c1ccccc1-c1nc2ccccc2[nH]1)C(C)=O
REMARK SMILES IDX 4 1 5 2 3 4 2 5 1 6 23 7 25 8 24 9 6 10 8 11 9 12 13 13
REMARK SMILES IDX 10 14 12 15 11 16 14 17 15 18 22 19 16 20 21 21 17 22 20 23
REMARK SMILES IDX 18 24 19 25 7 27
REMARK H PARENT 5 3 22 26 7 28 7 29
ROOT
ATOM      1  C   UNL     1      46.896 132.185  20.896  1.00  0.00     0.206 C 
ENDROOT
BRANCH   1   2
ATOM      2  O   UNL     1      48.248 131.862  20.759  1.00  0.00    -0.494 OA
ATOM      3  H   UNL     1      48.568 131.175  20.088  1.00  0.00     0.295 HD
ENDBRANCH   1   2
BRANCH   1   4
ATOM      4  C   UNL     1      46.551 133.358  21.457  1.00  0.00     0.079 C 
BRANCH   4   5
ATOM      5  C   UNL     1      47.381 134.052  22.471  1.00  0.00     0.015 C 
ATOM      6  C   UNL     1      47.021 133.956  23.756  1.00  0.00     0.021 C 
BRANCH   5   7
ATOM      7  C   UNL     1      48.519 134.916  22.061  1.00  0.00     0.159 C 
ATOM      8  O   UNL     1      49.618 134.827  22.673  1.00  0.00    -0.295 OA
ATOM      9  C   UNL     1      48.418 135.866  20.905  1.00  0.00     0.093 C 
ENDBRANCH   5   7
ENDBRANCH   4   5
ENDBRANCH   1   4
BRANCH   1  10
ATOM     10  N   UNL     1      45.891 131.242  20.458  1.00  0.00    -0.248 N 
BRANCH  10  11
ATOM     11  C   UNL     1      44.543 131.683  20.220  1.00  0.00     0.072 A 
ATOM     12  C   UNL     1      43.746 132.068  21.313  1.00  0.00     0.029 A 
ATOM     13  C   UNL     1      43.977 131.658  18.920  1.00  0.00     0.043 A 
ATOM     14  C   UNL     1      42.405 132.405  21.129  1.00  0.00     0.002 A 
ATOM     15  C   UNL     1      42.618 131.980  18.758  1.00  0.00     0.014 A 
ATOM     16  C   UNL     1      41.840 132.354  19.856  1.00  0.00     0.001 A 
BRANCH  13  17
ATOM     17  C   UNL     1      44.779 131.337  17.720  1.00  0.00     0.140 A 
ATOM     18  N   UNL     1      45.146 132.278  16.807  1.00  0.00    -0.228 NA
ATOM     19  N   UNL     1      45.264 130.099  17.444  1.00  0.00    -0.338 N 
ATOM     20  C   UNL     1      45.875 131.572  15.925  1.00  0.00     0.089 A 
ATOM     21  C   UNL     1      45.948 130.266  16.306  1.00  0.00     0.066 A 
ATOM     22  C   UNL     1      46.508 132.037  14.776  1.00  0.00     0.030 A 
ATOM     23  C   UNL     1      46.660 129.317  15.576  1.00  0.00     0.028 A 
ATOM     24  C   UNL     1      47.234 131.107  14.007  1.00  0.00     0.002 A 
ATOM     25  C   UNL     1      47.310 129.752  14.406  1.00  0.00     0.002 A 
ATOM     26  H   UNL     1      45.167 129.222  18.003  1.00  0.00     0.168 HD
ENDBRANCH  13  17
ENDBRANCH  10  11
BRANCH  10  27
ATOM     27  N   UNL     1      46.161 129.863  20.363  1.00  0.00    -0.240 NA
ATOM     28  H   UNL     1      47.151 129.739  20.051  1.00  0.00     0.144 HD
ATOM     29  H   UNL     1      46.051 129.447  21.315  1.00  0.00     0.144 HD
ENDBRANCH  10  27
ENDBRANCH   1  10
TORSDOF 8
ENDMDL


