MODEL 1
REMARK VINA RESULT:      -9.4      0.000      0.000
REMARK SMILES C[C@H]1CCc2ccc(-c3cccnc3F)nc2[C@@H]1F
REMARK SMILES IDX 1 1 2 2 3 3 4 4 5 5 6 6 7 7 8 8 16 9 17 10 18 11 19 12 9 13
REMARK SMILES IDX 10 14 14 15 11 16 13 17 12 18 15 19
REMARK H PARENT
ROOT
ATOM      1  C   UNL     1      44.202 131.554  22.347  1.00  0.00     0.011 C 
ATOM      2  C   UNL     1      43.714 131.338  20.910  1.00  0.00     0.027 C 
ATOM      3  C   UNL     1      42.679 132.408  20.527  1.00  0.00     0.011 C 
ATOM      4  C   UNL     1      42.087 132.111  19.147  1.00  0.00     0.038 C 
ATOM      5  C   UNL     1      43.148 131.816  18.115  1.00  0.00    -0.023 A 
ATOM      6  C   UNL     1      42.818 131.867  16.755  1.00  0.00     0.008 A 
ATOM      7  C   UNL     1      43.766 131.539  15.787  1.00  0.00     0.029 A 
ATOM      8  C   UNL     1      45.053 131.144  16.181  1.00  0.00     0.075 A 
ATOM      9  N   UNL     1      45.349 131.093  17.510  1.00  0.00    -0.249 NA
ATOM     10  C   UNL     1      44.445 131.393  18.481  1.00  0.00     0.079 A 
ATOM     11  C   UNL     1      44.895 131.371  19.920  1.00  0.00     0.218 C 
ATOM     12  F   UNL     1      45.701 130.264  20.129  1.00  0.00    -0.240 F 
ENDROOT
BRANCH   8  13
ATOM     13  C   UNL     1      46.095 130.790  15.185  1.00  0.00     0.055 A 
ATOM     14  C   UNL     1      46.777 131.789  14.464  1.00  0.00     0.017 A 
ATOM     15  C   UNL     1      46.413 129.443  14.916  1.00  0.00     0.222 A 
ATOM     16  C   UNL     1      47.744 131.440  13.522  1.00  0.00     0.021 A 
ATOM     17  N   UNL     1      47.362 129.135  13.993  1.00  0.00    -0.228 NA
ATOM     18  C   UNL     1      48.027 130.093  13.297  1.00  0.00     0.114 A 
ATOM     19  F   UNL     1      45.801 128.435  15.589  1.00  0.00    -0.184 F 
ENDBRANCH   8  13
TORSDOF 1
ENDMDL
MODEL 2
REMARK VINA RESULT:      -8.8      1.304      1.593
REMARK SMILES C[C@H]1CCc2ccc(-c3cccnc3F)nc2[C@@H]1F
REMARK SMILES IDX 1 1 2 2 3 3 4 4 5 5 6 6 7 7 8 8 16 9 17 10 18 11 19 12 9 13
REMARK SMILES IDX 10 14 14 15 11 16 13 17 12 18 15 19
REMARK H PARENT
ROOT
ATOM      1  C   UNL     1      44.664 131.590  22.685  1.00  0.00     0.011 C 
ATOM      2  C   UNL     1      44.097 131.321  21.287  1.00  0.00     0.027 C 
ATOM      3  C   UNL     1      42.995 132.338  20.948  1.00  0.00     0.011 C 
ATOM      4  C   UNL     1      42.331 131.984  19.615  1.00  0.00     0.038 C 
ATOM      5  C   UNL     1      43.336 131.709  18.524  1.00  0.00    -0.023 A 
ATOM      6  C   UNL     1      42.919 131.714  17.187  1.00  0.00     0.008 A 
ATOM      7  C   UNL     1      43.818 131.402  16.168  1.00  0.00     0.029 A 
ATOM      8  C   UNL     1      45.143 131.070  16.488  1.00  0.00     0.075 A 
ATOM      9  N   UNL     1      45.524 131.063  17.796  1.00  0.00    -0.249 NA
ATOM     10  C   UNL     1      44.670 131.348  18.816  1.00  0.00     0.079 A 
ATOM     11  C   UNL     1      45.210 131.378  20.223  1.00  0.00     0.218 C 
ATOM     12  F   UNL     1      46.074 130.311  20.404  1.00  0.00    -0.240 F 
ENDROOT
BRANCH   8  13
ATOM     13  C   UNL     1      46.135 130.735  15.435  1.00  0.00     0.055 A 
ATOM     14  C   UNL     1      46.493 129.400  15.176  1.00  0.00     0.017 A 
ATOM     15  C   UNL     1      46.761 131.750  14.682  1.00  0.00     0.222 A 
ATOM     16  C   UNL     1      47.437 129.103  14.192  1.00  0.00     0.021 A 
ATOM     17  N   UNL     1      47.676 131.428  13.729  1.00  0.00    -0.228 NA
ATOM     18  C   UNL     1      48.024 130.141  13.470  1.00  0.00     0.114 A 
ATOM     19  F   UNL     1      46.446 133.056  14.874  1.00  0.00    -0.184 F 
ENDBRANCH   8  13
TORSDOF 1
ENDMDL
MODEL 3
REMARK VINA RESULT:      -8.6      1.563      2.049
REMARK SMILES C[C@H]1CCc2ccc(-c3cccnc3F)nc2[C@@H]1F
REMARK SMILES IDX 1 1 2 2 3 3 4 4 5 5 6 6 7 7 8 8 16 9 17 10 18 11 19 12 9 13
REMARK SMILES IDX 10 14 14 15 11 16 13 17 12 18 15 19
REMARK H PARENT
ROOT
ATOM      1  C   UNL     1      44.691 130.721  23.626  1.00  0.00     0.011 C 
ATOM      2  C   UNL     1      43.997 130.791  22.260  1.00  0.00     0.027 C 
ATOM      3  C   UNL     1      43.087 132.027  22.181  1.00  0.00     0.011 C 
ATOM      4  C   UNL     1      42.287 132.021  20.876  1.00  0.00     0.038 C 
ATOM      5  C   UNL     1      43.153 131.758  19.669  1.00  0.00    -0.023 A 
ATOM      6  C   UNL     1      42.663 132.057  18.392  1.00  0.00     0.008 A 
ATOM      7  C   UNL     1      43.421 131.766  17.259  1.00  0.00     0.029 A 
ATOM      8  C   UNL     1      44.677 131.158  17.403  1.00  0.00     0.075 A 
ATOM      9  N   UNL     1      45.131 130.868  18.654  1.00  0.00    -0.249 NA
ATOM     10  C   UNL     1      44.411 131.126  19.780  1.00  0.00     0.079 A 
ATOM     11  C   UNL     1      45.034 130.827  21.120  1.00  0.00     0.218 C 
ATOM     12  F   UNL     1      45.691 129.610  21.058  1.00  0.00    -0.240 F 
ENDROOT
BRANCH   8  13
ATOM     13  C   UNL     1      45.522 130.834  16.225  1.00  0.00     0.055 A 
ATOM     14  C   UNL     1      45.703 129.502  15.809  1.00  0.00     0.017 A 
ATOM     15  C   UNL     1      46.184 131.850  15.507  1.00  0.00     0.222 A 
ATOM     16  C   UNL     1      46.510 129.212  14.708  1.00  0.00     0.021 A 
ATOM     17  N   UNL     1      46.963 131.537  14.438  1.00  0.00    -0.228 NA
ATOM     18  C   UNL     1      47.138 130.254  14.027  1.00  0.00     0.114 A 
ATOM     19  F   UNL     1      46.037 133.155  15.850  1.00  0.00    -0.184 F 
ENDBRANCH   8  13
TORSDOF 1
ENDMDL
MODEL 4
REMARK VINA RESULT:      -8.4      1.030      1.331
REMARK SMILES C[C@H]1CCc2ccc(-c3cccnc3F)nc2[C@@H]1F
REMARK SMILES IDX 1 1 2 2 3 3 4 4 5 5 6 6 7 7 8 8 16 9 17 10 18 11 19 12 9 13
REMARK SMILES IDX 10 14 14 15 11 16 13 17 12 18 15 19
REMARK H PARENT
ROOT
ATOM      1  C   UNL     1      44.646 130.590  23.580  1.00  0.00     0.011 C 
ATOM      2  C   UNL     1      43.974 130.684  22.205  1.00  0.00     0.027 C 
ATOM      3  C   UNL     1      43.047 131.909  22.141  1.00  0.00     0.011 C 
ATOM      4  C   UNL     1      42.269 131.925  20.823  1.00  0.00     0.038 C 
ATOM      5  C   UNL     1      43.159 131.705  19.624  1.00  0.00    -0.023 A 
ATOM      6  C   UNL     1      42.685 132.029  18.347  1.00  0.00     0.008 A 
ATOM      7  C   UNL     1      43.467 131.777  17.221  1.00  0.00     0.029 A 
ATOM      8  C   UNL     1      44.729 131.183  17.371  1.00  0.00     0.075 A 
ATOM      9  N   UNL     1      45.166 130.868  18.622  1.00  0.00    -0.249 NA
ATOM     10  C   UNL     1      44.424 131.088  19.741  1.00  0.00     0.079 A 
ATOM     11  C   UNL     1      45.028 130.764  21.084  1.00  0.00     0.218 C 
ATOM     12  F   UNL     1      45.705 129.558  21.002  1.00  0.00    -0.240 F 
ENDROOT
BRANCH   8  13
ATOM     13  C   UNL     1      45.597 130.901  16.200  1.00  0.00     0.055 A 
ATOM     14  C   UNL     1      46.193 131.947  15.471  1.00  0.00     0.017 A 
ATOM     15  C   UNL     1      45.829 129.577  15.772  1.00  0.00     0.222 A 
ATOM     16  C   UNL     1      46.995 131.666  14.364  1.00  0.00     0.021 A 
ATOM     17  N   UNL     1      46.617 129.335  14.691  1.00  0.00    -0.228 NA
ATOM     18  C   UNL     1      47.199 130.340  13.986  1.00  0.00     0.114 A 
ATOM     19  F   UNL     1      45.295 128.525  16.442  1.00  0.00    -0.184 F 
ENDBRANCH   8  13
TORSDOF 1
ENDMDL
MODEL 5
REMARK VINA RESULT:      -7.2      1.831      2.834
REMARK SMILES C[C@H]1CCc2ccc(-c3cccnc3F)nc2[C@@H]1F
REMARK SMILES IDX 1 1 2 2 3 3 4 4 5 5 6 6 7 7 8 8 16 9 17 10 18 11 19 12 9 13
REMARK SMILES IDX 10 14 14 15 11 16 13 17 12 18 15 19
REMARK H PARENT
ROOT
ATOM      1  C   UNL     1      44.554 130.070  24.521  1.00  0.00     0.011 C 
ATOM      2  C   UNL     1      43.782 130.431  23.246  1.00  0.00     0.027 C 
ATOM      3  C   UNL     1      43.094 131.796  23.402  1.00  0.00     0.011 C 
ATOM      4  C   UNL     1      42.209 132.092  22.188  1.00  0.00     0.038 C 
ATOM      5  C   UNL     1      42.925 131.856  20.880  1.00  0.00    -0.023 A 
ATOM      6  C   UNL     1      42.398 132.397  19.701  1.00  0.00     0.008 A 
ATOM      7  C   UNL     1      43.009 132.140  18.474  1.00  0.00     0.029 A 
ATOM      8  C   UNL     1      44.149 131.324  18.424  1.00  0.00     0.075 A 
ATOM      9  N   UNL     1      44.638 130.802  19.582  1.00  0.00    -0.249 NA
ATOM     10  C   UNL     1      44.060 131.021  20.794  1.00  0.00     0.079 A 
ATOM     11  C   UNL     1      44.721 130.450  22.024  1.00  0.00     0.218 C 
ATOM     12  F   UNL     1      45.153 129.162  21.755  1.00  0.00    -0.240 F 
ENDROOT
BRANCH   8  13
ATOM     13  C   UNL     1      44.834 131.028  17.140  1.00  0.00     0.055 A 
ATOM     14  C   UNL     1      46.070 130.355  17.118  1.00  0.00     0.017 A 
ATOM     15  C   UNL     1      44.276 131.433  15.911  1.00  0.00     0.222 A 
ATOM     16  C   UNL     1      46.708 130.096  15.904  1.00  0.00     0.021 A 
ATOM     17  N   UNL     1      44.921 131.165  14.744  1.00  0.00    -0.228 NA
ATOM     18  C   UNL     1      46.112 130.512  14.715  1.00  0.00     0.114 A 
ATOM     19  F   UNL     1      43.079 132.072  15.865  1.00  0.00    -0.184 F 
ENDBRANCH   8  13
TORSDOF 1
ENDMDL
MODEL 6
REMARK VINA RESULT:      -7.0      2.050      3.081
REMARK SMILES C[C@H]1CCc2ccc(-c3cccnc3F)nc2[C@@H]1F
REMARK SMILES IDX 1 1 2 2 3 3 4 4 5 5 6 6 7 7 8 8 16 9 17 10 18 11 19 12 9 13
REMARK SMILES IDX 10 14 14 15 11 16 13 17 12 18 15 19
REMARK H PARENT
ROOT
ATOM      1  C   UNL     1      40.875 133.016  22.058  1.00  0.00     0.011 C 
ATOM      2  C   UNL     1      42.309 132.653  21.653  1.00  0.00     0.027 C 
ATOM      3  C   UNL     1      42.853 131.529  22.548  1.00  0.00     0.011 C 
ATOM      4  C   UNL     1      44.329 131.265  22.238  1.00  0.00     0.038 C 
ATOM      5  C   UNL     1      44.591 131.119  20.759  1.00  0.00    -0.023 A 
ATOM      6  C   UNL     1      45.791 130.540  20.327  1.00  0.00     0.008 A 
ATOM      7  C   UNL     1      46.081 130.452  18.967  1.00  0.00     0.029 A 
ATOM      8  C   UNL     1      45.169 130.959  18.029  1.00  0.00     0.075 A 
ATOM      9  N   UNL     1      44.012 131.525  18.472  1.00  0.00    -0.249 NA
ATOM     10  C   UNL     1      43.704 131.640  19.792  1.00  0.00     0.079 A 
ATOM     11  C   UNL     1      42.367 132.223  20.174  1.00  0.00     0.218 C 
ATOM     12  F   UNL     1      42.097 133.315  19.366  1.00  0.00    -0.240 F 
ENDROOT
BRANCH   8  13
ATOM     13  C   UNL     1      45.434 130.882  16.570  1.00  0.00     0.055 A 
ATOM     14  C   UNL     1      46.618 130.300  16.078  1.00  0.00     0.017 A 
ATOM     15  C   UNL     1      44.518 131.412  15.638  1.00  0.00     0.222 A 
ATOM     16  C   UNL     1      46.858 130.248  14.705  1.00  0.00     0.021 A 
ATOM     17  N   UNL     1      44.780 131.344  14.306  1.00  0.00    -0.228 NA
ATOM     18  C   UNL     1      45.918 130.780  13.824  1.00  0.00     0.114 A 
ATOM     19  F   UNL     1      43.352 131.971  16.049  1.00  0.00    -0.184 F 
ENDBRANCH   8  13
TORSDOF 1
ENDMDL
MODEL 7
REMARK VINA RESULT:      -6.9      1.750      6.230
REMARK SMILES C[C@H]1CCc2ccc(-c3cccnc3F)nc2[C@@H]1F
REMARK SMILES IDX 1 1 2 2 3 3 4 4 5 5 6 6 7 7 8 8 16 9 17 10 18 11 19 12 9 13
REMARK SMILES IDX 10 14 14 15 11 16 13 17 12 18 15 19
REMARK H PARENT
ROOT
ATOM      1  C   UNL     1      47.298 129.724  14.365  1.00  0.00     0.011 C 
ATOM      2  C   UNL     1      46.276 130.622  15.071  1.00  0.00     0.027 C 
ATOM      3  C   UNL     1      44.935 130.605  14.321  1.00  0.00     0.011 C 
ATOM      4  C   UNL     1      43.961 131.609  14.943  1.00  0.00     0.038 C 
ATOM      5  C   UNL     1      43.882 131.484  16.444  1.00  0.00    -0.023 A 
ATOM      6  C   UNL     1      42.808 132.069  17.128  1.00  0.00     0.008 A 
ATOM      7  C   UNL     1      42.747 132.018  18.520  1.00  0.00     0.029 A 
ATOM      8  C   UNL     1      43.776 131.388  19.236  1.00  0.00     0.075 A 
ATOM      9  N   UNL     1      44.815 130.834  18.551  1.00  0.00    -0.249 NA
ATOM     10  C   UNL     1      44.912 130.877  17.195  1.00  0.00     0.079 A 
ATOM     11  C   UNL     1      46.069 130.174  16.531  1.00  0.00     0.218 C 
ATOM     12  F   UNL     1      47.226 130.412  17.254  1.00  0.00    -0.240 F 
ENDROOT
BRANCH   8  13
ATOM     13  C   UNL     1      43.750 131.306  20.719  1.00  0.00     0.055 A 
ATOM     14  C   UNL     1      42.736 131.939  21.462  1.00  0.00     0.017 A 
ATOM     15  C   UNL     1      44.756 130.613  21.423  1.00  0.00     0.222 A 
ATOM     16  C   UNL     1      42.733 131.864  22.855  1.00  0.00     0.021 A 
ATOM     17  N   UNL     1      44.725 130.556  22.781  1.00  0.00    -0.228 NA
ATOM     18  C   UNL     1      43.746 131.160  23.505  1.00  0.00     0.114 A 
ATOM     19  F   UNL     1      45.752 129.970  20.763  1.00  0.00    -0.184 F 
ENDBRANCH   8  13
TORSDOF 1
ENDMDL
MODEL 8
REMARK VINA RESULT:      -6.7      1.653      2.621
REMARK SMILES C[C@H]1CCc2ccc(-c3cccnc3F)nc2[C@@H]1F
REMARK SMILES IDX 1 1 2 2 3 3 4 4 5 5 6 6 7 7 8 8 16 9 17 10 18 11 19 12 9 13
REMARK SMILES IDX 10 14 14 15 11 16 13 17 12 18 15 19
REMARK H PARENT
ROOT
ATOM      1  C   UNL     1      40.683 133.149  21.288  1.00  0.00     0.011 C 
ATOM      2  C   UNL     1      42.154 132.795  21.038  1.00  0.00     0.027 C 
ATOM      3  C   UNL     1      42.627 131.723  22.033  1.00  0.00     0.011 C 
ATOM      4  C   UNL     1      44.129 131.473  21.878  1.00  0.00     0.038 C 
ATOM      5  C   UNL     1      44.534 131.265  20.439  1.00  0.00    -0.023 A 
ATOM      6  C   UNL     1      45.778 130.690  20.151  1.00  0.00     0.008 A 
ATOM      7  C   UNL     1      46.198 130.544  18.830  1.00  0.00     0.029 A 
ATOM      8  C   UNL     1      45.372 130.990  17.786  1.00  0.00     0.075 A 
ATOM      9  N   UNL     1      44.170 131.554  18.090  1.00  0.00    -0.249 NA
ATOM     10  C   UNL     1      43.736 131.724  19.368  1.00  0.00     0.079 A 
ATOM     11  C   UNL     1      42.360 132.298  19.593  1.00  0.00     0.218 C 
ATOM     12  F   UNL     1      42.152 133.346  18.713  1.00  0.00    -0.240 F 
ENDROOT
BRANCH   8  13
ATOM     13  C   UNL     1      45.777 130.851  16.364  1.00  0.00     0.055 A 
ATOM     14  C   UNL     1      46.286 131.949  15.646  1.00  0.00     0.017 A 
ATOM     15  C   UNL     1      45.639 129.621  15.689  1.00  0.00     0.222 A 
ATOM     16  C   UNL     1      46.649 131.806  14.307  1.00  0.00     0.021 A 
ATOM     17  N   UNL     1      46.004 129.513  14.384  1.00  0.00    -0.228 NA
ATOM     18  C   UNL     1      46.500 130.567  13.685  1.00  0.00     0.114 A 
ATOM     19  F   UNL     1      45.169 128.522  16.331  1.00  0.00    -0.184 F 
ENDBRANCH   8  13
TORSDOF 1
ENDMDL
MODEL 9
REMARK VINA RESULT:      -6.7      2.009      6.368
REMARK SMILES C[C@H]1CCc2ccc(-c3cccnc3F)nc2[C@@H]1F
REMARK SMILES IDX 1 1 2 2 3 3 4 4 5 5 6 6 7 7 8 8 16 9 17 10 18 11 19 12 9 13
REMARK SMILES IDX 10 14 14 15 11 16 13 17 12 18 15 19
REMARK H PARENT
ROOT
ATOM      1  C   UNL     1      47.549 129.369  14.293  1.00  0.00     0.011 C 
ATOM      2  C   UNL     1      46.558 130.346  14.936  1.00  0.00     0.027 C 
ATOM      3  C   UNL     1      45.255 130.405  14.121  1.00  0.00     0.011 C 
ATOM      4  C   UNL     1      44.323 131.483  14.680  1.00  0.00     0.038 C 
ATOM      5  C   UNL     1      44.163 131.389  16.177  1.00  0.00    -0.023 A 
ATOM      6  C   UNL     1      43.100 132.056  16.798  1.00  0.00     0.008 A 
ATOM      7  C   UNL     1      42.969 132.034  18.186  1.00  0.00     0.029 A 
ATOM      8  C   UNL     1      43.917 131.349  18.962  1.00  0.00     0.075 A 
ATOM      9  N   UNL     1      44.948 130.715  18.337  1.00  0.00    -0.249 NA
ATOM     10  C   UNL     1      45.113 130.728  16.986  1.00  0.00     0.079 A 
ATOM     11  C   UNL     1      46.250 129.938  16.390  1.00  0.00     0.218 C 
ATOM     12  F   UNL     1      47.384 130.112  17.166  1.00  0.00    -0.240 F 
ENDROOT
BRANCH   8  13
ATOM     13  C   UNL     1      43.814 131.295  20.442  1.00  0.00     0.055 A 
ATOM     14  C   UNL     1      44.673 130.476  21.198  1.00  0.00     0.017 A 
ATOM     15  C   UNL     1      42.838 132.045  21.129  1.00  0.00     0.222 A 
ATOM     16  C   UNL     1      44.556 130.426  22.587  1.00  0.00     0.021 A 
ATOM     17  N   UNL     1      42.749 131.977  22.483  1.00  0.00    -0.228 NA
ATOM     18  C   UNL     1      43.578 131.192  23.220  1.00  0.00     0.114 A 
ATOM     19  F   UNL     1      41.990 132.866  20.457  1.00  0.00    -0.184 F 
ENDBRANCH   8  13
TORSDOF 1
ENDMDL


