REMARK SMILES C=Cc1ccc(-c2ccc(Nc3ccc([O-])cc3F)c3ccoc23)[nH+]c1
REMARK SMILES IDX 7 1 8 2 9 3 10 4 20 5 21 6 22 7 23 8 24 9 6 10 3 11 4 12
REMARK SMILES IDX 26 13 5 14 25 15 2 17 1 18 11 19 12 21 13 22 18 23 14 24
REMARK SMILES IDX 17 25 15 26 19 27 16 28
REMARK H PARENT 25 16 11 20
ROOT
ATOM      1  C   UNL     1      -0.162   0.827   1.504  1.00  0.00     0.089 A 
ATOM      2  C   UNL     1       1.027   0.182   1.095  1.00  0.00     0.021 A 
ATOM      3  C   UNL     1       1.078  -0.544  -0.114  1.00  0.00     0.028 A 
ATOM      4  C   UNL     1      -0.065  -0.656  -0.937  1.00  0.00     0.050 A 
ATOM      5  C   UNL     1      -1.224   0.001  -0.513  1.00  0.00     0.045 A 
ATOM      6  C   UNL     1      -2.480   0.073  -1.076  1.00  0.00     0.053 A 
ATOM      7  C   UNL     1      -3.224   0.834  -0.184  1.00  0.00     0.196 A 
ATOM      8  O   UNL     1      -2.479   1.196   0.843  1.00  0.00    -0.463 OA
ATOM      9  C   UNL     1      -1.275   0.707   0.661  1.00  0.00     0.149 A 
ENDROOT
BRANCH   1  10
ATOM     10  C   UNL     1      -0.216   1.590   2.774  1.00  0.00     0.214 A 
ATOM     11  C   UNL     1      -0.274   3.022   5.178  1.00  0.00     0.038 A 
ATOM     12  C   UNL     1      -0.906   3.533   4.037  1.00  0.00     0.021 A 
ATOM     13  C   UNL     1       0.370   1.774   5.078  1.00  0.00     0.314 A 
ATOM     14  C   UNL     1      -0.875   2.827   2.836  1.00  0.00     0.081 A 
ATOM     15  N   UNL     1       0.389   1.100   3.896  1.00  0.00    -0.210 N 
ATOM     16  H   UNL     1       0.864   0.169   3.869  1.00  0.00     0.453 HD
BRANCH  11  17
ATOM     17  C   UNL     1      -0.337   3.801   6.439  1.00  0.00     0.006 C 
ATOM     18  C   UNL     1       0.455   3.591   7.492  1.00  0.00     0.009 C 
ENDBRANCH  11  17
ENDBRANCH   1  10
BRANCH   4  19
ATOM     19  N   UNL     1      -0.034  -1.366  -2.187  1.00  0.00    -0.353 N 
ATOM     20  H   UNL     1      -0.644  -1.023  -2.963  1.00  0.00     0.167 HD
BRANCH  19  21
ATOM     21  C   UNL     1       0.861  -2.454  -2.471  1.00  0.00     0.075 A 
ATOM     22  C   UNL     1       1.455  -2.541  -3.739  1.00  0.00     0.028 A 
ATOM     23  C   UNL     1       1.107  -3.467  -1.524  1.00  0.00     0.146 A 
ATOM     24  C   UNL     1       2.316  -3.599  -4.046  1.00  0.00    -0.006 A 
ATOM     25  C   UNL     1       1.969  -4.524  -1.837  1.00  0.00     0.033 A 
ATOM     26  C   UNL     1       2.576  -4.588  -3.094  1.00  0.00    -0.106 A 
ATOM     27  F   UNL     1       0.486  -3.457  -0.318  1.00  0.00    -0.205 F 
ATOM     28  O   UNL     1       3.433  -5.638  -3.400  1.00  0.00    -0.872 OA
ENDBRANCH  19  21
ENDBRANCH   4  19
TORSDOF 4


