REMARK SMILES Cc1cc(-c2c[nH+]c3c(c2)C(=O)NC3)c(N)c2cc[nH]c12
REMARK SMILES IDX 1 1 2 2 3 3 4 4 15 5 17 6 18 7 19 8 20 9 21 10 5 12 6 13
REMARK SMILES IDX 10 14 7 15 9 16 8 17 11 18 14 19 13 20 12 22 16 24
REMARK H PARENT 20 11 7 21 13 23 16 25 16 26
ROOT
ATOM      1  C   UNL     1       0.071  -1.375  -3.884  1.00  0.00     0.046 C 
ATOM      2  C   UNL     1       0.668  -0.498  -2.822  1.00  0.00    -0.026 A 
ATOM      3  C   UNL     1       0.090  -0.408  -1.540  1.00  0.00     0.016 A 
ATOM      4  C   UNL     1       0.650   0.426  -0.539  1.00  0.00     0.012 A 
ATOM      5  C   UNL     1       1.829   1.173  -0.819  1.00  0.00     0.049 A 
ATOM      6  C   UNL     1       2.371   1.067  -2.107  1.00  0.00     0.023 A 
ATOM      7  C   UNL     1       3.487   1.657  -2.670  1.00  0.00     0.030 A 
ATOM      8  C   UNL     1       3.545   1.175  -3.971  1.00  0.00     0.083 A 
ATOM      9  N   UNL     1       2.523   0.326  -4.211  1.00  0.00    -0.361 N 
ATOM     10  C   UNL     1       1.813   0.265  -3.070  1.00  0.00     0.050 A 
ATOM     11  H   UNL     1       2.335  -0.179  -5.106  1.00  0.00     0.166 HD
ENDROOT
BRANCH   4  12
ATOM     12  C   UNL     1      -0.033   0.514   0.770  1.00  0.00     0.049 A 
ATOM     13  C   UNL     1      -0.278  -0.657   1.529  1.00  0.00     0.315 A 
ATOM     14  C   UNL     1      -0.491   1.755   1.256  1.00  0.00     0.035 A 
ATOM     15  N   UNL     1      -0.930  -0.586   2.729  1.00  0.00    -0.212 N 
ATOM     16  C   UNL     1      -1.146   1.770   2.481  1.00  0.00     0.109 A 
ATOM     17  C   UNL     1      -1.355   0.617   3.194  1.00  0.00     0.211 A 
ATOM     18  C   UNL     1      -1.724   2.847   3.241  1.00  0.00     0.258 C 
ATOM     19  C   UNL     1      -2.088   0.886   4.476  1.00  0.00     0.225 C 
ATOM     20  N   UNL     1      -2.293   2.337   4.441  1.00  0.00    -0.342 N 
ATOM     21  H   UNL     1      -1.101  -1.454   3.283  1.00  0.00     0.453 HD
ATOM     22  O   UNL     1      -1.736   4.063   2.914  1.00  0.00    -0.269 OA
ATOM     23  H   UNL     1      -2.776   2.902   5.174  1.00  0.00     0.164 HD
ENDBRANCH   4  12
BRANCH   5  24
ATOM     24  N   UNL     1       2.477   1.970   0.182  1.00  0.00    -0.398 N 
ATOM     25  H   UNL     1       2.196   1.927   1.186  1.00  0.00     0.156 HD
ATOM     26  H   UNL     1       3.296   2.573  -0.054  1.00  0.00     0.156 HD
ENDBRANCH   5  24
TORSDOF 2


