REMARK SMILES CC(=O)c1ccc(-c2ccc(OC(=O)[C@@H]3C[C@H]3C=O)cc2)c2c[n-]nc12
REMARK SMILES IDX 12 1 11 2 8 3 9 4 21 5 10 6 20 7 7 8 4 9 5 10 26 11 6 12
REMARK SMILES IDX 25 13 22 14 24 15 23 16 2 17 1 18 3 19 13 20 14 21 15 22
REMARK SMILES IDX 16 23 17 24 18 25 19 26
REMARK H PARENT
ROOT
ATOM      1  O   UNL     1      -2.184  -1.614  -1.611  1.00  0.00    -0.426 OA
ENDROOT
BRANCH   1   2
ATOM      2  C   UNL     1      -0.977  -1.422  -0.921  1.00  0.00     0.130 A 
ATOM      3  C   UNL     1       1.400  -1.058   0.549  1.00  0.00    -0.018 A 
ATOM      4  C   UNL     1       1.301  -0.584  -0.769  1.00  0.00     0.012 A 
ATOM      5  C   UNL     1       0.291  -1.691   1.133  1.00  0.00     0.012 A 
ATOM      6  C   UNL     1       0.122  -0.763  -1.499  1.00  0.00     0.048 A 
ATOM      7  C   UNL     1      -0.888  -1.867   0.402  1.00  0.00     0.048 A 
BRANCH   3   8
ATOM      8  C   UNL     1       2.647  -0.858   1.323  1.00  0.00    -0.011 A 
ATOM      9  C   UNL     1       5.054  -0.462   2.832  1.00  0.00     0.042 A 
ATOM     10  C   UNL     1       4.458   0.602   2.112  1.00  0.00     0.014 A 
ATOM     11  C   UNL     1       4.409  -1.707   2.760  1.00  0.00     0.058 A 
ATOM     12  C   UNL     1       3.276   0.405   1.367  1.00  0.00     0.010 A 
ATOM     13  N   UNL     1       4.789  -2.870   3.321  1.00  0.00    -0.367 NA
ATOM     14  C   UNL     1       3.260  -1.893   2.040  1.00  0.00    -0.014 A 
ATOM     15  N   UNL     1       3.905  -3.796   2.965  1.00  0.00    -0.581 NA
ATOM     16  C   UNL     1       2.962  -3.231   2.178  1.00  0.00    -0.113 A 
BRANCH   9  17
ATOM     17  C   UNL     1       6.304  -0.271   3.618  1.00  0.00     0.161 C 
ATOM     18  C   UNL     1       7.005   1.053   3.674  1.00  0.00     0.093 C 
ATOM     19  O   UNL     1       6.798  -1.236   4.261  1.00  0.00    -0.294 OA
ENDBRANCH   9  17
ENDBRANCH   3   8
ENDBRANCH   1   2
BRANCH   1  20
ATOM     20  C   UNL     1      -2.309  -1.739  -3.000  1.00  0.00     0.315 C 
ATOM     21  O   UNL     1      -1.318  -2.044  -3.718  1.00  0.00    -0.251 OA
BRANCH  20  22
ATOM     22  C   UNL     1      -3.660  -1.614  -3.627  1.00  0.00     0.110 C 
ATOM     23  C   UNL     1      -3.775  -0.494  -4.654  1.00  0.00     0.028 C 
ATOM     24  C   UNL     1      -4.397  -0.328  -3.274  1.00  0.00     0.068 C 
BRANCH  24  25
ATOM     25  C   UNL     1      -5.890  -0.445  -3.265  1.00  0.00     0.228 C 
ATOM     26  O   UNL     1      -6.577   0.454  -3.722  1.00  0.00    -0.303 OA
ENDBRANCH  24  25
ENDBRANCH  20  22
ENDBRANCH   1  20
TORSDOF 6


