REMARK SMILES C=Cc1cc(-c2ccc(C)c3n[nH]cc23)ccc1[O-]
REMARK SMILES IDX 3 1 4 2 5 3 16 4 17 5 18 6 19 7 2 8 1 9 6 10 7 11 15 12 8 13
REMARK SMILES IDX 14 14 11 15 9 16 13 17 12 18 10 19
REMARK H PARENT 13 20
ROOT
ATOM      1  C   UNL     1       0.417   1.827  -2.541  1.00  0.00    -0.034 A 
ATOM      2  C   UNL     1       0.261   0.918  -1.475  1.00  0.00     0.016 A 
ATOM      3  C   UNL     1       1.379   0.311  -0.877  1.00  0.00    -0.017 A 
ATOM      4  C   UNL     1       2.664   0.643  -1.331  1.00  0.00     0.008 A 
ATOM      5  C   UNL     1       2.829   1.555  -2.373  1.00  0.00    -0.007 A 
ATOM      6  C   UNL     1       1.717   2.147  -2.978  1.00  0.00    -0.102 A 
ATOM      7  O   UNL     1       1.915   3.049  -4.019  1.00  0.00    -0.872 OA
ENDROOT
BRANCH   1   8
ATOM      8  C   UNL     1      -0.752   2.480  -3.184  1.00  0.00    -0.001 C 
ATOM      9  C   UNL     1      -1.981   1.962  -3.187  1.00  0.00     0.009 C 
ENDBRANCH   1   8
BRANCH   3  10
ATOM     10  C   UNL     1       1.208  -0.643   0.243  1.00  0.00    -0.007 A 
ATOM     11  C   UNL     1       1.973  -0.517   1.425  1.00  0.00     0.010 A 
ATOM     12  C   UNL     1       0.291  -1.703   0.193  1.00  0.00     0.028 A 
ATOM     13  C   UNL     1       1.803  -1.418   2.499  1.00  0.00     0.006 A 
ATOM     14  C   UNL     1      -0.573  -2.145  -0.787  1.00  0.00     0.114 A 
ATOM     15  C   UNL     1       0.130  -2.581   1.233  1.00  0.00     0.096 A 
ATOM     16  C   UNL     1       0.876  -2.478   2.410  1.00  0.00    -0.023 A 
ATOM     17  N   UNL     1      -1.213  -3.233  -0.306  1.00  0.00    -0.284 N 
ATOM     18  N   UNL     1      -0.793  -3.510   0.923  1.00  0.00    -0.175 NA
ATOM     19  C   UNL     1       0.666  -3.429   3.551  1.00  0.00     0.047 C 
ATOM     20  H   UNL     1      -1.930  -3.792  -0.817  1.00  0.00     0.189 HD
ENDBRANCH   3  10
TORSDOF 2


