REMARK SMILES Cc1nnc(-c2cc3ccc(F)cc3[nH]2)o1
REMARK SMILES IDX 6 1 7 2 8 3 9 4 10 5 11 6 12 7 13 8 14 9 15 10 5 12 2 13
REMARK SMILES IDX 3 14 16 15 4 16 1 17
REMARK H PARENT 15 11
ROOT
ATOM      1  C   UNL     1      -0.626   0.550  -0.133  1.00  0.00     0.104 A 
ATOM      2  C   UNL     1      -1.300   0.339   1.068  1.00  0.00     0.042 A 
ATOM      3  C   UNL     1      -1.939  -0.871   0.906  1.00  0.00     0.000 A 
ATOM      4  C   UNL     1      -2.759  -1.586   1.776  1.00  0.00     0.013 A 
ATOM      5  C   UNL     1      -3.277  -2.815   1.327  1.00  0.00     0.040 A 
ATOM      6  C   UNL     1      -2.968  -3.293   0.033  1.00  0.00     0.125 A 
ATOM      7  F   UNL     1      -3.475  -4.478  -0.387  1.00  0.00    -0.207 F 
ATOM      8  C   UNL     1      -2.136  -2.546  -0.822  1.00  0.00     0.066 A 
ATOM      9  C   UNL     1      -1.638  -1.333  -0.349  1.00  0.00     0.049 A 
ATOM     10  N   UNL     1      -0.834  -0.473  -0.997  1.00  0.00    -0.350 N 
ATOM     11  H   UNL     1      -0.452  -0.574  -1.964  1.00  0.00     0.167 HD
ENDROOT
BRANCH   1  12
ATOM     12  C   UNL     1       0.203   1.721  -0.438  1.00  0.00     0.264 A 
ATOM     13  C   UNL     1       1.193   3.539  -0.268  1.00  0.00     0.214 A 
ATOM     14  N   UNL     1       1.482   3.067  -1.495  1.00  0.00    -0.113 NA
ATOM     15  O   UNL     1       0.413   2.716   0.390  1.00  0.00    -0.420 OA
ATOM     16  N   UNL     1       0.849   1.909  -1.605  1.00  0.00    -0.106 NA
ATOM     17  C   UNL     1       1.727   4.816   0.284  1.00  0.00     0.113 C 
ENDBRANCH   1  12
TORSDOF 1


