MODEL 1
REMARK VINA RESULT:      -9.7      0.000      0.000
REMARK SMILES CC(=O)c1ccc(-c2nccc(C)c2F)c2c[nH]nc12
REMARK SMILES IDX 4 1 5 2 6 3 7 4 16 5 17 6 18 7 19 8 20 9 2 11 1 12 3 13 8 14
REMARK SMILES IDX 9 15 14 16 10 17 12 18 11 19 15 20 13 21
REMARK H PARENT 18 10
ROOT
ATOM      1  C   UNL     1      44.293 131.227  21.098  1.00  0.00     0.045 A 
ATOM      2  C   UNL     1      45.463 130.626  20.574  1.00  0.00     0.015 A 
ATOM      3  C   UNL     1      45.697 130.573  19.183  1.00  0.00     0.012 A 
ATOM      4  C   UNL     1      44.772 131.124  18.270  1.00  0.00     0.014 A 
ATOM      5  C   UNL     1      43.619 131.703  18.812  1.00  0.00     0.030 A 
ATOM      6  C   UNL     1      42.540 132.335  18.234  1.00  0.00     0.114 A 
ATOM      7  N   UNL     1      41.718 132.730  19.228  1.00  0.00    -0.284 N 
ATOM      8  N   UNL     1      42.223 132.386  20.407  1.00  0.00    -0.175 NA
ATOM      9  C   UNL     1      43.389 131.757  20.164  1.00  0.00     0.103 A 
ATOM     10  H   UNL     1      40.815 133.240  19.107  1.00  0.00     0.189 HD
ENDROOT
BRANCH   1  11
ATOM     11  C   UNL     1      44.036 131.291  22.563  1.00  0.00     0.162 C 
ATOM     12  C   UNL     1      43.078 130.356  23.237  1.00  0.00     0.093 C 
ATOM     13  O   UNL     1      44.628 132.152  23.270  1.00  0.00    -0.294 OA
ENDBRANCH   1  11
BRANCH   4  14
ATOM     14  C   UNL     1      44.995 131.051  16.808  1.00  0.00     0.107 A 
ATOM     15  N   UNL     1      44.125 131.681  15.972  1.00  0.00    -0.253 NA
ATOM     16  C   UNL     1      46.086 130.346  16.265  1.00  0.00     0.152 A 
ATOM     17  C   UNL     1      44.269 131.651  14.621  1.00  0.00     0.112 A 
ATOM     18  C   UNL     1      46.248 130.287  14.871  1.00  0.00    -0.012 A 
ATOM     19  C   UNL     1      45.333 130.956  14.046  1.00  0.00     0.026 A 
ATOM     20  F   UNL     1      47.003 129.758  17.077  1.00  0.00    -0.204 F 
ATOM     21  C   UNL     1      47.423 129.569  14.273  1.00  0.00     0.047 C 
ENDBRANCH   4  14
TORSDOF 2
ENDMDL
MODEL 2
REMARK VINA RESULT:      -8.8      1.080      1.126
REMARK SMILES CC(=O)c1ccc(-c2nccc(C)c2F)c2c[nH]nc12
REMARK SMILES IDX 4 1 5 2 6 3 7 4 16 5 17 6 18 7 19 8 20 9 2 11 1 12 3 13 8 14
REMARK SMILES IDX 9 15 14 16 10 17 12 18 11 19 15 20 13 21
REMARK H PARENT 18 10
ROOT
ATOM      1  C   UNL     1      43.973 131.063  21.200  1.00  0.00     0.045 A 
ATOM      2  C   UNL     1      45.269 130.575  20.905  1.00  0.00     0.015 A 
ATOM      3  C   UNL     1      45.795 130.643  19.597  1.00  0.00     0.012 A 
ATOM      4  C   UNL     1      45.046 131.206  18.542  1.00  0.00     0.014 A 
ATOM      5  C   UNL     1      43.764 131.673  18.857  1.00  0.00     0.030 A 
ATOM      6  C   UNL     1      42.787 132.282  18.099  1.00  0.00     0.114 A 
ATOM      7  N   UNL     1      41.747 132.550  18.914  1.00  0.00    -0.284 N 
ATOM      8  N   UNL     1      42.015 132.147  20.151  1.00  0.00    -0.175 NA
ATOM      9  C   UNL     1      43.250 131.609  20.127  1.00  0.00     0.103 A 
ATOM     10  H   UNL     1      40.855 133.013  18.633  1.00  0.00     0.189 HD
ENDROOT
BRANCH   1  11
ATOM     11  C   UNL     1      43.407 131.000  22.576  1.00  0.00     0.162 C 
ATOM     12  C   UNL     1      43.581 132.124  23.551  1.00  0.00     0.093 C 
ATOM     13  O   UNL     1      42.765 129.980  22.948  1.00  0.00    -0.294 OA
ENDBRANCH   1  11
BRANCH   4  14
ATOM     14  C   UNL     1      45.578 131.259  17.161  1.00  0.00     0.107 A 
ATOM     15  N   UNL     1      45.576 132.446  16.494  1.00  0.00    -0.253 NA
ATOM     16  C   UNL     1      46.085 130.110  16.524  1.00  0.00     0.152 A 
ATOM     17  C   UNL     1      46.045 132.563  15.224  1.00  0.00     0.112 A 
ATOM     18  C   UNL     1      46.562 130.203  15.206  1.00  0.00    -0.012 A 
ATOM     19  C   UNL     1      46.549 131.445  14.558  1.00  0.00     0.026 A 
ATOM     20  F   UNL     1      46.154 128.926  17.187  1.00  0.00    -0.204 F 
ATOM     21  C   UNL     1      47.138 128.997  14.522  1.00  0.00     0.047 C 
ENDBRANCH   4  14
TORSDOF 2
ENDMDL
MODEL 3
REMARK VINA RESULT:      -8.7      2.096      2.849
REMARK SMILES CC(=O)c1ccc(-c2nccc(C)c2F)c2c[nH]nc12
REMARK SMILES IDX 4 1 5 2 6 3 7 4 16 5 17 6 18 7 19 8 20 9 2 11 1 12 3 13 8 14
REMARK SMILES IDX 9 15 14 16 10 17 12 18 11 19 15 20 13 21
REMARK H PARENT 18 10
ROOT
ATOM      1  C   UNL     1      43.039 132.043  19.737  1.00  0.00     0.045 A 
ATOM      2  C   UNL     1      42.503 132.032  18.426  1.00  0.00     0.015 A 
ATOM      3  C   UNL     1      43.252 131.540  17.336  1.00  0.00     0.012 A 
ATOM      4  C   UNL     1      44.558 131.038  17.519  1.00  0.00     0.014 A 
ATOM      5  C   UNL     1      45.069 131.069  18.823  1.00  0.00     0.030 A 
ATOM      6  C   UNL     1      46.270 130.655  19.358  1.00  0.00     0.114 A 
ATOM      7  N   UNL     1      46.229 130.896  20.685  1.00  0.00    -0.284 N 
ATOM      8  N   UNL     1      45.063 131.436  21.019  1.00  0.00    -0.175 NA
ATOM      9  C   UNL     1      44.343 131.545  19.886  1.00  0.00     0.103 A 
ATOM     10  H   UNL     1      46.992 130.687  21.366  1.00  0.00     0.189 HD
ENDROOT
BRANCH   1  11
ATOM     11  C   UNL     1      42.259 132.556  20.897  1.00  0.00     0.162 C 
ATOM     12  C   UNL     1      42.487 132.046  22.288  1.00  0.00     0.093 C 
ATOM     13  O   UNL     1      41.376 133.440  20.721  1.00  0.00    -0.294 OA
ENDBRANCH   1  11
BRANCH   4  14
ATOM     14  C   UNL     1      45.363 130.544  16.378  1.00  0.00     0.107 A 
ATOM     15  N   UNL     1      45.385 129.209  16.111  1.00  0.00    -0.253 NA
ATOM     16  C   UNL     1      46.103 131.423  15.565  1.00  0.00     0.152 A 
ATOM     17  C   UNL     1      46.105 128.689  15.082  1.00  0.00     0.112 A 
ATOM     18  C   UNL     1      46.867 130.908  14.505  1.00  0.00    -0.012 A 
ATOM     19  C   UNL     1      46.857 129.528  14.260  1.00  0.00     0.026 A 
ATOM     20  F   UNL     1      46.052 132.765  15.772  1.00  0.00    -0.204 F 
ATOM     21  C   UNL     1      47.637 131.832  13.606  1.00  0.00     0.047 C 
ENDBRANCH   4  14
TORSDOF 2
ENDMDL
MODEL 4
REMARK VINA RESULT:      -8.6      2.720      6.160
REMARK SMILES CC(=O)c1ccc(-c2nccc(C)c2F)c2c[nH]nc12
REMARK SMILES IDX 4 1 5 2 6 3 7 4 16 5 17 6 18 7 19 8 20 9 2 11 1 12 3 13 8 14
REMARK SMILES IDX 9 15 14 16 10 17 12 18 11 19 15 20 13 21
REMARK H PARENT 18 10
ROOT
ATOM      1  C   UNL     1      46.472 130.342  15.195  1.00  0.00     0.045 A 
ATOM      2  C   UNL     1      46.922 130.097  16.515  1.00  0.00     0.015 A 
ATOM      3  C   UNL     1      46.134 130.445  17.632  1.00  0.00     0.012 A 
ATOM      4  C   UNL     1      44.867 131.045  17.468  1.00  0.00     0.014 A 
ATOM      5  C   UNL     1      44.448 131.286  16.154  1.00  0.00     0.030 A 
ATOM      6  C   UNL     1      43.291 131.826  15.634  1.00  0.00     0.114 A 
ATOM      7  N   UNL     1      43.399 131.801  14.289  1.00  0.00    -0.284 N 
ATOM      8  N   UNL     1      44.561 131.268  13.930  1.00  0.00    -0.175 NA
ATOM      9  C   UNL     1      45.211 130.947  15.065  1.00  0.00     0.103 A 
ATOM     10  H   UNL     1      42.679 132.140  13.614  1.00  0.00     0.189 HD
ENDROOT
BRANCH   1  11
ATOM     11  C   UNL     1      47.292 129.977  14.007  1.00  0.00     0.162 C 
ATOM     12  C   UNL     1      47.588 130.965  12.920  1.00  0.00     0.093 C 
ATOM     13  O   UNL     1      47.756 128.809  13.897  1.00  0.00    -0.294 OA
ENDBRANCH   1  11
BRANCH   4  14
ATOM     14  C   UNL     1      44.042 131.438  18.634  1.00  0.00     0.107 A 
ATOM     15  N   UNL     1      42.827 132.015  18.423  1.00  0.00    -0.253 NA
ATOM     16  C   UNL     1      44.488 131.229  19.953  1.00  0.00     0.152 A 
ATOM     17  C   UNL     1      42.023 132.402  19.447  1.00  0.00     0.112 A 
ATOM     18  C   UNL     1      43.681 131.635  21.028  1.00  0.00    -0.012 A 
ATOM     19  C   UNL     1      42.434 132.218  20.768  1.00  0.00     0.026 A 
ATOM     20  F   UNL     1      45.669 130.602  20.193  1.00  0.00    -0.204 F 
ATOM     21  C   UNL     1      44.123 131.390  22.442  1.00  0.00     0.047 C 
ENDBRANCH   4  14
TORSDOF 2
ENDMDL
MODEL 5
REMARK VINA RESULT:      -8.4      1.491      1.744
REMARK SMILES CC(=O)c1ccc(-c2nccc(C)c2F)c2c[nH]nc12
REMARK SMILES IDX 4 1 5 2 6 3 7 4 16 5 17 6 18 7 19 8 20 9 2 11 1 12 3 13 8 14
REMARK SMILES IDX 9 15 14 16 10 17 12 18 11 19 15 20 13 21
REMARK H PARENT 18 10
ROOT
ATOM      1  C   UNL     1      43.807 131.598  20.678  1.00  0.00     0.045 A 
ATOM      2  C   UNL     1      45.053 130.930  20.596  1.00  0.00     0.015 A 
ATOM      3  C   UNL     1      45.610 130.574  19.350  1.00  0.00     0.012 A 
ATOM      4  C   UNL     1      44.944 130.876  18.143  1.00  0.00     0.014 A 
ATOM      5  C   UNL     1      43.709 131.527  18.250  1.00  0.00     0.030 A 
ATOM      6  C   UNL     1      42.814 131.980  17.305  1.00  0.00     0.114 A 
ATOM      7  N   UNL     1      41.789 132.563  17.960  1.00  0.00    -0.284 N 
ATOM      8  N   UNL     1      41.990 132.508  19.271  1.00  0.00    -0.175 NA
ATOM      9  C   UNL     1      43.165 131.877  19.461  1.00  0.00     0.103 A 
ATOM     10  H   UNL     1      40.954 133.005  17.516  1.00  0.00     0.189 HD
ENDROOT
BRANCH   1  11
ATOM     11  C   UNL     1      43.209 131.982  21.986  1.00  0.00     0.162 C 
ATOM     12  C   UNL     1      43.908 131.706  23.283  1.00  0.00     0.093 C 
ATOM     13  O   UNL     1      42.086 132.554  22.023  1.00  0.00    -0.294 OA
ENDBRANCH   1  11
BRANCH   4  14
ATOM     14  C   UNL     1      45.507 130.483  16.831  1.00  0.00     0.107 A 
ATOM     15  N   UNL     1      45.473 129.174  16.460  1.00  0.00    -0.253 NA
ATOM     16  C   UNL     1      46.074 131.433  15.960  1.00  0.00     0.152 A 
ATOM     17  C   UNL     1      45.976 128.746  15.272  1.00  0.00     0.112 A 
ATOM     18  C   UNL     1      46.613 131.013  14.734  1.00  0.00    -0.012 A 
ATOM     19  C   UNL     1      46.553 129.656  14.387  1.00  0.00     0.026 A 
ATOM     20  F   UNL     1      46.067 132.754  16.279  1.00  0.00    -0.204 F 
ATOM     21  C   UNL     1      47.193 132.014  13.777  1.00  0.00     0.047 C 
ENDBRANCH   4  14
TORSDOF 2
ENDMDL
MODEL 6
REMARK VINA RESULT:      -8.3      2.562      6.156
REMARK SMILES CC(=O)c1ccc(-c2nccc(C)c2F)c2c[nH]nc12
REMARK SMILES IDX 4 1 5 2 6 3 7 4 16 5 17 6 18 7 19 8 20 9 2 11 1 12 3 13 8 14
REMARK SMILES IDX 9 15 14 16 10 17 12 18 11 19 15 20 13 21
REMARK H PARENT 18 10
ROOT
ATOM      1  C   UNL     1      44.724 131.380  17.526  1.00  0.00     0.045 A 
ATOM      2  C   UNL     1      45.746 130.790  18.310  1.00  0.00     0.015 A 
ATOM      3  C   UNL     1      45.600 130.638  19.705  1.00  0.00     0.012 A 
ATOM      4  C   UNL     1      44.427 131.065  20.364  1.00  0.00     0.014 A 
ATOM      5  C   UNL     1      43.436 131.654  19.569  1.00  0.00     0.030 A 
ATOM      6  C   UNL     1      42.188 132.157  19.866  1.00  0.00     0.114 A 
ATOM      7  N   UNL     1      41.636 132.584  18.711  1.00  0.00    -0.284 N 
ATOM      8  N   UNL     1      42.468 132.374  17.698  1.00  0.00    -0.175 NA
ATOM      9  C   UNL     1      43.574 131.803  18.212  1.00  0.00     0.103 A 
ATOM     10  H   UNL     1      40.690 133.014  18.610  1.00  0.00     0.189 HD
ENDROOT
BRANCH   1  11
ATOM     11  C   UNL     1      44.864 131.544  16.053  1.00  0.00     0.162 C 
ATOM     12  C   UNL     1      46.176 131.896  15.420  1.00  0.00     0.093 C 
ATOM     13  O   UNL     1      43.861 131.389  15.304  1.00  0.00    -0.294 OA
ENDBRANCH   1  11
BRANCH   4  14
ATOM     14  C   UNL     1      44.275 130.934  21.831  1.00  0.00     0.107 A 
ATOM     15  N   UNL     1      43.846 132.006  22.552  1.00  0.00    -0.253 NA
ATOM     16  C   UNL     1      44.563 129.727  22.495  1.00  0.00     0.152 A 
ATOM     17  C   UNL     1      43.689 131.955  23.901  1.00  0.00     0.112 A 
ATOM     18  C   UNL     1      44.422 129.653  23.890  1.00  0.00    -0.012 A 
ATOM     19  C   UNL     1      43.971 130.778  24.594  1.00  0.00     0.026 A 
ATOM     20  F   UNL     1      44.935 128.623  21.794  1.00  0.00    -0.204 F 
ATOM     21  C   UNL     1      44.693 128.365  24.613  1.00  0.00     0.047 C 
ENDBRANCH   4  14
TORSDOF 2
ENDMDL
MODEL 7
REMARK VINA RESULT:      -8.2      3.135      6.499
REMARK SMILES CC(=O)c1ccc(-c2nccc(C)c2F)c2c[nH]nc12
REMARK SMILES IDX 4 1 5 2 6 3 7 4 16 5 17 6 18 7 19 8 20 9 2 11 1 12 3 13 8 14
REMARK SMILES IDX 9 15 14 16 10 17 12 18 11 19 15 20 13 21
REMARK H PARENT 18 10
ROOT
ATOM      1  C   UNL     1      46.794 130.955  14.400  1.00  0.00     0.045 A 
ATOM      2  C   UNL     1      46.631 132.250  14.949  1.00  0.00     0.015 A 
ATOM      3  C   UNL     1      45.795 132.470  16.065  1.00  0.00     0.012 A 
ATOM      4  C   UNL     1      45.098 131.404  16.672  1.00  0.00     0.014 A 
ATOM      5  C   UNL     1      45.268 130.135  16.105  1.00  0.00     0.030 A 
ATOM      6  C   UNL     1      44.768 128.895  16.440  1.00  0.00     0.114 A 
ATOM      7  N   UNL     1      45.277 128.001  15.567  1.00  0.00    -0.284 N 
ATOM      8  N   UNL     1      46.077 128.609  14.700  1.00  0.00    -0.175 NA
ATOM      9  C   UNL     1      46.081 129.917  15.021  1.00  0.00     0.103 A 
ATOM     10  H   UNL     1      45.085 126.975  15.564  1.00  0.00     0.189 HD
ENDROOT
BRANCH   1  11
ATOM     11  C   UNL     1      47.675 130.709  13.225  1.00  0.00     0.162 C 
ATOM     12  C   UNL     1      48.739 129.654  13.246  1.00  0.00     0.093 C 
ATOM     13  O   UNL     1      47.537 131.399  12.178  1.00  0.00    -0.294 OA
ENDBRANCH   1  11
BRANCH   4  14
ATOM     14  C   UNL     1      44.198 131.628  17.827  1.00  0.00     0.107 A 
ATOM     15  N   UNL     1      42.905 131.986  17.600  1.00  0.00    -0.253 NA
ATOM     16  C   UNL     1      44.651 131.477  19.151  1.00  0.00     0.152 A 
ATOM     17  C   UNL     1      42.028 132.211  18.614  1.00  0.00     0.112 A 
ATOM     18  C   UNL     1      43.768 131.719  20.216  1.00  0.00    -0.012 A 
ATOM     19  C   UNL     1      42.442 132.079  19.939  1.00  0.00     0.026 A 
ATOM     20  F   UNL     1      45.920 131.063  19.406  1.00  0.00    -0.204 F 
ATOM     21  C   UNL     1      44.222 131.532  21.635  1.00  0.00     0.047 C 
ENDBRANCH   4  14
TORSDOF 2
ENDMDL
MODEL 8
REMARK VINA RESULT:      -7.6      1.350      1.863
REMARK SMILES CC(=O)c1ccc(-c2nccc(C)c2F)c2c[nH]nc12
REMARK SMILES IDX 4 1 5 2 6 3 7 4 16 5 17 6 18 7 19 8 20 9 2 11 1 12 3 13 8 14
REMARK SMILES IDX 9 15 14 16 10 17 12 18 11 19 15 20 13 21
REMARK H PARENT 18 10
ROOT
ATOM      1  C   UNL     1      44.174 131.273  21.575  1.00  0.00     0.045 A 
ATOM      2  C   UNL     1      45.347 130.626  21.114  1.00  0.00     0.015 A 
ATOM      3  C   UNL     1      45.640 130.539  19.737  1.00  0.00     0.012 A 
ATOM      4  C   UNL     1      44.774 131.100  18.773  1.00  0.00     0.014 A 
ATOM      5  C   UNL     1      43.617 131.726  19.252  1.00  0.00     0.030 A 
ATOM      6  C   UNL     1      42.585 132.380  18.615  1.00  0.00     0.114 A 
ATOM      7  N   UNL     1      41.733 132.819  19.564  1.00  0.00    -0.284 N 
ATOM      8  N   UNL     1      42.175 132.483  20.770  1.00  0.00    -0.175 NA
ATOM      9  C   UNL     1      43.329 131.813  20.591  1.00  0.00     0.103 A 
ATOM     10  H   UNL     1      40.853 133.355  19.393  1.00  0.00     0.189 HD
ENDROOT
BRANCH   1  11
ATOM     11  C   UNL     1      43.855 131.375  23.025  1.00  0.00     0.162 C 
ATOM     12  C   UNL     1      42.774 130.548  23.654  1.00  0.00     0.093 C 
ATOM     13  O   UNL     1      44.498 132.175  23.758  1.00  0.00    -0.294 OA
ENDBRANCH   1  11
BRANCH   4  14
ATOM     14  C   UNL     1      45.059 130.992  17.323  1.00  0.00     0.107 A 
ATOM     15  N   UNL     1      46.260 130.495  16.919  1.00  0.00    -0.253 NA
ATOM     16  C   UNL     1      44.116 131.390  16.358  1.00  0.00     0.152 A 
ATOM     17  C   UNL     1      46.587 130.373  15.606  1.00  0.00     0.112 A 
ATOM     18  C   UNL     1      44.436 131.287  14.994  1.00  0.00    -0.012 A 
ATOM     19  C   UNL     1      45.681 130.764  14.620  1.00  0.00     0.026 A 
ATOM     20  F   UNL     1      42.886 131.833  16.732  1.00  0.00    -0.204 F 
ATOM     21  C   UNL     1      43.431 131.675  13.948  1.00  0.00     0.047 C 
ENDBRANCH   4  14
TORSDOF 2
ENDMDL
MODEL 9
REMARK VINA RESULT:      -7.5      2.623      6.337
REMARK SMILES CC(=O)c1ccc(-c2nccc(C)c2F)c2c[nH]nc12
REMARK SMILES IDX 4 1 5 2 6 3 7 4 16 5 17 6 18 7 19 8 20 9 2 11 1 12 3 13 8 14
REMARK SMILES IDX 9 15 14 16 10 17 12 18 11 19 15 20 13 21
REMARK H PARENT 18 10
ROOT
ATOM      1  C   UNL     1      44.988 131.079  17.668  1.00  0.00     0.045 A 
ATOM      2  C   UNL     1      45.881 130.579  18.648  1.00  0.00     0.015 A 
ATOM      3  C   UNL     1      45.569 130.648  20.022  1.00  0.00     0.012 A 
ATOM      4  C   UNL     1      44.354 131.212  20.464  1.00  0.00     0.014 A 
ATOM      5  C   UNL     1      43.492 131.708  19.478  1.00  0.00     0.030 A 
ATOM      6  C   UNL     1      42.247 132.294  19.544  1.00  0.00     0.114 A 
ATOM      7  N   UNL     1      41.854 132.560  18.281  1.00  0.00    -0.284 N 
ATOM      8  N   UNL     1      42.783 132.167  17.418  1.00  0.00    -0.175 NA
ATOM      9  C   UNL     1      43.791 131.642  18.140  1.00  0.00     0.103 A 
ATOM     10  H   UNL     1      40.950 133.003  18.004  1.00  0.00     0.189 HD
ENDROOT
BRANCH   1  11
ATOM     11  C   UNL     1      45.303 131.010  16.215  1.00  0.00     0.162 C 
ATOM     12  C   UNL     1      45.129 129.745  15.430  1.00  0.00     0.093 C 
ATOM     13  O   UNL     1      45.731 132.033  15.613  1.00  0.00    -0.294 OA
ENDBRANCH   1  11
BRANCH   4  14
ATOM     14  C   UNL     1      44.028 131.313  21.906  1.00  0.00     0.107 A 
ATOM     15  N   UNL     1      44.642 132.266  22.660  1.00  0.00    -0.253 NA
ATOM     16  C   UNL     1      43.099 130.446  22.512  1.00  0.00     0.152 A 
ATOM     17  C   UNL     1      44.392 132.410  23.987  1.00  0.00     0.112 A 
ATOM     18  C   UNL     1      42.836 130.565  23.886  1.00  0.00    -0.012 A 
ATOM     19  C   UNL     1      43.484 131.564  24.624  1.00  0.00     0.026 A 
ATOM     20  F   UNL     1      42.428 129.525  21.772  1.00  0.00    -0.204 F 
ATOM     21  C   UNL     1      41.824 129.672  24.544  1.00  0.00     0.047 C 
ENDBRANCH   4  14
TORSDOF 2
ENDMDL


