REMARK SMILES c1cc(-c2ccc3[nH]ccc3c2)cc([C@@H]2CO2)c1
REMARK SMILES IDX 4 1 5 2 6 3 7 4 8 5 9 6 10 7 11 8 12 9 3 11 1 12 2 13 18 14
REMARK SMILES IDX 14 15 13 16 15 17 16 18 17 19
REMARK H PARENT 8 10
ROOT
ATOM      1  C   UNL     1      -0.394   1.760   1.113  1.00  0.00    -0.018 A 
ATOM      2  C   UNL     1       0.274   2.996   0.890  1.00  0.00     0.011 A 
ATOM      3  C   UNL     1       0.010   4.115   1.700  1.00  0.00     0.027 A 
ATOM      4  C   UNL     1      -0.923   3.974   2.723  1.00  0.00     0.045 A 
ATOM      5  N   UNL     1      -1.317   4.908   3.603  1.00  0.00    -0.361 N 
ATOM      6  C   UNL     1      -2.230   4.304   4.398  1.00  0.00     0.083 A 
ATOM      7  C   UNL     1      -2.416   2.979   4.018  1.00  0.00     0.028 A 
ATOM      8  C   UNL     1      -1.572   2.791   2.946  1.00  0.00    -0.000 A 
ATOM      9  C   UNL     1      -1.337   1.662   2.165  1.00  0.00     0.019 A 
ATOM     10  H   UNL     1      -0.988   5.897   3.666  1.00  0.00     0.166 HD
ENDROOT
BRANCH   1  11
ATOM     11  C   UNL     1      -0.106   0.585   0.253  1.00  0.00    -0.018 A 
ATOM     12  C   UNL     1      -0.872  -1.371  -0.975  1.00  0.00     0.001 A 
ATOM     13  C   UNL     1      -1.145  -0.263  -0.170  1.00  0.00     0.009 A 
ATOM     14  C   UNL     1       0.439  -1.645  -1.372  1.00  0.00     0.006 A 
ATOM     15  C   UNL     1       1.485  -0.802  -0.974  1.00  0.00    -0.016 A 
ATOM     16  C   UNL     1       1.212   0.301  -0.151  1.00  0.00     0.015 A 
BRANCH  15  17
ATOM     17  C   UNL     1       2.899  -1.115  -1.367  1.00  0.00     0.174 C 
ATOM     18  C   UNL     1       3.575  -0.112  -2.223  1.00  0.00     0.198 C 
ATOM     19  O   UNL     1       3.027  -1.293  -2.759  1.00  0.00    -0.368 OA
ENDBRANCH  15  17
ENDBRANCH   1  11
TORSDOF 2


