REMARK SMILES CC1=CCC=C[C@H]1C(=O)Oc1ccc(N(C(=O)CC#N)c2ccc3cc[nH]c3c2)c(F)c1
REMARK SMILES IDX 11 1 12 2 13 3 14 4 30 5 31 6 32 7 10 8 8 9 9 10 7 11 2 12
REMARK SMILES IDX 3 13 4 14 6 15 5 16 1 17 15 18 16 19 17 20 18 21 19 22 20 23
REMARK SMILES IDX 21 24 22 25 29 26 23 27 28 28 24 29 27 30 25 31 26 32
REMARK H PARENT 27 33
ROOT
ATOM      1  C   UNL     1      -1.608   0.902   0.109  1.00  0.00     0.133 A 
ATOM      2  C   UNL     1      -1.446   2.288   0.203  1.00  0.00     0.049 A 
ATOM      3  C   UNL     1      -0.206   2.879  -0.052  1.00  0.00     0.034 A 
ATOM      4  C   UNL     1       0.896   2.088  -0.406  1.00  0.00     0.085 A 
ATOM      5  C   UNL     1       0.745   0.693  -0.483  1.00  0.00     0.151 A 
ATOM      6  F   UNL     1       1.799  -0.095  -0.817  1.00  0.00    -0.205 F 
ATOM      7  C   UNL     1      -0.497   0.103  -0.222  1.00  0.00     0.088 A 
ENDROOT
BRANCH   1   8
ATOM      8  O   UNL     1      -2.874   0.366   0.394  1.00  0.00    -0.426 OA
BRANCH   8   9
ATOM      9  C   UNL     1      -3.367  -0.874  -0.033  1.00  0.00     0.322 C 
ATOM     10  O   UNL     1      -2.813  -1.508  -0.972  1.00  0.00    -0.251 OA
BRANCH   9  11
ATOM     11  C   UNL     1      -4.631  -1.400   0.578  1.00  0.00     0.147 C 
ATOM     12  C   UNL     1      -5.760  -1.356  -0.437  1.00  0.00    -0.059 C 
ATOM     13  C   UNL     1      -6.150  -2.471  -1.087  1.00  0.00    -0.023 C 
ATOM     14  C   UNL     1      -5.463  -3.796  -0.876  1.00  0.00     0.054 C 
ATOM     15  C   UNL     1      -4.404  -2.788   1.133  1.00  0.00    -0.012 C 
ATOM     16  C   UNL     1      -4.793  -3.887   0.467  1.00  0.00    -0.026 C 
ATOM     17  C   UNL     1      -6.420  -0.042  -0.762  1.00  0.00     0.040 C 
ENDBRANCH   9  11
ENDBRANCH   8   9
ENDBRANCH   1   8
BRANCH   4  18
ATOM     18  N   UNL     1       2.180   2.699  -0.642  1.00  0.00    -0.277 N 
BRANCH  18  19
ATOM     19  C   UNL     1       2.312   3.761  -1.613  1.00  0.00     0.245 C 
ATOM     20  O   UNL     1       3.198   4.646  -1.456  1.00  0.00    -0.273 OA
BRANCH  19  21
ATOM     21  C   UNL     1       1.432   3.823  -2.831  1.00  0.00     0.220 C 
BRANCH  21  22
ATOM     22  C   UNL     1       1.638   2.631  -3.660  1.00  0.00     0.072 C 
ATOM     23  N   UNL     1       1.801   1.691  -4.316  1.00  0.00    -0.198 NA
ENDBRANCH  21  22
ENDBRANCH  19  21
ENDBRANCH  18  19
BRANCH  18  24
ATOM     24  C   UNL     1       3.325   2.274   0.130  1.00  0.00     0.051 A 
ATOM     25  C   UNL     1       3.180   1.938   1.504  1.00  0.00     0.027 A 
ATOM     26  C   UNL     1       4.598   2.166  -0.479  1.00  0.00     0.053 A 
ATOM     27  C   UNL     1       4.281   1.500   2.260  1.00  0.00     0.012 A 
ATOM     28  C   UNL     1       5.669   1.734   0.301  1.00  0.00     0.047 A 
ATOM     29  C   UNL     1       5.514   1.409   1.621  1.00  0.00    -0.000 A 
ATOM     30  N   UNL     1       6.945   1.566  -0.085  1.00  0.00    -0.361 N 
ATOM     31  C   UNL     1       6.745   1.016   2.097  1.00  0.00     0.028 A 
ATOM     32  C   UNL     1       7.608   1.128   1.011  1.00  0.00     0.083 A 
ATOM     33  H   UNL     1       7.348   1.740  -1.032  1.00  0.00     0.166 HD
ENDBRANCH  18  24
ENDBRANCH   4  18
TORSDOF 8


