REMARK SMILES C=C1CC[C@@H](N[C@H]2CCC[C@@H]([NH2+]N)[C@@H]2O)C[C@H]1F
REMARK SMILES IDX 7 1 8 2 9 3 10 4 11 5 14 6 6 7 5 9 2 10 3 11 17 12 4 13
REMARK SMILES IDX 16 14 1 15 18 16 15 17 12 19 13 22
REMARK H PARENT 6 8 15 18 12 20 12 21 13 23 13 24
ROOT
ATOM      1  C   UNL     1      -0.436   0.787  -0.153  1.00  0.00     0.088 C 
ATOM      2  C   UNL     1      -1.292   1.500  -1.222  1.00  0.00     0.022 C 
ATOM      3  C   UNL     1      -0.590   1.498  -2.581  1.00  0.00     0.008 C 
ATOM      4  C   UNL     1       0.784   2.164  -2.483  1.00  0.00     0.070 C 
ATOM      5  C   UNL     1       1.674   1.470  -1.429  1.00  0.00     0.232 C 
ATOM      6  C   UNL     1       0.956   1.456  -0.050  1.00  0.00     0.191 C 
ENDROOT
BRANCH   1   7
ATOM      7  N   UNL     1      -1.103   0.836   1.169  1.00  0.00    -0.308 NA
ATOM      8  H   UNL     1      -2.085   1.196   1.104  1.00  0.00     0.123 HD
BRANCH   7   9
ATOM      9  C   UNL     1      -1.111  -0.467   1.859  1.00  0.00     0.057 C 
ATOM     10  C   UNL     1      -2.325  -2.560   3.458  1.00  0.00    -0.044 C 
ATOM     11  C   UNL     1      -3.072  -2.149   2.212  1.00  0.00     0.035 C 
ATOM     12  C   UNL     1      -1.404  -1.565   4.127  1.00  0.00     0.193 C 
ATOM     13  C   UNL     1      -2.131  -1.457   1.212  1.00  0.00     0.023 C 
ATOM     14  C   UNL     1      -1.373  -0.236   3.359  1.00  0.00     0.061 C 
ATOM     15  C   UNL     1      -2.490  -3.781   3.987  1.00  0.00     0.011 C 
ATOM     16  F   UNL     1      -1.829  -1.331   5.423  1.00  0.00    -0.243 F 
ENDBRANCH   7   9
ENDBRANCH   1   7
BRANCH   6  17
ATOM     17  O   UNL     1       1.741   0.753   0.880  1.00  0.00    -0.385 OA
ATOM     18  H   UNL     1       1.555   1.143   1.774  1.00  0.00     0.211 HD
ENDBRANCH   6  17
BRANCH   5  19
ATOM     19  N   UNL     1       2.981   2.157  -1.355  1.00  0.00    -0.267 N 
ATOM     20  H   UNL     1       3.352   2.350  -2.317  1.00  0.00     0.370 HD
ATOM     21  H   UNL     1       2.884   3.066  -0.842  1.00  0.00     0.370 HD
BRANCH  19  22
ATOM     22  N   UNL     1       3.912   1.347  -0.672  1.00  0.00    -0.183 NA
ATOM     23  H   UNL     1       4.776   1.915  -0.507  1.00  0.00     0.183 HD
ATOM     24  H   UNL     1       4.195   0.560  -1.304  1.00  0.00     0.183 HD
ENDBRANCH  19  22
ENDBRANCH   5  19
TORSDOF 5


