REMARK SMILES C=C[C@H]1CC[C@H](c2cccc3ccoc23)N(C(=O)[C@@H](C)c2[nH]cc[nH+]2)C1
REMARK SMILES IDX 17 1 18 2 16 3 3 4 4 5 26 6 5 7 6 8 2 9 1 10 7 11 8 12 15 13
REMARK SMILES IDX 9 14 14 15 11 16 10 17 13 18 12 19 19 20 20 21 21 22 22 23
REMARK SMILES IDX 25 24 23 25 24 26
REMARK H PARENT 22 27 25 28
ROOT
ATOM      1  C   UNL     1      -1.259   0.208   0.568  1.00  0.00     0.238 C 
ATOM      2  O   UNL     1      -1.695   1.034   1.418  1.00  0.00    -0.274 OA
ENDROOT
BRANCH   1   3
ATOM      3  N   UNL     1      -0.972  -1.149   0.987  1.00  0.00    -0.334 N 
ATOM      4  C   UNL     1      -2.216  -3.080   1.935  1.00  0.00     0.031 C 
ATOM      5  C   UNL     1      -1.262  -4.005   1.133  1.00  0.00     0.012 C 
ATOM      6  C   UNL     1      -1.623  -1.679   2.198  1.00  0.00     0.127 C 
ATOM      7  C   UNL     1       0.125  -3.393   0.918  1.00  0.00     0.031 C 
ATOM      8  C   UNL     1       0.007  -2.000   0.271  1.00  0.00     0.119 C 
BRANCH   4   9
ATOM      9  C   UNL     1      -3.540  -2.946   1.215  1.00  0.00    -0.030 C 
ATOM     10  C   UNL     1      -4.618  -3.640   1.585  1.00  0.00     0.004 C 
ENDBRANCH   4   9
BRANCH   8  11
ATOM     11  C   UNL     1       1.378  -1.361   0.231  1.00  0.00     0.018 A 
ATOM     12  C   UNL     1       1.929  -0.697   1.355  1.00  0.00     0.010 A 
ATOM     13  C   UNL     1       2.192  -1.479  -0.902  1.00  0.00     0.139 A 
ATOM     14  C   UNL     1       3.233  -0.152   1.304  1.00  0.00     0.001 A 
ATOM     15  O   UNL     1       1.905  -2.060  -2.044  1.00  0.00    -0.464 OA
ATOM     16  C   UNL     1       3.456  -0.954  -0.943  1.00  0.00     0.021 A 
ATOM     17  C   UNL     1       4.013  -0.278   0.141  1.00  0.00     0.012 A 
ATOM     18  C   UNL     1       2.952  -1.927  -2.838  1.00  0.00     0.196 A 
ATOM     19  C   UNL     1       3.968  -1.231  -2.190  1.00  0.00     0.050 A 
ENDBRANCH   8  11
ENDBRANCH   1   3
BRANCH   1  20
ATOM     20  C   UNL     1      -1.035   0.682  -0.855  1.00  0.00     0.189 C 
ATOM     21  C   UNL     1      -2.176   1.591  -1.321  1.00  0.00     0.031 C 
BRANCH  20  22
ATOM     22  C   UNL     1       0.277   1.411  -0.987  1.00  0.00     0.264 A 
ATOM     23  N   UNL     1       1.090   1.290  -2.056  1.00  0.00    -0.247 N 
ATOM     24  N   UNL     1       0.739   2.317  -0.105  1.00  0.00    -0.247 N 
ATOM     25  C   UNL     1       2.114   2.131  -1.830  1.00  0.00     0.240 A 
ATOM     26  C   UNL     1       1.897   2.764  -0.624  1.00  0.00     0.240 A 
ATOM     27  H   UNL     1       0.953   0.682  -2.894  1.00  0.00     0.311 HD
ATOM     28  H   UNL     1       0.294   2.628   0.785  1.00  0.00     0.311 HD
ENDBRANCH  20  22
ENDBRANCH   1  20
TORSDOF 5


