MODEL 1
REMARK VINA RESULT:      -9.8      0.000      0.000
REMARK SMILES Cc1ccc(-c2ccc([O-])cc2)c2c[n-]nc12
REMARK SMILES IDX 1 1 2 2 3 3 4 4 5 5 13 6 14 7 15 8 16 9 17 10 6 11 7 12
REMARK SMILES IDX 12 13 8 14 11 15 9 16 10 17
REMARK H PARENT
ROOT
ATOM      1  C   UNL     1      43.561 131.548  22.610  1.00  0.00     0.046 C 
ATOM      2  C   UNL     1      44.067 131.370  21.209  1.00  0.00    -0.027 A 
ATOM      3  C   UNL     1      45.375 130.904  20.959  1.00  0.00     0.006 A 
ATOM      4  C   UNL     1      45.855 130.782  19.636  1.00  0.00     0.010 A 
ATOM      5  C   UNL     1      45.040 131.129  18.534  1.00  0.00    -0.011 A 
ATOM      6  C   UNL     1      43.754 131.606  18.824  1.00  0.00    -0.014 A 
ATOM      7  C   UNL     1      42.733 132.085  18.031  1.00  0.00    -0.113 A 
ATOM      8  N   UNL     1      41.711 132.458  18.835  1.00  0.00    -0.581 NA
ATOM      9  N   UNL     1      42.048 132.241  20.102  1.00  0.00    -0.367 NA
ATOM     10  C   UNL     1      43.289 131.726  20.104  1.00  0.00     0.050 A 
ENDROOT
BRANCH   5  11
ATOM     11  C   UNL     1      45.543 130.994  17.147  1.00  0.00    -0.018 A 
ATOM     12  C   UNL     1      45.652 132.125  16.319  1.00  0.00     0.008 A 
ATOM     13  C   UNL     1      45.941 129.740  16.649  1.00  0.00     0.008 A 
ATOM     14  C   UNL     1      46.135 132.001  15.013  1.00  0.00    -0.008 A 
ATOM     15  C   UNL     1      46.423 129.620  15.342  1.00  0.00    -0.008 A 
ATOM     16  C   UNL     1      46.519 130.749  14.523  1.00  0.00    -0.109 A 
ATOM     17  O   UNL     1      46.999 130.628  13.225  1.00  0.00    -0.872 OA
ENDBRANCH   5  11
TORSDOF 1
ENDMDL
MODEL 2
REMARK VINA RESULT:      -9.8      0.065      1.177
REMARK SMILES Cc1ccc(-c2ccc([O-])cc2)c2c[n-]nc12
REMARK SMILES IDX 1 1 2 2 3 3 4 4 5 5 13 6 14 7 15 8 16 9 17 10 6 11 7 12
REMARK SMILES IDX 12 13 8 14 11 15 9 16 10 17
REMARK H PARENT
ROOT
ATOM      1  C   UNL     1      43.635 131.495  22.621  1.00  0.00     0.046 C 
ATOM      2  C   UNL     1      44.126 131.325  21.214  1.00  0.00    -0.027 A 
ATOM      3  C   UNL     1      45.425 130.846  20.946  1.00  0.00     0.006 A 
ATOM      4  C   UNL     1      45.892 130.732  19.618  1.00  0.00     0.010 A 
ATOM      5  C   UNL     1      45.072 131.100  18.527  1.00  0.00    -0.011 A 
ATOM      6  C   UNL     1      43.795 131.591  18.833  1.00  0.00    -0.014 A 
ATOM      7  C   UNL     1      42.773 132.092  18.055  1.00  0.00    -0.113 A 
ATOM      8  N   UNL     1      41.763 132.470  18.872  1.00  0.00    -0.581 NA
ATOM      9  N   UNL     1      42.108 132.234  20.134  1.00  0.00    -0.367 NA
ATOM     10  C   UNL     1      43.343 131.703  20.119  1.00  0.00     0.050 A 
ENDROOT
BRANCH   5  11
ATOM     11  C   UNL     1      45.560 130.974  17.134  1.00  0.00    -0.018 A 
ATOM     12  C   UNL     1      45.902 129.713  16.614  1.00  0.00     0.008 A 
ATOM     13  C   UNL     1      45.664 132.107  16.307  1.00  0.00     0.008 A 
ATOM     14  C   UNL     1      46.353 129.591  15.297  1.00  0.00    -0.008 A 
ATOM     15  C   UNL     1      46.117 131.981  14.990  1.00  0.00    -0.008 A 
ATOM     16  C   UNL     1      46.463 130.724  14.485  1.00  0.00    -0.109 A 
ATOM     17  O   UNL     1      46.913 130.600  13.176  1.00  0.00    -0.872 OA
ENDBRANCH   5  11
TORSDOF 1
ENDMDL
MODEL 3
REMARK VINA RESULT:      -9.3      1.578      2.691
REMARK SMILES Cc1ccc(-c2ccc([O-])cc2)c2c[n-]nc12
REMARK SMILES IDX 1 1 2 2 3 3 4 4 5 5 13 6 14 7 15 8 16 9 17 10 6 11 7 12
REMARK SMILES IDX 12 13 8 14 11 15 9 16 10 17
REMARK H PARENT
ROOT
ATOM      1  C   UNL     1      41.866 132.501  20.672  1.00  0.00     0.046 C 
ATOM      2  C   UNL     1      42.785 132.142  19.542  1.00  0.00    -0.027 A 
ATOM      3  C   UNL     1      42.342 132.171  18.203  1.00  0.00     0.006 A 
ATOM      4  C   UNL     1      43.204 131.788  17.151  1.00  0.00     0.010 A 
ATOM      5  C   UNL     1      44.526 131.363  17.415  1.00  0.00    -0.011 A 
ATOM      6  C   UNL     1      44.923 131.329  18.759  1.00  0.00    -0.014 A 
ATOM      7  C   UNL     1      46.083 130.920  19.382  1.00  0.00    -0.113 A 
ATOM      8  N   UNL     1      45.919 131.061  20.717  1.00  0.00    -0.581 NA
ATOM      9  N   UNL     1      44.702 131.535  20.963  1.00  0.00    -0.367 NA
ATOM     10  C   UNL     1      44.089 131.697  19.778  1.00  0.00     0.050 A 
ENDROOT
BRANCH   5  11
ATOM     11  C   UNL     1      45.431 130.969  16.309  1.00  0.00    -0.018 A 
ATOM     12  C   UNL     1      45.699 129.611  16.063  1.00  0.00     0.008 A 
ATOM     13  C   UNL     1      46.011 131.944  15.478  1.00  0.00     0.008 A 
ATOM     14  C   UNL     1      46.544 129.237  15.015  1.00  0.00    -0.008 A 
ATOM     15  C   UNL     1      46.857 131.565  14.431  1.00  0.00    -0.008 A 
ATOM     16  C   UNL     1      47.125 130.213  14.200  1.00  0.00    -0.109 A 
ATOM     17  O   UNL     1      47.966 129.839  13.158  1.00  0.00    -0.872 OA
ENDBRANCH   5  11
TORSDOF 1
ENDMDL
MODEL 4
REMARK VINA RESULT:      -9.2      1.580      2.455
REMARK SMILES Cc1ccc(-c2ccc([O-])cc2)c2c[n-]nc12
REMARK SMILES IDX 1 1 2 2 3 3 4 4 5 5 13 6 14 7 15 8 16 9 17 10 6 11 7 12
REMARK SMILES IDX 12 13 8 14 11 15 9 16 10 17
REMARK H PARENT
ROOT
ATOM      1  C   UNL     1      41.790 132.533  20.536  1.00  0.00     0.046 C 
ATOM      2  C   UNL     1      42.719 132.158  19.420  1.00  0.00    -0.027 A 
ATOM      3  C   UNL     1      42.293 132.179  18.075  1.00  0.00     0.006 A 
ATOM      4  C   UNL     1      43.164 131.781  17.037  1.00  0.00     0.010 A 
ATOM      5  C   UNL     1      44.479 131.347  17.319  1.00  0.00    -0.011 A 
ATOM      6  C   UNL     1      44.860 131.320  18.669  1.00  0.00    -0.014 A 
ATOM      7  C   UNL     1      46.008 130.907  19.309  1.00  0.00    -0.113 A 
ATOM      8  N   UNL     1      45.830 131.060  20.641  1.00  0.00    -0.581 NA
ATOM      9  N   UNL     1      44.614 131.546  20.868  1.00  0.00    -0.367 NA
ATOM     10  C   UNL     1      44.016 131.704  19.674  1.00  0.00     0.050 A 
ENDROOT
BRANCH   5  11
ATOM     11  C   UNL     1      45.393 130.936  16.228  1.00  0.00    -0.018 A 
ATOM     12  C   UNL     1      46.033 131.905  15.436  1.00  0.00     0.008 A 
ATOM     13  C   UNL     1      45.653 129.575  15.988  1.00  0.00     0.008 A 
ATOM     14  C   UNL     1      46.903 131.520  14.413  1.00  0.00    -0.008 A 
ATOM     15  C   UNL     1      46.524 129.193  14.963  1.00  0.00    -0.008 A 
ATOM     16  C   UNL     1      47.148 130.164  14.174  1.00  0.00    -0.109 A 
ATOM     17  O   UNL     1      48.013 129.783  13.156  1.00  0.00    -0.872 OA
ENDBRANCH   5  11
TORSDOF 1
ENDMDL
MODEL 5
REMARK VINA RESULT:      -8.0      1.595      2.358
REMARK SMILES Cc1ccc(-c2ccc([O-])cc2)c2c[n-]nc12
REMARK SMILES IDX 1 1 2 2 3 3 4 4 5 5 13 6 14 7 15 8 16 9 17 10 6 11 7 12
REMARK SMILES IDX 12 13 8 14 11 15 9 16 10 17
REMARK H PARENT
ROOT
ATOM      1  C   UNL     1      42.071 132.139  21.928  1.00  0.00     0.046 C 
ATOM      2  C   UNL     1      42.759 131.954  20.608  1.00  0.00    -0.027 A 
ATOM      3  C   UNL     1      42.061 132.111  19.392  1.00  0.00     0.006 A 
ATOM      4  C   UNL     1      42.709 131.891  18.156  1.00  0.00     0.010 A 
ATOM      5  C   UNL     1      44.067 131.504  18.108  1.00  0.00    -0.011 A 
ATOM      6  C   UNL     1      44.722 131.339  19.337  1.00  0.00    -0.014 A 
ATOM      7  C   UNL     1      45.991 130.920  19.672  1.00  0.00    -0.113 A 
ATOM      8  N   UNL     1      46.090 130.902  21.021  1.00  0.00    -0.581 NA
ATOM      9  N   UNL     1      44.933 131.286  21.551  1.00  0.00    -0.367 NA
ATOM     10  C   UNL     1      44.095 131.550  20.533  1.00  0.00     0.050 A 
ENDROOT
BRANCH   5  11
ATOM     11  C   UNL     1      44.747 131.281  16.810  1.00  0.00    -0.018 A 
ATOM     12  C   UNL     1      45.587 132.270  16.270  1.00  0.00     0.008 A 
ATOM     13  C   UNL     1      44.582 130.068  16.116  1.00  0.00     0.008 A 
ATOM     14  C   UNL     1      46.236 132.057  15.051  1.00  0.00    -0.008 A 
ATOM     15  C   UNL     1      45.233 129.859  14.897  1.00  0.00    -0.008 A 
ATOM     16  C   UNL     1      46.058 130.853  14.363  1.00  0.00    -0.109 A 
ATOM     17  O   UNL     1      46.705 130.643  13.151  1.00  0.00    -0.872 OA
ENDBRANCH   5  11
TORSDOF 1
ENDMDL
MODEL 6
REMARK VINA RESULT:      -7.2      3.256      5.708
REMARK SMILES Cc1ccc(-c2ccc([O-])cc2)c2c[n-]nc12
REMARK SMILES IDX 1 1 2 2 3 3 4 4 5 5 13 6 14 7 15 8 16 9 17 10 6 11 7 12
REMARK SMILES IDX 12 13 8 14 11 15 9 16 10 17
REMARK H PARENT
ROOT
ATOM      1  C   UNL     1      47.199 129.829  13.733  1.00  0.00     0.046 C 
ATOM      2  C   UNL     1      46.499 130.231  14.997  1.00  0.00    -0.027 A 
ATOM      3  C   UNL     1      47.026 129.898  16.262  1.00  0.00     0.006 A 
ATOM      4  C   UNL     1      46.335 130.244  17.445  1.00  0.00     0.010 A 
ATOM      5  C   UNL     1      45.098 130.925  17.389  1.00  0.00    -0.011 A 
ATOM      6  C   UNL     1      44.596 131.221  16.113  1.00  0.00    -0.014 A 
ATOM      7  C   UNL     1      43.424 131.802  15.681  1.00  0.00    -0.113 A 
ATOM      8  N   UNL     1      43.426 131.807  14.329  1.00  0.00    -0.581 NA
ATOM      9  N   UNL     1      44.549 131.247  13.889  1.00  0.00    -0.367 NA
ATOM     10  C   UNL     1      45.264 130.885  14.969  1.00  0.00     0.050 A 
ENDROOT
BRANCH   5  11
ATOM     11  C   UNL     1      44.378 131.293  18.630  1.00  0.00    -0.018 A 
ATOM     12  C   UNL     1      43.059 131.775  18.568  1.00  0.00     0.008 A 
ATOM     13  C   UNL     1      44.993 131.140  19.886  1.00  0.00     0.008 A 
ATOM     14  C   UNL     1      42.375 132.114  19.739  1.00  0.00    -0.008 A 
ATOM     15  C   UNL     1      44.305 131.480  21.055  1.00  0.00    -0.008 A 
ATOM     16  C   UNL     1      42.997 131.968  20.982  1.00  0.00    -0.109 A 
ATOM     17  O   UNL     1      42.315 132.305  22.145  1.00  0.00    -0.872 OA
ENDBRANCH   5  11
TORSDOF 1
ENDMDL
MODEL 7
REMARK VINA RESULT:      -7.2      3.389      5.781
REMARK SMILES Cc1ccc(-c2ccc([O-])cc2)c2c[n-]nc12
REMARK SMILES IDX 1 1 2 2 3 3 4 4 5 5 13 6 14 7 15 8 16 9 17 10 6 11 7 12
REMARK SMILES IDX 12 13 8 14 11 15 9 16 10 17
REMARK H PARENT
ROOT
ATOM      1  C   UNL     1      47.523 129.508  14.127  1.00  0.00     0.046 C 
ATOM      2  C   UNL     1      46.631 130.055  15.201  1.00  0.00    -0.027 A 
ATOM      3  C   UNL     1      46.933 129.869  16.566  1.00  0.00     0.006 A 
ATOM      4  C   UNL     1      46.062 130.351  17.569  1.00  0.00     0.010 A 
ATOM      5  C   UNL     1      44.867 131.024  17.229  1.00  0.00    -0.011 A 
ATOM      6  C   UNL     1      44.591 131.172  15.863  1.00  0.00    -0.014 A 
ATOM      7  C   UNL     1      43.520 131.702  15.176  1.00  0.00    -0.113 A 
ATOM      8  N   UNL     1      43.747 131.551  13.852  1.00  0.00    -0.581 NA
ATOM      9  N   UNL     1      44.915 130.941  13.674  1.00  0.00    -0.367 NA
ATOM     10  C   UNL     1      45.432 130.704  14.892  1.00  0.00     0.050 A 
ENDROOT
BRANCH   5  11
ATOM     11  C   UNL     1      43.958 131.535  18.282  1.00  0.00    -0.018 A 
ATOM     12  C   UNL     1      44.413 131.673  19.605  1.00  0.00     0.008 A 
ATOM     13  C   UNL     1      42.640 131.912  17.968  1.00  0.00     0.008 A 
ATOM     14  C   UNL     1      43.560 132.163  20.598  1.00  0.00    -0.008 A 
ATOM     15  C   UNL     1      41.789 132.402  18.964  1.00  0.00    -0.008 A 
ATOM     16  C   UNL     1      42.248 132.526  20.279  1.00  0.00    -0.109 A 
ATOM     17  O   UNL     1      41.401 133.014  21.267  1.00  0.00    -0.872 OA
ENDBRANCH   5  11
TORSDOF 1
ENDMDL


