REMARK SMILES C=Cc1ccc(-c2cnc3ocnc3c2)c(C#N)c1F
REMARK SMILES IDX 3 1 4 2 5 3 6 4 16 5 19 6 20 7 2 8 1 9 17 10 18 11 7 12 8 13
REMARK SMILES IDX 15 14 9 15 14 16 10 17 13 18 11 19 12 20
REMARK H PARENT
ROOT
ATOM      1  C   UNL     1       0.500  -0.081  -2.683  1.00  0.00     0.011 A 
ATOM      2  C   UNL     1      -0.741  -0.298  -2.057  1.00  0.00     0.012 A 
ATOM      3  C   UNL     1      -0.861  -0.209  -0.669  1.00  0.00     0.011 A 
ATOM      4  C   UNL     1       0.253   0.086   0.130  1.00  0.00     0.004 A 
ATOM      5  C   UNL     1       1.505   0.304  -0.489  1.00  0.00     0.096 A 
ATOM      6  C   UNL     1       1.622   0.212  -1.886  1.00  0.00     0.148 A 
ATOM      7  F   UNL     1       2.830   0.431  -2.471  1.00  0.00    -0.205 F 
ENDROOT
BRANCH   1   8
ATOM      8  C   UNL     1       0.665  -0.182  -4.156  1.00  0.00     0.003 C 
ATOM      9  C   UNL     1      -0.334  -0.049  -5.028  1.00  0.00     0.009 C 
ENDBRANCH   1   8
BRANCH   5  10
ATOM     10  C   UNL     1       2.670   0.671   0.284  1.00  0.00     0.103 C 
ATOM     11  N   UNL     1       3.602   0.966   0.902  1.00  0.00    -0.192 NA
ENDBRANCH   5  10
BRANCH   4  12
ATOM     12  C   UNL     1       0.079   0.157   1.601  1.00  0.00     0.004 A 
ATOM     13  C   UNL     1       0.879  -0.639   2.468  1.00  0.00     0.124 A 
ATOM     14  C   UNL     1      -0.912   0.996   2.159  1.00  0.00     0.044 A 
ATOM     15  N   UNL     1       0.708  -0.585   3.824  1.00  0.00    -0.219 NA
ATOM     16  C   UNL     1      -1.035   1.008   3.543  1.00  0.00     0.130 A 
ATOM     17  C   UNL     1      -0.243   0.238   4.325  1.00  0.00     0.246 A 
ATOM     18  N   UNL     1      -1.884   1.716   4.306  1.00  0.00    -0.215 NA
ATOM     19  O   UNL     1      -0.553   0.427   5.577  1.00  0.00    -0.425 OA
ATOM     20  C   UNL     1      -1.538   1.314   5.561  1.00  0.00     0.311 A 
ENDBRANCH   4  12
TORSDOF 3


