MODEL 1
REMARK VINA RESULT:      -9.9      0.000      0.000
REMARK SMILES Cc1c([NH2+]c2c3o[n-]cc-3cc(-n3nc4ccccc4n3)c2=O)cc(-c2ccc(O)cc2)c2cc[nH]c12
REMARK SMILES IDX 1 1 2 2 3 3 24 4 25 5 33 6 34 7 35 8 36 9 37 10 4 12 5 15
REMARK SMILES IDX 6 16 22 17 7 18 10 19 12 20 8 21 9 22 11 23 23 24 13 25
REMARK SMILES IDX 14 26 21 27 15 28 20 29 16 30 19 31 17 32 18 33 26 34 27 35
REMARK SMILES IDX 32 36 28 37 31 38 29 39 30 40
REMARK H PARENT 36 11 4 13 4 14 30 41
ROOT
ATOM      1  C   UNL     1      42.205 129.929  23.834  1.00  0.00     0.053 C 
ATOM      2  C   UNL     1      43.213 128.903  23.376  1.00  0.00     0.034 A 
ATOM      3  C   UNL     1      44.476 129.283  22.822  1.00  0.00     0.140 A 
ATOM      4  C   UNL     1      45.429 128.278  22.507  1.00  0.00     0.078 A 
ATOM      5  C   UNL     1      45.140 126.910  22.656  1.00  0.00    -0.003 A 
ATOM      6  C   UNL     1      43.872 126.572  23.136  1.00  0.00     0.008 A 
ATOM      7  C   UNL     1      43.281 125.335  23.316  1.00  0.00     0.028 A 
ATOM      8  C   UNL     1      42.003 125.601  23.780  1.00  0.00     0.083 A 
ATOM      9  N   UNL     1      41.798 126.931  23.881  1.00  0.00    -0.361 N 
ATOM     10  C   UNL     1      42.943 127.524  23.482  1.00  0.00     0.055 A 
ATOM     11  H   UNL     1      40.905 127.378  24.179  1.00  0.00     0.166 HD
ENDROOT
BRANCH   3  12
ATOM     12  N   UNL     1      44.828 130.671  22.591  1.00  0.00    -0.275 N 
ATOM     13  H   UNL     1      44.463 131.314  23.325  1.00  0.00     0.358 HD
ATOM     14  H   UNL     1      45.871 130.754  22.614  1.00  0.00     0.358 HD
BRANCH  12  15
ATOM     15  C   UNL     1      44.310 131.120  21.317  1.00  0.00     0.226 A 
ATOM     16  C   UNL     1      43.139 131.867  21.240  1.00  0.00     0.179 A 
ATOM     17  C   UNL     1      44.985 130.848  20.094  1.00  0.00     0.270 A 
ATOM     18  O   UNL     1      42.329 132.267  22.189  1.00  0.00    -0.553 OA
ATOM     19  C   UNL     1      42.634 132.340  19.999  1.00  0.00     0.005 A 
ATOM     20  C   UNL     1      44.476 131.327  18.838  1.00  0.00     0.140 A 
ATOM     21  N   UNL     1      41.340 132.960  21.683  1.00  0.00    -0.512 NA
ATOM     22  C   UNL     1      41.494 133.026  20.337  1.00  0.00    -0.098 A 
ATOM     23  C   UNL     1      43.279 132.085  18.803  1.00  0.00     0.045 A 
ATOM     24  O   UNL     1      46.048 130.174  20.126  1.00  0.00    -0.281 OA
BRANCH  20  25
ATOM     25  N   UNL     1      45.166 131.054  17.597  1.00  0.00    -0.146 N 
ATOM     26  N   UNL     1      45.051 131.797  16.495  1.00  0.00    -0.148 NA
ATOM     27  N   UNL     1      45.991 130.020  17.430  1.00  0.00    -0.148 NA
ATOM     28  C   UNL     1      45.841 131.204  15.590  1.00  0.00     0.113 A 
ATOM     29  C   UNL     1      46.417 130.115  16.162  1.00  0.00     0.113 A 
ATOM     30  C   UNL     1      46.089 131.568  14.270  1.00  0.00     0.032 A 
ATOM     31  C   UNL     1      47.295 129.287  15.469  1.00  0.00     0.032 A 
ATOM     32  C   UNL     1      46.974 130.757  13.531  1.00  0.00     0.002 A 
ATOM     33  C   UNL     1      47.574 129.622  14.129  1.00  0.00     0.002 A 
ENDBRANCH  20  25
ENDBRANCH  12  15
ENDBRANCH   3  12
BRANCH   5  34
ATOM     34  C   UNL     1      46.151 125.888  22.298  1.00  0.00    -0.017 A 
ATOM     35  C   UNL     1      47.514 126.125  22.546  1.00  0.00     0.012 A 
ATOM     36  C   UNL     1      45.761 124.660  21.737  1.00  0.00     0.012 A 
ATOM     37  C   UNL     1      48.470 125.158  22.221  1.00  0.00     0.047 A 
ATOM     38  C   UNL     1      46.719 123.694  21.413  1.00  0.00     0.047 A 
ATOM     39  C   UNL     1      48.077 123.941  21.654  1.00  0.00     0.115 A 
BRANCH  39  40
ATOM     40  O   UNL     1      49.041 122.988  21.335  1.00  0.00    -0.508 OA
ATOM     41  H   UNL     1      48.810 122.164  20.792  1.00  0.00     0.293 HD
ENDBRANCH  39  40
ENDBRANCH   5  34
TORSDOF 5
ENDMDL


