REMARK SMILES O=C(NCc1ccc[nH]1)c1ccc2cc[nH]c2c1N=C=S
REMARK SMILES IDX 11 1 10 2 18 3 17 4 13 5 12 6 14 7 15 8 16 9 2 11 3 12 1 13
REMARK SMILES IDX 4 15 5 16 6 17 9 18 7 19 8 20 19 22 20 23 21 24
REMARK H PARENT 16 10 3 14 9 21
ROOT
ATOM      1  C   UNL     1      -1.405   0.910  -2.190  1.00  0.00     0.017 A 
ATOM      2  C   UNL     1      -0.487   0.927  -1.110  1.00  0.00     0.068 A 
ATOM      3  C   UNL     1       0.902   0.740  -1.353  1.00  0.00     0.111 A 
ATOM      4  C   UNL     1       1.306   0.547  -2.693  1.00  0.00     0.073 A 
ATOM      5  C   UNL     1       0.393   0.518  -3.717  1.00  0.00     0.002 A 
ATOM      6  C   UNL     1      -0.968   0.694  -3.504  1.00  0.00     0.011 A 
ATOM      7  C   UNL     1       1.085   0.357  -4.897  1.00  0.00     0.028 A 
ATOM      8  C   UNL     1       2.421   0.312  -4.528  1.00  0.00     0.083 A 
ATOM      9  N   UNL     1       2.555   0.435  -3.189  1.00  0.00    -0.359 N 
ATOM     10  H   UNL     1       3.462   0.476  -2.678  1.00  0.00     0.166 HD
ENDROOT
BRANCH   2  11
ATOM     11  C   UNL     1      -1.009   1.137   0.260  1.00  0.00     0.253 C 
ATOM     12  N   UNL     1      -0.502   0.373   1.363  1.00  0.00    -0.346 N 
ATOM     13  O   UNL     1      -1.933   1.975   0.449  1.00  0.00    -0.269 OA
ATOM     14  H   UNL     1       0.094  -0.464   1.166  1.00  0.00     0.164 HD
BRANCH  12  15
ATOM     15  C   UNL     1      -0.840   0.711   2.744  1.00  0.00     0.170 C 
BRANCH  15  16
ATOM     16  C   UNL     1      -0.089  -0.167   3.697  1.00  0.00     0.034 A 
ATOM     17  C   UNL     1       1.216   0.029   4.106  1.00  0.00     0.025 A 
ATOM     18  N   UNL     1      -0.568  -1.322   4.195  1.00  0.00    -0.364 N 
ATOM     19  C   UNL     1       1.533  -1.051   4.906  1.00  0.00     0.020 A 
ATOM     20  C   UNL     1       0.415  -1.861   4.939  1.00  0.00     0.082 A 
ATOM     21  H   UNL     1      -1.513  -1.732   4.027  1.00  0.00     0.166 HD
ENDBRANCH  15  16
ENDBRANCH  12  15
ENDBRANCH   2  11
BRANCH   3  22
ATOM     22  N   UNL     1       1.835   0.826  -0.263  1.00  0.00    -0.192 NA
BRANCH  22  23
ATOM     23  C   UNL     1       2.913   0.156  -0.186  1.00  0.00     0.064 C 
ATOM     24  S   UNL     1       4.276  -0.698  -0.074  1.00  0.00    -0.006 S 
ENDBRANCH  22  23
ENDBRANCH   3  22
TORSDOF 5


