REMARK SMILES [O-]C(N[C@H]1Cc2ccccc2[C@@H]1O)=C1CCCC1
REMARK SMILES IDX 4 1 5 2 6 3 7 4 8 5 9 6 10 7 11 8 12 9 3 10 2 12 1 13 14 14
REMARK SMILES IDX 15 15 18 16 16 17 17 18 13 19
REMARK H PARENT 3 11 13 20
ROOT
ATOM      1  C   UNL     1       2.481   0.392   0.370  1.00  0.00     0.115 C 
ATOM      2  C   UNL     1       2.489  -0.377   1.714  1.00  0.00     0.063 C 
ATOM      3  C   UNL     1       2.257  -1.785   1.317  1.00  0.00    -0.040 A 
ATOM      4  C   UNL     1       2.149  -2.882   2.175  1.00  0.00     0.004 A 
ATOM      5  C   UNL     1       1.918  -4.152   1.623  1.00  0.00     0.000 A 
ATOM      6  C   UNL     1       1.798  -4.305   0.231  1.00  0.00     0.000 A 
ATOM      7  C   UNL     1       1.910  -3.190  -0.614  1.00  0.00     0.007 A 
ATOM      8  C   UNL     1       2.144  -1.935  -0.044  1.00  0.00    -0.014 A 
ATOM      9  C   UNL     1       2.280  -0.647  -0.768  1.00  0.00     0.167 C 
ENDROOT
BRANCH   1  10
ATOM     10  N   UNL     1       1.445   1.433   0.344  1.00  0.00    -0.391 N 
ATOM     11  H   UNL     1       1.777   2.416   0.226  1.00  0.00     0.159 HD
BRANCH  10  12
ATOM     12  C   UNL     1       0.034   1.165   0.480  1.00  0.00    -0.046 C 
ATOM     13  O   UNL     1      -0.402  -0.141   0.691  1.00  0.00    -0.860 OA
BRANCH  12  14
ATOM     14  C   UNL     1      -0.878   2.150   0.410  1.00  0.00    -0.062 C 
ATOM     15  C   UNL     1      -2.340   1.915   0.568  1.00  0.00     0.032 C 
ATOM     16  C   UNL     1      -0.563   3.587   0.170  1.00  0.00     0.032 C 
ATOM     17  C   UNL     1      -2.952   3.309   0.621  1.00  0.00     0.005 C 
ATOM     18  C   UNL     1      -1.922   4.260   0.014  1.00  0.00     0.005 C 
ENDBRANCH  12  14
ENDBRANCH  10  12
ENDBRANCH   1  10
BRANCH   9  19
ATOM     19  O   UNL     1       3.403  -0.697  -1.607  1.00  0.00    -0.386 OA
ATOM     20  H   UNL     1       3.354   0.109  -2.185  1.00  0.00     0.211 HD
ENDBRANCH   9  19
TORSDOF 4


