REMARK SMILES CC[C@](C)(N)/C=C(\O)n1[nH+]c2cc(-c3c[nH+]c(F)cc3C)ccc2c1C
REMARK SMILES IDX 7 1 8 2 6 4 3 5 4 6 5 7 2 10 1 11 9 12 25 13 10 14 24 15
REMARK SMILES IDX 11 16 23 17 12 18 22 19 13 20 26 21 14 23 20 24 15 25 19 26
REMARK SMILES IDX 16 27 17 28 21 29 18 31
REMARK H PARENT 8 3 5 8 5 9 10 22 16 30
ROOT
ATOM      1  C   UNL     1      -1.416  -2.868   0.048  1.00  0.00     0.247 C 
ENDROOT
BRANCH   1   2
ATOM      2  O   UNL     1      -1.801  -3.795   1.016  1.00  0.00    -0.491 OA
ATOM      3  H   UNL     1      -1.544  -3.681   1.988  1.00  0.00     0.295 HD
ENDBRANCH   1   2
BRANCH   1   4
ATOM      4  C   UNL     1      -1.870  -2.977  -1.211  1.00  0.00     0.066 C 
BRANCH   4   5
ATOM      5  C   UNL     1      -2.800  -4.085  -1.688  1.00  0.00     0.036 C 
ATOM      6  C   UNL     1      -2.011  -5.408  -1.726  1.00  0.00     0.033 C 
BRANCH   5   7
ATOM      7  N   UNL     1      -3.930  -4.238  -0.759  1.00  0.00    -0.322 NA
ATOM      8  H   UNL     1      -4.643  -4.883  -1.172  1.00  0.00     0.119 HD
ATOM      9  H   UNL     1      -4.393  -3.313  -0.600  1.00  0.00     0.119 HD
ENDBRANCH   5   7
BRANCH   5  10
ATOM     10  C   UNL     1      -3.308  -3.778  -3.130  1.00  0.00     0.023 C 
ATOM     11  C   UNL     1      -4.201  -2.537  -3.234  1.00  0.00     0.006 C 
ENDBRANCH   5  10
ENDBRANCH   4   5
ENDBRANCH   1   4
BRANCH   1  12
ATOM     12  N   UNL     1      -0.543  -1.782   0.404  1.00  0.00    -0.091 N 
ATOM     13  C   UNL     1       0.582  -1.852   1.165  1.00  0.00     0.097 A 
ATOM     14  N   UNL     1      -0.743  -0.521   0.030  1.00  0.00    -0.115 N 
ATOM     15  C   UNL     1       1.086  -0.570   1.285  1.00  0.00     0.074 A 
ATOM     16  C   UNL     1       0.239   0.225   0.562  1.00  0.00     0.237 A 
ATOM     17  C   UNL     1       2.196  -0.051   1.948  1.00  0.00     0.018 A 
ATOM     18  C   UNL     1       0.430   1.599   0.452  1.00  0.00     0.091 A 
ATOM     19  C   UNL     1       2.422   1.335   1.856  1.00  0.00     0.010 A 
ATOM     20  C   UNL     1       1.539   2.168   1.119  1.00  0.00    -0.005 A 
ATOM     21  C   UNL     1       1.167  -3.095   1.766  1.00  0.00     0.072 C 
ATOM     22  H   UNL     1      -1.542  -0.179  -0.551  1.00  0.00     0.489 HD
BRANCH  20  23
ATOM     23  C   UNL     1       1.791   3.623   1.020  1.00  0.00     0.049 A 
ATOM     24  C   UNL     1       1.845   4.460   2.159  1.00  0.00    -0.028 A 
ATOM     25  C   UNL     1       1.976   4.195  -0.248  1.00  0.00     0.317 A 
ATOM     26  C   UNL     1       2.133   5.823   1.990  1.00  0.00     0.118 A 
ATOM     27  N   UNL     1       2.235   5.524  -0.377  1.00  0.00    -0.186 N 
ATOM     28  C   UNL     1       2.323   6.338   0.707  1.00  0.00     0.358 A 
ATOM     29  C   UNL     1       1.619   3.931   3.551  1.00  0.00     0.045 C 
ATOM     30  H   UNL     1       2.377   5.925  -1.331  1.00  0.00     0.456 HD
ATOM     31  F   UNL     1       2.591   7.658   0.544  1.00  0.00    -0.136 F 
ENDBRANCH  20  23
ENDBRANCH   1  12
TORSDOF 7


