REMARK SMILES Cc1[nH][nH+]c2cc([C@@]34C(=O)[N-]C[C@@H]3NCC[C@H]4C)ccc12
REMARK SMILES IDX 1 1 2 2 3 3 4 4 5 5 6 6 7 7 19 8 20 9 21 10 8 13 9 14 13 15
REMARK SMILES IDX 17 16 11 17 12 18 14 19 16 20 15 21 10 22 18 23
REMARK H PARENT 3 11 4 12 14 24
ROOT
ATOM      1  C   UNL     1      -0.366   0.575   4.859  1.00  0.00     0.071 C 
ATOM      2  C   UNL     1      -0.630  -0.412   3.769  1.00  0.00     0.084 A 
ATOM      3  N   UNL     1      -0.823  -1.738   3.957  1.00  0.00    -0.171 N 
ATOM      4  N   UNL     1      -0.960  -2.331   2.777  1.00  0.00    -0.126 N 
ATOM      5  C   UNL     1      -0.846  -1.386   1.827  1.00  0.00     0.236 A 
ATOM      6  C   UNL     1      -0.899  -1.545   0.446  1.00  0.00     0.087 A 
ATOM      7  C   UNL     1      -0.736  -0.395  -0.378  1.00  0.00    -0.028 A 
ATOM      8  C   UNL     1      -0.496   0.863   0.258  1.00  0.00     0.006 A 
ATOM      9  C   UNL     1      -0.447   0.982   1.658  1.00  0.00     0.017 A 
ATOM     10  C   UNL     1      -0.632  -0.171   2.409  1.00  0.00     0.073 A 
ATOM     11  H   UNL     1      -0.849  -2.238   4.874  1.00  0.00     0.238 HD
ATOM     12  H   UNL     1      -1.114  -3.354   2.635  1.00  0.00     0.488 HD
ENDROOT
BRANCH   7  13
ATOM     13  C   UNL     1      -0.727  -0.490  -1.921  1.00  0.00     0.053 C 
ATOM     14  C   UNL     1      -1.345  -1.772  -2.414  1.00  0.00     0.064 C 
ATOM     15  C   UNL     1      -1.732   0.551  -2.536  1.00  0.00     0.052 C 
ATOM     16  C   UNL     1       0.719  -0.340  -2.521  1.00  0.00     0.005 C 
ATOM     17  N   UNL     1      -2.633  -1.620  -2.969  1.00  0.00    -0.651 NA
ATOM     18  C   UNL     1      -3.015  -0.228  -2.890  1.00  0.00    -0.097 C 
ATOM     19  N   UNL     1      -1.192   1.195  -3.745  1.00  0.00    -0.314 NA
ATOM     20  C   UNL     1       1.117   1.133  -2.747  1.00  0.00     0.020 C 
ATOM     21  C   UNL     1       0.013   1.972  -3.428  1.00  0.00     0.081 C 
ATOM     22  O   UNL     1      -0.764  -2.890  -2.397  1.00  0.00    -0.319 OA
ATOM     23  C   UNL     1       1.806  -1.061  -1.702  1.00  0.00     0.009 C 
ATOM     24  H   UNL     1      -0.963   0.476  -4.472  1.00  0.00     0.122 HD
ENDBRANCH   7  13
TORSDOF 1


