MODEL 1
REMARK VINA RESULT:      -5.9      0.000      0.000
REMARK SMILES Cc1cc(N)c(OC(=O)C[C@H]2CC[C@@H](C)N2)c(-n2nc3ccccc3[nH+]2)c1
REMARK SMILES IDX 7 1 6 2 2 3 3 4 27 5 4 6 17 7 1 8 5 9 18 12 19 13 26 14
REMARK SMILES IDX 20 15 25 16 21 17 24 18 22 19 23 20 8 22 9 23 10 24 11 25
REMARK SMILES IDX 12 26 16 27 13 28 14 29 15 31
REMARK H PARENT 5 10 5 11 26 21 16 30
ROOT
ATOM      1  O   UNL     1      45.574 130.274  21.184  1.00  0.00    -0.422 OA
ENDROOT
BRANCH   1   2
ATOM      2  C   UNL     1      44.448 131.107  21.145  1.00  0.00     0.185 A 
ATOM      3  C   UNL     1      42.109 132.672  21.113  1.00  0.00    -0.046 A 
ATOM      4  C   UNL     1      42.649 132.233  22.329  1.00  0.00     0.033 A 
ATOM      5  C   UNL     1      42.745 132.332  19.912  1.00  0.00     0.042 A 
ATOM      6  C   UNL     1      43.819 131.462  22.353  1.00  0.00     0.078 A 
ATOM      7  C   UNL     1      43.928 131.581  19.919  1.00  0.00     0.173 A 
ATOM      8  C   UNL     1      40.830 133.457  21.093  1.00  0.00     0.044 C 
BRANCH   6   9
ATOM      9  N   UNL     1      44.343 131.011  23.608  1.00  0.00    -0.396 N 
ATOM     10  H   UNL     1      45.352 131.121  23.847  1.00  0.00     0.156 HD
ATOM     11  H   UNL     1      43.719 130.559  24.314  1.00  0.00     0.156 HD
ENDBRANCH   6   9
BRANCH   7  12
ATOM     12  N   UNL     1      44.613 131.342  18.680  1.00  0.00    -0.009 N 
ATOM     13  N   UNL     1      44.634 132.213  17.671  1.00  0.00     0.054 NA
ATOM     14  N   UNL     1      45.334 130.254  18.423  1.00  0.00    -0.161 N 
ATOM     15  C   UNL     1      45.397 131.629  16.729  1.00  0.00     0.249 A 
ATOM     16  C   UNL     1      45.832 130.424  17.192  1.00  0.00     0.198 A 
ATOM     17  C   UNL     1      45.725 132.094  15.460  1.00  0.00     0.064 A 
ATOM     18  C   UNL     1      46.633 129.578  16.435  1.00  0.00     0.058 A 
ATOM     19  C   UNL     1      46.535 131.264  14.656  1.00  0.00     0.005 A 
ATOM     20  C   UNL     1      46.986 130.012  15.141  1.00  0.00     0.005 A 
ATOM     21  H   UNL     1      45.490 129.447  19.069  1.00  0.00     0.340 HD
ENDBRANCH   7  12
ENDBRANCH   1   2
BRANCH   1  22
ATOM     22  C   UNL     1      45.510 128.910  21.493  1.00  0.00     0.312 C 
ATOM     23  O   UNL     1      46.217 128.073  20.868  1.00  0.00    -0.252 OA
BRANCH  22  24
ATOM     24  C   UNL     1      44.571 128.438  22.561  1.00  0.00     0.142 C 
BRANCH  24  25
ATOM     25  C   UNL     1      45.031 127.101  23.166  1.00  0.00     0.065 C 
ATOM     26  C   UNL     1      44.574 126.959  24.621  1.00  0.00     0.021 C 
ATOM     27  N   UNL     1      44.451 125.987  22.403  1.00  0.00    -0.311 NA
ATOM     28  C   UNL     1      43.388 126.031  24.558  1.00  0.00     0.020 C 
ATOM     29  C   UNL     1      43.673 125.171  23.336  1.00  0.00     0.050 C 
ATOM     30  H   UNL     1      45.219 125.399  22.002  1.00  0.00     0.123 HD
ATOM     31  C   UNL     1      42.389 124.685  22.665  1.00  0.00     0.024 C 
ENDBRANCH  24  25
ENDBRANCH  22  24
ENDBRANCH   1  22
TORSDOF 6
ENDMDL
MODEL 2
REMARK VINA RESULT:      -5.5      4.197      7.373
REMARK SMILES Cc1cc(N)c(OC(=O)C[C@H]2CC[C@@H](C)N2)c(-n2nc3ccccc3[nH+]2)c1
REMARK SMILES IDX 7 1 6 2 2 3 3 4 27 5 4 6 17 7 1 8 5 9 18 12 19 13 26 14
REMARK SMILES IDX 20 15 25 16 21 17 24 18 22 19 23 20 8 22 9 23 10 24 11 25
REMARK SMILES IDX 12 26 16 27 13 28 14 29 15 31
REMARK H PARENT 5 10 5 11 26 21 16 30
ROOT
ATOM      1  O   UNL     1      42.785 125.001  23.432  1.00  0.00    -0.422 OA
ENDROOT
BRANCH   1   2
ATOM      2  C   UNL     1      44.171 124.810  23.372  1.00  0.00     0.185 A 
ATOM      3  C   UNL     1      46.951 124.367  23.380  1.00  0.00    -0.046 A 
ATOM      4  C   UNL     1      46.063 123.285  23.310  1.00  0.00     0.033 A 
ATOM      5  C   UNL     1      46.446 125.672  23.441  1.00  0.00     0.042 A 
ATOM      6  C   UNL     1      44.678 123.499  23.295  1.00  0.00     0.078 A 
ATOM      7  C   UNL     1      45.065 125.905  23.404  1.00  0.00     0.173 A 
ATOM      8  C   UNL     1      48.431 124.128  23.443  1.00  0.00     0.044 C 
BRANCH   6   9
ATOM      9  N   UNL     1      43.790 122.376  23.238  1.00  0.00    -0.396 N 
ATOM     10  H   UNL     1      42.774 122.475  23.451  1.00  0.00     0.156 HD
ATOM     11  H   UNL     1      44.147 121.428  22.982  1.00  0.00     0.156 HD
ENDBRANCH   6   9
BRANCH   7  12
ATOM     12  N   UNL     1      44.584 127.257  23.359  1.00  0.00    -0.009 N 
ATOM     13  N   UNL     1      43.783 127.784  24.285  1.00  0.00     0.054 NA
ATOM     14  N   UNL     1      44.919 128.139  22.420  1.00  0.00    -0.161 N 
ATOM     15  C   UNL     1      43.597 129.058  23.894  1.00  0.00     0.249 A 
ATOM     16  C   UNL     1      44.299 129.279  22.748  1.00  0.00     0.198 A 
ATOM     17  C   UNL     1      42.821 130.049  24.487  1.00  0.00     0.064 A 
ATOM     18  C   UNL     1      44.293 130.505  22.093  1.00  0.00     0.058 A 
ATOM     19  C   UNL     1      42.785 131.308  23.853  1.00  0.00     0.005 A 
ATOM     20  C   UNL     1      43.517 131.535  22.661  1.00  0.00     0.005 A 
ATOM     21  H   UNL     1      45.556 127.968  21.609  1.00  0.00     0.340 HD
ENDBRANCH   7  12
ENDBRANCH   1   2
BRANCH   1  22
ATOM     22  C   UNL     1      41.907 124.584  22.423  1.00  0.00     0.312 C 
ATOM     23  O   UNL     1      42.332 124.340  21.261  1.00  0.00    -0.252 OA
BRANCH  22  24
ATOM     24  C   UNL     1      40.446 124.451  22.723  1.00  0.00     0.142 C 
BRANCH  24  25
ATOM     25  C   UNL     1      40.078 125.137  24.049  1.00  0.00     0.065 C 
ATOM     26  C   UNL     1      40.592 126.578  24.095  1.00  0.00     0.021 C 
ATOM     27  N   UNL     1      38.615 125.178  24.196  1.00  0.00    -0.311 NA
ATOM     28  C   UNL     1      39.376 127.425  23.814  1.00  0.00     0.020 C 
ATOM     29  C   UNL     1      38.226 126.582  24.339  1.00  0.00     0.050 C 
ATOM     30  H   UNL     1      38.336 124.660  25.062  1.00  0.00     0.123 HD
ATOM     31  C   UNL     1      36.927 126.846  23.579  1.00  0.00     0.024 C 
ENDBRANCH  24  25
ENDBRANCH  22  24
ENDBRANCH   1  22
TORSDOF 6
ENDMDL
MODEL 3
REMARK VINA RESULT:      -4.5      1.928      6.592
REMARK SMILES Cc1cc(N)c(OC(=O)C[C@H]2CC[C@@H](C)N2)c(-n2nc3ccccc3[nH+]2)c1
REMARK SMILES IDX 7 1 6 2 2 3 3 4 27 5 4 6 17 7 1 8 5 9 18 12 19 13 26 14
REMARK SMILES IDX 20 15 25 16 21 17 24 18 22 19 23 20 8 22 9 23 10 24 11 25
REMARK SMILES IDX 12 26 16 27 13 28 14 29 15 31
REMARK H PARENT 5 10 5 11 26 21 16 30
ROOT
ATOM      1  O   UNL     1      44.858 130.107  20.269  1.00  0.00    -0.422 OA
ENDROOT
BRANCH   1   2
ATOM      2  C   UNL     1      44.055 130.545  21.329  1.00  0.00     0.185 A 
ATOM      3  C   UNL     1      42.521 131.543  23.468  1.00  0.00    -0.046 A 
ATOM      4  C   UNL     1      42.494 132.181  22.221  1.00  0.00     0.033 A 
ATOM      5  C   UNL     1      43.314 130.401  23.642  1.00  0.00     0.042 A 
ATOM      6  C   UNL     1      43.247 131.684  21.149  1.00  0.00     0.078 A 
ATOM      7  C   UNL     1      44.055 129.877  22.575  1.00  0.00     0.173 A 
ATOM      8  C   UNL     1      41.750 132.108  24.624  1.00  0.00     0.044 C 
BRANCH   6   9
ATOM      9  N   UNL     1      43.215 132.363  19.888  1.00  0.00    -0.396 N 
ATOM     10  H   UNL     1      44.092 132.628  19.390  1.00  0.00     0.156 HD
ATOM     11  H   UNL     1      42.303 132.609  19.439  1.00  0.00     0.156 HD
ENDBRANCH   6   9
BRANCH   7  12
ATOM     12  N   UNL     1      44.769 128.646  22.756  1.00  0.00    -0.009 N 
ATOM     13  N   UNL     1      45.199 127.888  21.747  1.00  0.00     0.054 NA
ATOM     14  N   UNL     1      45.120 128.153  23.942  1.00  0.00    -0.161 N 
ATOM     15  C   UNL     1      45.837 126.860  22.335  1.00  0.00     0.249 A 
ATOM     16  C   UNL     1      45.793 127.024  23.686  1.00  0.00     0.198 A 
ATOM     17  C   UNL     1      46.453 125.762  21.745  1.00  0.00     0.064 A 
ATOM     18  C   UNL     1      46.359 126.110  24.569  1.00  0.00     0.058 A 
ATOM     19  C   UNL     1      47.038 124.809  22.604  1.00  0.00     0.005 A 
ATOM     20  C   UNL     1      46.991 124.982  24.009  1.00  0.00     0.005 A 
ATOM     21  H   UNL     1      44.923 128.581  24.874  1.00  0.00     0.340 HD
ENDBRANCH   7  12
ENDBRANCH   1   2
BRANCH   1  22
ATOM     22  C   UNL     1      45.999 130.793  19.834  1.00  0.00     0.312 C 
ATOM     23  O   UNL     1      46.873 131.177  20.658  1.00  0.00    -0.252 OA
BRANCH  22  24
ATOM     24  C   UNL     1      46.169 131.095  18.376  1.00  0.00     0.142 C 
BRANCH  24  25
ATOM     25  C   UNL     1      45.158 130.318  17.518  1.00  0.00     0.065 C 
ATOM     26  C   UNL     1      44.316 131.261  16.654  1.00  0.00     0.021 C 
ATOM     27  N   UNL     1      45.874 129.403  16.616  1.00  0.00    -0.311 NA
ATOM     28  C   UNL     1      44.920 131.155  15.276  1.00  0.00     0.020 C 
ATOM     29  C   UNL     1      45.492 129.747  15.246  1.00  0.00     0.050 C 
ATOM     30  H   UNL     1      45.579 128.418  16.811  1.00  0.00     0.123 HD
ATOM     31  C   UNL     1      46.704 129.640  14.321  1.00  0.00     0.024 C 
ENDBRANCH  24  25
ENDBRANCH  22  24
ENDBRANCH   1  22
TORSDOF 6
ENDMDL
MODEL 4
REMARK VINA RESULT:      -4.3      4.280      6.177
REMARK SMILES Cc1cc(N)c(OC(=O)C[C@H]2CC[C@@H](C)N2)c(-n2nc3ccccc3[nH+]2)c1
REMARK SMILES IDX 7 1 6 2 2 3 3 4 27 5 4 6 17 7 1 8 5 9 18 12 19 13 26 14
REMARK SMILES IDX 20 15 25 16 21 17 24 18 22 19 23 20 8 22 9 23 10 24 11 25
REMARK SMILES IDX 12 26 16 27 13 28 14 29 15 31
REMARK H PARENT 5 10 5 11 26 21 16 30
ROOT
ATOM      1  O   UNL     1      46.720 132.839  21.301  1.00  0.00    -0.422 OA
ENDROOT
BRANCH   1   2
ATOM      2  C   UNL     1      45.592 132.298  21.933  1.00  0.00     0.185 A 
ATOM      3  C   UNL     1      43.414 131.132  23.282  1.00  0.00    -0.046 A 
ATOM      4  C   UNL     1      44.293 131.983  23.963  1.00  0.00     0.033 A 
ATOM      5  C   UNL     1      43.623 130.869  21.922  1.00  0.00     0.042 A 
ATOM      6  C   UNL     1      45.374 132.576  23.295  1.00  0.00     0.078 A 
ATOM      7  C   UNL     1      44.685 131.470  21.233  1.00  0.00     0.173 A 
ATOM      8  C   UNL     1      42.288 130.465  24.014  1.00  0.00     0.044 C 
BRANCH   6   9
ATOM      9  N   UNL     1      46.269 133.431  24.018  1.00  0.00    -0.396 N 
ATOM     10  H   UNL     1      46.663 133.150  24.942  1.00  0.00     0.156 HD
ATOM     11  H   UNL     1      46.545 134.361  23.630  1.00  0.00     0.156 HD
ENDBRANCH   6   9
BRANCH   7  12
ATOM     12  N   UNL     1      44.807 131.266  19.818  1.00  0.00    -0.009 N 
ATOM     13  N   UNL     1      43.969 131.789  18.923  1.00  0.00     0.054 NA
ATOM     14  N   UNL     1      45.790 130.575  19.244  1.00  0.00    -0.161 N 
ATOM     15  C   UNL     1      44.446 131.391  17.730  1.00  0.00     0.249 A 
ATOM     16  C   UNL     1      45.570 130.646  17.926  1.00  0.00     0.198 A 
ATOM     17  C   UNL     1      43.934 131.634  16.459  1.00  0.00     0.064 A 
ATOM     18  C   UNL     1      46.284 130.081  16.876  1.00  0.00     0.058 A 
ATOM     19  C   UNL     1      44.627 131.076  15.365  1.00  0.00     0.005 A 
ATOM     20  C   UNL     1      45.796 130.302  15.572  1.00  0.00     0.005 A 
ATOM     21  H   UNL     1      46.580 130.098  19.735  1.00  0.00     0.340 HD
ENDBRANCH   7  12
ENDBRANCH   1   2
BRANCH   1  22
ATOM     22  C   UNL     1      47.539 133.810  21.889  1.00  0.00     0.312 C 
ATOM     23  O   UNL     1      47.174 135.016  21.940  1.00  0.00    -0.252 OA
BRANCH  22  24
ATOM     24  C   UNL     1      48.874 133.414  22.442  1.00  0.00     0.142 C 
BRANCH  24  25
ATOM     25  C   UNL     1      49.343 134.388  23.535  1.00  0.00     0.065 C 
ATOM     26  C   UNL     1      50.550 133.834  24.297  1.00  0.00     0.021 C 
ATOM     27  N   UNL     1      49.746 135.663  22.923  1.00  0.00    -0.311 NA
ATOM     28  C   UNL     1      51.733 134.576  23.729  1.00  0.00     0.020 C 
ATOM     29  C   UNL     1      51.141 135.907  23.293  1.00  0.00     0.050 C 
ATOM     30  H   UNL     1      49.155 136.437  23.307  1.00  0.00     0.123 HD
ATOM     31  C   UNL     1      51.898 136.512  22.111  1.00  0.00     0.024 C 
ENDBRANCH  24  25
ENDBRANCH  22  24
ENDBRANCH   1  22
TORSDOF 6
ENDMDL
MODEL 5
REMARK VINA RESULT:      -4.1      4.313      6.748
REMARK SMILES Cc1cc(N)c(OC(=O)C[C@H]2CC[C@@H](C)N2)c(-n2nc3ccccc3[nH+]2)c1
REMARK SMILES IDX 7 1 6 2 2 3 3 4 27 5 4 6 17 7 1 8 5 9 18 12 19 13 26 14
REMARK SMILES IDX 20 15 25 16 21 17 24 18 22 19 23 20 8 22 9 23 10 24 11 25
REMARK SMILES IDX 12 26 16 27 13 28 14 29 15 31
REMARK H PARENT 5 10 5 11 26 21 16 30
ROOT
ATOM      1  O   UNL     1      46.408 133.292  21.197  1.00  0.00    -0.422 OA
ENDROOT
BRANCH   1   2
ATOM      2  C   UNL     1      45.592 132.318  21.788  1.00  0.00     0.185 A 
ATOM      3  C   UNL     1      44.065 130.319  23.052  1.00  0.00    -0.046 A 
ATOM      4  C   UNL     1      44.527 131.423  23.781  1.00  0.00     0.033 A 
ATOM      5  C   UNL     1      44.365 130.219  21.687  1.00  0.00     0.042 A 
ATOM      6  C   UNL     1      45.279 132.427  23.156  1.00  0.00     0.078 A 
ATOM      7  C   UNL     1      45.095 131.226  21.041  1.00  0.00     0.173 A 
ATOM      8  C   UNL     1      43.301 129.225  23.738  1.00  0.00     0.044 C 
BRANCH   6   9
ATOM      9  N   UNL     1      45.753 133.538  23.926  1.00  0.00    -0.396 N 
ATOM     10  H   UNL     1      46.707 133.539  24.350  1.00  0.00     0.156 HD
ATOM     11  H   UNL     1      45.147 134.375  24.082  1.00  0.00     0.156 HD
ENDBRANCH   6   9
BRANCH   7  12
ATOM     12  N   UNL     1      45.291 131.147  19.621  1.00  0.00    -0.009 N 
ATOM     13  N   UNL     1      45.864 130.108  19.014  1.00  0.00     0.054 NA
ATOM     14  N   UNL     1      44.884 132.074  18.758  1.00  0.00    -0.161 N 
ATOM     15  C   UNL     1      45.826 130.411  17.703  1.00  0.00     0.249 A 
ATOM     16  C   UNL     1      45.219 131.620  17.544  1.00  0.00     0.198 A 
ATOM     17  C   UNL     1      46.315 129.683  16.624  1.00  0.00     0.064 A 
ATOM     18  C   UNL     1      45.043 132.209  16.297  1.00  0.00     0.058 A 
ATOM     19  C   UNL     1      46.159 130.246  15.340  1.00  0.00     0.005 A 
ATOM     20  C   UNL     1      45.527 131.503  15.178  1.00  0.00     0.005 A 
ATOM     21  H   UNL     1      44.386 132.963  18.992  1.00  0.00     0.340 HD
ENDBRANCH   7  12
ENDBRANCH   1   2
BRANCH   1  22
ATOM     22  C   UNL     1      47.561 133.802  21.807  1.00  0.00     0.312 C 
ATOM     23  O   UNL     1      48.351 133.041  22.429  1.00  0.00    -0.252 OA
BRANCH  22  24
ATOM     24  C   UNL     1      47.843 135.272  21.742  1.00  0.00     0.142 C 
BRANCH  24  25
ATOM     25  C   UNL     1      49.203 135.556  21.083  1.00  0.00     0.065 C 
ATOM     26  C   UNL     1      49.206 136.910  20.369  1.00  0.00     0.021 C 
ATOM     27  N   UNL     1      50.254 135.588  22.111  1.00  0.00    -0.311 NA
ATOM     28  C   UNL     1      49.949 137.831  21.304  1.00  0.00     0.020 C 
ATOM     29  C   UNL     1      50.898 136.900  22.040  1.00  0.00     0.050 C 
ATOM     30  H   UNL     1      50.967 134.850  21.905  1.00  0.00     0.123 HD
ATOM     31  C   UNL     1      51.219 137.403  23.447  1.00  0.00     0.024 C 
ENDBRANCH  24  25
ENDBRANCH  22  24
ENDBRANCH   1  22
TORSDOF 6
ENDMDL
MODEL 6
REMARK VINA RESULT:      -4.0      1.182      1.828
REMARK SMILES Cc1cc(N)c(OC(=O)C[C@H]2CC[C@@H](C)N2)c(-n2nc3ccccc3[nH+]2)c1
REMARK SMILES IDX 7 1 6 2 2 3 3 4 27 5 4 6 17 7 1 8 5 9 18 12 19 13 26 14
REMARK SMILES IDX 20 15 25 16 21 17 24 18 22 19 23 20 8 22 9 23 10 24 11 25
REMARK SMILES IDX 12 26 16 27 13 28 14 29 15 31
REMARK H PARENT 5 10 5 11 26 21 16 30
ROOT
ATOM      1  O   UNL     1      45.110 129.905  21.255  1.00  0.00    -0.422 OA
ENDROOT
BRANCH   1   2
ATOM      2  C   UNL     1      44.110 130.886  21.229  1.00  0.00     0.185 A 
ATOM      3  C   UNL     1      42.005 132.755  21.206  1.00  0.00    -0.046 A 
ATOM      4  C   UNL     1      42.381 132.129  22.402  1.00  0.00     0.033 A 
ATOM      5  C   UNL     1      42.688 132.448  20.022  1.00  0.00     0.042 A 
ATOM      6  C   UNL     1      43.435 131.205  22.423  1.00  0.00     0.078 A 
ATOM      7  C   UNL     1      43.758 131.544  20.028  1.00  0.00     0.173 A 
ATOM      8  C   UNL     1      40.846 133.707  21.183  1.00  0.00     0.044 C 
BRANCH   6   9
ATOM      9  N   UNL     1      43.791 130.566  23.655  1.00  0.00    -0.396 N 
ATOM     10  H   UNL     1      43.175 129.847  24.093  1.00  0.00     0.156 HD
ATOM     11  H   UNL     1      44.681 130.811  24.143  1.00  0.00     0.156 HD
ENDBRANCH   6   9
BRANCH   7  12
ATOM     12  N   UNL     1      44.505 131.334  18.821  1.00  0.00    -0.009 N 
ATOM     13  N   UNL     1      45.218 130.234  18.579  1.00  0.00     0.054 NA
ATOM     14  N   UNL     1      44.529 132.186  17.799  1.00  0.00    -0.161 N 
ATOM     15  C   UNL     1      45.727 130.418  17.347  1.00  0.00     0.249 A 
ATOM     16  C   UNL     1      45.300 131.618  16.864  1.00  0.00     0.198 A 
ATOM     17  C   UNL     1      46.570 129.586  16.617  1.00  0.00     0.064 A 
ATOM     18  C   UNL     1      45.673 132.095  15.612  1.00  0.00     0.058 A 
ATOM     19  C   UNL     1      46.975 130.033  15.342  1.00  0.00     0.005 A 
ATOM     20  C   UNL     1      46.529 131.282  14.843  1.00  0.00     0.005 A 
ATOM     21  H   UNL     1      44.026 133.100  17.743  1.00  0.00     0.340 HD
ENDBRANCH   7  12
ENDBRANCH   1   2
BRANCH   1  22
ATOM     22  C   UNL     1      45.143 128.865  22.193  1.00  0.00     0.312 C 
ATOM     23  O   UNL     1      44.936 129.095  23.416  1.00  0.00    -0.252 OA
BRANCH  22  24
ATOM     24  C   UNL     1      45.453 127.471  21.741  1.00  0.00     0.142 C 
BRANCH  24  25
ATOM     25  C   UNL     1      45.285 126.457  22.884  1.00  0.00     0.065 C 
ATOM     26  C   UNL     1      43.918 125.770  22.827  1.00  0.00     0.021 C 
ATOM     27  N   UNL     1      46.316 125.414  22.775  1.00  0.00    -0.311 NA
ATOM     28  C   UNL     1      44.199 124.412  22.237  1.00  0.00     0.020 C 
ATOM     29  C   UNL     1      45.629 124.126  22.666  1.00  0.00     0.050 C 
ATOM     30  H   UNL     1      46.903 125.410  23.642  1.00  0.00     0.123 HD
ATOM     31  C   UNL     1      46.358 123.225  21.670  1.00  0.00     0.024 C 
ENDBRANCH  24  25
ENDBRANCH  22  24
ENDBRANCH   1  22
TORSDOF 6
ENDMDL
MODEL 7
REMARK VINA RESULT:      -3.7      1.878      2.258
REMARK SMILES Cc1cc(N)c(OC(=O)C[C@H]2CC[C@@H](C)N2)c(-n2nc3ccccc3[nH+]2)c1
REMARK SMILES IDX 7 1 6 2 2 3 3 4 27 5 4 6 17 7 1 8 5 9 18 12 19 13 26 14
REMARK SMILES IDX 20 15 25 16 21 17 24 18 22 19 23 20 8 22 9 23 10 24 11 25
REMARK SMILES IDX 12 26 16 27 13 28 14 29 15 31
REMARK H PARENT 5 10 5 11 26 21 16 30
ROOT
ATOM      1  O   UNL     1      45.594 129.011  21.865  1.00  0.00    -0.422 OA
ENDROOT
BRANCH   1   2
ATOM      2  C   UNL     1      44.665 129.958  22.314  1.00  0.00     0.185 A 
ATOM      3  C   UNL     1      42.712 131.755  23.253  1.00  0.00    -0.046 A 
ATOM      4  C   UNL     1      43.398 130.925  24.149  1.00  0.00     0.033 A 
ATOM      5  C   UNL     1      43.008 131.687  21.885  1.00  0.00     0.042 A 
ATOM      6  C   UNL     1      44.379 130.035  23.690  1.00  0.00     0.078 A 
ATOM      7  C   UNL     1      44.002 130.820  21.412  1.00  0.00     0.173 A 
ATOM      8  C   UNL     1      41.630 132.670  23.745  1.00  0.00     0.044 C 
BRANCH   6   9
ATOM      9  N   UNL     1      45.056 129.187  24.625  1.00  0.00    -0.396 N 
ATOM     10  H   UNL     1      46.024 128.841  24.444  1.00  0.00     0.156 HD
ATOM     11  H   UNL     1      44.589 128.893  25.512  1.00  0.00     0.156 HD
ENDBRANCH   6   9
BRANCH   7  12
ATOM     12  N   UNL     1      44.356 130.854  20.021  1.00  0.00    -0.009 N 
ATOM     13  N   UNL     1      43.610 131.441  19.086  1.00  0.00     0.054 NA
ATOM     14  N   UNL     1      45.482 130.348  19.524  1.00  0.00    -0.161 N 
ATOM     15  C   UNL     1      44.301 131.278  17.942  1.00  0.00     0.249 A 
ATOM     16  C   UNL     1      45.456 130.609  18.212  1.00  0.00     0.198 A 
ATOM     17  C   UNL     1      43.962 131.677  16.654  1.00  0.00     0.064 A 
ATOM     18  C   UNL     1      46.376 130.279  17.223  1.00  0.00     0.058 A 
ATOM     19  C   UNL     1      44.867 131.359  15.620  1.00  0.00     0.005 A 
ATOM     20  C   UNL     1      46.068 130.663  15.903  1.00  0.00     0.005 A 
ATOM     21  H   UNL     1      46.236 129.866  20.065  1.00  0.00     0.340 HD
ENDBRANCH   7  12
ENDBRANCH   1   2
BRANCH   1  22
ATOM     22  C   UNL     1      45.331 127.636  21.823  1.00  0.00     0.312 C 
ATOM     23  O   UNL     1      44.172 127.209  21.568  1.00  0.00    -0.252 OA
BRANCH  22  24
ATOM     24  C   UNL     1      46.433 126.663  22.111  1.00  0.00     0.142 C 
BRANCH  24  25
ATOM     25  C   UNL     1      46.481 126.289  23.601  1.00  0.00     0.065 C 
ATOM     26  C   UNL     1      45.104 125.861  24.115  1.00  0.00     0.021 C 
ATOM     27  N   UNL     1      47.403 125.161  23.799  1.00  0.00    -0.311 NA
ATOM     28  C   UNL     1      45.170 124.356  24.175  1.00  0.00     0.020 C 
ATOM     29  C   UNL     1      46.644 124.075  24.421  1.00  0.00     0.050 C 
ATOM     30  H   UNL     1      48.173 125.448  24.448  1.00  0.00     0.123 HD
ATOM     31  C   UNL     1      47.076 122.731  23.837  1.00  0.00     0.024 C 
ENDBRANCH  24  25
ENDBRANCH  22  24
ENDBRANCH   1  22
TORSDOF 6
ENDMDL
MODEL 8
REMARK VINA RESULT:      -3.7      4.134      6.842
REMARK SMILES Cc1cc(N)c(OC(=O)C[C@H]2CC[C@@H](C)N2)c(-n2nc3ccccc3[nH+]2)c1
REMARK SMILES IDX 7 1 6 2 2 3 3 4 27 5 4 6 17 7 1 8 5 9 18 12 19 13 26 14
REMARK SMILES IDX 20 15 25 16 21 17 24 18 22 19 23 20 8 22 9 23 10 24 11 25
REMARK SMILES IDX 12 26 16 27 13 28 14 29 15 31
REMARK H PARENT 5 10 5 11 26 21 16 30
ROOT
ATOM      1  O   UNL     1      47.106 132.873  21.585  1.00  0.00    -0.422 OA
ENDROOT
BRANCH   1   2
ATOM      2  C   UNL     1      45.916 132.550  22.251  1.00  0.00     0.185 A 
ATOM      3  C   UNL     1      43.601 131.816  23.674  1.00  0.00    -0.046 A 
ATOM      4  C   UNL     1      44.602 132.573  24.295  1.00  0.00     0.033 A 
ATOM      5  C   UNL     1      43.758 131.429  22.336  1.00  0.00     0.042 A 
ATOM      6  C   UNL     1      45.752 132.952  23.590  1.00  0.00     0.078 A 
ATOM      7  C   UNL     1      44.891 131.818  21.609  1.00  0.00     0.173 A 
ATOM      8  C   UNL     1      42.394 131.374  24.448  1.00  0.00     0.044 C 
BRANCH   6   9
ATOM      9  N   UNL     1      46.769 133.714  24.253  1.00  0.00    -0.396 N 
ATOM     10  H   UNL     1      47.051 134.658  23.910  1.00  0.00     0.156 HD
ATOM     11  H   UNL     1      47.253 133.335  25.098  1.00  0.00     0.156 HD
ENDBRANCH   6   9
BRANCH   7  12
ATOM     12  N   UNL     1      44.971 131.499  20.212  1.00  0.00    -0.009 N 
ATOM     13  N   UNL     1      44.150 132.009  19.293  1.00  0.00     0.054 NA
ATOM     14  N   UNL     1      45.894 130.703  19.678  1.00  0.00    -0.161 N 
ATOM     15  C   UNL     1      44.576 131.490  18.127  1.00  0.00     0.249 A 
ATOM     16  C   UNL     1      45.651 130.689  18.362  1.00  0.00     0.198 A 
ATOM     17  C   UNL     1      44.055 131.670  16.850  1.00  0.00     0.064 A 
ATOM     18  C   UNL     1      46.305 129.998  17.348  1.00  0.00     0.058 A 
ATOM     19  C   UNL     1      44.687 130.985  15.791  1.00  0.00     0.005 A 
ATOM     20  C   UNL     1      45.806 130.153  16.039  1.00  0.00     0.005 A 
ATOM     21  H   UNL     1      46.660 130.212  20.192  1.00  0.00     0.340 HD
ENDBRANCH   7  12
ENDBRANCH   1   2
BRANCH   1  22
ATOM     22  C   UNL     1      47.820 134.056  21.817  1.00  0.00     0.312 C 
ATOM     23  O   UNL     1      48.772 134.081  22.643  1.00  0.00    -0.252 OA
BRANCH  22  24
ATOM     24  C   UNL     1      47.430 135.308  21.094  1.00  0.00     0.142 C 
BRANCH  24  25
ATOM     25  C   UNL     1      48.476 136.419  21.286  1.00  0.00     0.065 C 
ATOM     26  C   UNL     1      49.805 136.057  20.618  1.00  0.00     0.021 C 
ATOM     27  N   UNL     1      47.991 137.666  20.674  1.00  0.00    -0.311 NA
ATOM     28  C   UNL     1      49.819 136.856  19.339  1.00  0.00     0.020 C 
ATOM     29  C   UNL     1      48.977 138.077  19.674  1.00  0.00     0.050 C 
ATOM     30  H   UNL     1      47.923 138.411  21.407  1.00  0.00     0.123 HD
ATOM     31  C   UNL     1      48.271 138.642  18.442  1.00  0.00     0.024 C 
ENDBRANCH  24  25
ENDBRANCH  22  24
ENDBRANCH   1  22
TORSDOF 6
ENDMDL
MODEL 9
REMARK VINA RESULT:      -3.7      1.839      6.802
REMARK SMILES Cc1cc(N)c(OC(=O)C[C@H]2CC[C@@H](C)N2)c(-n2nc3ccccc3[nH+]2)c1
REMARK SMILES IDX 7 1 6 2 2 3 3 4 27 5 4 6 17 7 1 8 5 9 18 12 19 13 26 14
REMARK SMILES IDX 20 15 25 16 21 17 24 18 22 19 23 20 8 22 9 23 10 24 11 25
REMARK SMILES IDX 12 26 16 27 13 28 14 29 15 31
REMARK H PARENT 5 10 5 11 26 21 16 30
ROOT
ATOM      1  O   UNL     1      45.527 130.000  20.281  1.00  0.00    -0.422 OA
ENDROOT
BRANCH   1   2
ATOM      2  C   UNL     1      44.662 130.399  21.308  1.00  0.00     0.185 A 
ATOM      3  C   UNL     1      43.024 131.288  23.417  1.00  0.00    -0.046 A 
ATOM      4  C   UNL     1      43.354 132.153  22.366  1.00  0.00     0.033 A 
ATOM      5  C   UNL     1      43.511 129.975  23.410  1.00  0.00     0.042 A 
ATOM      6  C   UNL     1      44.160 131.714  21.307  1.00  0.00     0.078 A 
ATOM      7  C   UNL     1      44.299 129.512  22.347  1.00  0.00     0.173 A 
ATOM      8  C   UNL     1      42.199 131.779  24.571  1.00  0.00     0.044 C 
BRANCH   6   9
ATOM      9  N   UNL     1      44.497 132.622  20.251  1.00  0.00    -0.396 N 
ATOM     10  H   UNL     1      45.207 132.376  19.528  1.00  0.00     0.156 HD
ATOM     11  H   UNL     1      44.034 133.557  20.186  1.00  0.00     0.156 HD
ENDBRANCH   6   9
BRANCH   7  12
ATOM     12  N   UNL     1      44.691 128.132  22.315  1.00  0.00    -0.009 N 
ATOM     13  N   UNL     1      43.834 127.120  22.456  1.00  0.00     0.054 NA
ATOM     14  N   UNL     1      45.936 127.712  22.097  1.00  0.00    -0.161 N 
ATOM     15  C   UNL     1      44.588 126.011  22.334  1.00  0.00     0.249 A 
ATOM     16  C   UNL     1      45.881 126.375  22.109  1.00  0.00     0.198 A 
ATOM     17  C   UNL     1      44.201 124.679  22.426  1.00  0.00     0.064 A 
ATOM     18  C   UNL     1      46.902 125.445  21.955  1.00  0.00     0.058 A 
ATOM     19  C   UNL     1      45.207 123.701  22.277  1.00  0.00     0.005 A 
ATOM     20  C   UNL     1      46.551 124.083  22.043  1.00  0.00     0.005 A 
ATOM     21  H   UNL     1      46.772 128.316  21.930  1.00  0.00     0.340 HD
ENDBRANCH   7  12
ENDBRANCH   1   2
BRANCH   1  22
ATOM     22  C   UNL     1      45.349 130.366  18.940  1.00  0.00     0.312 C 
ATOM     23  O   UNL     1      44.337 131.029  18.583  1.00  0.00    -0.252 OA
BRANCH  22  24
ATOM     24  C   UNL     1      46.358 129.942  17.918  1.00  0.00     0.142 C 
BRANCH  24  25
ATOM     25  C   UNL     1      45.684 129.502  16.608  1.00  0.00     0.065 C 
ATOM     26  C   UNL     1      44.675 130.545  16.121  1.00  0.00     0.021 C 
ATOM     27  N   UNL     1      46.702 129.338  15.559  1.00  0.00    -0.311 NA
ATOM     28  C   UNL     1      45.387 131.274  15.010  1.00  0.00     0.020 C 
ATOM     29  C   UNL     1      46.343 130.230  14.455  1.00  0.00     0.050 C 
ATOM     30  H   UNL     1      46.691 128.351  15.212  1.00  0.00     0.123 HD
ATOM     31  C   UNL     1      47.601 130.862  13.861  1.00  0.00     0.024 C 
ENDBRANCH  24  25
ENDBRANCH  22  24
ENDBRANCH   1  22
TORSDOF 6
ENDMDL


