REMARK SMILES N#Cc1c[nH+]c(N(c2cc3ccccc3[n-]2)c2cn3ccccc3[nH+]2)c[nH+]1
REMARK SMILES IDX 3 1 4 2 5 3 6 4 26 5 27 6 2 9 1 10 7 11 8 12 9 13 16 14
REMARK SMILES IDX 10 15 15 16 11 17 14 18 12 19 13 20 17 21 18 22 25 23 19 24
REMARK SMILES IDX 24 25 20 26 23 27 21 28 22 29
REMARK H PARENT 5 7 27 8 25 30
ROOT
ATOM      1  C   UNL     1      -2.091  -1.635  -3.795  1.00  0.00     0.321 A 
ATOM      2  C   UNL     1      -2.695  -0.900  -2.771  1.00  0.00     0.289 A 
ATOM      3  N   UNL     1      -1.937  -0.427  -1.746  1.00  0.00    -0.241 N 
ATOM      4  C   UNL     1      -0.593  -0.657  -1.697  1.00  0.00     0.324 A 
ATOM      5  C   UNL     1       0.009  -1.395  -2.727  1.00  0.00     0.398 A 
ATOM      6  N   UNL     1      -0.750  -1.867  -3.751  1.00  0.00    -0.193 N 
ATOM      7  H   UNL     1      -2.400   0.133  -0.996  1.00  0.00     0.311 HD
ATOM      8  H   UNL     1      -0.288  -2.417  -4.511  1.00  0.00     0.455 HD
ENDROOT
BRANCH   1   9
ATOM      9  C   UNL     1      -2.882  -2.142  -4.887  1.00  0.00     0.174 C 
ATOM     10  N   UNL     1      -3.517  -2.549  -5.764  1.00  0.00    -0.186 NA
ENDBRANCH   1   9
BRANCH   4  11
ATOM     11  N   UNL     1       0.193  -0.154  -0.599  1.00  0.00    -0.187 N 
BRANCH  11  12
ATOM     12  C   UNL     1      -0.273  -0.322   0.755  1.00  0.00     0.100 A 
ATOM     13  C   UNL     1      -1.137  -1.330   1.180  1.00  0.00     0.048 A 
ATOM     14  N   UNL     1       0.085   0.505   1.770  1.00  0.00    -0.403 NA
ATOM     15  C   UNL     1      -1.306  -1.095   2.521  1.00  0.00    -0.019 A 
ATOM     16  C   UNL     1      -0.560   0.010   2.841  1.00  0.00    -0.032 A 
ATOM     17  C   UNL     1      -2.060  -1.778   3.473  1.00  0.00     0.008 A 
ATOM     18  C   UNL     1      -0.520   0.508   4.143  1.00  0.00     0.004 A 
ATOM     19  C   UNL     1      -2.038  -1.297   4.795  1.00  0.00     0.001 A 
ATOM     20  C   UNL     1      -1.271  -0.158   5.128  1.00  0.00     0.000 A 
ENDBRANCH  11  12
BRANCH  11  21
ATOM     21  C   UNL     1       1.427   0.540  -0.864  1.00  0.00     0.266 A 
ATOM     22  C   UNL     1       2.531   0.603  -0.020  1.00  0.00     0.248 A 
ATOM     23  N   UNL     1       1.689   1.209  -2.013  1.00  0.00    -0.243 N 
ATOM     24  N   UNL     1       3.469   1.321  -0.660  1.00  0.00    -0.233 N 
ATOM     25  C   UNL     1       2.942   1.672  -1.847  1.00  0.00     0.230 A 
ATOM     26  C   UNL     1       4.721   1.664  -0.267  1.00  0.00     0.168 A 
ATOM     27  C   UNL     1       3.673   2.430  -2.760  1.00  0.00     0.081 A 
ATOM     28  C   UNL     1       5.504   2.428  -1.146  1.00  0.00     0.035 A 
ATOM     29  C   UNL     1       4.975   2.811  -2.394  1.00  0.00     0.010 A 
ATOM     30  H   UNL     1       1.063   1.345  -2.837  1.00  0.00     0.267 HD
ENDBRANCH  11  21
ENDBRANCH   4  11
TORSDOF 4


