REMARK SMILES Cc1cc(F)ncc1-c1ccc2cc[nH]c2c1
REMARK SMILES IDX 9 1 10 2 11 3 12 4 13 5 14 6 15 7 16 8 17 9 8 11 2 12 3 13
REMARK SMILES IDX 4 14 7 15 6 16 1 17 5 18
REMARK H PARENT 15 10
ROOT
ATOM      1  C   UNL     1       0.496  -1.303   1.008  1.00  0.00    -0.014 A 
ATOM      2  C   UNL     1       1.476  -1.234   2.033  1.00  0.00     0.009 A 
ATOM      3  C   UNL     1       1.727  -2.343   2.861  1.00  0.00     0.011 A 
ATOM      4  C   UNL     1       0.993  -3.503   2.634  1.00  0.00    -0.001 A 
ATOM      5  C   UNL     1       1.024  -4.724   3.272  1.00  0.00     0.028 A 
ATOM      6  C   UNL     1       0.076  -5.501   2.614  1.00  0.00     0.083 A 
ATOM      7  N   UNL     1      -0.513  -4.800   1.618  1.00  0.00    -0.361 N 
ATOM      8  C   UNL     1       0.054  -3.583   1.641  1.00  0.00     0.046 A 
ATOM      9  C   UNL     1      -0.220  -2.504   0.803  1.00  0.00     0.035 A 
ATOM     10  H   UNL     1      -1.257  -5.138   0.968  1.00  0.00     0.166 HD
ENDROOT
BRANCH   1  11
ATOM     11  C   UNL     1       0.244  -0.136   0.134  1.00  0.00     0.003 A 
ATOM     12  C   UNL     1      -0.182   1.114   0.643  1.00  0.00    -0.037 A 
ATOM     13  C   UNL     1      -0.359   2.187  -0.244  1.00  0.00     0.064 A 
ATOM     14  C   UNL     1      -0.149   1.999  -1.611  1.00  0.00     0.213 A 
ATOM     15  C   UNL     1       0.427  -0.274  -1.252  1.00  0.00     0.123 A 
ATOM     16  N   UNL     1       0.231   0.784  -2.081  1.00  0.00    -0.228 NA
ATOM     17  C   UNL     1      -0.439   1.333   2.111  1.00  0.00     0.045 C 
ATOM     18  F   UNL     1      -0.329   3.029  -2.473  1.00  0.00    -0.185 F 
ENDBRANCH   1  11
TORSDOF 1


