MODEL 1
REMARK VINA RESULT:      -6.4      0.000      0.000
REMARK SMILES N/[N+](C1=C[C@H]2C[C@H]3C=CC=C[C@@H]3C[C@@]2(F)C=C1)=C(\O)N1CCOCC1
REMARK SMILES IDX 18 1 20 2 21 3 22 4 23 5 24 6 25 7 19 8 2 10 3 11 4 12 17 13
REMARK SMILES IDX 5 14 16 15 6 16 14 17 7 18 13 19 8 20 12 21 9 22 11 23 10 24
REMARK SMILES IDX 15 25 1 26
REMARK H PARENT 19 9 1 27 1 28
ROOT
ATOM      1  C   UNL     1      44.096 129.678  23.626  1.00  0.00     0.473 C 
ATOM      2  N   UNL     1      44.000 128.258  23.421  1.00  0.00    -0.222 N 
ATOM      3  C   UNL     1      45.243 127.485  23.368  1.00  0.00     0.268 C 
ATOM      4  C   UNL     1      44.968 126.099  22.782  1.00  0.00     0.206 C 
ATOM      5  O   UNL     1      43.923 125.461  23.490  1.00  0.00    -0.373 OA
ATOM      6  C   UNL     1      42.713 126.161  23.280  1.00  0.00     0.206 C 
ATOM      7  C   UNL     1      42.780 127.576  23.866  1.00  0.00     0.268 C 
ENDROOT
BRANCH   1   8
ATOM      8  O   UNL     1      44.964 130.133  24.625  1.00  0.00    -0.445 OA
ATOM      9  H   UNL     1      44.671 130.337  25.571  1.00  0.00     0.301 HD
ENDBRANCH   1   8
BRANCH   1  10
ATOM     10  N   UNL     1      43.398 130.516  22.892  1.00  0.00    -0.096 N 
BRANCH  10  11
ATOM     11  C   UNL     1      43.806 130.880  21.558  1.00  0.00     0.153 C 
ATOM     12  C   UNL     1      45.106 130.877  21.209  1.00  0.00     0.034 C 
ATOM     13  C   UNL     1      42.795 131.384  20.600  1.00  0.00     0.053 C 
ATOM     14  C   UNL     1      45.537 131.267  19.814  1.00  0.00     0.058 C 
ATOM     15  C   UNL     1      43.161 132.047  19.497  1.00  0.00     0.018 C 
ATOM     16  C   UNL     1      45.534 130.016  18.908  1.00  0.00     0.020 C 
ATOM     17  C   UNL     1      44.616 132.399  19.265  1.00  0.00     0.136 C 
ATOM     18  C   UNL     1      45.880 130.391  17.464  1.00  0.00     0.019 C 
ATOM     19  C   UNL     1      44.897 132.694  17.773  1.00  0.00     0.054 C 
ATOM     20  C   UNL     1      45.923 129.184  16.556  1.00  0.00    -0.023 C 
ATOM     21  C   UNL     1      44.856 131.414  16.925  1.00  0.00     0.022 C 
ATOM     22  C   UNL     1      45.812 129.348  15.230  1.00  0.00    -0.004 C 
ATOM     23  C   UNL     1      45.129 131.687  15.463  1.00  0.00    -0.023 C 
ATOM     24  C   UNL     1      45.521 130.686  14.665  1.00  0.00    -0.004 C 
ATOM     25  F   UNL     1      44.880 133.556  19.980  1.00  0.00    -0.239 F 
ENDBRANCH  10  11
BRANCH  10  26
ATOM     26  N   UNL     1      42.210 131.091  23.385  1.00  0.00    -0.266 NA
ATOM     27  H   UNL     1      41.603 130.559  24.050  1.00  0.00     0.202 HD
ATOM     28  H   UNL     1      41.984 132.099  23.241  1.00  0.00     0.202 HD
ENDBRANCH  10  26
ENDBRANCH   1  10
TORSDOF 4
ENDMDL
MODEL 2
REMARK VINA RESULT:      -5.5      4.159      7.496
REMARK SMILES N/[N+](C1=C[C@H]2C[C@H]3C=CC=C[C@@H]3C[C@@]2(F)C=C1)=C(\O)N1CCOCC1
REMARK SMILES IDX 18 1 20 2 21 3 22 4 23 5 24 6 25 7 19 8 2 10 3 11 4 12 17 13
REMARK SMILES IDX 5 14 16 15 6 16 14 17 7 18 13 19 8 20 12 21 9 22 11 23 10 24
REMARK SMILES IDX 15 25 1 26
REMARK H PARENT 19 9 1 27 1 28
ROOT
ATOM      1  C   UNL     1      44.959 129.957  15.593  1.00  0.00     0.473 C 
ATOM      2  N   UNL     1      46.164 130.096  14.819  1.00  0.00    -0.222 N 
ATOM      3  C   UNL     1      47.207 129.082  14.983  1.00  0.00     0.268 C 
ATOM      4  C   UNL     1      48.522 129.588  14.388  1.00  0.00     0.206 C 
ATOM      5  O   UNL     1      48.331 130.005  13.050  1.00  0.00    -0.373 OA
ATOM      6  C   UNL     1      47.491 131.143  13.025  1.00  0.00     0.206 C 
ATOM      7  C   UNL     1      46.086 130.807  13.539  1.00  0.00     0.268 C 
ENDROOT
BRANCH   1   8
ATOM      8  O   UNL     1      44.365 128.691  15.647  1.00  0.00    -0.445 OA
ATOM      9  H   UNL     1      44.789 127.893  16.102  1.00  0.00     0.301 HD
ENDBRANCH   1   8
BRANCH   1  10
ATOM     10  N   UNL     1      44.442 130.985  16.230  1.00  0.00    -0.096 N 
BRANCH  10  11
ATOM     11  C   UNL     1      44.498 131.093  17.667  1.00  0.00     0.153 C 
ATOM     12  C   UNL     1      43.611 131.854  18.336  1.00  0.00     0.034 C 
ATOM     13  C   UNL     1      45.619 130.463  18.401  1.00  0.00     0.053 C 
ATOM     14  C   UNL     1      43.674 131.976  19.841  1.00  0.00     0.058 C 
ATOM     15  C   UNL     1      45.904 130.817  19.659  1.00  0.00     0.018 C 
ATOM     16  C   UNL     1      42.835 130.848  20.482  1.00  0.00     0.020 C 
ATOM     17  C   UNL     1      45.157 131.957  20.320  1.00  0.00     0.136 C 
ATOM     18  C   UNL     1      42.948 130.889  22.010  1.00  0.00     0.019 C 
ATOM     19  C   UNL     1      45.262 131.885  21.861  1.00  0.00     0.054 C 
ATOM     20  C   UNL     1      42.109 129.821  22.673  1.00  0.00    -0.023 C 
ATOM     21  C   UNL     1      44.425 130.731  22.433  1.00  0.00     0.022 C 
ATOM     22  C   UNL     1      42.383 129.450  23.931  1.00  0.00    -0.004 C 
ATOM     23  C   UNL     1      44.518 130.648  23.939  1.00  0.00    -0.023 C 
ATOM     24  C   UNL     1      43.577 129.987  24.625  1.00  0.00    -0.004 C 
ATOM     25  F   UNL     1      45.758 133.137  19.911  1.00  0.00    -0.239 F 
ENDBRANCH  10  11
BRANCH  10  26
ATOM     26  N   UNL     1      43.814 132.030  15.525  1.00  0.00    -0.266 NA
ATOM     27  H   UNL     1      42.774 132.135  15.554  1.00  0.00     0.202 HD
ATOM     28  H   UNL     1      44.358 132.812  15.098  1.00  0.00     0.202 HD
ENDBRANCH  10  26
ENDBRANCH   1  10
TORSDOF 4
ENDMDL
MODEL 3
REMARK VINA RESULT:      -5.4      0.971      1.052
REMARK SMILES N/[N+](C1=C[C@H]2C[C@H]3C=CC=C[C@@H]3C[C@@]2(F)C=C1)=C(\O)N1CCOCC1
REMARK SMILES IDX 18 1 20 2 21 3 22 4 23 5 24 6 25 7 19 8 2 10 3 11 4 12 17 13
REMARK SMILES IDX 5 14 16 15 6 16 14 17 7 18 13 19 8 20 12 21 9 22 11 23 10 24
REMARK SMILES IDX 15 25 1 26
REMARK H PARENT 19 9 1 27 1 28
ROOT
ATOM      1  C   UNL     1      43.829 129.639  23.839  1.00  0.00     0.473 C 
ATOM      2  N   UNL     1      43.320 128.304  23.673  1.00  0.00    -0.222 N 
ATOM      3  C   UNL     1      44.275 127.239  23.360  1.00  0.00     0.268 C 
ATOM      4  C   UNL     1      43.528 126.001  22.860  1.00  0.00     0.206 C 
ATOM      5  O   UNL     1      42.525 125.622  23.783  1.00  0.00    -0.373 OA
ATOM      6  C   UNL     1      41.526 126.621  23.833  1.00  0.00     0.206 C 
ATOM      7  C   UNL     1      42.086 127.941  24.378  1.00  0.00     0.268 C 
ENDROOT
BRANCH   1   8
ATOM      8  O   UNL     1      44.976 129.804  24.623  1.00  0.00    -0.445 OA
ATOM      9  H   UNL     1      45.400 129.058  25.158  1.00  0.00     0.301 HD
ENDBRANCH   1   8
BRANCH   1  10
ATOM     10  N   UNL     1      43.237 130.664  23.266  1.00  0.00    -0.096 N 
BRANCH  10  11
ATOM     11  C   UNL     1      43.397 130.944  21.861  1.00  0.00     0.153 C 
ATOM     12  C   UNL     1      44.486 131.594  21.407  1.00  0.00     0.034 C 
ATOM     13  C   UNL     1      42.293 130.628  20.926  1.00  0.00     0.053 C 
ATOM     14  C   UNL     1      44.651 131.897  19.935  1.00  0.00     0.058 C 
ATOM     15  C   UNL     1      42.248 131.171  19.704  1.00  0.00     0.018 C 
ATOM     16  C   UNL     1      45.359 130.711  19.244  1.00  0.00     0.020 C 
ATOM     17  C   UNL     1      43.266 132.216  19.294  1.00  0.00     0.136 C 
ATOM     18  C   UNL     1      45.463 130.947  17.734  1.00  0.00     0.019 C 
ATOM     19  C   UNL     1      43.361 132.343  17.756  1.00  0.00     0.054 C 
ATOM     20  C   UNL     1      46.185 129.822  17.029  1.00  0.00    -0.023 C 
ATOM     21  C   UNL     1      44.052 131.123  17.129  1.00  0.00     0.022 C 
ATOM     22  C   UNL     1      46.024 129.657  15.709  1.00  0.00    -0.004 C 
ATOM     23  C   UNL     1      44.153 131.232  15.625  1.00  0.00    -0.023 C 
ATOM     24  C   UNL     1      45.048 130.487  14.965  1.00  0.00    -0.004 C 
ATOM     25  F   UNL     1      42.830 133.434  19.791  1.00  0.00    -0.239 F 
ENDBRANCH  10  11
BRANCH  10  26
ATOM     26  N   UNL     1      42.413 131.530  24.010  1.00  0.00    -0.266 NA
ATOM     27  H   UNL     1      42.624 131.726  25.015  1.00  0.00     0.202 HD
ATOM     28  H   UNL     1      41.681 132.120  23.556  1.00  0.00     0.202 HD
ENDBRANCH  10  26
ENDBRANCH   1  10
TORSDOF 4
ENDMDL
MODEL 4
REMARK VINA RESULT:      -5.2      2.388      3.989
REMARK SMILES N/[N+](C1=C[C@H]2C[C@H]3C=CC=C[C@@H]3C[C@@]2(F)C=C1)=C(\O)N1CCOCC1
REMARK SMILES IDX 18 1 20 2 21 3 22 4 23 5 24 6 25 7 19 8 2 10 3 11 4 12 17 13
REMARK SMILES IDX 5 14 16 15 6 16 14 17 7 18 13 19 8 20 12 21 9 22 11 23 10 24
REMARK SMILES IDX 15 25 1 26
REMARK H PARENT 19 9 1 27 1 28
ROOT
ATOM      1  C   UNL     1      44.694 131.792  21.003  1.00  0.00     0.473 C 
ATOM      2  N   UNL     1      43.948 131.121  22.033  1.00  0.00    -0.222 N 
ATOM      3  C   UNL     1      44.618 130.057  22.784  1.00  0.00     0.268 C 
ATOM      4  C   UNL     1      43.583 129.230  23.549  1.00  0.00     0.206 C 
ATOM      5  O   UNL     1      42.768 130.071  24.343  1.00  0.00    -0.373 OA
ATOM      6  C   UNL     1      41.985 130.899  23.507  1.00  0.00     0.206 C 
ATOM      7  C   UNL     1      42.864 131.856  22.693  1.00  0.00     0.268 C 
ENDROOT
BRANCH   1   8
ATOM      8  O   UNL     1      46.001 132.193  21.303  1.00  0.00    -0.445 OA
ATOM      9  H   UNL     1      46.222 132.995  21.877  1.00  0.00     0.301 HD
ENDBRANCH   1   8
BRANCH   1  10
ATOM     10  N   UNL     1      44.165 132.012  19.819  1.00  0.00    -0.096 N 
BRANCH  10  11
ATOM     11  C   UNL     1      44.691 131.396  18.626  1.00  0.00     0.153 C 
ATOM     12  C   UNL     1      44.118 131.615  17.427  1.00  0.00     0.034 C 
ATOM     13  C   UNL     1      45.793 130.414  18.740  1.00  0.00     0.053 C 
ATOM     14  C   UNL     1      44.661 130.963  16.177  1.00  0.00     0.058 C 
ATOM     15  C   UNL     1      46.074 129.575  17.736  1.00  0.00     0.018 C 
ATOM     16  C   UNL     1      45.750 131.868  15.559  1.00  0.00     0.020 C 
ATOM     17  C   UNL     1      45.193 129.535  16.504  1.00  0.00     0.136 C 
ATOM     18  C   UNL     1      46.386 131.195  14.338  1.00  0.00     0.019 C 
ATOM     19  C   UNL     1      45.932 128.907  15.299  1.00  0.00     0.054 C 
ATOM     20  C   UNL     1      47.431 132.069  13.684  1.00  0.00    -0.023 C 
ATOM     21  C   UNL     1      47.015 129.845  14.748  1.00  0.00     0.022 C 
ATOM     22  C   UNL     1      48.349 131.515  12.880  1.00  0.00    -0.004 C 
ATOM     23  C   UNL     1      47.746 129.245  13.568  1.00  0.00    -0.023 C 
ATOM     24  C   UNL     1      48.422 130.044  12.732  1.00  0.00    -0.004 C 
ATOM     25  F   UNL     1      44.107 128.726  16.800  1.00  0.00    -0.239 F 
ENDBRANCH  10  11
BRANCH  10  26
ATOM     26  N   UNL     1      43.051 132.862  19.673  1.00  0.00    -0.266 NA
ATOM     27  H   UNL     1      42.157 132.650  20.170  1.00  0.00     0.202 HD
ATOM     28  H   UNL     1      43.126 133.794  19.209  1.00  0.00     0.202 HD
ENDBRANCH  10  26
ENDBRANCH   1  10
TORSDOF 4
ENDMDL
MODEL 5
REMARK VINA RESULT:      -4.7      4.153      7.489
REMARK SMILES N/[N+](C1=C[C@H]2C[C@H]3C=CC=C[C@@H]3C[C@@]2(F)C=C1)=C(\O)N1CCOCC1
REMARK SMILES IDX 18 1 20 2 21 3 22 4 23 5 24 6 25 7 19 8 2 10 3 11 4 12 17 13
REMARK SMILES IDX 5 14 16 15 6 16 14 17 7 18 13 19 8 20 12 21 9 22 11 23 10 24
REMARK SMILES IDX 15 25 1 26
REMARK H PARENT 19 9 1 27 1 28
ROOT
ATOM      1  C   UNL     1      45.700 131.903  15.827  1.00  0.00     0.473 C 
ATOM      2  N   UNL     1      46.438 131.042  14.944  1.00  0.00    -0.222 N 
ATOM      3  C   UNL     1      46.797 131.557  13.621  1.00  0.00     0.268 C 
ATOM      4  C   UNL     1      47.230 130.404  12.714  1.00  0.00     0.206 C 
ATOM      5  O   UNL     1      48.251 129.645  13.332  1.00  0.00    -0.373 OA
ATOM      6  C   UNL     1      47.731 128.996  14.476  1.00  0.00     0.206 C 
ATOM      7  C   UNL     1      47.294 130.010  15.540  1.00  0.00     0.268 C 
ENDROOT
BRANCH   1   8
ATOM      8  O   UNL     1      46.131 133.229  15.951  1.00  0.00    -0.445 OA
ATOM      9  H   UNL     1      45.683 133.910  16.550  1.00  0.00     0.301 HD
ENDBRANCH   1   8
BRANCH   1  10
ATOM     10  N   UNL     1      44.653 131.459  16.487  1.00  0.00    -0.096 N 
BRANCH  10  11
ATOM     11  C   UNL     1      44.644 131.371  17.926  1.00  0.00     0.153 C 
ATOM     12  C   UNL     1      43.780 132.101  18.657  1.00  0.00     0.034 C 
ATOM     13  C   UNL     1      45.680 130.564  18.612  1.00  0.00     0.053 C 
ATOM     14  C   UNL     1      43.775 132.016  20.166  1.00  0.00     0.058 C 
ATOM     15  C   UNL     1      45.925 130.725  19.917  1.00  0.00     0.018 C 
ATOM     16  C   UNL     1      42.828 130.881  20.613  1.00  0.00     0.020 C 
ATOM     17  C   UNL     1      45.227 131.820  20.697  1.00  0.00     0.136 C 
ATOM     18  C   UNL     1      42.867 130.709  22.134  1.00  0.00     0.019 C 
ATOM     19  C   UNL     1      45.249 131.536  22.217  1.00  0.00     0.054 C 
ATOM     20  C   UNL     1      41.923 129.629  22.611  1.00  0.00    -0.023 C 
ATOM     21  C   UNL     1      44.306 130.383  22.591  1.00  0.00     0.022 C 
ATOM     22  C   UNL     1      42.107 129.074  23.817  1.00  0.00    -0.004 C 
ATOM     23  C   UNL     1      44.317 130.093  24.075  1.00  0.00    -0.023 C 
ATOM     24  C   UNL     1      43.298 129.420  24.625  1.00  0.00    -0.004 C 
ATOM     25  F   UNL     1      45.930 132.995  20.478  1.00  0.00    -0.239 F 
ENDBRANCH  10  11
BRANCH  10  26
ATOM     26  N   UNL     1      43.488 131.056  15.806  1.00  0.00    -0.266 NA
ATOM     27  H   UNL     1      43.468 130.150  15.285  1.00  0.00     0.202 HD
ATOM     28  H   UNL     1      42.577 131.550  15.930  1.00  0.00     0.202 HD
ENDBRANCH  10  26
ENDBRANCH   1  10
TORSDOF 4
ENDMDL
MODEL 6
REMARK VINA RESULT:      -4.7      2.609      4.397
REMARK SMILES N/[N+](C1=C[C@H]2C[C@H]3C=CC=C[C@@H]3C[C@@]2(F)C=C1)=C(\O)N1CCOCC1
REMARK SMILES IDX 18 1 20 2 21 3 22 4 23 5 24 6 25 7 19 8 2 10 3 11 4 12 17 13
REMARK SMILES IDX 5 14 16 15 6 16 14 17 7 18 13 19 8 20 12 21 9 22 11 23 10 24
REMARK SMILES IDX 15 25 1 26
REMARK H PARENT 19 9 1 27 1 28
ROOT
ATOM      1  C   UNL     1      43.130 131.817  20.284  1.00  0.00     0.473 C 
ATOM      2  N   UNL     1      43.249 131.481  21.677  1.00  0.00    -0.222 N 
ATOM      3  C   UNL     1      42.197 131.941  22.587  1.00  0.00     0.268 C 
ATOM      4  C   UNL     1      42.675 131.822  24.036  1.00  0.00     0.206 C 
ATOM      5  O   UNL     1      43.132 130.509  24.299  1.00  0.00    -0.373 OA
ATOM      6  C   UNL     1      44.296 130.252  23.540  1.00  0.00     0.206 C 
ATOM      7  C   UNL     1      43.993 130.270  22.036  1.00  0.00     0.268 C 
ENDROOT
BRANCH   1   8
ATOM      8  O   UNL     1      41.883 131.633  19.677  1.00  0.00    -0.445 OA
ATOM      9  H   UNL     1      41.412 130.739  19.623  1.00  0.00     0.301 HD
ENDBRANCH   1   8
BRANCH   1  10
ATOM     10  N   UNL     1      44.157 132.286  19.611  1.00  0.00    -0.096 N 
BRANCH  10  11
ATOM     11  C   UNL     1      44.695 131.594  18.466  1.00  0.00     0.153 C 
ATOM     12  C   UNL     1      44.147 131.749  17.246  1.00  0.00     0.034 C 
ATOM     13  C   UNL     1      45.781 130.604  18.658  1.00  0.00     0.053 C 
ATOM     14  C   UNL     1      44.704 131.017  16.046  1.00  0.00     0.058 C 
ATOM     15  C   UNL     1      46.068 129.705  17.711  1.00  0.00     0.018 C 
ATOM     16  C   UNL     1      45.817 131.869  15.397  1.00  0.00     0.020 C 
ATOM     17  C   UNL     1      45.209 129.603  16.467  1.00  0.00     0.136 C 
ATOM     18  C   UNL     1      46.464 131.117  14.230  1.00  0.00     0.019 C 
ATOM     19  C   UNL     1      45.960 128.896  15.315  1.00  0.00     0.054 C 
ATOM     20  C   UNL     1      47.534 131.937  13.546  1.00  0.00    -0.023 C 
ATOM     21  C   UNL     1      47.066 129.785  14.730  1.00  0.00     0.022 C 
ATOM     22  C   UNL     1      48.458 131.324  12.793  1.00  0.00    -0.004 C 
ATOM     23  C   UNL     1      47.810 129.107  13.602  1.00  0.00    -0.023 C 
ATOM     24  C   UNL     1      48.512 129.846  12.733  1.00  0.00    -0.004 C 
ATOM     25  F   UNL     1      44.105 128.829  16.789  1.00  0.00    -0.239 F 
ENDBRANCH  10  11
BRANCH  10  26
ATOM     26  N   UNL     1      44.772 133.497  19.983  1.00  0.00    -0.266 NA
ATOM     27  H   UNL     1      45.770 133.508  20.296  1.00  0.00     0.202 HD
ATOM     28  H   UNL     1      44.321 134.422  19.808  1.00  0.00     0.202 HD
ENDBRANCH  10  26
ENDBRANCH   1  10
TORSDOF 4
ENDMDL
MODEL 7
REMARK VINA RESULT:      -4.4      6.590      8.222
REMARK SMILES N/[N+](C1=C[C@H]2C[C@H]3C=CC=C[C@@H]3C[C@@]2(F)C=C1)=C(\O)N1CCOCC1
REMARK SMILES IDX 18 1 20 2 21 3 22 4 23 5 24 6 25 7 19 8 2 10 3 11 4 12 17 13
REMARK SMILES IDX 5 14 16 15 6 16 14 17 7 18 13 19 8 20 12 21 9 22 11 23 10 24
REMARK SMILES IDX 15 25 1 26
REMARK H PARENT 19 9 1 27 1 28
ROOT
ATOM      1  C   UNL     1      45.717 125.587  22.496  1.00  0.00     0.473 C 
ATOM      2  N   UNL     1      44.625 124.655  22.573  1.00  0.00    -0.222 N 
ATOM      3  C   UNL     1      43.268 125.193  22.686  1.00  0.00     0.268 C 
ATOM      4  C   UNL     1      42.306 124.088  23.126  1.00  0.00     0.206 C 
ATOM      5  O   UNL     1      42.411 122.969  22.268  1.00  0.00    -0.373 OA
ATOM      6  C   UNL     1      43.688 122.380  22.413  1.00  0.00     0.206 C 
ATOM      7  C   UNL     1      44.796 123.336  21.955  1.00  0.00     0.268 C 
ENDROOT
BRANCH   1   8
ATOM      8  O   UNL     1      45.580 126.677  21.628  1.00  0.00    -0.445 OA
ATOM      9  H   UNL     1      45.601 127.641  21.933  1.00  0.00     0.301 HD
ENDBRANCH   1   8
BRANCH   1  10
ATOM     10  N   UNL     1      46.800 125.422  23.222  1.00  0.00    -0.096 N 
BRANCH  10  11
ATOM     11  C   UNL     1      48.036 124.954  22.646  1.00  0.00     0.153 C 
ATOM     12  C   UNL     1      48.120 123.728  22.096  1.00  0.00     0.034 C 
ATOM     13  C   UNL     1      49.258 125.780  22.776  1.00  0.00     0.053 C 
ATOM     14  C   UNL     1      49.417 123.231  21.500  1.00  0.00     0.058 C 
ATOM     15  C   UNL     1      50.471 125.252  22.575  1.00  0.00     0.018 C 
ATOM     16  C   UNL     1      49.491 123.647  20.014  1.00  0.00     0.020 C 
ATOM     17  C   UNL     1      50.626 123.766  22.325  1.00  0.00     0.136 C 
ATOM     18  C   UNL     1      50.834 123.236  19.401  1.00  0.00     0.019 C 
ATOM     19  C   UNL     1      51.976 123.444  21.642  1.00  0.00     0.054 C 
ATOM     20  C   UNL     1      50.926 123.594  17.936  1.00  0.00    -0.023 C 
ATOM     21  C   UNL     1      51.992 123.903  20.177  1.00  0.00     0.022 C 
ATOM     22  C   UNL     1      52.128 123.681  17.351  1.00  0.00    -0.004 C 
ATOM     23  C   UNL     1      53.305 123.594  19.495  1.00  0.00    -0.023 C 
ATOM     24  C   UNL     1      53.364 123.554  18.158  1.00  0.00    -0.004 C 
ATOM     25  F   UNL     1      50.618 123.137  23.560  1.00  0.00    -0.239 F 
ENDBRANCH  10  11
BRANCH  10  26
ATOM     26  N   UNL     1      46.795 125.705  24.602  1.00  0.00    -0.266 NA
ATOM     27  H   UNL     1      46.041 125.321  25.216  1.00  0.00     0.202 HD
ATOM     28  H   UNL     1      47.608 126.157  25.076  1.00  0.00     0.202 HD
ENDBRANCH  10  26
ENDBRANCH   1  10
TORSDOF 4
ENDMDL


