REMARK SMILES [O-]C(N[C@H]1Cc2ccccc2[C@H]1O)=C1CCCC1
REMARK SMILES IDX 4 1 5 2 6 3 7 4 8 5 9 6 10 7 11 8 12 9 3 10 2 12 1 13 14 14
REMARK SMILES IDX 15 15 18 16 16 17 17 18 13 19
REMARK H PARENT 3 11 13 20
ROOT
ATOM      1  C   UNL     1       0.909   0.388   1.188  1.00  0.00     0.115 C 
ATOM      2  C   UNL     1       1.792  -0.834   1.534  1.00  0.00     0.063 C 
ATOM      3  C   UNL     1       2.970  -0.684   0.650  1.00  0.00    -0.040 A 
ATOM      4  C   UNL     1       4.017  -1.596   0.493  1.00  0.00     0.004 A 
ATOM      5  C   UNL     1       5.075  -1.267  -0.367  1.00  0.00     0.000 A 
ATOM      6  C   UNL     1       5.078  -0.035  -1.046  1.00  0.00     0.000 A 
ATOM      7  C   UNL     1       4.021   0.870  -0.867  1.00  0.00     0.007 A 
ATOM      8  C   UNL     1       2.969   0.517  -0.016  1.00  0.00    -0.014 A 
ATOM      9  C   UNL     1       1.788   1.343   0.329  1.00  0.00     0.167 C 
ENDROOT
BRANCH   1  10
ATOM     10  N   UNL     1      -0.284  -0.046   0.451  1.00  0.00    -0.391 N 
ATOM     11  H   UNL     1      -0.146  -0.730  -0.327  1.00  0.00     0.159 HD
BRANCH  10  12
ATOM     12  C   UNL     1      -1.561   0.596   0.621  1.00  0.00    -0.046 C 
ATOM     13  O   UNL     1      -1.683   1.648   1.524  1.00  0.00    -0.860 OA
BRANCH  12  14
ATOM     14  C   UNL     1      -2.640   0.205  -0.078  1.00  0.00    -0.062 C 
ATOM     15  C   UNL     1      -2.657  -0.914  -1.063  1.00  0.00     0.032 C 
ATOM     16  C   UNL     1      -3.972   0.858   0.054  1.00  0.00     0.032 C 
ATOM     17  C   UNL     1      -4.125  -1.073  -1.439  1.00  0.00     0.005 C 
ATOM     18  C   UNL     1      -4.820   0.229  -1.045  1.00  0.00     0.005 C 
ENDBRANCH  12  14
ENDBRANCH  10  12
ENDBRANCH   1  10
BRANCH   9  19
ATOM     19  O   UNL     1       1.138   1.771  -0.840  1.00  0.00    -0.386 OA
ATOM     20  H   UNL     1       0.508   2.486  -0.562  1.00  0.00     0.211 HD
ENDBRANCH   9  19
TORSDOF 4


