REMARK SMILES C=Cc1cccc([C@H]2C=C[C@@H]3C(=C2)C(=O)NC[C@@H]3/N=c2\[n-]cc(F)cc2N)c1
REMARK SMILES IDX 8 1 9 2 10 3 11 4 12 5 13 6 14 7 15 8 16 9 17 11 18 12 7 13
REMARK SMILES IDX 3 14 4 15 28 16 5 17 6 18 2 19 1 20 19 21 20 22 21 23 26 24
REMARK SMILES IDX 22 25 25 26 23 27 24 28 27 29
REMARK H PARENT 16 10 27 30 27 31
ROOT
ATOM      1  C   UNL     1       2.482   0.317   0.201  1.00  0.00     0.065 C 
ATOM      2  C   UNL     1       1.736   1.548  -0.254  1.00  0.00    -0.018 C 
ATOM      3  C   UNL     1       0.891   2.213   0.542  1.00  0.00    -0.022 C 
ATOM      4  C   UNL     1       0.641   1.807   1.975  1.00  0.00     0.051 C 
ATOM      5  C   UNL     1       1.110   0.401   2.296  1.00  0.00     0.021 C 
ATOM      6  C   UNL     1       1.963  -0.257   1.496  1.00  0.00    -0.005 C 
ATOM      7  C   UNL     1       0.602  -0.216   3.543  1.00  0.00     0.247 C 
ATOM      8  O   UNL     1       1.091  -1.295   3.977  1.00  0.00    -0.270 OA
ATOM      9  N   UNL     1      -0.482   0.401   4.249  1.00  0.00    -0.352 N 
ATOM     10  H   UNL     1      -0.820  -0.034   5.137  1.00  0.00     0.163 HD
ATOM     11  C   UNL     1      -1.022   1.706   3.862  1.00  0.00     0.119 C 
ATOM     12  C   UNL     1      -0.851   1.964   2.355  1.00  0.00     0.021 C 
ENDROOT
BRANCH   1  13
ATOM     13  C   UNL     1       2.421  -0.742  -0.878  1.00  0.00    -0.037 A 
ATOM     14  C   UNL     1       1.118  -2.233  -2.318  1.00  0.00    -0.026 A 
ATOM     15  C   UNL     1       2.315  -2.753  -2.834  1.00  0.00     0.008 A 
ATOM     16  C   UNL     1       1.180  -1.236  -1.324  1.00  0.00     0.012 A 
ATOM     17  C   UNL     1       3.548  -2.269  -2.392  1.00  0.00     0.001 A 
ATOM     18  C   UNL     1       3.604  -1.268  -1.421  1.00  0.00     0.005 A 
BRANCH  14  19
ATOM     19  C   UNL     1      -0.167  -2.781  -2.813  1.00  0.00     0.000 C 
ATOM     20  C   UNL     1      -1.327  -2.128  -2.740  1.00  0.00     0.009 C 
ENDBRANCH  14  19
ENDBRANCH   1  13
BRANCH  12  21
ATOM     21  N   UNL     1      -1.682   1.009   1.611  1.00  0.00    -0.458 NA
BRANCH  21  22
ATOM     22  C   UNL     1      -2.259   1.224   0.464  1.00  0.00    -0.038 A 
ATOM     23  N   UNL     1      -2.160   2.440  -0.146  1.00  0.00    -0.439 NA
ATOM     24  C   UNL     1      -3.001   0.197  -0.154  1.00  0.00     0.033 A 
ATOM     25  C   UNL     1      -2.752   2.701  -1.340  1.00  0.00     0.018 A 
ATOM     26  C   UNL     1      -3.622   0.457  -1.383  1.00  0.00     0.064 A 
ATOM     27  C   UNL     1      -3.496   1.710  -1.981  1.00  0.00     0.121 A 
ATOM     28  F   UNL     1      -4.089   1.963  -3.174  1.00  0.00    -0.207 F 
BRANCH  24  29
ATOM     29  N   UNL     1      -3.116  -1.102   0.441  1.00  0.00    -0.399 N 
ATOM     30  H   UNL     1      -2.654  -1.330   1.349  1.00  0.00     0.156 HD
ATOM     31  H   UNL     1      -3.660  -1.857  -0.034  1.00  0.00     0.156 HD
ENDBRANCH  24  29
ENDBRANCH  21  22
ENDBRANCH  12  21
TORSDOF 5


