MODEL 1
REMARK VINA RESULT:     -10.1      0.000      0.000
REMARK SMILES Cc1[nH]nc2cc(-c3ccc([O-])cc3)ccc12
REMARK SMILES IDX 1 1 2 2 3 3 4 4 5 5 6 6 7 7 15 8 16 9 17 10 8 12 9 13 14 14
REMARK SMILES IDX 10 15 13 16 11 17 12 18
REMARK H PARENT 3 11
ROOT
ATOM      1  C   UNL     1      43.503 131.457  23.251  1.00  0.00     0.067 C 
ATOM      2  C   UNL     1      43.215 131.722  21.808  1.00  0.00     0.040 A 
ATOM      3  N   UNL     1      42.125 132.374  21.344  1.00  0.00    -0.282 N 
ATOM      4  N   UNL     1      42.196 132.495  20.022  1.00  0.00    -0.175 NA
ATOM      5  C   UNL     1      43.353 131.919  19.645  1.00  0.00     0.093 A 
ATOM      6  C   UNL     1      43.868 131.809  18.357  1.00  0.00     0.039 A 
ATOM      7  C   UNL     1      45.120 131.167  18.191  1.00  0.00    -0.016 A 
ATOM      8  C   UNL     1      45.805 130.666  19.334  1.00  0.00     0.009 A 
ATOM      9  C   UNL     1      45.254 130.797  20.621  1.00  0.00     0.013 A 
ATOM     10  C   UNL     1      44.020 131.429  20.732  1.00  0.00     0.023 A 
ATOM     11  H   UNL     1      41.335 132.742  21.921  1.00  0.00     0.190 HD
ENDROOT
BRANCH   7  12
ATOM     12  C   UNL     1      45.713 131.023  16.837  1.00  0.00    -0.018 A 
ATOM     13  C   UNL     1      46.212 129.780  16.403  1.00  0.00     0.008 A 
ATOM     14  C   UNL     1      45.786 132.127  15.966  1.00  0.00     0.008 A 
ATOM     15  C   UNL     1      46.770 129.647  15.128  1.00  0.00    -0.008 A 
ATOM     16  C   UNL     1      46.345 131.988  14.692  1.00  0.00    -0.008 A 
ATOM     17  C   UNL     1      46.837 130.750  14.272  1.00  0.00    -0.109 A 
ATOM     18  O   UNL     1      47.391 130.615  13.006  1.00  0.00    -0.872 OA
ENDBRANCH   7  12
TORSDOF 1
ENDMDL
MODEL 2
REMARK VINA RESULT:     -10.1      0.209      1.193
REMARK SMILES Cc1[nH]nc2cc(-c3ccc([O-])cc3)ccc12
REMARK SMILES IDX 1 1 2 2 3 3 4 4 5 5 6 6 7 7 15 8 16 9 17 10 8 12 9 13 14 14
REMARK SMILES IDX 10 15 13 16 11 17 12 18
REMARK H PARENT 3 11
ROOT
ATOM      1  C   UNL     1      43.396 131.645  23.391  1.00  0.00     0.067 C 
ATOM      2  C   UNL     1      43.092 131.834  21.940  1.00  0.00     0.040 A 
ATOM      3  N   UNL     1      41.974 132.420  21.454  1.00  0.00    -0.282 N 
ATOM      4  N   UNL     1      42.035 132.484  20.127  1.00  0.00    -0.175 NA
ATOM      5  C   UNL     1      43.213 131.940  19.770  1.00  0.00     0.093 A 
ATOM      6  C   UNL     1      43.726 131.793  18.485  1.00  0.00     0.039 A 
ATOM      7  C   UNL     1      45.003 131.196  18.339  1.00  0.00    -0.016 A 
ATOM      8  C   UNL     1      45.712 130.774  19.500  1.00  0.00     0.009 A 
ATOM      9  C   UNL     1      45.162 130.940  20.783  1.00  0.00     0.013 A 
ATOM     10  C   UNL     1      43.904 131.526  20.873  1.00  0.00     0.023 A 
ATOM     11  H   UNL     1      41.172 132.781  22.018  1.00  0.00     0.190 HD
ENDROOT
BRANCH   7  12
ATOM     12  C   UNL     1      45.596 131.015  16.990  1.00  0.00    -0.018 A 
ATOM     13  C   UNL     1      45.688 132.099  16.097  1.00  0.00     0.008 A 
ATOM     14  C   UNL     1      46.076 129.755  16.582  1.00  0.00     0.008 A 
ATOM     15  C   UNL     1      46.246 131.926  14.827  1.00  0.00    -0.008 A 
ATOM     16  C   UNL     1      46.633 129.588  15.311  1.00  0.00    -0.008 A 
ATOM     17  C   UNL     1      46.718 130.671  14.434  1.00  0.00    -0.109 A 
ATOM     18  O   UNL     1      47.273 130.502  13.171  1.00  0.00    -0.872 OA
ENDBRANCH   7  12
TORSDOF 1
ENDMDL
MODEL 3
REMARK VINA RESULT:      -9.7      3.896      6.759
REMARK SMILES Cc1[nH]nc2cc(-c3ccc([O-])cc3)ccc12
REMARK SMILES IDX 1 1 2 2 3 3 4 4 5 5 6 6 7 7 15 8 16 9 17 10 8 12 9 13 14 14
REMARK SMILES IDX 10 15 13 16 11 17 12 18
REMARK H PARENT 3 11
ROOT
ATOM      1  C   UNL     1      47.622 131.199  12.641  1.00  0.00     0.067 C 
ATOM      2  C   UNL     1      47.214 130.427  13.854  1.00  0.00     0.040 A 
ATOM      3  N   UNL     1      47.505 129.125  14.077  1.00  0.00    -0.282 N 
ATOM      4  N   UNL     1      47.050 128.755  15.270  1.00  0.00    -0.175 NA
ATOM      5  C   UNL     1      46.471 129.841  15.814  1.00  0.00     0.093 A 
ATOM      6  C   UNL     1      45.862 129.944  17.061  1.00  0.00     0.039 A 
ATOM      7  C   UNL     1      45.323 131.199  17.439  1.00  0.00    -0.016 A 
ATOM      8  C   UNL     1      45.424 132.301  16.543  1.00  0.00     0.009 A 
ATOM      9  C   UNL     1      46.049 132.159  15.291  1.00  0.00     0.013 A 
ATOM     10  C   UNL     1      46.557 130.907  14.963  1.00  0.00     0.023 A 
ATOM     11  H   UNL     1      48.015 128.488  13.424  1.00  0.00     0.190 HD
ENDROOT
BRANCH   7  12
ATOM     12  C   UNL     1      44.662 131.362  18.758  1.00  0.00    -0.018 A 
ATOM     13  C   UNL     1      45.339 131.027  19.946  1.00  0.00     0.008 A 
ATOM     14  C   UNL     1      43.346 131.857  18.843  1.00  0.00     0.008 A 
ATOM     15  C   UNL     1      44.714 131.181  21.187  1.00  0.00    -0.008 A 
ATOM     16  C   UNL     1      42.725 132.009  20.087  1.00  0.00    -0.008 A 
ATOM     17  C   UNL     1      43.407 131.672  21.258  1.00  0.00    -0.109 A 
ATOM     18  O   UNL     1      42.789 131.825  22.492  1.00  0.00    -0.872 OA
ENDBRANCH   7  12
TORSDOF 1
ENDMDL
MODEL 4
REMARK VINA RESULT:      -9.6      3.907      6.829
REMARK SMILES Cc1[nH]nc2cc(-c3ccc([O-])cc3)ccc12
REMARK SMILES IDX 1 1 2 2 3 3 4 4 5 5 6 6 7 7 15 8 16 9 17 10 8 12 9 13 14 14
REMARK SMILES IDX 10 15 13 16 11 17 12 18
REMARK H PARENT 3 11
ROOT
ATOM      1  C   UNL     1      47.602 131.243  12.607  1.00  0.00     0.067 C 
ATOM      2  C   UNL     1      47.258 130.461  13.833  1.00  0.00     0.040 A 
ATOM      3  N   UNL     1      47.626 129.180  14.062  1.00  0.00    -0.282 N 
ATOM      4  N   UNL     1      47.213 128.796  15.266  1.00  0.00    -0.175 NA
ATOM      5  C   UNL     1      46.582 129.853  15.811  1.00  0.00     0.093 A 
ATOM      6  C   UNL     1      45.988 129.933  17.067  1.00  0.00     0.039 A 
ATOM      7  C   UNL     1      45.385 131.159  17.443  1.00  0.00    -0.016 A 
ATOM      8  C   UNL     1      45.409 132.256  16.535  1.00  0.00     0.009 A 
ATOM      9  C   UNL     1      46.020 132.138  15.274  1.00  0.00     0.013 A 
ATOM     10  C   UNL     1      46.593 130.913  14.949  1.00  0.00     0.023 A 
ATOM     11  H   UNL     1      48.161 128.566  13.406  1.00  0.00     0.190 HD
ENDROOT
BRANCH   7  12
ATOM     12  C   UNL     1      44.737 131.297  18.771  1.00  0.00    -0.018 A 
ATOM     13  C   UNL     1      43.429 131.806  18.881  1.00  0.00     0.008 A 
ATOM     14  C   UNL     1      45.421 130.921  19.944  1.00  0.00     0.008 A 
ATOM     15  C   UNL     1      42.821 131.936  20.133  1.00  0.00    -0.008 A 
ATOM     16  C   UNL     1      44.809 131.053  21.194  1.00  0.00    -0.008 A 
ATOM     17  C   UNL     1      43.511 131.559  21.290  1.00  0.00    -0.109 A 
ATOM     18  O   UNL     1      42.904 131.689  22.533  1.00  0.00    -0.872 OA
ENDBRANCH   7  12
TORSDOF 1
ENDMDL
MODEL 5
REMARK VINA RESULT:      -9.1      1.240      1.777
REMARK SMILES Cc1[nH]nc2cc(-c3ccc([O-])cc3)ccc12
REMARK SMILES IDX 1 1 2 2 3 3 4 4 5 5 6 6 7 7 15 8 16 9 17 10 8 12 9 13 14 14
REMARK SMILES IDX 10 15 13 16 11 17 12 18
REMARK H PARENT 3 11
ROOT
ATOM      1  C   UNL     1      42.168 132.101  22.145  1.00  0.00     0.067 C 
ATOM      2  C   UNL     1      43.459 131.634  21.554  1.00  0.00     0.040 A 
ATOM      3  N   UNL     1      44.494 131.125  22.260  1.00  0.00    -0.282 N 
ATOM      4  N   UNL     1      45.467 130.751  21.436  1.00  0.00    -0.175 NA
ATOM      5  C   UNL     1      45.038 131.019  20.189  1.00  0.00     0.093 A 
ATOM      6  C   UNL     1      45.710 130.791  18.991  1.00  0.00     0.039 A 
ATOM      7  C   UNL     1      45.059 131.144  17.783  1.00  0.00    -0.016 A 
ATOM      8  C   UNL     1      43.754 131.709  17.832  1.00  0.00     0.009 A 
ATOM      9  C   UNL     1      43.105 131.923  19.062  1.00  0.00     0.013 A 
ATOM     10  C   UNL     1      43.787 131.567  20.220  1.00  0.00     0.023 A 
ATOM     11  H   UNL     1      44.540 131.025  23.300  1.00  0.00     0.190 HD
ENDROOT
BRANCH   7  12
ATOM     12  C   UNL     1      45.733 130.922  16.478  1.00  0.00    -0.018 A 
ATOM     13  C   UNL     1      46.091 129.623  16.068  1.00  0.00     0.008 A 
ATOM     14  C   UNL     1      46.024 132.007  15.629  1.00  0.00     0.008 A 
ATOM     15  C   UNL     1      46.725 129.417  14.840  1.00  0.00    -0.008 A 
ATOM     16  C   UNL     1      46.659 131.796  14.402  1.00  0.00    -0.008 A 
ATOM     17  C   UNL     1      47.009 130.503  14.006  1.00  0.00    -0.109 A 
ATOM     18  O   UNL     1      47.639 130.295  12.785  1.00  0.00    -0.872 OA
ENDBRANCH   7  12
TORSDOF 1
ENDMDL
MODEL 6
REMARK VINA RESULT:      -9.0      1.301      2.163
REMARK SMILES Cc1[nH]nc2cc(-c3ccc([O-])cc3)ccc12
REMARK SMILES IDX 1 1 2 2 3 3 4 4 5 5 6 6 7 7 15 8 16 9 17 10 8 12 9 13 14 14
REMARK SMILES IDX 10 15 13 16 11 17 12 18
REMARK H PARENT 3 11
ROOT
ATOM      1  C   UNL     1      42.338 131.970  22.182  1.00  0.00     0.067 C 
ATOM      2  C   UNL     1      43.581 131.415  21.563  1.00  0.00     0.040 A 
ATOM      3  N   UNL     1      44.540 130.734  22.231  1.00  0.00    -0.282 N 
ATOM      4  N   UNL     1      45.482 130.328  21.385  1.00  0.00    -0.175 NA
ATOM      5  C   UNL     1      45.108 130.751  20.163  1.00  0.00     0.093 A 
ATOM      6  C   UNL     1      45.773 130.555  18.956  1.00  0.00     0.039 A 
ATOM      7  C   UNL     1      45.188 131.083  17.778  1.00  0.00    -0.016 A 
ATOM      8  C   UNL     1      43.952 131.783  17.866  1.00  0.00     0.009 A 
ATOM      9  C   UNL     1      43.308 131.960  19.103  1.00  0.00     0.013 A 
ATOM     10  C   UNL     1      43.924 131.429  20.231  1.00  0.00     0.023 A 
ATOM     11  H   UNL     1      44.555 130.539  23.257  1.00  0.00     0.190 HD
ENDROOT
BRANCH   7  12
ATOM     12  C   UNL     1      45.858 130.903  16.465  1.00  0.00    -0.018 A 
ATOM     13  C   UNL     1      45.999 131.987  15.578  1.00  0.00     0.008 A 
ATOM     14  C   UNL     1      46.363 129.644  16.085  1.00  0.00     0.008 A 
ATOM     15  C   UNL     1      46.630 131.815  14.343  1.00  0.00    -0.008 A 
ATOM     16  C   UNL     1      46.992 129.477  14.848  1.00  0.00    -0.008 A 
ATOM     17  C   UNL     1      47.126 130.560  13.977  1.00  0.00    -0.109 A 
ATOM     18  O   UNL     1      47.753 130.392  12.748  1.00  0.00    -0.872 OA
ENDBRANCH   7  12
TORSDOF 1
ENDMDL
MODEL 7
REMARK VINA RESULT:      -8.9      3.658      6.488
REMARK SMILES Cc1[nH]nc2cc(-c3ccc([O-])cc3)ccc12
REMARK SMILES IDX 1 1 2 2 3 3 4 4 5 5 6 6 7 7 15 8 16 9 17 10 8 12 9 13 14 14
REMARK SMILES IDX 10 15 13 16 11 17 12 18
REMARK H PARENT 3 11
ROOT
ATOM      1  C   UNL     1      46.817 130.171  13.781  1.00  0.00     0.067 C 
ATOM      2  C   UNL     1      45.678 130.779  14.533  1.00  0.00     0.040 A 
ATOM      3  N   UNL     1      44.580 131.328  13.965  1.00  0.00    -0.282 N 
ATOM      4  N   UNL     1      43.730 131.725  14.907  1.00  0.00    -0.175 NA
ATOM      5  C   UNL     1      44.295 131.416  16.089  1.00  0.00     0.093 A 
ATOM      6  C   UNL     1      43.775 131.632  17.362  1.00  0.00     0.039 A 
ATOM      7  C   UNL     1      44.543 131.213  18.477  1.00  0.00    -0.016 A 
ATOM      8  C   UNL     1      45.804 130.589  18.261  1.00  0.00     0.009 A 
ATOM      9  C   UNL     1      46.297 130.386  16.959  1.00  0.00     0.013 A 
ATOM     10  C   UNL     1      45.510 130.820  15.898  1.00  0.00     0.023 A 
ATOM     11  H   UNL     1      44.402 131.428  12.940  1.00  0.00     0.190 HD
ENDROOT
BRANCH   7  12
ATOM     12  C   UNL     1      44.034 131.420  19.856  1.00  0.00    -0.018 A 
ATOM     13  C   UNL     1      44.777 130.981  20.968  1.00  0.00     0.008 A 
ATOM     14  C   UNL     1      42.799 132.062  20.074  1.00  0.00     0.008 A 
ATOM     15  C   UNL     1      44.296 131.177  22.265  1.00  0.00    -0.008 A 
ATOM     16  C   UNL     1      42.322 132.255  21.374  1.00  0.00    -0.008 A 
ATOM     17  C   UNL     1      43.068 131.814  22.469  1.00  0.00    -0.109 A 
ATOM     18  O   UNL     1      42.592 132.009  23.760  1.00  0.00    -0.872 OA
ENDBRANCH   7  12
TORSDOF 1
ENDMDL
MODEL 8
REMARK VINA RESULT:      -8.8      3.648      6.558
REMARK SMILES Cc1[nH]nc2cc(-c3ccc([O-])cc3)ccc12
REMARK SMILES IDX 1 1 2 2 3 3 4 4 5 5 6 6 7 7 15 8 16 9 17 10 8 12 9 13 14 14
REMARK SMILES IDX 10 15 13 16 11 17 12 18
REMARK H PARENT 3 11
ROOT
ATOM      1  C   UNL     1      46.669 130.339  13.765  1.00  0.00     0.067 C 
ATOM      2  C   UNL     1      45.521 130.884  14.551  1.00  0.00     0.040 A 
ATOM      3  N   UNL     1      44.381 131.375  14.016  1.00  0.00    -0.282 N 
ATOM      4  N   UNL     1      43.538 131.726  14.983  1.00  0.00    -0.175 NA
ATOM      5  C   UNL     1      44.152 131.444  16.147  1.00  0.00     0.093 A 
ATOM      6  C   UNL     1      43.658 131.629  17.435  1.00  0.00     0.039 A 
ATOM      7  C   UNL     1      44.478 131.248  18.526  1.00  0.00    -0.016 A 
ATOM      8  C   UNL     1      45.763 130.692  18.273  1.00  0.00     0.009 A 
ATOM      9  C   UNL     1      46.229 130.518  16.957  1.00  0.00     0.013 A 
ATOM     10  C   UNL     1      45.390 130.912  15.920  1.00  0.00     0.023 A 
ATOM     11  H   UNL     1      44.169 131.469  12.997  1.00  0.00     0.190 HD
ENDROOT
BRANCH   7  12
ATOM     12  C   UNL     1      43.998 131.426  19.920  1.00  0.00    -0.018 A 
ATOM     13  C   UNL     1      42.792 132.103  20.182  1.00  0.00     0.008 A 
ATOM     14  C   UNL     1      44.742 130.918  21.003  1.00  0.00     0.008 A 
ATOM     15  C   UNL     1      42.343 132.269  21.495  1.00  0.00    -0.008 A 
ATOM     16  C   UNL     1      44.288 131.087  22.315  1.00  0.00    -0.008 A 
ATOM     17  C   UNL     1      43.090 131.761  22.562  1.00  0.00    -0.109 A 
ATOM     18  O   UNL     1      42.641 131.927  23.866  1.00  0.00    -0.872 OA
ENDBRANCH   7  12
TORSDOF 1
ENDMDL
MODEL 9
REMARK VINA RESULT:      -8.6      1.264      2.233
REMARK SMILES Cc1[nH]nc2cc(-c3ccc([O-])cc3)ccc12
REMARK SMILES IDX 1 1 2 2 3 3 4 4 5 5 6 6 7 7 15 8 16 9 17 10 8 12 9 13 14 14
REMARK SMILES IDX 10 15 13 16 11 17 12 18
REMARK H PARENT 3 11
ROOT
ATOM      1  C   UNL     1      41.257 132.749  21.029  1.00  0.00     0.067 C 
ATOM      2  C   UNL     1      42.627 132.250  20.702  1.00  0.00     0.040 A 
ATOM      3  N   UNL     1      43.558 131.890  21.615  1.00  0.00    -0.282 N 
ATOM      4  N   UNL     1      44.646 131.437  21.000  1.00  0.00    -0.175 NA
ATOM      5  C   UNL     1      44.397 131.501  19.679  1.00  0.00     0.093 A 
ATOM      6  C   UNL     1      45.238 131.125  18.636  1.00  0.00     0.039 A 
ATOM      7  C   UNL     1      44.762 131.270  17.309  1.00  0.00    -0.016 A 
ATOM      8  C   UNL     1      43.453 131.786  17.089  1.00  0.00     0.009 A 
ATOM      9  C   UNL     1      42.631 132.155  18.169  1.00  0.00     0.013 A 
ATOM     10  C   UNL     1      43.145 131.999  19.452  1.00  0.00     0.023 A 
ATOM     11  H   UNL     1      43.456 131.947  22.653  1.00  0.00     0.190 HD
ENDROOT
BRANCH   7  12
ATOM     12  C   UNL     1      45.619 130.885  16.160  1.00  0.00    -0.018 A 
ATOM     13  C   UNL     1      46.140 131.865  15.294  1.00  0.00     0.008 A 
ATOM     14  C   UNL     1      45.927 129.531  15.919  1.00  0.00     0.008 A 
ATOM     15  C   UNL     1      46.947 131.499  14.213  1.00  0.00    -0.008 A 
ATOM     16  C   UNL     1      46.734 129.171  14.836  1.00  0.00    -0.008 A 
ATOM     17  C   UNL     1      47.244 130.152  13.983  1.00  0.00    -0.109 A 
ATOM     18  O   UNL     1      48.047 129.792  12.908  1.00  0.00    -0.872 OA
ENDBRANCH   7  12
TORSDOF 1
ENDMDL


