REMARK SMILES CC(=O)c1ccc(/C(O)=N/[C@@H]2C=CCC2)c(F)c1[O-]
REMARK SMILES IDX 7 1 6 2 5 3 4 4 18 5 19 6 16 7 17 8 8 9 9 10 10 12 11 13
REMARK SMILES IDX 12 14 15 15 13 16 14 17 2 18 3 19 1 20
REMARK H PARENT 9 11
ROOT
ATOM      1  C   UNL     1       0.684  -0.514  -0.194  1.00  0.00     0.071 A 
ATOM      2  C   UNL     1       1.681  -1.251  -0.854  1.00  0.00     0.017 A 
ATOM      3  C   UNL     1       3.021  -0.870  -0.781  1.00  0.00     0.012 A 
ATOM      4  C   UNL     1       3.412   0.264  -0.045  1.00  0.00     0.012 A 
ATOM      5  C   UNL     1       2.413   1.012   0.617  1.00  0.00    -0.060 A 
ATOM      6  O   UNL     1       2.740   2.152   1.345  1.00  0.00    -0.870 OA
ATOM      7  C   UNL     1       1.067   0.626   0.545  1.00  0.00     0.128 A 
ATOM      8  F   UNL     1       0.145   1.380   1.197  1.00  0.00    -0.207 F 
ENDROOT
BRANCH   1   9
ATOM      9  C   UNL     1      -0.734  -0.952  -0.293  1.00  0.00     0.217 C 
BRANCH   9  10
ATOM     10  O   UNL     1      -1.040  -2.075  -1.071  1.00  0.00    -0.493 OA
ATOM     11  H   UNL     1      -1.976  -2.444  -1.177  1.00  0.00     0.295 HD
ENDBRANCH   9  10
BRANCH   9  12
ATOM     12  N   UNL     1      -1.665  -0.295   0.340  1.00  0.00    -0.244 NA
BRANCH  12  13
ATOM     13  C   UNL     1      -3.097  -0.593   0.331  1.00  0.00     0.132 C 
ATOM     14  C   UNL     1      -3.705  -0.177  -0.966  1.00  0.00    -0.005 C 
ATOM     15  C   UNL     1      -3.823   0.272   1.374  1.00  0.00     0.036 C 
ATOM     16  C   UNL     1      -4.554   0.826  -0.826  1.00  0.00    -0.029 C 
ATOM     17  C   UNL     1      -4.676   1.270   0.585  1.00  0.00     0.029 C 
ENDBRANCH  12  13
ENDBRANCH   9  12
ENDBRANCH   1   9
BRANCH   4  18
ATOM     18  C   UNL     1       4.849   0.654   0.029  1.00  0.00     0.159 C 
ATOM     19  O   UNL     1       5.240   1.465   0.912  1.00  0.00    -0.295 OA
ATOM     20  C   UNL     1       5.872   0.082  -0.907  1.00  0.00     0.093 C 
ENDBRANCH   4  18
TORSDOF 5


