REMARK SMILES Cc1ccc2ccc([C@H]3CCCN(c4ccc(F)c(F)n4)[C@H]3F)nc2c1F
REMARK SMILES IDX 9 1 10 2 11 3 12 4 13 5 22 6 23 7 8 8 2 9 3 10 26 11 4 12
REMARK SMILES IDX 25 13 5 14 24 15 6 16 7 17 1 18 27 19 14 20 15 21 21 22
REMARK SMILES IDX 16 23 19 24 17 25 20 26 18 27
REMARK H PARENT
ROOT
ATOM      1  C   UNL     1      -1.267   0.754   0.298  1.00  0.00     0.093 C 
ATOM      2  C   UNL     1      -2.291   1.540   1.138  1.00  0.00     0.017 C 
ATOM      3  C   UNL     1      -2.108   3.046   0.925  1.00  0.00     0.022 C 
ATOM      4  C   UNL     1      -0.678   3.475   1.268  1.00  0.00     0.121 C 
ATOM      5  N   UNL     1       0.297   2.648   0.540  1.00  0.00    -0.326 N 
ATOM      6  C   UNL     1       0.175   1.185   0.632  1.00  0.00     0.273 C 
ATOM      7  F   UNL     1       0.534   0.779   1.906  1.00  0.00    -0.223 F 
ENDROOT
BRANCH   1   8
ATOM      8  C   UNL     1      -1.451  -0.744   0.420  1.00  0.00     0.049 A 
ATOM      9  C   UNL     1      -2.016  -4.948  -1.863  1.00  0.00    -0.013 A 
ATOM     10  C   UNL     1      -2.054  -5.617  -0.628  1.00  0.00     0.007 A 
ATOM     11  C   UNL     1      -1.865  -3.550  -1.889  1.00  0.00     0.152 A 
ATOM     12  C   UNL     1      -1.921  -4.907   0.568  1.00  0.00     0.011 A 
ATOM     13  C   UNL     1      -1.733  -2.834  -0.692  1.00  0.00     0.106 A 
ATOM     14  C   UNL     1      -1.759  -3.515   0.543  1.00  0.00     0.003 A 
ATOM     15  N   UNL     1      -1.580  -1.483  -0.716  1.00  0.00    -0.249 NA
ATOM     16  C   UNL     1      -1.623  -2.779   1.725  1.00  0.00     0.012 A 
ATOM     17  C   UNL     1      -1.466  -1.393   1.668  1.00  0.00     0.025 A 
ATOM     18  C   UNL     1      -2.182  -5.712  -3.144  1.00  0.00     0.047 C 
ATOM     19  F   UNL     1      -1.848  -2.887  -3.075  1.00  0.00    -0.204 F 
ENDBRANCH   1   8
BRANCH   5  20
ATOM     20  C   UNL     1       1.472   3.265  -0.025  1.00  0.00     0.134 A 
ATOM     21  C   UNL     1       2.738   2.660   0.081  1.00  0.00     0.050 A 
ATOM     22  N   UNL     1       1.361   4.465  -0.663  1.00  0.00    -0.200 NA
ATOM     23  C   UNL     1       3.851   3.292  -0.479  1.00  0.00     0.048 A 
ATOM     24  C   UNL     1       2.433   5.095  -1.213  1.00  0.00     0.250 A 
ATOM     25  C   UNL     1       3.701   4.515  -1.132  1.00  0.00     0.178 A 
ATOM     26  F   UNL     1       2.266   6.286  -1.838  1.00  0.00    -0.182 F 
ATOM     27  F   UNL     1       4.777   5.136  -1.676  1.00  0.00    -0.202 F 
ENDBRANCH   5  20
TORSDOF 2


