MODEL 1
REMARK VINA RESULT:      -3.2      0.000      0.000
REMARK SMILES CC(C)(C)c1cccc(NC(=O)/N=C(\O)c2ccc(-c3cc(F)cc(F)c3O)cc2)c1
REMARK SMILES IDX 14 1 15 2 13 4 11 5 10 6 12 7 9 9 8 10 31 11 7 12 5 13 6 14
REMARK SMILES IDX 2 15 1 16 3 17 4 18 16 19 17 20 30 21 18 22 29 23 19 24
REMARK SMILES IDX 20 25 21 26 27 27 22 28 25 29 24 30 23 31 26 32 28 33
REMARK H PARENT 15 3 10 8 28 34
ROOT
ATOM      1  C   UNL     1      42.667 132.292  18.136  1.00  0.00     0.223 C 
ENDROOT
BRANCH   1   2
ATOM      2  O   UNL     1      41.398 132.657  17.674  1.00  0.00    -0.493 OA
ATOM      3  H   UNL     1      40.624 132.010  17.603  1.00  0.00     0.295 HD
ENDBRANCH   1   2
BRANCH   1   4
ATOM      4  N   UNL     1      42.975 132.346  19.402  1.00  0.00    -0.157 NA
BRANCH   4   5
ATOM      5  C   UNL     1      42.690 131.352  20.395  1.00  0.00     0.348 C 
ATOM      6  N   UNL     1      43.370 131.362  21.660  1.00  0.00    -0.306 N 
ATOM      7  O   UNL     1      41.744 130.545  20.191  1.00  0.00    -0.246 OA
ATOM      8  H   UNL     1      43.824 132.255  21.957  1.00  0.00     0.171 HD
BRANCH   6   9
ATOM      9  C   UNL     1      43.365 130.260  22.585  1.00  0.00     0.043 A 
ATOM     10  C   UNL     1      42.546 130.270  23.723  1.00  0.00     0.026 A 
ATOM     11  C   UNL     1      44.150 129.129  22.311  1.00  0.00     0.030 A 
ATOM     12  C   UNL     1      42.540 129.181  24.591  1.00  0.00     0.002 A 
ATOM     13  C   UNL     1      44.159 128.012  23.182  1.00  0.00    -0.041 A 
ATOM     14  C   UNL     1      43.338 128.067  24.330  1.00  0.00     0.004 A 
BRANCH  13  15
ATOM     15  C   UNL     1      45.019 126.757  22.922  1.00  0.00    -0.013 C 
ATOM     16  C   UNL     1      46.111 126.979  21.848  1.00  0.00     0.016 C 
ATOM     17  C   UNL     1      45.726 126.337  24.230  1.00  0.00     0.016 C 
ATOM     18  C   UNL     1      44.113 125.604  22.438  1.00  0.00     0.016 C 
ENDBRANCH  13  15
ENDBRANCH   6   9
ENDBRANCH   4   5
ENDBRANCH   1   4
BRANCH   1  19
ATOM     19  C   UNL     1      43.692 131.871  17.150  1.00  0.00     0.037 A 
ATOM     20  C   UNL     1      44.985 131.492  17.563  1.00  0.00     0.014 A 
ATOM     21  C   UNL     1      43.386 131.845  15.777  1.00  0.00     0.014 A 
ATOM     22  C   UNL     1      45.943 131.096  16.625  1.00  0.00     0.010 A 
ATOM     23  C   UNL     1      44.345 131.448  14.841  1.00  0.00     0.010 A 
ATOM     24  C   UNL     1      45.626 131.060  15.259  1.00  0.00    -0.014 A 
BRANCH  24  25
ATOM     25  C   UNL     1      46.646 130.664  14.263  1.00  0.00     0.029 A 
ATOM     26  C   UNL     1      46.588 131.223  12.974  1.00  0.00     0.052 A 
ATOM     27  C   UNL     1      47.687 129.757  14.578  1.00  0.00     0.159 A 
ATOM     28  C   UNL     1      47.560 130.908  12.021  1.00  0.00     0.127 A 
ATOM     29  C   UNL     1      48.662 129.461  13.615  1.00  0.00     0.168 A 
ATOM     30  C   UNL     1      48.598 130.034  12.343  1.00  0.00     0.082 A 
ATOM     31  F   UNL     1      47.499 131.460  10.784  1.00  0.00    -0.207 F 
ATOM     32  F   UNL     1      49.667 128.598  13.910  1.00  0.00    -0.203 F 
BRANCH  27  33
ATOM     33  O   UNL     1      47.764 129.119  15.818  1.00  0.00    -0.504 OA
ATOM     34  H   UNL     1      48.623 128.731  16.186  1.00  0.00     0.293 HD
ENDBRANCH  27  33
ENDBRANCH  24  25
ENDBRANCH   1  19
TORSDOF 8
ENDMDL
MODEL 2
REMARK VINA RESULT:      -3.2      6.066      7.321
REMARK SMILES CC(C)(C)c1cccc(NC(=O)/N=C(\O)c2ccc(-c3cc(F)cc(F)c3O)cc2)c1
REMARK SMILES IDX 14 1 15 2 13 4 11 5 10 6 12 7 9 9 8 10 31 11 7 12 5 13 6 14
REMARK SMILES IDX 2 15 1 16 3 17 4 18 16 19 17 20 30 21 18 22 29 23 19 24
REMARK SMILES IDX 20 25 21 26 27 27 22 28 25 29 24 30 23 31 26 32 28 33
REMARK H PARENT 15 3 10 8 28 34
ROOT
ATOM      1  C   UNL     1      45.367 132.241  22.913  1.00  0.00     0.223 C 
ENDROOT
BRANCH   1   2
ATOM      2  O   UNL     1      44.704 131.407  23.820  1.00  0.00    -0.493 OA
ATOM      3  H   UNL     1      44.995 130.460  24.019  1.00  0.00     0.295 HD
ENDBRANCH   1   2
BRANCH   1   4
ATOM      4  N   UNL     1      46.035 133.288  23.311  1.00  0.00    -0.157 NA
BRANCH   4   5
ATOM      5  C   UNL     1      47.435 133.532  23.119  1.00  0.00     0.348 C 
ATOM      6  N   UNL     1      48.390 133.169  24.128  1.00  0.00    -0.306 N 
ATOM      7  O   UNL     1      47.828 133.955  21.999  1.00  0.00    -0.246 OA
ATOM      8  H   UNL     1      48.095 132.460  24.838  1.00  0.00     0.171 HD
BRANCH   6   9
ATOM      9  C   UNL     1      49.752 133.630  24.150  1.00  0.00     0.043 A 
ATOM     10  C   UNL     1      50.789 132.813  24.623  1.00  0.00     0.026 A 
ATOM     11  C   UNL     1      50.057 134.899  23.634  1.00  0.00     0.030 A 
ATOM     12  C   UNL     1      52.103 133.272  24.613  1.00  0.00     0.002 A 
ATOM     13  C   UNL     1      51.387 135.385  23.615  1.00  0.00    -0.041 A 
ATOM     14  C   UNL     1      52.402 134.543  24.120  1.00  0.00     0.004 A 
BRANCH  13  15
ATOM     15  C   UNL     1      51.759 136.780  23.068  1.00  0.00    -0.013 C 
ATOM     16  C   UNL     1      53.286 137.008  22.971  1.00  0.00     0.016 C 
ATOM     17  C   UNL     1      51.169 136.951  21.650  1.00  0.00     0.016 C 
ATOM     18  C   UNL     1      51.179 137.868  23.998  1.00  0.00     0.016 C 
ENDBRANCH  13  15
ENDBRANCH   6   9
ENDBRANCH   4   5
ENDBRANCH   1   4
BRANCH   1  19
ATOM     19  C   UNL     1      45.268 131.942  21.464  1.00  0.00     0.037 A 
ATOM     20  C   UNL     1      45.361 130.619  20.987  1.00  0.00     0.014 A 
ATOM     21  C   UNL     1      45.078 132.984  20.537  1.00  0.00     0.014 A 
ATOM     22  C   UNL     1      45.265 130.349  19.619  1.00  0.00     0.010 A 
ATOM     23  C   UNL     1      44.982 132.711  19.170  1.00  0.00     0.010 A 
ATOM     24  C   UNL     1      45.063 131.392  18.702  1.00  0.00    -0.014 A 
BRANCH  24  25
ATOM     25  C   UNL     1      44.985 131.110  17.252  1.00  0.00     0.029 A 
ATOM     26  C   UNL     1      43.912 131.640  16.515  1.00  0.00     0.052 A 
ATOM     27  C   UNL     1      45.970 130.341  16.584  1.00  0.00     0.159 A 
ATOM     28  C   UNL     1      43.829 131.434  15.136  1.00  0.00     0.127 A 
ATOM     29  C   UNL     1      45.880 130.153  15.198  1.00  0.00     0.168 A 
ATOM     30  C   UNL     1      44.814 130.698  14.477  1.00  0.00     0.082 A 
ATOM     31  F   UNL     1      42.793 131.959  14.434  1.00  0.00    -0.207 F 
ATOM     32  F   UNL     1      46.822 129.424  14.549  1.00  0.00    -0.203 F 
BRANCH  27  33
ATOM     33  O   UNL     1      47.025 129.734  17.268  1.00  0.00    -0.504 OA
ATOM     34  H   UNL     1      46.895 129.188  18.110  1.00  0.00     0.293 HD
ENDBRANCH  27  33
ENDBRANCH  24  25
ENDBRANCH   1  19
TORSDOF 8
ENDMDL
MODEL 3
REMARK VINA RESULT:      -2.1      5.276      7.129
REMARK SMILES CC(C)(C)c1cccc(NC(=O)/N=C(\O)c2ccc(-c3cc(F)cc(F)c3O)cc2)c1
REMARK SMILES IDX 14 1 15 2 13 4 11 5 10 6 12 7 9 9 8 10 31 11 7 12 5 13 6 14
REMARK SMILES IDX 2 15 1 16 3 17 4 18 16 19 17 20 30 21 18 22 29 23 19 24
REMARK SMILES IDX 20 25 21 26 27 27 22 28 25 29 24 30 23 31 26 32 28 33
REMARK H PARENT 15 3 10 8 28 34
ROOT
ATOM      1  C   UNL     1      44.771 132.344  22.454  1.00  0.00     0.223 C 
ENDROOT
BRANCH   1   2
ATOM      2  O   UNL     1      43.509 132.401  23.054  1.00  0.00    -0.493 OA
ATOM      3  H   UNL     1      42.647 132.474  22.530  1.00  0.00     0.295 HD
ENDBRANCH   1   2
BRANCH   1   4
ATOM      4  N   UNL     1      45.856 132.637  23.115  1.00  0.00    -0.157 NA
BRANCH   4   5
ATOM      5  C   UNL     1      47.057 133.206  22.578  1.00  0.00     0.348 C 
ATOM      6  N   UNL     1      47.898 134.044  23.386  1.00  0.00    -0.306 N 
ATOM      7  O   UNL     1      47.431 132.858  21.426  1.00  0.00    -0.246 OA
ATOM      8  H   UNL     1      47.794 133.976  24.424  1.00  0.00     0.171 HD
BRANCH   6   9
ATOM      9  C   UNL     1      48.946 134.878  22.862  1.00  0.00     0.043 A 
ATOM     10  C   UNL     1      50.285 134.684  23.232  1.00  0.00     0.026 A 
ATOM     11  C   UNL     1      48.630 135.866  21.916  1.00  0.00     0.030 A 
ATOM     12  C   UNL     1      51.285 135.489  22.692  1.00  0.00     0.002 A 
ATOM     13  C   UNL     1      49.631 136.696  21.356  1.00  0.00    -0.041 A 
ATOM     14  C   UNL     1      50.966 136.486  21.769  1.00  0.00     0.004 A 
BRANCH  13  15
ATOM     15  C   UNL     1      49.321 137.801  20.324  1.00  0.00    -0.013 C 
ATOM     16  C   UNL     1      49.584 139.228  20.863  1.00  0.00     0.016 C 
ATOM     17  C   UNL     1      50.205 137.602  19.074  1.00  0.00     0.016 C 
ATOM     18  C   UNL     1      47.833 137.721  19.917  1.00  0.00     0.016 C 
ENDBRANCH  13  15
ENDBRANCH   6   9
ENDBRANCH   4   5
ENDBRANCH   1   4
BRANCH   1  19
ATOM     19  C   UNL     1      44.864 131.976  21.019  1.00  0.00     0.037 A 
ATOM     20  C   UNL     1      45.045 130.636  20.623  1.00  0.00     0.014 A 
ATOM     21  C   UNL     1      44.773 132.969  20.027  1.00  0.00     0.014 A 
ATOM     22  C   UNL     1      45.129 130.301  19.268  1.00  0.00     0.010 A 
ATOM     23  C   UNL     1      44.858 132.632  18.673  1.00  0.00     0.010 A 
ATOM     24  C   UNL     1      45.025 131.295  18.284  1.00  0.00    -0.014 A 
BRANCH  24  25
ATOM     25  C   UNL     1      45.138 130.945  16.851  1.00  0.00     0.029 A 
ATOM     26  C   UNL     1      44.101 131.318  15.978  1.00  0.00     0.052 A 
ATOM     27  C   UNL     1      46.269 130.268  16.332  1.00  0.00     0.159 A 
ATOM     28  C   UNL     1      44.194 131.046  14.611  1.00  0.00     0.127 A 
ATOM     29  C   UNL     1      46.353 130.013  14.956  1.00  0.00     0.168 A 
ATOM     30  C   UNL     1      45.320 130.401  14.100  1.00  0.00     0.082 A 
ATOM     31  F   UNL     1      43.190 131.418  13.777  1.00  0.00    -0.207 F 
ATOM     32  F   UNL     1      47.436 129.370  14.451  1.00  0.00    -0.203 F 
BRANCH  27  33
ATOM     33  O   UNL     1      47.303 129.815  17.155  1.00  0.00    -0.504 OA
ATOM     34  H   UNL     1      47.730 128.904  17.053  1.00  0.00     0.293 HD
ENDBRANCH  27  33
ENDBRANCH  24  25
ENDBRANCH   1  19
TORSDOF 8
ENDMDL


