MODEL 1
REMARK VINA RESULT:      -7.7      0.000      0.000
REMARK SMILES O=C1[N-]C[C@H](C(=O)[N@@H+]2CCC[C@@H](c3ccc4cc(F)ccc4n3)[C@H]2F)[N-]1
REMARK SMILES IDX 8 1 9 2 10 3 11 4 12 5 24 6 25 7 6 9 7 10 5 11 2 12 3 13
REMARK SMILES IDX 26 14 4 15 1 16 13 17 14 18 23 19 15 20 22 21 16 22 21 23
REMARK SMILES IDX 17 24 20 25 18 26 19 27
REMARK H PARENT 8 8
ROOT
ATOM      1  N   UNL     1      44.173 131.331  18.498  1.00  0.00    -0.244 N 
ATOM      2  C   UNL     1      42.833 131.844  18.145  1.00  0.00     0.272 C 
ATOM      3  C   UNL     1      41.883 131.762  19.343  1.00  0.00     0.063 C 
ATOM      4  C   UNL     1      42.434 132.579  20.512  1.00  0.00     0.025 C 
ATOM      5  C   UNL     1      43.872 132.164  20.873  1.00  0.00     0.132 C 
ATOM      6  C   UNL     1      44.775 132.111  19.610  1.00  0.00     0.383 C 
ATOM      7  F   UNL     1      46.014 131.590  19.952  1.00  0.00    -0.184 F 
ATOM      8  H   UNL     1      44.070 130.334  18.787  1.00  0.00     0.359 HD
ENDROOT
BRANCH   1   9
ATOM      9  C   UNL     1      45.025 131.366  17.321  1.00  0.00     0.298 C 
ATOM     10  O   UNL     1      45.624 132.392  17.025  1.00  0.00    -0.232 OA
BRANCH   9  11
ATOM     11  C   UNL     1      45.165 130.158  16.421  1.00  0.00     0.008 C 
ATOM     12  C   UNL     1      46.888 129.828  14.931  1.00  0.00    -0.039 C 
ATOM     13  N   UNL     1      45.812 130.203  14.101  1.00  0.00    -0.670 NA
ATOM     14  N   UNL     1      46.568 129.783  16.303  1.00  0.00    -0.657 NA
ATOM     15  C   UNL     1      44.667 130.426  14.973  1.00  0.00    -0.121 C 
ATOM     16  O   UNL     1      48.035 129.564  14.486  1.00  0.00    -0.341 OA
ENDBRANCH   9  11
ENDBRANCH   1   9
BRANCH   5  17
ATOM     17  C   UNL     1      43.888 130.893  21.704  1.00  0.00     0.053 A 
ATOM     18  C   UNL     1      42.931 130.705  22.717  1.00  0.00     0.025 A 
ATOM     19  N   UNL     1      44.781 129.898  21.441  1.00  0.00    -0.252 NA
ATOM     20  C   UNL     1      42.926 129.519  23.455  1.00  0.00     0.012 A 
ATOM     21  C   UNL     1      44.800 128.734  22.141  1.00  0.00     0.071 A 
ATOM     22  C   UNL     1      43.864 128.519  23.175  1.00  0.00     0.003 A 
ATOM     23  C   UNL     1      45.743 127.747  21.834  1.00  0.00     0.032 A 
ATOM     24  C   UNL     1      43.886 127.315  23.895  1.00  0.00     0.049 A 
ATOM     25  C   UNL     1      45.759 126.549  22.557  1.00  0.00     0.041 A 
ATOM     26  C   UNL     1      44.834 126.333  23.584  1.00  0.00     0.123 A 
ATOM     27  F   UNL     1      44.856 125.170  24.280  1.00  0.00    -0.207 F 
ENDBRANCH   5  17
TORSDOF 3
ENDMDL
MODEL 2
REMARK VINA RESULT:      -7.1      1.000      1.084
REMARK SMILES O=C1[N-]C[C@H](C(=O)[N@@H+]2CCC[C@@H](c3ccc4cc(F)ccc4n3)[C@H]2F)[N-]1
REMARK SMILES IDX 8 1 9 2 10 3 11 4 12 5 24 6 25 7 6 9 7 10 5 11 2 12 3 13
REMARK SMILES IDX 26 14 4 15 1 16 13 17 14 18 23 19 15 20 22 21 16 22 21 23
REMARK SMILES IDX 17 24 20 25 18 26 19 27
REMARK H PARENT 8 8
ROOT
ATOM      1  N   UNL     1      43.592 131.455  18.290  1.00  0.00    -0.244 N 
ATOM      2  C   UNL     1      42.268 132.103  18.184  1.00  0.00     0.272 C 
ATOM      3  C   UNL     1      41.571 132.148  19.546  1.00  0.00     0.063 C 
ATOM      4  C   UNL     1      42.423 132.923  20.552  1.00  0.00     0.025 C 
ATOM      5  C   UNL     1      43.854 132.363  20.642  1.00  0.00     0.132 C 
ATOM      6  C   UNL     1      44.479 132.188  19.231  1.00  0.00     0.383 C 
ATOM      7  F   UNL     1      45.701 131.543  19.346  1.00  0.00    -0.184 F 
ATOM      8  H   UNL     1      43.448 130.481  18.634  1.00  0.00     0.359 HD
ENDROOT
BRANCH   1   9
ATOM      9  C   UNL     1      44.193 131.375  16.969  1.00  0.00     0.298 C 
ATOM     10  O   UNL     1      43.492 131.440  15.967  1.00  0.00    -0.232 OA
BRANCH   9  11
ATOM     11  C   UNL     1      45.685 131.177  16.800  1.00  0.00     0.008 C 
ATOM     12  C   UNL     1      46.771 131.087  14.772  1.00  0.00    -0.039 C 
ATOM     13  N   UNL     1      46.733 129.737  15.178  1.00  0.00    -0.670 NA
ATOM     14  N   UNL     1      46.172 131.978  15.685  1.00  0.00    -0.657 NA
ATOM     15  C   UNL     1      46.061 129.706  16.470  1.00  0.00    -0.121 C 
ATOM     16  O   UNL     1      47.288 131.461  13.688  1.00  0.00    -0.341 OA
ENDBRANCH   9  11
ENDBRANCH   1   9
BRANCH   5  17
ATOM     17  C   UNL     1      43.905 131.114  21.505  1.00  0.00     0.053 A 
ATOM     18  C   UNL     1      42.997 130.958  22.567  1.00  0.00     0.025 A 
ATOM     19  N   UNL     1      44.780 130.108  21.227  1.00  0.00    -0.252 NA
ATOM     20  C   UNL     1      43.022 129.793  23.336  1.00  0.00     0.012 A 
ATOM     21  C   UNL     1      44.828 128.963  21.956  1.00  0.00     0.071 A 
ATOM     22  C   UNL     1      43.941 128.781  23.039  1.00  0.00     0.003 A 
ATOM     23  C   UNL     1      45.751 127.963  21.631  1.00  0.00     0.032 A 
ATOM     24  C   UNL     1      43.993 127.596  23.789  1.00  0.00     0.049 A 
ATOM     25  C   UNL     1      45.797 126.785  22.384  1.00  0.00     0.041 A 
ATOM     26  C   UNL     1      44.921 126.602  23.460  1.00  0.00     0.123 A 
ATOM     27  F   UNL     1      44.972 125.457  24.185  1.00  0.00    -0.207 F 
ENDBRANCH   5  17
TORSDOF 3
ENDMDL
MODEL 3
REMARK VINA RESULT:      -6.9      1.466      1.937
REMARK SMILES O=C1[N-]C[C@H](C(=O)[N@@H+]2CCC[C@@H](c3ccc4cc(F)ccc4n3)[C@H]2F)[N-]1
REMARK SMILES IDX 8 1 9 2 10 3 11 4 12 5 24 6 25 7 6 9 7 10 5 11 2 12 3 13
REMARK SMILES IDX 26 14 4 15 1 16 13 17 14 18 23 19 15 20 22 21 16 22 21 23
REMARK SMILES IDX 17 24 20 25 18 26 19 27
REMARK H PARENT 8 8
ROOT
ATOM      1  N   UNL     1      43.656 131.279  19.866  1.00  0.00    -0.244 N 
ATOM      2  C   UNL     1      42.691 132.300  20.325  1.00  0.00     0.272 C 
ATOM      3  C   UNL     1      42.294 132.060  21.784  1.00  0.00     0.063 C 
ATOM      4  C   UNL     1      43.530 132.108  22.683  1.00  0.00     0.025 C 
ATOM      5  C   UNL     1      44.624 131.136  22.205  1.00  0.00     0.132 C 
ATOM      6  C   UNL     1      44.897 131.302  20.684  1.00  0.00     0.383 C 
ATOM      7  F   UNL     1      45.772 130.312  20.264  1.00  0.00    -0.184 F 
ATOM      8  H   UNL     1      43.201 130.344  19.950  1.00  0.00     0.359 HD
ENDROOT
BRANCH   1   9
ATOM      9  C   UNL     1      43.959 131.502  18.462  1.00  0.00     0.298 C 
ATOM     10  O   UNL     1      43.064 131.791  17.677  1.00  0.00    -0.232 OA
BRANCH   9  11
ATOM     11  C   UNL     1      45.369 131.351  17.933  1.00  0.00     0.008 C 
ATOM     12  C   UNL     1      45.935 131.336  15.702  1.00  0.00    -0.039 C 
ATOM     13  N   UNL     1      46.028 129.978  16.067  1.00  0.00    -0.670 NA
ATOM     14  N   UNL     1      45.553 132.190  16.756  1.00  0.00    -0.657 NA
ATOM     15  C   UNL     1      45.688 129.899  17.481  1.00  0.00    -0.121 C 
ATOM     16  O   UNL     1      46.166 131.748  14.535  1.00  0.00    -0.341 OA
ENDBRANCH   9  11
ENDBRANCH   1   9
BRANCH   5  17
ATOM     17  C   UNL     1      44.322 129.710  22.632  1.00  0.00     0.053 A 
ATOM     18  C   UNL     1      43.139 129.425  23.336  1.00  0.00     0.025 A 
ATOM     19  N   UNL     1      45.152 128.687  22.287  1.00  0.00    -0.252 NA
ATOM     20  C   UNL     1      42.846 128.108  23.696  1.00  0.00     0.012 A 
ATOM     21  C   UNL     1      44.894 127.396  22.622  1.00  0.00     0.071 A 
ATOM     22  C   UNL     1      43.723 127.077  23.343  1.00  0.00     0.003 A 
ATOM     23  C   UNL     1      45.784 126.384  22.248  1.00  0.00     0.032 A 
ATOM     24  C   UNL     1      43.460 125.742  23.686  1.00  0.00     0.049 A 
ATOM     25  C   UNL     1      45.515 125.055  22.594  1.00  0.00     0.041 A 
ATOM     26  C   UNL     1      44.357 124.735  23.311  1.00  0.00     0.123 A 
ATOM     27  F   UNL     1      44.102 123.446  23.643  1.00  0.00    -0.207 F 
ENDBRANCH   5  17
TORSDOF 3
ENDMDL
MODEL 4
REMARK VINA RESULT:      -6.6      1.937      2.858
REMARK SMILES O=C1[N-]C[C@H](C(=O)[N@@H+]2CCC[C@@H](c3ccc4cc(F)ccc4n3)[C@H]2F)[N-]1
REMARK SMILES IDX 8 1 9 2 10 3 11 4 12 5 24 6 25 7 6 9 7 10 5 11 2 12 3 13
REMARK SMILES IDX 26 14 4 15 1 16 13 17 14 18 23 19 15 20 22 21 16 22 21 23
REMARK SMILES IDX 17 24 20 25 18 26 19 27
REMARK H PARENT 8 8
ROOT
ATOM      1  N   UNL     1      43.552 131.284  20.087  1.00  0.00    -0.244 N 
ATOM      2  C   UNL     1      42.699 132.369  20.615  1.00  0.00     0.272 C 
ATOM      3  C   UNL     1      42.290 132.087  22.064  1.00  0.00     0.063 C 
ATOM      4  C   UNL     1      43.531 131.959  22.947  1.00  0.00     0.025 C 
ATOM      5  C   UNL     1      44.517 130.910  22.401  1.00  0.00     0.132 C 
ATOM      6  C   UNL     1      44.794 131.134  20.889  1.00  0.00     0.383 C 
ATOM      7  F   UNL     1      45.562 130.087  20.402  1.00  0.00    -0.184 F 
ATOM      8  H   UNL     1      43.005 130.397  20.124  1.00  0.00     0.359 HD
ENDROOT
BRANCH   1   9
ATOM      9  C   UNL     1      43.865 131.556  18.694  1.00  0.00     0.298 C 
ATOM     10  O   UNL     1      42.974 131.851  17.908  1.00  0.00    -0.232 OA
BRANCH   9  11
ATOM     11  C   UNL     1      45.284 131.448  18.176  1.00  0.00     0.008 C 
ATOM     12  C   UNL     1      45.871 131.483  15.951  1.00  0.00    -0.039 C 
ATOM     13  N   UNL     1      45.994 130.122  16.296  1.00  0.00    -0.670 NA
ATOM     14  N   UNL     1      45.458 132.310  17.015  1.00  0.00    -0.657 NA
ATOM     15  C   UNL     1      45.643 130.011  17.705  1.00  0.00    -0.121 C 
ATOM     16  O   UNL     1      46.103 131.919  14.794  1.00  0.00    -0.341 OA
ENDBRANCH   9  11
ENDBRANCH   1   9
BRANCH   5  17
ATOM     17  C   UNL     1      44.075 129.500  22.751  1.00  0.00     0.053 A 
ATOM     18  C   UNL     1      45.001 128.443  22.705  1.00  0.00     0.025 A 
ATOM     19  N   UNL     1      42.804 129.252  23.173  1.00  0.00    -0.252 NA
ATOM     20  C   UNL     1      44.601 127.154  23.063  1.00  0.00     0.012 A 
ATOM     21  C   UNL     1      42.385 128.009  23.529  1.00  0.00     0.071 A 
ATOM     22  C   UNL     1      43.285 126.922  23.478  1.00  0.00     0.003 A 
ATOM     23  C   UNL     1      41.066 127.807  23.949  1.00  0.00     0.032 A 
ATOM     24  C   UNL     1      42.848 125.641  23.847  1.00  0.00     0.049 A 
ATOM     25  C   UNL     1      40.638 126.527  24.315  1.00  0.00     0.041 A 
ATOM     26  C   UNL     1      41.526 125.446  24.264  1.00  0.00     0.123 A 
ATOM     27  F   UNL     1      41.105 124.208  24.619  1.00  0.00    -0.207 F 
ENDBRANCH   5  17
TORSDOF 3
ENDMDL
MODEL 5
REMARK VINA RESULT:      -6.5      1.904      2.777
REMARK SMILES O=C1[N-]C[C@H](C(=O)[N@@H+]2CCC[C@@H](c3ccc4cc(F)ccc4n3)[C@H]2F)[N-]1
REMARK SMILES IDX 8 1 9 2 10 3 11 4 12 5 24 6 25 7 6 9 7 10 5 11 2 12 3 13
REMARK SMILES IDX 26 14 4 15 1 16 13 17 14 18 23 19 15 20 22 21 16 22 21 23
REMARK SMILES IDX 17 24 20 25 18 26 19 27
REMARK H PARENT 8 8
ROOT
ATOM      1  N   UNL     1      44.044 131.242  20.343  1.00  0.00    -0.244 N 
ATOM      2  C   UNL     1      43.017 132.219  20.759  1.00  0.00     0.272 C 
ATOM      3  C   UNL     1      42.333 131.775  22.054  1.00  0.00     0.063 C 
ATOM      4  C   UNL     1      43.363 131.632  23.175  1.00  0.00     0.025 C 
ATOM      5  C   UNL     1      44.520 130.700  22.773  1.00  0.00     0.132 C 
ATOM      6  C   UNL     1      45.095 131.086  21.383  1.00  0.00     0.383 C 
ATOM      7  F   UNL     1      46.027 130.136  20.991  1.00  0.00    -0.184 F 
ATOM      8  H   UNL     1      43.572 130.325  20.186  1.00  0.00     0.359 HD
ENDROOT
BRANCH   1   9
ATOM      9  C   UNL     1      44.625 131.665  19.080  1.00  0.00     0.298 C 
ATOM     10  O   UNL     1      45.209 132.738  18.999  1.00  0.00    -0.232 OA
BRANCH   9  11
ATOM     11  C   UNL     1      44.496 130.813  17.835  1.00  0.00     0.008 C 
ATOM     12  C   UNL     1      45.832 131.006  15.972  1.00  0.00    -0.039 C 
ATOM     13  N   UNL     1      44.626 131.613  15.567  1.00  0.00    -0.670 NA
ATOM     14  N   UNL     1      45.815 130.516  17.293  1.00  0.00    -0.657 NA
ATOM     15  C   UNL     1      43.713 131.527  16.699  1.00  0.00    -0.121 C 
ATOM     16  O   UNL     1      46.838 130.916  15.221  1.00  0.00    -0.341 OA
ENDBRANCH   9  11
ENDBRANCH   1   9
BRANCH   5  17
ATOM     17  C   UNL     1      44.123 129.240  22.901  1.00  0.00     0.053 A 
ATOM     18  C   UNL     1      45.021 128.232  22.507  1.00  0.00     0.025 A 
ATOM     19  N   UNL     1      42.928 128.886  23.452  1.00  0.00    -0.252 NA
ATOM     20  C   UNL     1      44.668 126.890  22.659  1.00  0.00     0.012 A 
ATOM     21  C   UNL     1      42.557 127.590  23.614  1.00  0.00     0.071 A 
ATOM     22  C   UNL     1      43.428 126.553  23.214  1.00  0.00     0.003 A 
ATOM     23  C   UNL     1      41.315 127.281  24.180  1.00  0.00     0.032 A 
ATOM     24  C   UNL     1      43.041 125.215  23.383  1.00  0.00     0.049 A 
ATOM     25  C   UNL     1      40.936 125.945  24.345  1.00  0.00     0.041 A 
ATOM     26  C   UNL     1      41.796 124.915  23.948  1.00  0.00     0.123 A 
ATOM     27  F   UNL     1      41.422 123.622  24.112  1.00  0.00    -0.207 F 
ENDBRANCH   5  17
TORSDOF 3
ENDMDL
MODEL 6
REMARK VINA RESULT:      -6.0      4.162      7.484
REMARK SMILES O=C1[N-]C[C@H](C(=O)[N@@H+]2CCC[C@@H](c3ccc4cc(F)ccc4n3)[C@H]2F)[N-]1
REMARK SMILES IDX 8 1 9 2 10 3 11 4 12 5 24 6 25 7 6 9 7 10 5 11 2 12 3 13
REMARK SMILES IDX 26 14 4 15 1 16 13 17 14 18 23 19 15 20 22 21 16 22 21 23
REMARK SMILES IDX 17 24 20 25 18 26 19 27
REMARK H PARENT 8 8
ROOT
ATOM      1  N   UNL     1      42.481 127.520  23.875  1.00  0.00    -0.244 N 
ATOM      2  C   UNL     1      43.725 126.879  24.351  1.00  0.00     0.272 C 
ATOM      3  C   UNL     1      44.949 127.724  23.990  1.00  0.00     0.063 C 
ATOM      4  C   UNL     1      44.836 129.114  24.618  1.00  0.00     0.025 C 
ATOM      5  C   UNL     1      43.514 129.806  24.244  1.00  0.00     0.132 C 
ATOM      6  C   UNL     1      42.300 128.866  24.481  1.00  0.00     0.383 C 
ATOM      7  F   UNL     1      41.150 129.466  23.992  1.00  0.00    -0.184 F 
ATOM      8  H   UNL     1      42.543 127.611  22.838  1.00  0.00     0.359 HD
ENDROOT
BRANCH   1   9
ATOM      9  C   UNL     1      41.351 126.660  24.180  1.00  0.00     0.298 C 
ATOM     10  O   UNL     1      40.311 127.139  24.613  1.00  0.00    -0.232 OA
BRANCH   9  11
ATOM     11  C   UNL     1      41.441 125.159  24.002  1.00  0.00     0.008 C 
ATOM     12  C   UNL     1      41.536 124.084  21.969  1.00  0.00    -0.039 C 
ATOM     13  N   UNL     1      40.210 123.860  22.390  1.00  0.00    -0.670 NA
ATOM     14  N   UNL     1      42.307 124.840  22.875  1.00  0.00    -0.657 NA
ATOM     15  C   UNL     1      40.065 124.508  23.686  1.00  0.00    -0.121 C 
ATOM     16  O   UNL     1      41.990 123.654  20.877  1.00  0.00    -0.341 OA
ENDBRANCH   9  11
ENDBRANCH   1   9
BRANCH   5  17
ATOM     17  C   UNL     1      43.577 130.401  22.847  1.00  0.00     0.053 A 
ATOM     18  C   UNL     1      42.645 131.379  22.459  1.00  0.00     0.025 A 
ATOM     19  N   UNL     1      44.568 130.046  21.982  1.00  0.00    -0.252 NA
ATOM     20  C   UNL     1      42.728 131.950  21.187  1.00  0.00     0.012 A 
ATOM     21  C   UNL     1      44.676 130.585  20.739  1.00  0.00     0.071 A 
ATOM     22  C   UNL     1      43.746 131.558  20.311  1.00  0.00     0.003 A 
ATOM     23  C   UNL     1      45.709 130.180  19.887  1.00  0.00     0.032 A 
ATOM     24  C   UNL     1      43.862 132.112  19.027  1.00  0.00     0.049 A 
ATOM     25  C   UNL     1      45.817 130.737  18.609  1.00  0.00     0.041 A 
ATOM     26  C   UNL     1      44.897 131.700  18.180  1.00  0.00     0.123 A 
ATOM     27  F   UNL     1      45.008 132.235  16.939  1.00  0.00    -0.207 F 
ENDBRANCH   5  17
TORSDOF 3
ENDMDL
MODEL 7
REMARK VINA RESULT:      -5.4      3.155      7.145
REMARK SMILES O=C1[N-]C[C@H](C(=O)[N@@H+]2CCC[C@@H](c3ccc4cc(F)ccc4n3)[C@H]2F)[N-]1
REMARK SMILES IDX 8 1 9 2 10 3 11 4 12 5 24 6 25 7 6 9 7 10 5 11 2 12 3 13
REMARK SMILES IDX 26 14 4 15 1 16 13 17 14 18 23 19 15 20 22 21 16 22 21 23
REMARK SMILES IDX 17 24 20 25 18 26 19 27
REMARK H PARENT 8 8
ROOT
ATOM      1  N   UNL     1      44.337 130.840  21.516  1.00  0.00    -0.244 N 
ATOM      2  C   UNL     1      45.214 131.743  22.289  1.00  0.00     0.272 C 
ATOM      3  C   UNL     1      46.183 132.487  21.366  1.00  0.00     0.063 C 
ATOM      4  C   UNL     1      45.406 133.311  20.338  1.00  0.00     0.025 C 
ATOM      5  C   UNL     1      44.397 132.449  19.558  1.00  0.00     0.132 C 
ATOM      6  C   UNL     1      43.529 131.591  20.520  1.00  0.00     0.383 C 
ATOM      7  F   UNL     1      42.743 130.722  19.779  1.00  0.00    -0.184 F 
ATOM      8  H   UNL     1      44.941 130.147  21.022  1.00  0.00     0.359 HD
ENDROOT
BRANCH   1   9
ATOM      9  C   UNL     1      43.478 130.106  22.431  1.00  0.00     0.298 C 
ATOM     10  O   UNL     1      42.276 130.340  22.468  1.00  0.00    -0.232 OA
BRANCH   9  11
ATOM     11  C   UNL     1      44.047 129.069  23.375  1.00  0.00     0.008 C 
ATOM     12  C   UNL     1      44.334 126.845  22.858  1.00  0.00    -0.039 C 
ATOM     13  N   UNL     1      43.195 126.838  23.687  1.00  0.00    -0.670 NA
ATOM     14  N   UNL     1      44.879 128.127  22.639  1.00  0.00    -0.657 NA
ATOM     15  C   UNL     1      42.945 128.221  24.069  1.00  0.00    -0.121 C 
ATOM     16  O   UNL     1      44.818 125.800  22.351  1.00  0.00    -0.341 OA
ENDBRANCH   9  11
ENDBRANCH   1   9
BRANCH   5  17
ATOM     17  C   UNL     1      45.081 131.654  18.460  1.00  0.00     0.053 A 
ATOM     18  C   UNL     1      45.508 130.338  18.709  1.00  0.00     0.025 A 
ATOM     19  N   UNL     1      45.232 132.176  17.211  1.00  0.00    -0.252 NA
ATOM     20  C   UNL     1      46.103 129.596  17.687  1.00  0.00     0.012 A 
ATOM     21  C   UNL     1      45.806 131.479  16.196  1.00  0.00     0.071 A 
ATOM     22  C   UNL     1      46.261 130.161  16.416  1.00  0.00     0.003 A 
ATOM     23  C   UNL     1      45.943 132.065  14.933  1.00  0.00     0.032 A 
ATOM     24  C   UNL     1      46.853 129.444  15.365  1.00  0.00     0.049 A 
ATOM     25  C   UNL     1      46.535 131.344  13.890  1.00  0.00     0.041 A 
ATOM     26  C   UNL     1      46.989 130.038  14.105  1.00  0.00     0.123 A 
ATOM     27  F   UNL     1      47.561 129.346  13.090  1.00  0.00    -0.207 F 
ENDBRANCH   5  17
TORSDOF 3
ENDMDL


