MODEL 1
REMARK VINA RESULT:      -3.4      0.000      0.000
REMARK SMILES Cc1cccc(C(=O)Nc2ccc(-c3ccc(C)c4n[nH]cc34)cc2C(=O)[O-])c1
REMARK SMILES IDX 10 1 11 2 12 3 13 4 24 5 25 6 9 7 7 8 8 9 6 11 2 12 3 13
REMARK SMILES IDX 29 14 4 15 5 16 1 17 26 18 27 19 28 20 14 21 15 22 23 23
REMARK SMILES IDX 16 24 22 25 19 26 17 27 21 28 20 29 18 30
REMARK H PARENT 9 10 21 31
ROOT
ATOM      1  C   UNL     1      48.006 125.248  22.303  1.00  0.00     0.050 A 
ATOM      2  C   UNL     1      47.425 126.466  21.910  1.00  0.00     0.027 A 
ATOM      3  C   UNL     1      46.119 126.785  22.279  1.00  0.00     0.011 A 
ATOM      4  C   UNL     1      45.355 125.884  23.033  1.00  0.00    -0.017 A 
ATOM      5  C   UNL     1      45.930 124.668  23.436  1.00  0.00     0.021 A 
ATOM      6  C   UNL     1      47.252 124.338  23.085  1.00  0.00     0.021 A 
ENDROOT
BRANCH   1   7
ATOM      7  N   UNL     1      49.319 124.910  21.824  1.00  0.00    -0.321 N 
ATOM      8  C   UNL     1      49.539 124.218  20.583  1.00  0.00     0.255 C 
ATOM      9  O   UNL     1      48.612 124.164  19.728  1.00  0.00    -0.269 OA
ATOM     10  H   UNL     1      50.145 125.225  22.379  1.00  0.00     0.170 HD
BRANCH   8  11
ATOM     11  C   UNL     1      50.851 123.599  20.275  1.00  0.00     0.040 A 
ATOM     12  C   UNL     1      52.416 122.676  18.642  1.00  0.00    -0.050 A 
ATOM     13  C   UNL     1      53.332 122.419  19.673  1.00  0.00     0.003 A 
ATOM     14  C   UNL     1      51.184 123.277  18.946  1.00  0.00     0.017 A 
ATOM     15  C   UNL     1      53.005 122.725  20.995  1.00  0.00     0.001 A 
ATOM     16  C   UNL     1      51.771 123.306  21.298  1.00  0.00     0.014 A 
ATOM     17  C   UNL     1      52.780 122.380  17.218  1.00  0.00     0.044 C 
ENDBRANCH   8  11
ENDBRANCH   1   7
BRANCH   6  18
ATOM     18  C   UNL     1      47.820 123.063  23.589  1.00  0.00     0.074 C 
ATOM     19  O   UNL     1      48.897 122.604  23.123  1.00  0.00    -0.545 OA
ATOM     20  O   UNL     1      47.189 122.377  24.620  1.00  0.00    -0.545 OA
ENDBRANCH   6  18
BRANCH   4  21
ATOM     21  C   UNL     1      43.968 126.222  23.428  1.00  0.00    -0.007 A 
ATOM     22  C   UNL     1      43.513 127.560  23.400  1.00  0.00     0.010 A 
ATOM     23  C   UNL     1      43.052 125.250  23.851  1.00  0.00     0.028 A 
ATOM     24  C   UNL     1      42.189 127.882  23.771  1.00  0.00     0.006 A 
ATOM     25  C   UNL     1      43.162 123.891  24.058  1.00  0.00     0.114 A 
ATOM     26  C   UNL     1      41.768 125.563  24.214  1.00  0.00     0.096 A 
ATOM     27  C   UNL     1      41.287 126.875  24.173  1.00  0.00    -0.023 A 
ATOM     28  N   UNL     1      41.969 123.450  24.512  1.00  0.00    -0.284 N 
ATOM     29  N   UNL     1      41.112 124.459  24.615  1.00  0.00    -0.175 NA
ATOM     30  C   UNL     1      39.894 127.210  24.615  1.00  0.00     0.047 C 
ATOM     31  H   UNL     1      41.741 122.462  24.763  1.00  0.00     0.189 HD
ENDBRANCH   4  21
TORSDOF 4
ENDMDL
MODEL 2
REMARK VINA RESULT:      -2.9      6.924     10.903
REMARK SMILES Cc1cccc(C(=O)Nc2ccc(-c3ccc(C)c4n[nH]cc34)cc2C(=O)[O-])c1
REMARK SMILES IDX 10 1 11 2 12 3 13 4 24 5 25 6 9 7 7 8 8 9 6 11 2 12 3 13
REMARK SMILES IDX 29 14 4 15 5 16 1 17 26 18 27 19 28 20 14 21 15 22 23 23
REMARK SMILES IDX 16 24 22 25 19 26 17 27 21 28 20 29 18 30
REMARK H PARENT 9 10 21 31
ROOT
ATOM      1  C   UNL     1      44.920 131.976  23.074  1.00  0.00     0.050 A 
ATOM      2  C   UNL     1      45.356 132.832  24.100  1.00  0.00     0.027 A 
ATOM      3  C   UNL     1      46.450 133.674  23.909  1.00  0.00     0.011 A 
ATOM      4  C   UNL     1      47.146 133.668  22.693  1.00  0.00    -0.017 A 
ATOM      5  C   UNL     1      46.713 132.821  21.660  1.00  0.00     0.021 A 
ATOM      6  C   UNL     1      45.601 131.976  21.831  1.00  0.00     0.021 A 
ENDROOT
BRANCH   1   7
ATOM      7  N   UNL     1      43.850 131.052  23.338  1.00  0.00    -0.321 N 
ATOM      8  C   UNL     1      44.062 129.779  23.972  1.00  0.00     0.255 C 
ATOM      9  O   UNL     1      45.137 129.568  24.598  1.00  0.00    -0.269 OA
ATOM     10  H   UNL     1      42.876 131.342  23.102  1.00  0.00     0.170 HD
BRANCH   8  11
ATOM     11  C   UNL     1      43.021 128.724  23.936  1.00  0.00     0.040 A 
ATOM     12  C   UNL     1      42.378 126.384  24.220  1.00  0.00    -0.050 A 
ATOM     13  C   UNL     1      41.060 126.709  23.867  1.00  0.00     0.003 A 
ATOM     14  C   UNL     1      43.350 127.396  24.264  1.00  0.00     0.017 A 
ATOM     15  C   UNL     1      40.727 128.021  23.528  1.00  0.00     0.001 A 
ATOM     16  C   UNL     1      41.700 129.024  23.556  1.00  0.00     0.014 A 
ATOM     17  C   UNL     1      42.729 124.982  24.617  1.00  0.00     0.044 C 
ENDBRANCH   8  11
ENDBRANCH   1   7
BRANCH   6  18
ATOM     18  C   UNL     1      45.160 131.147  20.683  1.00  0.00     0.074 C 
ATOM     19  O   UNL     1      45.489 129.935  20.594  1.00  0.00    -0.545 OA
ATOM     20  O   UNL     1      44.335 131.691  19.705  1.00  0.00    -0.545 OA
ENDBRANCH   6  18
BRANCH   4  21
ATOM     21  C   UNL     1      48.307 134.564  22.488  1.00  0.00    -0.007 A 
ATOM     22  C   UNL     1      48.284 135.560  21.485  1.00  0.00     0.010 A 
ATOM     23  C   UNL     1      49.474 134.468  23.259  1.00  0.00     0.028 A 
ATOM     24  C   UNL     1      49.388 136.419  21.292  1.00  0.00     0.006 A 
ATOM     25  C   UNL     1      49.865 133.599  24.254  1.00  0.00     0.114 A 
ATOM     26  C   UNL     1      50.547 135.300  23.069  1.00  0.00     0.096 A 
ATOM     27  C   UNL     1      50.539 136.307  22.100  1.00  0.00    -0.023 A 
ATOM     28  N   UNL     1      51.119 133.941  24.625  1.00  0.00    -0.284 N 
ATOM     29  N   UNL     1      51.546 134.973  23.908  1.00  0.00    -0.175 NA
ATOM     30  C   UNL     1      51.737 137.182  21.874  1.00  0.00     0.047 C 
ATOM     31  H   UNL     1      51.687 133.463  25.359  1.00  0.00     0.189 HD
ENDBRANCH   4  21
TORSDOF 4
ENDMDL
MODEL 3
REMARK VINA RESULT:      -2.6      7.065     11.047
REMARK SMILES Cc1cccc(C(=O)Nc2ccc(-c3ccc(C)c4n[nH]cc34)cc2C(=O)[O-])c1
REMARK SMILES IDX 10 1 11 2 12 3 13 4 24 5 25 6 9 7 7 8 8 9 6 11 2 12 3 13
REMARK SMILES IDX 29 14 4 15 5 16 1 17 26 18 27 19 28 20 14 21 15 22 23 23
REMARK SMILES IDX 16 24 22 25 19 26 17 27 21 28 20 29 18 30
REMARK H PARENT 9 10 21 31
ROOT
ATOM      1  C   UNL     1      45.148 131.700  22.291  1.00  0.00     0.050 A 
ATOM      2  C   UNL     1      45.443 132.513  23.399  1.00  0.00     0.027 A 
ATOM      3  C   UNL     1      46.459 133.465  23.334  1.00  0.00     0.011 A 
ATOM      4  C   UNL     1      47.218 133.614  22.166  1.00  0.00    -0.017 A 
ATOM      5  C   UNL     1      46.926 132.811  21.052  1.00  0.00     0.021 A 
ATOM      6  C   UNL     1      45.893 131.856  21.095  1.00  0.00     0.021 A 
ENDROOT
BRANCH   1   7
ATOM      7  N   UNL     1      44.160 130.664  22.423  1.00  0.00    -0.321 N 
ATOM      8  C   UNL     1      43.303 130.550  23.572  1.00  0.00     0.255 C 
ATOM      9  O   UNL     1      43.175 131.534  24.352  1.00  0.00    -0.269 OA
ATOM     10  H   UNL     1      44.030 130.000  21.629  1.00  0.00     0.170 HD
BRANCH   8  11
ATOM     11  C   UNL     1      42.535 129.309  23.833  1.00  0.00     0.040 A 
ATOM     12  C   UNL     1      42.373 126.872  23.754  1.00  0.00    -0.050 A 
ATOM     13  C   UNL     1      41.091 126.945  24.317  1.00  0.00     0.003 A 
ATOM     14  C   UNL     1      43.095 128.055  23.525  1.00  0.00     0.017 A 
ATOM     15  C   UNL     1      40.523 128.185  24.615  1.00  0.00     0.001 A 
ATOM     16  C   UNL     1      41.236 129.362  24.370  1.00  0.00     0.014 A 
ATOM     17  C   UNL     1      42.997 125.540  23.466  1.00  0.00     0.044 C 
ENDBRANCH   8  11
ENDBRANCH   1   7
BRANCH   6  18
ATOM     18  C   UNL     1      45.597 131.079  19.867  1.00  0.00     0.074 C 
ATOM     19  O   UNL     1      45.213 131.653  18.813  1.00  0.00    -0.545 OA
ATOM     20  O   UNL     1      45.784 129.701  19.850  1.00  0.00    -0.545 OA
ENDBRANCH   6  18
BRANCH   4  21
ATOM     21  C   UNL     1      48.297 134.627  22.096  1.00  0.00    -0.007 A 
ATOM     22  C   UNL     1      48.209 135.717  21.199  1.00  0.00     0.010 A 
ATOM     23  C   UNL     1      49.446 134.554  22.894  1.00  0.00     0.028 A 
ATOM     24  C   UNL     1      49.234 136.686  21.135  1.00  0.00     0.006 A 
ATOM     25  C   UNL     1      49.889 133.624  23.810  1.00  0.00     0.114 A 
ATOM     26  C   UNL     1      50.442 135.494  22.830  1.00  0.00     0.096 A 
ATOM     27  C   UNL     1      50.368 136.592  21.969  1.00  0.00    -0.023 A 
ATOM     28  N   UNL     1      51.095 134.035  24.259  1.00  0.00    -0.284 N 
ATOM     29  N   UNL     1      51.445 135.171  23.667  1.00  0.00    -0.175 NA
ATOM     30  C   UNL     1      51.485 137.589  21.877  1.00  0.00     0.047 C 
ATOM     31  H   UNL     1      51.686 133.536  24.960  1.00  0.00     0.189 HD
ENDBRANCH   4  21
TORSDOF 4
ENDMDL
MODEL 4
REMARK VINA RESULT:      -2.1      6.583     10.334
REMARK SMILES Cc1cccc(C(=O)Nc2ccc(-c3ccc(C)c4n[nH]cc34)cc2C(=O)[O-])c1
REMARK SMILES IDX 10 1 11 2 12 3 13 4 24 5 25 6 9 7 7 8 8 9 6 11 2 12 3 13
REMARK SMILES IDX 29 14 4 15 5 16 1 17 26 18 27 19 28 20 14 21 15 22 23 23
REMARK SMILES IDX 16 24 22 25 19 26 17 27 21 28 20 29 18 30
REMARK H PARENT 9 10 21 31
ROOT
ATOM      1  C   UNL     1      44.811 131.173  22.306  1.00  0.00     0.050 A 
ATOM      2  C   UNL     1      45.120 131.972  23.420  1.00  0.00     0.027 A 
ATOM      3  C   UNL     1      46.097 132.962  23.339  1.00  0.00     0.011 A 
ATOM      4  C   UNL     1      46.804 133.165  22.147  1.00  0.00    -0.017 A 
ATOM      5  C   UNL     1      46.497 132.377  21.026  1.00  0.00     0.021 A 
ATOM      6  C   UNL     1      45.502 131.384  21.086  1.00  0.00     0.021 A 
ENDROOT
BRANCH   1   7
ATOM      7  N   UNL     1      43.867 130.098  22.451  1.00  0.00    -0.321 N 
ATOM      8  C   UNL     1      43.875 129.206  23.578  1.00  0.00     0.255 C 
ATOM      9  O   UNL     1      44.506 129.528  24.623  1.00  0.00    -0.269 OA
ATOM     10  H   UNL     1      43.117 129.997  21.733  1.00  0.00     0.170 HD
BRANCH   8  11
ATOM     11  C   UNL     1      43.121 127.929  23.548  1.00  0.00     0.040 A 
ATOM     12  C   UNL     1      43.089 125.504  23.254  1.00  0.00    -0.050 A 
ATOM     13  C   UNL     1      41.705 125.500  23.481  1.00  0.00     0.003 A 
ATOM     14  C   UNL     1      43.793 126.718  23.301  1.00  0.00     0.017 A 
ATOM     15  C   UNL     1      41.028 126.698  23.716  1.00  0.00     0.001 A 
ATOM     16  C   UNL     1      41.728 127.908  23.744  1.00  0.00     0.014 A 
ATOM     17  C   UNL     1      43.822 124.214  23.037  1.00  0.00     0.044 C 
ENDBRANCH   8  11
ENDBRANCH   1   7
BRANCH   6  18
ATOM     18  C   UNL     1      45.187 130.623  19.852  1.00  0.00     0.074 C 
ATOM     19  O   UNL     1      45.668 129.475  19.657  1.00  0.00    -0.545 OA
ATOM     20  O   UNL     1      44.314 131.154  18.908  1.00  0.00    -0.545 OA
ENDBRANCH   6  18
BRANCH   4  21
ATOM     21  C   UNL     1      47.841 134.219  22.058  1.00  0.00    -0.007 A 
ATOM     22  C   UNL     1      47.664 135.340  21.216  1.00  0.00     0.010 A 
ATOM     23  C   UNL     1      49.037 134.156  22.786  1.00  0.00     0.028 A 
ATOM     24  C   UNL     1      48.650 136.348  21.135  1.00  0.00     0.006 A 
ATOM     25  C   UNL     1      49.564 133.206  23.634  1.00  0.00     0.114 A 
ATOM     26  C   UNL     1      49.995 135.133  22.706  1.00  0.00     0.096 A 
ATOM     27  C   UNL     1      49.833 136.262  21.899  1.00  0.00    -0.023 A 
ATOM     28  N   UNL     1      50.779 133.642  24.031  1.00  0.00    -0.284 N 
ATOM     29  N   UNL     1      51.055 134.813  23.470  1.00  0.00    -0.175 NA
ATOM     30  C   UNL     1      50.908 137.302  21.785  1.00  0.00     0.047 C 
ATOM     31  H   UNL     1      51.426 133.137  24.676  1.00  0.00     0.189 HD
ENDBRANCH   4  21
TORSDOF 4
ENDMDL
MODEL 5
REMARK VINA RESULT:      -1.6      6.717      8.991
REMARK SMILES Cc1cccc(C(=O)Nc2ccc(-c3ccc(C)c4n[nH]cc34)cc2C(=O)[O-])c1
REMARK SMILES IDX 10 1 11 2 12 3 13 4 24 5 25 6 9 7 7 8 8 9 6 11 2 12 3 13
REMARK SMILES IDX 29 14 4 15 5 16 1 17 26 18 27 19 28 20 14 21 15 22 23 23
REMARK SMILES IDX 16 24 22 25 19 26 17 27 21 28 20 29 18 30
REMARK H PARENT 9 10 21 31
ROOT
ATOM      1  C   UNL     1      45.950 132.364  21.777  1.00  0.00     0.050 A 
ATOM      2  C   UNL     1      45.708 132.196  23.152  1.00  0.00     0.027 A 
ATOM      3  C   UNL     1      44.789 131.252  23.604  1.00  0.00     0.011 A 
ATOM      4  C   UNL     1      44.074 130.464  22.691  1.00  0.00    -0.017 A 
ATOM      5  C   UNL     1      44.315 130.620  21.317  1.00  0.00     0.021 A 
ATOM      6  C   UNL     1      45.251 131.558  20.844  1.00  0.00     0.021 A 
ENDROOT
BRANCH   1   7
ATOM      7  N   UNL     1      46.832 133.414  21.342  1.00  0.00    -0.321 N 
ATOM      8  C   UNL     1      47.935 133.881  22.138  1.00  0.00     0.255 C 
ATOM      9  O   UNL     1      48.352 133.176  23.099  1.00  0.00    -0.269 OA
ATOM     10  H   UNL     1      46.692 133.815  20.389  1.00  0.00     0.170 HD
BRANCH   8  11
ATOM     11  C   UNL     1      48.617 135.160  21.824  1.00  0.00     0.040 A 
ATOM     12  C   UNL     1      48.710 137.244  20.553  1.00  0.00    -0.050 A 
ATOM     13  C   UNL     1      49.900 137.586  21.212  1.00  0.00     0.003 A 
ATOM     14  C   UNL     1      48.067 136.037  20.871  1.00  0.00     0.017 A 
ATOM     15  C   UNL     1      50.458 136.717  22.150  1.00  0.00     0.001 A 
ATOM     16  C   UNL     1      49.827 135.507  22.453  1.00  0.00     0.014 A 
ATOM     17  C   UNL     1      48.092 138.193  19.571  1.00  0.00     0.044 C 
ENDBRANCH   8  11
ENDBRANCH   1   7
BRANCH   6  18
ATOM     18  C   UNL     1      45.500 131.635  19.384  1.00  0.00     0.074 C 
ATOM     19  O   UNL     1      45.115 132.629  18.712  1.00  0.00    -0.545 OA
ATOM     20  O   UNL     1      46.206 130.624  18.741  1.00  0.00    -0.545 OA
ENDBRANCH   6  18
BRANCH   4  21
ATOM     21  C   UNL     1      43.099 129.457  23.170  1.00  0.00    -0.007 A 
ATOM     22  C   UNL     1      41.771 129.827  23.483  1.00  0.00     0.010 A 
ATOM     23  C   UNL     1      43.439 128.109  23.343  1.00  0.00     0.028 A 
ATOM     24  C   UNL     1      40.839 128.867  23.933  1.00  0.00     0.006 A 
ATOM     25  C   UNL     1      44.624 127.420  23.202  1.00  0.00     0.114 A 
ATOM     26  C   UNL     1      42.535 127.177  23.784  1.00  0.00     0.096 A 
ATOM     27  C   UNL     1      41.211 127.513  24.077  1.00  0.00    -0.023 A 
ATOM     28  N   UNL     1      44.391 126.133  23.541  1.00  0.00    -0.284 N 
ATOM     29  N   UNL     1      43.123 125.973  23.901  1.00  0.00    -0.175 NA
ATOM     30  C   UNL     1      40.244 126.493  24.601  1.00  0.00     0.047 C 
ATOM     31  H   UNL     1      45.099 125.366  23.539  1.00  0.00     0.189 HD
ENDBRANCH   4  21
TORSDOF 4
ENDMDL
MODEL 6
REMARK VINA RESULT:      -1.5      2.573      3.845
REMARK SMILES Cc1cccc(C(=O)Nc2ccc(-c3ccc(C)c4n[nH]cc34)cc2C(=O)[O-])c1
REMARK SMILES IDX 10 1 11 2 12 3 13 4 24 5 25 6 9 7 7 8 8 9 6 11 2 12 3 13
REMARK SMILES IDX 29 14 4 15 5 16 1 17 26 18 27 19 28 20 14 21 15 22 23 23
REMARK SMILES IDX 16 24 22 25 19 26 17 27 21 28 20 29 18 30
REMARK H PARENT 9 10 21 31
ROOT
ATOM      1  C   UNL     1      44.921 124.897  23.247  1.00  0.00     0.050 A 
ATOM      2  C   UNL     1      44.797 125.908  24.216  1.00  0.00     0.027 A 
ATOM      3  C   UNL     1      43.576 126.545  24.431  1.00  0.00     0.011 A 
ATOM      4  C   UNL     1      42.453 126.199  23.668  1.00  0.00    -0.017 A 
ATOM      5  C   UNL     1      42.565 125.186  22.703  1.00  0.00     0.021 A 
ATOM      6  C   UNL     1      43.787 124.522  22.485  1.00  0.00     0.021 A 
ENDROOT
BRANCH   1   7
ATOM      7  N   UNL     1      46.216 124.330  22.985  1.00  0.00    -0.321 N 
ATOM      8  C   UNL     1      47.424 124.852  23.564  1.00  0.00     0.255 C 
ATOM      9  O   UNL     1      47.354 125.623  24.562  1.00  0.00    -0.269 OA
ATOM     10  H   UNL     1      46.271 123.475  22.390  1.00  0.00     0.170 HD
BRANCH   8  11
ATOM     11  C   UNL     1      48.755 124.469  23.033  1.00  0.00     0.040 A 
ATOM     12  C   UNL     1      50.981 125.110  22.258  1.00  0.00    -0.050 A 
ATOM     13  C   UNL     1      51.280 123.761  22.019  1.00  0.00     0.003 A 
ATOM     14  C   UNL     1      49.723 125.457  22.775  1.00  0.00     0.017 A 
ATOM     15  C   UNL     1      50.322 122.775  22.261  1.00  0.00     0.001 A 
ATOM     16  C   UNL     1      49.064 123.124  22.759  1.00  0.00     0.014 A 
ATOM     17  C   UNL     1      52.022 126.165  22.031  1.00  0.00     0.044 C 
ENDBRANCH   8  11
ENDBRANCH   1   7
BRANCH   6  18
ATOM     18  C   UNL     1      43.826 123.422  21.490  1.00  0.00     0.074 C 
ATOM     19  O   UNL     1      43.071 123.433  20.482  1.00  0.00    -0.545 OA
ATOM     20  O   UNL     1      44.734 122.379  21.637  1.00  0.00    -0.545 OA
ENDBRANCH   6  18
BRANCH   4  21
ATOM     21  C   UNL     1      41.154 126.873  23.897  1.00  0.00    -0.007 A 
ATOM     22  C   UNL     1      41.101 128.212  24.346  1.00  0.00     0.010 A 
ATOM     23  C   UNL     1      39.928 126.225  23.692  1.00  0.00     0.028 A 
ATOM     24  C   UNL     1      39.863 128.857  24.558  1.00  0.00     0.006 A 
ATOM     25  C   UNL     1      39.603 124.936  23.329  1.00  0.00     0.114 A 
ATOM     26  C   UNL     1      38.726 126.850  23.901  1.00  0.00     0.096 A 
ATOM     27  C   UNL     1      38.648 128.180  24.322  1.00  0.00    -0.023 A 
ATOM     28  N   UNL     1      38.256 124.841  23.320  1.00  0.00    -0.284 N 
ATOM     29  N   UNL     1      37.710 125.999  23.671  1.00  0.00    -0.175 NA
ATOM     30  C   UNL     1      37.327 128.838  24.590  1.00  0.00     0.047 C 
ATOM     31  H   UNL     1      37.708 123.984  23.087  1.00  0.00     0.189 HD
ENDBRANCH   4  21
TORSDOF 4
ENDMDL
MODEL 7
REMARK VINA RESULT:      -0.9      7.716     11.536
REMARK SMILES Cc1cccc(C(=O)Nc2ccc(-c3ccc(C)c4n[nH]cc34)cc2C(=O)[O-])c1
REMARK SMILES IDX 10 1 11 2 12 3 13 4 24 5 25 6 9 7 7 8 8 9 6 11 2 12 3 13
REMARK SMILES IDX 29 14 4 15 5 16 1 17 26 18 27 19 28 20 14 21 15 22 23 23
REMARK SMILES IDX 16 24 22 25 19 26 17 27 21 28 20 29 18 30
REMARK H PARENT 9 10 21 31
ROOT
ATOM      1  C   UNL     1      45.616 131.911  22.415  1.00  0.00     0.050 A 
ATOM      2  C   UNL     1      45.971 132.649  23.557  1.00  0.00     0.027 A 
ATOM      3  C   UNL     1      46.979 133.610  23.501  1.00  0.00     0.011 A 
ATOM      4  C   UNL     1      47.671 133.842  22.305  1.00  0.00    -0.017 A 
ATOM      5  C   UNL     1      47.319 133.114  21.157  1.00  0.00     0.021 A 
ATOM      6  C   UNL     1      46.293 132.151  21.193  1.00  0.00     0.021 A 
ENDROOT
BRANCH   1   7
ATOM      7  N   UNL     1      44.640 130.861  22.532  1.00  0.00    -0.321 N 
ATOM      8  C   UNL     1      43.443 130.999  23.317  1.00  0.00     0.255 C 
ATOM      9  O   UNL     1      43.059 132.148  23.670  1.00  0.00    -0.269 OA
ATOM     10  H   UNL     1      44.786 129.985  21.985  1.00  0.00     0.170 HD
BRANCH   8  11
ATOM     11  C   UNL     1      42.629 129.815  23.684  1.00  0.00     0.040 A 
ATOM     12  C   UNL     1      42.379 127.389  23.825  1.00  0.00    -0.050 A 
ATOM     13  C   UNL     1      41.097 127.558  24.370  1.00  0.00     0.003 A 
ATOM     14  C   UNL     1      43.144 128.519  23.496  1.00  0.00     0.017 A 
ATOM     15  C   UNL     1      40.574 128.840  24.550  1.00  0.00     0.001 A 
ATOM     16  C   UNL     1      41.330 129.963  24.205  1.00  0.00     0.014 A 
ATOM     17  C   UNL     1      42.954 126.014  23.665  1.00  0.00     0.044 C 
ENDBRANCH   8  11
ENDBRANCH   1   7
BRANCH   6  18
ATOM     18  C   UNL     1      45.931 131.456  19.934  1.00  0.00     0.074 C 
ATOM     19  O   UNL     1      46.153 130.225  19.786  1.00  0.00    -0.545 OA
ATOM     20  O   UNL     1      45.297 132.151  18.910  1.00  0.00    -0.545 OA
ENDBRANCH   6  18
BRANCH   4  21
ATOM     21  C   UNL     1      48.741 134.864  22.242  1.00  0.00    -0.007 A 
ATOM     22  C   UNL     1      49.888 134.763  23.062  1.00  0.00     0.010 A 
ATOM     23  C   UNL     1      48.668 135.972  21.387  1.00  0.00     0.028 A 
ATOM     24  C   UNL     1      50.911 135.734  22.998  1.00  0.00     0.006 A 
ATOM     25  C   UNL     1      47.697 136.418  20.517  1.00  0.00     0.114 A 
ATOM     26  C   UNL     1      49.661 136.917  21.328  1.00  0.00     0.096 A 
ATOM     27  C   UNL     1      50.815 136.827  22.111  1.00  0.00    -0.023 A 
ATOM     28  N   UNL     1      48.135 137.574  19.973  1.00  0.00    -0.284 N 
ATOM     29  N   UNL     1      49.329 137.891  20.461  1.00  0.00    -0.175 NA
ATOM     30  C   UNL     1      51.872 137.890  22.068  1.00  0.00     0.047 C 
ATOM     31  H   UNL     1      47.616 138.154  19.277  1.00  0.00     0.189 HD
ENDBRANCH   4  21
TORSDOF 4
ENDMDL


