REMARK SMILES c1cc(-c2ccc([C@H]3CO3)cn2)c2occc2c1
REMARK SMILES IDX 4 1 5 2 6 3 7 4 11 5 12 6 3 7 1 8 2 9 18 10 17 11 13 12
REMARK SMILES IDX 16 13 14 14 15 15 8 16 9 17 10 18
REMARK H PARENT
ROOT
ATOM      1  C   UNL     1      -0.528   0.629  -0.941  1.00  0.00     0.074 A 
ATOM      2  C   UNL     1      -0.407  -0.683  -1.430  1.00  0.00     0.029 A 
ATOM      3  C   UNL     1      -1.392  -1.626  -1.128  1.00  0.00     0.010 A 
ATOM      4  C   UNL     1      -2.483  -1.268  -0.328  1.00  0.00     0.001 A 
ATOM      5  C   UNL     1      -2.576   0.049   0.135  1.00  0.00     0.118 A 
ATOM      6  N   UNL     1      -1.607   0.951  -0.173  1.00  0.00    -0.256 NA
ENDROOT
BRANCH   1   7
ATOM      7  C   UNL     1       0.493   1.666  -1.233  1.00  0.00     0.043 A 
ATOM      8  C   UNL     1       2.227   2.652  -2.675  1.00  0.00     0.002 A 
ATOM      9  C   UNL     1       1.269   1.646  -2.419  1.00  0.00     0.014 A 
ATOM     10  C   UNL     1       2.425   3.699  -1.760  1.00  0.00     0.012 A 
ATOM     11  C   UNL     1       1.648   3.705  -0.607  1.00  0.00     0.021 A 
ATOM     12  C   UNL     1       0.718   2.733  -0.349  1.00  0.00     0.143 A 
ATOM     13  C   UNL     1       1.620   4.584   0.450  1.00  0.00     0.050 A 
ATOM     14  O   UNL     1       0.130   2.967   0.800  1.00  0.00    -0.464 OA
ATOM     15  C   UNL     1       0.650   4.072   1.304  1.00  0.00     0.196 A 
ENDBRANCH   1   7
BRANCH   4  16
ATOM     16  C   UNL     1      -3.562  -2.265  -0.026  1.00  0.00     0.176 C 
ATOM     17  C   UNL     1      -3.162  -3.431   0.795  1.00  0.00     0.198 C 
ATOM     18  O   UNL     1      -3.840  -2.331   1.354  1.00  0.00    -0.368 OA
ENDBRANCH   4  16
TORSDOF 2


