REMARK SMILES C=C[C@@H](C)/[NH+]=C(\S)Oc1c(N)cccc1[NH2+]c1ccc(C)c(F)c1
REMARK SMILES IDX 6 1 7 2 8 4 9 5 10 6 15 7 12 8 14 9 13 10 11 11 16 14 17 17
REMARK SMILES IDX 18 18 24 19 19 20 22 21 20 22 23 23 21 24 5 25 3 27 4 28
REMARK SMILES IDX 2 29 1 30
REMARK H PARENT 7 3 11 12 11 13 16 15 16 16 5 26
ROOT
ATOM      1  C   UNL     1       1.236  -0.376   0.457  1.00  0.00     0.402 C 
ENDROOT
BRANCH   1   2
ATOM      2  S   UNL     1       2.736  -1.343   0.667  1.00  0.00    -0.031 SA
ATOM      3  H   UNL     1       2.661  -1.248   2.070  1.00  0.00     0.118 HD
ENDBRANCH   1   2
BRANCH   1   4
ATOM      4  O   UNL     1       1.387   1.015   0.340  1.00  0.00    -0.392 OA
BRANCH   4   5
ATOM      5  C   UNL     1       0.330   1.929   0.430  1.00  0.00     0.218 A 
ATOM      6  C   UNL     1      -0.346   2.127   1.653  1.00  0.00     0.081 A 
ATOM      7  C   UNL     1      -0.061   2.651  -0.720  1.00  0.00     0.180 A 
ATOM      8  C   UNL     1      -1.423   3.021   1.712  1.00  0.00     0.030 A 
ATOM      9  C   UNL     1      -1.145   3.543  -0.633  1.00  0.00     0.072 A 
ATOM     10  C   UNL     1      -1.820   3.723   0.574  1.00  0.00     0.009 A 
BRANCH   6  11
ATOM     11  N   UNL     1       0.062   1.440   2.843  1.00  0.00    -0.396 N 
ATOM     12  H   UNL     1       0.914   0.838   2.864  1.00  0.00     0.156 HD
ATOM     13  H   UNL     1      -0.469   1.559   3.734  1.00  0.00     0.156 HD
ENDBRANCH   6  11
BRANCH   7  14
ATOM     14  N   UNL     1       0.600   2.439  -1.988  1.00  0.00    -0.278 N 
ATOM     15  H   UNL     1       1.636   2.488  -1.842  1.00  0.00     0.358 HD
ATOM     16  H   UNL     1       0.354   3.196  -2.668  1.00  0.00     0.358 HD
BRANCH  14  17
ATOM     17  C   UNL     1       0.212   1.168  -2.554  1.00  0.00     0.137 A 
ATOM     18  C   UNL     1       1.161   0.145  -2.730  1.00  0.00     0.068 A 
ATOM     19  C   UNL     1      -1.119   0.936  -2.943  1.00  0.00     0.107 A 
ATOM     20  C   UNL     1       0.777  -1.098  -3.240  1.00  0.00     0.012 A 
ATOM     21  C   UNL     1      -1.503  -0.306  -3.457  1.00  0.00     0.132 A 
ATOM     22  C   UNL     1      -0.560  -1.338  -3.589  1.00  0.00    -0.015 A 
ATOM     23  F   UNL     1      -2.796  -0.504  -3.819  1.00  0.00    -0.206 F 
ATOM     24  C   UNL     1      -0.965  -2.669  -4.154  1.00  0.00     0.047 C 
ENDBRANCH  14  17
ENDBRANCH   7  14
ENDBRANCH   4   5
ENDBRANCH   1   4
BRANCH   1  25
ATOM     25  N   UNL     1       0.056  -0.940   0.383  1.00  0.00    -0.198 N 
ATOM     26  H   UNL     1      -0.783  -0.338   0.220  1.00  0.00     0.451 HD
BRANCH  25  27
ATOM     27  C   UNL     1      -0.169  -2.388   0.500  1.00  0.00     0.282 C 
ATOM     28  C   UNL     1      -1.567  -2.760  -0.010  1.00  0.00     0.092 C 
BRANCH  27  29
ATOM     29  C   UNL     1       0.005  -2.840   1.931  1.00  0.00     0.039 C 
ATOM     30  C   UNL     1      -0.645  -2.264   2.948  1.00  0.00     0.011 C 
ENDBRANCH  27  29
ENDBRANCH  25  27
ENDBRANCH   1  25
TORSDOF 9


