REMARK SMILES C=Cc1ccc(-c2c[nH+]c3ocnc3c2)c(NC[C@@H](C)C(C)C)c1F
REMARK SMILES IDX 17 1 16 3 3 4 4 5 24 6 5 7 6 8 25 9 2 10 1 11 7 12 8 13
REMARK SMILES IDX 15 14 9 15 14 16 10 17 13 18 11 19 12 20 18 22 19 23 20 24
REMARK SMILES IDX 21 25 22 26 23 27
REMARK H PARENT 17 2 9 21
ROOT
ATOM      1  N   UNL     1      -0.614   1.165  -0.724  1.00  0.00    -0.382 N 
ATOM      2  H   UNL     1      -1.110   1.610  -1.529  1.00  0.00     0.160 HD
ENDROOT
BRANCH   1   3
ATOM      3  C   UNL     1       0.508   1.877  -0.180  1.00  0.00     0.079 A 
ATOM      4  C   UNL     1       1.469   3.994   0.580  1.00  0.00     0.012 A 
ATOM      5  C   UNL     1       2.612   3.299   1.016  1.00  0.00     0.012 A 
ATOM      6  C   UNL     1       0.416   3.269  -0.008  1.00  0.00     0.154 A 
ATOM      7  C   UNL     1       2.718   1.920   0.831  1.00  0.00     0.012 A 
ATOM      8  C   UNL     1       1.683   1.200   0.217  1.00  0.00     0.014 A 
ATOM      9  F   UNL     1      -0.714   3.912  -0.402  1.00  0.00    -0.204 F 
BRANCH   4  10
ATOM     10  C   UNL     1       1.324   5.460   0.763  1.00  0.00     0.003 C 
ATOM     11  C   UNL     1       2.351   6.296   0.923  1.00  0.00     0.009 C 
ENDBRANCH   4  10
BRANCH   8  12
ATOM     12  C   UNL     1       1.872  -0.243  -0.041  1.00  0.00     0.050 A 
ATOM     13  C   UNL     1       1.768  -0.757  -1.363  1.00  0.00     0.318 A 
ATOM     14  C   UNL     1       2.166  -1.126   1.022  1.00  0.00     0.054 A 
ATOM     15  N   UNL     1       1.933  -2.093  -1.606  1.00  0.00    -0.177 N 
ATOM     16  C   UNL     1       2.315  -2.471   0.711  1.00  0.00     0.179 A 
ATOM     17  C   UNL     1       2.197  -2.916  -0.562  1.00  0.00     0.399 A 
ATOM     18  N   UNL     1       2.576  -3.501   1.533  1.00  0.00    -0.209 NA
ATOM     19  O   UNL     1       2.376  -4.207  -0.589  1.00  0.00    -0.391 OA
ATOM     20  C   UNL     1       2.602  -4.553   0.669  1.00  0.00     0.316 A 
ATOM     21  H   UNL     1       1.850  -2.472  -2.575  1.00  0.00     0.457 HD
ENDBRANCH   8  12
ENDBRANCH   1   3
BRANCH   1  22
ATOM     22  C   UNL     1      -1.389   0.258   0.124  1.00  0.00     0.116 C 
BRANCH  22  23
ATOM     23  C   UNL     1      -2.357  -0.612  -0.711  1.00  0.00     0.008 C 
ATOM     24  C   UNL     1      -1.577  -1.536  -1.664  1.00  0.00     0.010 C 
BRANCH  23  25
ATOM     25  C   UNL     1      -3.362  -1.380   0.204  1.00  0.00    -0.013 C 
ATOM     26  C   UNL     1      -4.562  -1.920  -0.591  1.00  0.00     0.008 C 
ATOM     27  C   UNL     1      -2.718  -2.514   1.020  1.00  0.00     0.008 C 
ENDBRANCH  23  25
ENDBRANCH  22  23
ENDBRANCH   1  22
TORSDOF 6


