MODEL 1
REMARK VINA RESULT:      -6.4      0.000      0.000
REMARK SMILES Cc1ccc(-c2ccc(N(C(=O)C/C=C(/O)Cl)c3cc4ccccc4[n-]3)c(C=O)c2)cc1
REMARK SMILES IDX 13 1 14 2 15 3 17 4 16 5 11 7 12 8 10 9 18 10 26 11 19 12
REMARK SMILES IDX 25 13 20 14 24 15 21 16 23 17 22 18 9 19 8 20 27 21 7 22
REMARK SMILES IDX 30 23 6 24 28 25 29 26 5 27 4 28 31 29 3 30 32 31 2 32 1 33
REMARK H PARENT 16 6
ROOT
ATOM      1  C   UNL     1      45.524 133.383  22.867  1.00  0.00     0.109 C 
ENDROOT
BRANCH   1   2
ATOM      2  C   UNL     1      46.499 133.778  23.944  1.00  0.00     0.040 C 
BRANCH   2   3
ATOM      3  C   UNL     1      47.746 134.219  23.713  1.00  0.00     0.180 C 
ATOM      4  Cl  UNL     1      49.137 133.647  24.622  1.00  0.00    -0.044 Cl
BRANCH   3   5
ATOM      5  O   UNL     1      47.974 135.173  22.722  1.00  0.00    -0.499 OA
ATOM      6  H   UNL     1      48.797 135.764  22.725  1.00  0.00     0.294 HD
ENDBRANCH   3   5
ENDBRANCH   2   3
ENDBRANCH   1   2
BRANCH   1   7
ATOM      7  C   UNL     1      44.624 132.284  23.362  1.00  0.00     0.155 C 
ATOM      8  O   UNL     1      44.199 132.338  24.547  1.00  0.00    -0.298 OA
BRANCH   7   9
ATOM      9  N   UNL     1      44.288 131.157  22.524  1.00  0.00    -0.387 N 
BRANCH   9  10
ATOM     10  C   UNL     1      43.586 130.011  23.040  1.00  0.00    -0.051 A 
ATOM     11  N   UNL     1      44.105 128.757  23.007  1.00  0.00    -0.435 NA
ATOM     12  C   UNL     1      42.294 130.028  23.567  1.00  0.00     0.008 A 
ATOM     13  C   UNL     1      43.138 127.984  23.531  1.00  0.00    -0.034 A 
ATOM     14  C   UNL     1      42.033 128.716  23.879  1.00  0.00    -0.023 A 
ATOM     15  C   UNL     1      43.183 126.603  23.714  1.00  0.00     0.004 A 
ATOM     16  C   UNL     1      40.897 128.124  24.427  1.00  0.00     0.008 A 
ATOM     17  C   UNL     1      42.053 125.973  24.267  1.00  0.00     0.000 A 
ATOM     18  C   UNL     1      40.913 126.731  24.623  1.00  0.00     0.001 A 
ENDBRANCH   9  10
BRANCH   9  19
ATOM     19  C   UNL     1      44.659 131.163  21.134  1.00  0.00    -0.025 A 
ATOM     20  C   UNL     1      45.896 130.627  20.761  1.00  0.00     0.005 A 
ATOM     21  C   UNL     1      43.793 131.685  20.149  1.00  0.00     0.018 A 
ATOM     22  C   UNL     1      46.269 130.574  19.418  1.00  0.00     0.009 A 
ATOM     23  C   UNL     1      44.175 131.618  18.797  1.00  0.00     0.020 A 
ATOM     24  C   UNL     1      45.408 131.057  18.421  1.00  0.00    -0.018 A 
BRANCH  21  25
ATOM     25  C   UNL     1      42.501 132.301  20.526  1.00  0.00     0.260 C 
ATOM     26  O   UNL     1      41.943 133.149  19.780  1.00  0.00    -0.298 OA
ENDBRANCH  21  25
BRANCH  24  27
ATOM     27  C   UNL     1      45.791 130.973  16.990  1.00  0.00    -0.018 A 
ATOM     28  C   UNL     1      46.344 129.790  16.467  1.00  0.00     0.009 A 
ATOM     29  C   UNL     1      45.607 132.074  16.136  1.00  0.00     0.009 A 
ATOM     30  C   UNL     1      46.704 129.712  15.118  1.00  0.00     0.004 A 
ATOM     31  C   UNL     1      45.968 131.994  14.787  1.00  0.00     0.004 A 
ATOM     32  C   UNL     1      46.503 130.807  14.267  1.00  0.00    -0.051 A 
ATOM     33  C   UNL     1      46.924 130.729  12.829  1.00  0.00     0.044 C 
ENDBRANCH  24  27
ENDBRANCH   9  19
ENDBRANCH   7   9
ENDBRANCH   1   7
TORSDOF 9
ENDMDL
MODEL 2
REMARK VINA RESULT:      -3.7      0.595      1.040
REMARK SMILES Cc1ccc(-c2ccc(N(C(=O)C/C=C(/O)Cl)c3cc4ccccc4[n-]3)c(C=O)c2)cc1
REMARK SMILES IDX 13 1 14 2 15 3 17 4 16 5 11 7 12 8 10 9 18 10 26 11 19 12
REMARK SMILES IDX 25 13 20 14 24 15 21 16 23 17 22 18 9 19 8 20 27 21 7 22
REMARK SMILES IDX 30 23 6 24 28 25 29 26 5 27 4 28 31 29 3 30 32 31 2 32 1 33
REMARK H PARENT 16 6
ROOT
ATOM      1  C   UNL     1      45.114 133.432  22.716  1.00  0.00     0.109 C 
ENDROOT
BRANCH   1   2
ATOM      2  C   UNL     1      46.532 133.077  22.358  1.00  0.00     0.040 C 
BRANCH   2   3
ATOM      3  C   UNL     1      47.585 133.891  22.537  1.00  0.00     0.180 C 
ATOM      4  Cl  UNL     1      48.598 133.827  23.973  1.00  0.00    -0.044 Cl
BRANCH   3   5
ATOM      5  O   UNL     1      47.906 134.837  21.565  1.00  0.00    -0.499 OA
ATOM      6  H   UNL     1      47.273 135.588  21.317  1.00  0.00     0.294 HD
ENDBRANCH   3   5
ENDBRANCH   2   3
ENDBRANCH   1   2
BRANCH   1   7
ATOM      7  C   UNL     1      44.389 132.217  23.226  1.00  0.00     0.155 C 
ATOM      8  O   UNL     1      43.960 132.222  24.412  1.00  0.00    -0.298 OA
BRANCH   7   9
ATOM      9  N   UNL     1      44.228 131.041  22.405  1.00  0.00    -0.387 N 
BRANCH   9  10
ATOM     10  C   UNL     1      43.662 129.823  22.925  1.00  0.00    -0.051 A 
ATOM     11  N   UNL     1      44.223 128.606  22.715  1.00  0.00    -0.435 NA
ATOM     12  C   UNL     1      42.466 129.731  23.639  1.00  0.00     0.008 A 
ATOM     13  C   UNL     1      43.381 127.745  23.313  1.00  0.00    -0.034 A 
ATOM     14  C   UNL     1      42.311 128.388  23.879  1.00  0.00    -0.023 A 
ATOM     15  C   UNL     1      43.512 126.358  23.375  1.00  0.00     0.004 A 
ATOM     16  C   UNL     1      41.299 127.697  24.540  1.00  0.00     0.008 A 
ATOM     17  C   UNL     1      42.507 125.629  24.037  1.00  0.00     0.000 A 
ATOM     18  C   UNL     1      41.404 126.296  24.618  1.00  0.00     0.001 A 
ENDBRANCH   9  10
BRANCH   9  19
ATOM     19  C   UNL     1      44.639 131.069  21.027  1.00  0.00    -0.025 A 
ATOM     20  C   UNL     1      45.743 130.306  20.633  1.00  0.00     0.005 A 
ATOM     21  C   UNL     1      43.940 131.839  20.071  1.00  0.00     0.018 A 
ATOM     22  C   UNL     1      46.141 130.272  19.297  1.00  0.00     0.009 A 
ATOM     23  C   UNL     1      44.345 131.791  18.725  1.00  0.00     0.020 A 
ATOM     24  C   UNL     1      45.440 131.004  18.327  1.00  0.00    -0.018 A 
BRANCH  21  25
ATOM     25  C   UNL     1      42.799 132.692  20.473  1.00  0.00     0.260 C 
ATOM     26  O   UNL     1      41.615 132.265  20.410  1.00  0.00    -0.298 OA
ENDBRANCH  21  25
BRANCH  24  27
ATOM     27  C   UNL     1      45.846 130.944  16.901  1.00  0.00    -0.018 A 
ATOM     28  C   UNL     1      45.542 132.003  16.027  1.00  0.00     0.009 A 
ATOM     29  C   UNL     1      46.540 129.828  16.403  1.00  0.00     0.009 A 
ATOM     30  C   UNL     1      45.925 131.946  14.684  1.00  0.00     0.004 A 
ATOM     31  C   UNL     1      46.923 129.773  15.059  1.00  0.00     0.004 A 
ATOM     32  C   UNL     1      46.631 130.838  14.196  1.00  0.00    -0.051 A 
ATOM     33  C   UNL     1      47.009 130.766  12.745  1.00  0.00     0.044 C 
ENDBRANCH  24  27
ENDBRANCH   9  19
ENDBRANCH   7   9
ENDBRANCH   1   7
TORSDOF 9
ENDMDL


