MODEL 1
REMARK VINA RESULT:      -8.4      0.000      0.000
REMARK SMILES C=CC(=O)N1CCC[C@@H](c2ccc3ccc(C)c(F)c3n2)[C@@H]1F
REMARK SMILES IDX 5 1 6 2 7 3 8 4 9 5 22 6 23 7 3 8 4 9 2 10 1 11 10 12 11 13
REMARK SMILES IDX 21 14 12 15 20 16 13 17 18 18 14 19 16 20 15 21 19 22 17 23
REMARK H PARENT
ROOT
ATOM      1  N   UNL     1      45.602 130.847  14.681  1.00  0.00    -0.308 N 
ATOM      2  C   UNL     1      44.256 130.976  14.104  1.00  0.00     0.123 C 
ATOM      3  C   UNL     1      43.424 131.985  14.897  1.00  0.00     0.022 C 
ATOM      4  C   UNL     1      43.416 131.627  16.386  1.00  0.00     0.017 C 
ATOM      5  C   UNL     1      44.854 131.562  16.930  1.00  0.00     0.093 C 
ATOM      6  C   UNL     1      45.708 130.563  16.123  1.00  0.00     0.274 C 
ATOM      7  F   UNL     1      47.027 130.671  16.541  1.00  0.00    -0.223 F 
ENDROOT
BRANCH   1   8
ATOM      8  C   UNL     1      46.708 130.544  13.810  1.00  0.00     0.248 C 
ATOM      9  O   UNL     1      46.932 131.276  12.806  1.00  0.00    -0.270 OA
BRANCH   8  10
ATOM     10  C   UNL     1      47.561 129.368  14.072  1.00  0.00     0.063 C 
ATOM     11  C   UNL     1      48.784 129.244  13.558  1.00  0.00     0.014 C 
ENDBRANCH   8  10
ENDBRANCH   1   8
BRANCH   5  12
ATOM     12  C   UNL     1      44.868 131.238  18.406  1.00  0.00     0.049 A 
ATOM     13  C   UNL     1      45.876 130.443  18.979  1.00  0.00     0.025 A 
ATOM     14  N   UNL     1      43.876 131.733  19.199  1.00  0.00    -0.249 NA
ATOM     15  C   UNL     1      45.849 130.171  20.348  1.00  0.00     0.012 A 
ATOM     16  C   UNL     1      43.824 131.485  20.535  1.00  0.00     0.106 A 
ATOM     17  C   UNL     1      44.819 130.690  21.142  1.00  0.00     0.003 A 
ATOM     18  C   UNL     1      42.783 132.015  21.310  1.00  0.00     0.152 A 
ATOM     19  C   UNL     1      44.762 130.432  22.518  1.00  0.00     0.011 A 
ATOM     20  C   UNL     1      42.734 131.764  22.692  1.00  0.00    -0.013 A 
ATOM     21  C   UNL     1      43.722 130.962  23.287  1.00  0.00     0.007 A 
ATOM     22  F   UNL     1      41.822 132.772  20.719  1.00  0.00    -0.204 F 
ATOM     23  C   UNL     1      41.606 132.312  23.518  1.00  0.00     0.047 C 
ENDBRANCH   5  12
TORSDOF 3
ENDMDL
MODEL 2
REMARK VINA RESULT:      -7.2      1.717      2.455
REMARK SMILES C=CC(=O)N1CCC[C@@H](c2ccc3ccc(C)c(F)c3n2)[C@@H]1F
REMARK SMILES IDX 5 1 6 2 7 3 8 4 9 5 22 6 23 7 3 8 4 9 2 10 1 11 10 12 11 13
REMARK SMILES IDX 21 14 12 15 20 16 13 17 18 18 14 19 16 20 15 21 19 22 17 23
REMARK H PARENT
ROOT
ATOM      1  N   UNL     1      45.650 130.525  15.536  1.00  0.00    -0.308 N 
ATOM      2  C   UNL     1      44.578 130.652  14.539  1.00  0.00     0.123 C 
ATOM      3  C   UNL     1      43.697 131.864  14.847  1.00  0.00     0.022 C 
ATOM      4  C   UNL     1      43.184 131.807  16.289  1.00  0.00     0.017 C 
ATOM      5  C   UNL     1      44.363 131.729  17.274  1.00  0.00     0.093 C 
ATOM      6  C   UNL     1      45.271 130.522  16.960  1.00  0.00     0.274 C 
ATOM      7  F   UNL     1      46.400 130.598  17.762  1.00  0.00    -0.223 F 
ENDROOT
BRANCH   1   8
ATOM      8  C   UNL     1      46.914 129.964  15.133  1.00  0.00     0.248 C 
ATOM      9  O   UNL     1      47.679 129.457  15.999  1.00  0.00    -0.270 OA
BRANCH   8  10
ATOM     10  C   UNL     1      47.327 130.004  13.715  1.00  0.00     0.063 C 
ATOM     11  C   UNL     1      47.762 131.118  13.129  1.00  0.00     0.014 C 
ENDBRANCH   8  10
ENDBRANCH   1   8
BRANCH   5  12
ATOM     12  C   UNL     1      43.880 131.701  18.707  1.00  0.00     0.049 A 
ATOM     13  C   UNL     1      42.859 132.555  19.158  1.00  0.00     0.025 A 
ATOM     14  N   UNL     1      44.451 130.823  19.578  1.00  0.00    -0.249 NA
ATOM     15  C   UNL     1      42.443 132.494  20.490  1.00  0.00     0.012 A 
ATOM     16  C   UNL     1      44.067 130.741  20.881  1.00  0.00     0.106 A 
ATOM     17  C   UNL     1      43.045 131.584  21.367  1.00  0.00     0.003 A 
ATOM     18  C   UNL     1      44.684 129.822  21.740  1.00  0.00     0.152 A 
ATOM     19  C   UNL     1      42.653 131.501  22.709  1.00  0.00     0.011 A 
ATOM     20  C   UNL     1      44.281 129.733  23.084  1.00  0.00    -0.013 A 
ATOM     21  C   UNL     1      43.272 130.584  23.563  1.00  0.00     0.007 A 
ATOM     22  F   UNL     1      45.673 129.019  21.269  1.00  0.00    -0.204 F 
ATOM     23  C   UNL     1      44.959 128.765  24.011  1.00  0.00     0.047 C 
ENDBRANCH   5  12
TORSDOF 3
ENDMDL
MODEL 3
REMARK VINA RESULT:      -6.6      2.593      7.391
REMARK SMILES C=CC(=O)N1CCC[C@@H](c2ccc3ccc(C)c(F)c3n2)[C@@H]1F
REMARK SMILES IDX 5 1 6 2 7 3 8 4 9 5 22 6 23 7 3 8 4 9 2 10 1 11 10 12 11 13
REMARK SMILES IDX 21 14 12 15 20 16 13 17 18 18 14 19 16 20 15 21 19 22 17 23
REMARK H PARENT
ROOT
ATOM      1  N   UNL     1      43.762 131.652  20.535  1.00  0.00    -0.308 N 
ATOM      2  C   UNL     1      42.590 132.532  20.651  1.00  0.00     0.123 C 
ATOM      3  C   UNL     1      41.564 132.209  19.564  1.00  0.00     0.022 C 
ATOM      4  C   UNL     1      42.215 132.243  18.179  1.00  0.00     0.017 C 
ATOM      5  C   UNL     1      43.398 131.260  18.118  1.00  0.00     0.093 C 
ATOM      6  C   UNL     1      44.429 131.563  19.224  1.00  0.00     0.274 C 
ATOM      7  F   UNL     1      45.379 130.552  19.232  1.00  0.00    -0.223 F 
ENDROOT
BRANCH   1   8
ATOM      8  C   UNL     1      44.481 131.288  21.728  1.00  0.00     0.248 C 
ATOM      9  O   UNL     1      45.229 132.134  22.291  1.00  0.00    -0.270 OA
BRANCH   8  10
ATOM     10  C   UNL     1      44.365 129.922  22.279  1.00  0.00     0.063 C 
ATOM     11  C   UNL     1      43.601 129.640  23.334  1.00  0.00     0.014 C 
ENDBRANCH   8  10
ENDBRANCH   1   8
BRANCH   5  12
ATOM     12  C   UNL     1      44.038 131.256  16.748  1.00  0.00     0.049 A 
ATOM     13  C   UNL     1      43.410 131.847  15.638  1.00  0.00     0.025 A 
ATOM     14  N   UNL     1      45.256 130.665  16.591  1.00  0.00    -0.249 NA
ATOM     15  C   UNL     1      44.040 131.820  14.392  1.00  0.00     0.012 A 
ATOM     16  C   UNL     1      45.893 130.624  15.390  1.00  0.00     0.106 A 
ATOM     17  C   UNL     1      45.290 131.206  14.255  1.00  0.00     0.003 A 
ATOM     18  C   UNL     1      47.144 130.003  15.278  1.00  0.00     0.152 A 
ATOM     19  C   UNL     1      45.945 131.160  13.018  1.00  0.00     0.011 A 
ATOM     20  C   UNL     1      47.805 129.968  14.037  1.00  0.00    -0.013 A 
ATOM     21  C   UNL     1      47.194 130.541  12.910  1.00  0.00     0.007 A 
ATOM     22  F   UNL     1      47.716 129.436  16.372  1.00  0.00    -0.204 F 
ATOM     23  C   UNL     1      49.135 129.283  13.911  1.00  0.00     0.047 C 
ENDBRANCH   5  12
TORSDOF 3
ENDMDL
MODEL 4
REMARK VINA RESULT:      -6.4      2.504      7.849
REMARK SMILES C=CC(=O)N1CCC[C@@H](c2ccc3ccc(C)c(F)c3n2)[C@@H]1F
REMARK SMILES IDX 5 1 6 2 7 3 8 4 9 5 22 6 23 7 3 8 4 9 2 10 1 11 10 12 11 13
REMARK SMILES IDX 21 14 12 15 20 16 13 17 18 18 14 19 16 20 15 21 19 22 17 23
REMARK H PARENT
ROOT
ATOM      1  N   UNL     1      43.146 131.466  21.497  1.00  0.00    -0.308 N 
ATOM      2  C   UNL     1      43.809 130.329  22.151  1.00  0.00     0.123 C 
ATOM      3  C   UNL     1      45.255 130.197  21.668  1.00  0.00     0.022 C 
ATOM      4  C   UNL     1      45.309 130.135  20.139  1.00  0.00     0.017 C 
ATOM      5  C   UNL     1      44.644 131.381  19.528  1.00  0.00     0.093 C 
ATOM      6  C   UNL     1      43.193 131.536  20.025  1.00  0.00     0.274 C 
ATOM      7  F   UNL     1      42.702 132.757  19.584  1.00  0.00    -0.223 F 
ENDROOT
BRANCH   1   8
ATOM      8  C   UNL     1      42.126 132.185  22.215  1.00  0.00     0.248 C 
ATOM      9  O   UNL     1      41.419 133.038  21.610  1.00  0.00    -0.270 OA
BRANCH   8  10
ATOM     10  C   UNL     1      41.922 131.946  23.658  1.00  0.00     0.063 C 
ATOM     11  C   UNL     1      42.860 132.215  24.565  1.00  0.00     0.014 C 
ENDBRANCH   8  10
ENDBRANCH   1   8
BRANCH   5  12
ATOM     12  C   UNL     1      44.713 131.355  18.018  1.00  0.00     0.049 A 
ATOM     13  C   UNL     1      43.671 131.861  17.221  1.00  0.00     0.025 A 
ATOM     14  N   UNL     1      45.817 130.827  17.418  1.00  0.00    -0.249 NA
ATOM     15  C   UNL     1      43.779 131.817  15.830  1.00  0.00     0.012 A 
ATOM     16  C   UNL     1      45.950 130.770  16.065  1.00  0.00     0.106 A 
ATOM     17  C   UNL     1      44.922 131.269  15.237  1.00  0.00     0.003 A 
ATOM     18  C   UNL     1      47.104 130.217  15.494  1.00  0.00     0.152 A 
ATOM     19  C   UNL     1      45.059 131.207  13.844  1.00  0.00     0.011 A 
ATOM     20  C   UNL     1      47.243 130.166  14.096  1.00  0.00    -0.013 A 
ATOM     21  C   UNL     1      46.211 130.654  13.278  1.00  0.00     0.007 A 
ATOM     22  F   UNL     1      48.086 129.730  16.296  1.00  0.00    -0.204 F 
ATOM     23  C   UNL     1      48.469 129.552  13.483  1.00  0.00     0.047 C 
ENDBRANCH   5  12
TORSDOF 3
ENDMDL
MODEL 5
REMARK VINA RESULT:      -5.6      2.922      7.751
REMARK SMILES C=CC(=O)N1CCC[C@@H](c2ccc3ccc(C)c(F)c3n2)[C@@H]1F
REMARK SMILES IDX 5 1 6 2 7 3 8 4 9 5 22 6 23 7 3 8 4 9 2 10 1 11 10 12 11 13
REMARK SMILES IDX 21 14 12 15 20 16 13 17 18 18 14 19 16 20 15 21 19 22 17 23
REMARK H PARENT
ROOT
ATOM      1  N   UNL     1      43.451 131.181  22.540  1.00  0.00    -0.308 N 
ATOM      2  C   UNL     1      44.814 131.109  23.086  1.00  0.00     0.123 C 
ATOM      3  C   UNL     1      45.746 132.063  22.336  1.00  0.00     0.022 C 
ATOM      4  C   UNL     1      45.679 131.808  20.828  1.00  0.00     0.017 C 
ATOM      5  C   UNL     1      44.233 131.951  20.322  1.00  0.00     0.093 C 
ATOM      6  C   UNL     1      43.281 131.009  21.087  1.00  0.00     0.274 C 
ATOM      7  F   UNL     1      41.977 131.302  20.715  1.00  0.00    -0.223 F 
ENDROOT
BRANCH   1   8
ATOM      8  C   UNL     1      42.335 130.954  23.422  1.00  0.00     0.248 C 
ATOM      9  O   UNL     1      41.502 131.879  23.627  1.00  0.00    -0.270 OA
BRANCH   8  10
ATOM     10  C   UNL     1      42.178 129.653  24.104  1.00  0.00     0.063 C 
ATOM     11  C   UNL     1      42.178 128.496  23.444  1.00  0.00     0.014 C 
ENDBRANCH   8  10
ENDBRANCH   1   8
BRANCH   5  12
ATOM     12  C   UNL     1      44.150 131.732  18.829  1.00  0.00     0.049 A 
ATOM     13  C   UNL     1      43.019 132.114  18.087  1.00  0.00     0.025 A 
ATOM     14  N   UNL     1      45.202 131.148  18.189  1.00  0.00    -0.249 NA
ATOM     15  C   UNL     1      42.987 131.893  16.709  1.00  0.00     0.012 A 
ATOM     16  C   UNL     1      45.200 130.920  16.848  1.00  0.00     0.106 A 
ATOM     17  C   UNL     1      44.080 131.291  16.074  1.00  0.00     0.003 A 
ATOM     18  C   UNL     1      46.306 130.316  16.234  1.00  0.00     0.152 A 
ATOM     19  C   UNL     1      44.077 131.053  14.694  1.00  0.00     0.011 A 
ATOM     20  C   UNL     1      46.304 130.088  14.847  1.00  0.00    -0.013 A 
ATOM     21  C   UNL     1      45.181 130.450  14.085  1.00  0.00     0.007 A 
ATOM     22  F   UNL     1      47.377 129.953  16.985  1.00  0.00    -0.204 F 
ATOM     23  C   UNL     1      47.479 129.420  14.193  1.00  0.00     0.047 C 
ENDBRANCH   5  12
TORSDOF 3
ENDMDL


