MODEL 1
REMARK VINA RESULT:      -8.5      0.000      0.000
REMARK SMILES C=C1C(=O)OC[C@H]1C(=O)N(N)c1cccc2cc3ccccc3cc12
REMARK SMILES IDX 8 1 9 2 7 3 2 4 3 5 5 6 6 7 1 8 4 9 10 10 11 11 12 14 13 15
REMARK SMILES IDX 25 16 14 17 24 18 16 19 15 20 23 21 17 22 22 23 18 24 21 25
REMARK SMILES IDX 19 26 20 27
REMARK H PARENT 11 12 11 13
ROOT
ATOM      1  C   UNL     1      45.024 129.720  21.649  1.00  0.00     0.252 C 
ATOM      2  O   UNL     1      45.356 128.744  20.920  1.00  0.00    -0.272 OA
ENDROOT
BRANCH   1   3
ATOM      3  C   UNL     1      44.648 129.475  23.093  1.00  0.00     0.155 C 
ATOM      4  C   UNL     1      43.164 129.481  23.300  1.00  0.00     0.046 C 
ATOM      5  C   UNL     1      42.783 128.187  23.806  1.00  0.00     0.334 C 
ATOM      6  O   UNL     1      43.888 127.376  23.945  1.00  0.00    -0.461 OA
ATOM      7  C   UNL     1      45.080 128.055  23.556  1.00  0.00     0.251 C 
ATOM      8  C   UNL     1      42.349 130.517  23.102  1.00  0.00     0.021 C 
ATOM      9  O   UNL     1      41.611 127.826  24.093  1.00  0.00    -0.247 OA
ENDBRANCH   1   3
BRANCH   1  10
ATOM     10  N   UNL     1      45.080 131.057  21.118  1.00  0.00    -0.247 N 
BRANCH  10  11
ATOM     11  N   UNL     1      46.062 131.956  21.571  1.00  0.00    -0.241 NA
ATOM     12  H   UNL     1      45.744 132.924  21.338  1.00  0.00     0.144 HD
ATOM     13  H   UNL     1      46.106 131.879  22.613  1.00  0.00     0.144 HD
ENDBRANCH  10  11
BRANCH  10  14
ATOM     14  C   UNL     1      44.084 131.507  20.184  1.00  0.00     0.068 A 
ATOM     15  C   UNL     1      42.908 132.092  20.674  1.00  0.00     0.028 A 
ATOM     16  C   UNL     1      44.268 131.366  18.788  1.00  0.00     0.008 A 
ATOM     17  C   UNL     1      41.911 132.520  19.798  1.00  0.00     0.003 A 
ATOM     18  C   UNL     1      45.449 130.815  18.254  1.00  0.00     0.019 A 
ATOM     19  C   UNL     1      43.246 131.801  17.904  1.00  0.00    -0.016 A 
ATOM     20  C   UNL     1      42.075 132.374  18.421  1.00  0.00     0.009 A 
ATOM     21  C   UNL     1      45.610 130.677  16.869  1.00  0.00    -0.018 A 
ATOM     22  C   UNL     1      43.409 131.663  16.517  1.00  0.00     0.017 A 
ATOM     23  C   UNL     1      46.785 130.120  16.340  1.00  0.00     0.009 A 
ATOM     24  C   UNL     1      44.582 131.102  15.994  1.00  0.00    -0.018 A 
ATOM     25  C   UNL     1      46.938 129.985  14.957  1.00  0.00     0.001 A 
ATOM     26  C   UNL     1      44.749 130.962  14.607  1.00  0.00     0.009 A 
ATOM     27  C   UNL     1      45.923 130.405  14.093  1.00  0.00     0.001 A 
ENDBRANCH  10  14
ENDBRANCH   1  10
TORSDOF 4
ENDMDL
MODEL 2
REMARK VINA RESULT:      -8.0      1.201      1.483
REMARK SMILES C=C1C(=O)OC[C@H]1C(=O)N(N)c1cccc2cc3ccccc3cc12
REMARK SMILES IDX 8 1 9 2 7 3 2 4 3 5 5 6 6 7 1 8 4 9 10 10 11 11 12 14 13 15
REMARK SMILES IDX 25 16 14 17 24 18 16 19 15 20 23 21 17 22 22 23 18 24 21 25
REMARK SMILES IDX 19 26 20 27
REMARK H PARENT 11 12 11 13
ROOT
ATOM      1  C   UNL     1      45.028 130.095  21.813  1.00  0.00     0.252 C 
ATOM      2  O   UNL     1      45.668 129.139  21.292  1.00  0.00    -0.272 OA
ENDROOT
BRANCH   1   3
ATOM      3  C   UNL     1      44.332 129.885  23.140  1.00  0.00     0.155 C 
ATOM      4  C   UNL     1      43.832 131.171  23.726  1.00  0.00     0.046 C 
ATOM      5  C   UNL     1      42.401 131.070  23.858  1.00  0.00     0.334 C 
ATOM      6  O   UNL     1      41.960 129.840  23.421  1.00  0.00    -0.461 OA
ATOM      7  C   UNL     1      43.045 129.029  22.975  1.00  0.00     0.251 C 
ATOM      8  C   UNL     1      44.584 132.204  24.106  1.00  0.00     0.021 C 
ATOM      9  O   UNL     1      41.640 131.964  24.311  1.00  0.00    -0.247 OA
ENDBRANCH   1   3
BRANCH   1  10
ATOM     10  N   UNL     1      45.031 131.386  21.178  1.00  0.00    -0.247 N 
BRANCH  10  11
ATOM     11  N   UNL     1      45.990 132.348  21.540  1.00  0.00    -0.241 NA
ATOM     12  H   UNL     1      45.632 132.860  22.377  1.00  0.00     0.144 HD
ATOM     13  H   UNL     1      46.858 131.840  21.826  1.00  0.00     0.144 HD
ENDBRANCH  10  11
BRANCH  10  14
ATOM     14  C   UNL     1      44.005 131.729  20.231  1.00  0.00     0.068 A 
ATOM     15  C   UNL     1      42.813 132.300  20.698  1.00  0.00     0.028 A 
ATOM     16  C   UNL     1      44.175 131.497  18.845  1.00  0.00     0.008 A 
ATOM     17  C   UNL     1      41.787 132.626  19.810  1.00  0.00     0.003 A 
ATOM     18  C   UNL     1      45.370 130.956  18.333  1.00  0.00     0.019 A 
ATOM     19  C   UNL     1      43.125 131.828  17.950  1.00  0.00    -0.016 A 
ATOM     20  C   UNL     1      41.938 132.389  18.444  1.00  0.00     0.009 A 
ATOM     21  C   UNL     1      45.518 130.727  16.958  1.00  0.00    -0.018 A 
ATOM     22  C   UNL     1      43.275 131.598  16.574  1.00  0.00     0.017 A 
ATOM     23  C   UNL     1      46.708 130.181  16.451  1.00  0.00     0.009 A 
ATOM     24  C   UNL     1      44.462 131.048  16.072  1.00  0.00    -0.018 A 
ATOM     25  C   UNL     1      46.847 129.954  15.078  1.00  0.00     0.001 A 
ATOM     26  C   UNL     1      44.616 130.817  14.696  1.00  0.00     0.009 A 
ATOM     27  C   UNL     1      45.805 130.272  14.203  1.00  0.00     0.001 A 
ENDBRANCH  10  14
ENDBRANCH   1  10
TORSDOF 4
ENDMDL
MODEL 3
REMARK VINA RESULT:      -7.5      1.167      1.258
REMARK SMILES C=C1C(=O)OC[C@H]1C(=O)N(N)c1cccc2cc3ccccc3cc12
REMARK SMILES IDX 8 1 9 2 7 3 2 4 3 5 5 6 6 7 1 8 4 9 10 10 11 11 12 14 13 15
REMARK SMILES IDX 25 16 14 17 24 18 16 19 15 20 23 21 17 22 22 23 18 24 21 25
REMARK SMILES IDX 19 26 20 27
REMARK H PARENT 11 12 11 13
ROOT
ATOM      1  C   UNL     1      45.024 131.320  22.019  1.00  0.00     0.252 C 
ATOM      2  O   UNL     1      45.316 132.532  22.221  1.00  0.00    -0.272 OA
ENDROOT
BRANCH   1   3
ATOM      3  C   UNL     1      44.606 130.452  23.185  1.00  0.00     0.155 C 
ATOM      4  C   UNL     1      43.140 130.565  23.477  1.00  0.00     0.046 C 
ATOM      5  C   UNL     1      42.556 129.258  23.317  1.00  0.00     0.334 C 
ATOM      6  O   UNL     1      43.518 128.337  22.963  1.00  0.00    -0.461 OA
ATOM      7  C   UNL     1      44.805 128.944  22.867  1.00  0.00     0.251 C 
ATOM      8  C   UNL     1      42.501 131.667  23.866  1.00  0.00     0.021 C 
ATOM      9  O   UNL     1      41.341 128.971  23.477  1.00  0.00    -0.247 OA
ENDBRANCH   1   3
BRANCH   1  10
ATOM     10  N   UNL     1      45.020 130.802  20.676  1.00  0.00    -0.247 N 
BRANCH  10  11
ATOM     11  N   UNL     1      45.990 129.866  20.278  1.00  0.00    -0.241 NA
ATOM     12  H   UNL     1      45.608 128.910  20.462  1.00  0.00     0.144 HD
ATOM     13  H   UNL     1      46.119 129.962  19.245  1.00  0.00     0.144 HD
ENDBRANCH  10  11
BRANCH  10  14
ATOM     14  C   UNL     1      44.078 131.301  19.711  1.00  0.00     0.068 A 
ATOM     15  C   UNL     1      42.866 131.844  20.163  1.00  0.00     0.028 A 
ATOM     16  C   UNL     1      44.349 131.250  18.323  1.00  0.00     0.008 A 
ATOM     17  C   UNL     1      41.920 132.318  19.254  1.00  0.00     0.003 A 
ATOM     18  C   UNL     1      45.568 130.744  17.831  1.00  0.00     0.019 A 
ATOM     19  C   UNL     1      43.379 131.731  17.407  1.00  0.00    -0.016 A 
ATOM     20  C   UNL     1      42.170 132.260  17.884  1.00  0.00     0.009 A 
ATOM     21  C   UNL     1      45.815 130.695  16.453  1.00  0.00    -0.018 A 
ATOM     22  C   UNL     1      43.629 131.682  16.027  1.00  0.00     0.017 A 
ATOM     23  C   UNL     1      47.028 130.182  15.965  1.00  0.00     0.009 A 
ATOM     24  C   UNL     1      44.838 131.165  15.544  1.00  0.00    -0.018 A 
ATOM     25  C   UNL     1      47.268 130.136  14.588  1.00  0.00     0.001 A 
ATOM     26  C   UNL     1      45.092 131.113  14.164  1.00  0.00     0.009 A 
ATOM     27  C   UNL     1      46.303 130.600  13.690  1.00  0.00     0.001 A 
ENDBRANCH  10  14
ENDBRANCH   1  10
TORSDOF 4
ENDMDL
MODEL 4
REMARK VINA RESULT:      -6.6      2.295      6.608
REMARK SMILES C=C1C(=O)OC[C@H]1C(=O)N(N)c1cccc2cc3ccccc3cc12
REMARK SMILES IDX 8 1 9 2 7 3 2 4 3 5 5 6 6 7 1 8 4 9 10 10 11 11 12 14 13 15
REMARK SMILES IDX 25 16 14 17 24 18 16 19 15 20 23 21 17 22 22 23 18 24 21 25
REMARK SMILES IDX 19 26 20 27
REMARK H PARENT 11 12 11 13
ROOT
ATOM      1  C   UNL     1      45.349 131.018  19.194  1.00  0.00     0.252 C 
ATOM      2  O   UNL     1      45.636 129.875  18.740  1.00  0.00    -0.272 OA
ENDROOT
BRANCH   1   3
ATOM      3  C   UNL     1      44.710 132.041  18.282  1.00  0.00     0.155 C 
ATOM      4  C   UNL     1      44.975 131.752  16.835  1.00  0.00     0.046 C 
ATOM      5  C   UNL     1      43.705 131.546  16.187  1.00  0.00     0.334 C 
ATOM      6  O   UNL     1      42.672 131.688  17.087  1.00  0.00    -0.461 OA
ATOM      7  C   UNL     1      43.160 132.004  18.389  1.00  0.00     0.251 C 
ATOM      8  C   UNL     1      46.168 131.741  16.243  1.00  0.00     0.021 C 
ATOM      9  O   UNL     1      43.537 131.276  14.968  1.00  0.00    -0.247 OA
ENDBRANCH   1   3
BRANCH   1  10
ATOM     10  N   UNL     1      45.564 131.305  20.588  1.00  0.00    -0.247 N 
BRANCH  10  11
ATOM     11  N   UNL     1      46.799 131.818  21.021  1.00  0.00    -0.241 NA
ATOM     12  H   UNL     1      47.041 132.631  20.410  1.00  0.00     0.144 HD
ATOM     13  H   UNL     1      46.670 132.178  21.993  1.00  0.00     0.144 HD
ENDBRANCH  10  11
BRANCH  10  14
ATOM     14  C   UNL     1      44.548 130.991  21.556  1.00  0.00     0.068 A 
ATOM     15  C   UNL     1      43.619 131.980  21.910  1.00  0.00     0.028 A 
ATOM     16  C   UNL     1      44.473 129.712  22.156  1.00  0.00     0.008 A 
ATOM     17  C   UNL     1      42.633 131.718  22.861  1.00  0.00     0.003 A 
ATOM     18  C   UNL     1      45.367 128.682  21.804  1.00  0.00     0.019 A 
ATOM     19  C   UNL     1      43.469 129.456  23.126  1.00  0.00    -0.016 A 
ATOM     20  C   UNL     1      42.558 130.466  23.470  1.00  0.00     0.009 A 
ATOM     21  C   UNL     1      45.281 127.424  22.414  1.00  0.00    -0.018 A 
ATOM     22  C   UNL     1      43.385 128.195  23.736  1.00  0.00     0.017 A 
ATOM     23  C   UNL     1      46.178 126.401  22.067  1.00  0.00     0.009 A 
ATOM     24  C   UNL     1      44.285 127.179  23.389  1.00  0.00    -0.018 A 
ATOM     25  C   UNL     1      46.088 125.148  22.681  1.00  0.00     0.001 A 
ATOM     26  C   UNL     1      44.205 125.916  23.998  1.00  0.00     0.009 A 
ATOM     27  C   UNL     1      45.104 124.906  23.643  1.00  0.00     0.001 A 
ENDBRANCH  10  14
ENDBRANCH   1  10
TORSDOF 4
ENDMDL
MODEL 5
REMARK VINA RESULT:      -6.2      1.309      1.494
REMARK SMILES C=C1C(=O)OC[C@H]1C(=O)N(N)c1cccc2cc3ccccc3cc12
REMARK SMILES IDX 8 1 9 2 7 3 2 4 3 5 5 6 6 7 1 8 4 9 10 10 11 11 12 14 13 15
REMARK SMILES IDX 25 16 14 17 24 18 16 19 15 20 23 21 17 22 22 23 18 24 21 25
REMARK SMILES IDX 19 26 20 27
REMARK H PARENT 11 12 11 13
ROOT
ATOM      1  C   UNL     1      44.427 130.699  23.464  1.00  0.00     0.252 C 
ATOM      2  O   UNL     1      44.516 131.842  23.993  1.00  0.00    -0.272 OA
ENDROOT
BRANCH   1   3
ATOM      3  C   UNL     1      44.127 129.499  24.335  1.00  0.00     0.155 C 
ATOM      4  C   UNL     1      42.733 128.987  24.133  1.00  0.00     0.046 C 
ATOM      5  C   UNL     1      42.825 127.629  23.662  1.00  0.00     0.334 C 
ATOM      6  O   UNL     1      44.142 127.239  23.560  1.00  0.00    -0.461 OA
ATOM      7  C   UNL     1      45.024 128.287  23.957  1.00  0.00     0.251 C 
ATOM      8  C   UNL     1      41.608 129.653  24.393  1.00  0.00     0.021 C 
ATOM      9  O   UNL     1      41.852 126.882  23.380  1.00  0.00    -0.247 OA
ENDBRANCH   1   3
BRANCH   1  10
ATOM     10  N   UNL     1      44.536 130.564  22.035  1.00  0.00    -0.247 N 
BRANCH  10  11
ATOM     11  N   UNL     1      45.556 129.773  21.477  1.00  0.00    -0.241 NA
ATOM     12  H   UNL     1      45.335 128.773  21.681  1.00  0.00     0.144 HD
ATOM     13  H   UNL     1      45.524 129.900  20.440  1.00  0.00     0.144 HD
ENDBRANCH  10  11
BRANCH  10  14
ATOM     14  C   UNL     1      43.656 131.302  21.169  1.00  0.00     0.068 A 
ATOM     15  C   UNL     1      42.566 131.982  21.730  1.00  0.00     0.028 A 
ATOM     16  C   UNL     1      43.868 131.348  19.772  1.00  0.00     0.008 A 
ATOM     17  C   UNL     1      41.680 132.690  20.918  1.00  0.00     0.003 A 
ATOM     18  C   UNL     1      44.970 130.706  19.174  1.00  0.00     0.019 A 
ATOM     19  C   UNL     1      42.959 132.068  18.953  1.00  0.00    -0.016 A 
ATOM     20  C   UNL     1      41.871 132.732  19.537  1.00  0.00     0.009 A 
ATOM     21  C   UNL     1      45.160 130.758  17.787  1.00  0.00    -0.018 A 
ATOM     22  C   UNL     1      43.151 132.119  17.564  1.00  0.00     0.017 A 
ATOM     23  C   UNL     1      46.255 130.110  17.192  1.00  0.00     0.009 A 
ATOM     24  C   UNL     1      44.243 131.467  16.975  1.00  0.00    -0.018 A 
ATOM     25  C   UNL     1      46.438 130.165  15.807  1.00  0.00     0.001 A 
ATOM     26  C   UNL     1      44.438 131.515  15.586  1.00  0.00     0.009 A 
ATOM     27  C   UNL     1      45.532 130.866  15.006  1.00  0.00     0.001 A 
ENDBRANCH  10  14
ENDBRANCH   1  10
TORSDOF 4
ENDMDL
MODEL 6
REMARK VINA RESULT:      -6.1      2.300      6.611
REMARK SMILES C=C1C(=O)OC[C@H]1C(=O)N(N)c1cccc2cc3ccccc3cc12
REMARK SMILES IDX 8 1 9 2 7 3 2 4 3 5 5 6 6 7 1 8 4 9 10 10 11 11 12 14 13 15
REMARK SMILES IDX 25 16 14 17 24 18 16 19 15 20 23 21 17 22 22 23 18 24 21 25
REMARK SMILES IDX 19 26 20 27
REMARK H PARENT 11 12 11 13
ROOT
ATOM      1  C   UNL     1      43.875 131.516  19.553  1.00  0.00     0.252 C 
ATOM      2  O   UNL     1      42.627 131.326  19.501  1.00  0.00    -0.272 OA
ENDROOT
BRANCH   1   3
ATOM      3  C   UNL     1      44.644 131.759  18.273  1.00  0.00     0.155 C 
ATOM      4  C   UNL     1      45.395 130.542  17.825  1.00  0.00     0.046 C 
ATOM      5  C   UNL     1      44.898 130.170  16.525  1.00  0.00     0.334 C 
ATOM      6  O   UNL     1      43.915 131.044  16.113  1.00  0.00    -0.461 OA
ATOM      7  C   UNL     1      43.685 132.059  17.087  1.00  0.00     0.251 C 
ATOM      8  C   UNL     1      46.383 129.942  18.488  1.00  0.00     0.021 C 
ATOM      9  O   UNL     1      45.293 129.191  15.840  1.00  0.00    -0.247 OA
ENDBRANCH   1   3
BRANCH   1  10
ATOM     10  N   UNL     1      44.534 131.574  20.831  1.00  0.00    -0.247 N 
BRANCH  10  11
ATOM     11  N   UNL     1      45.879 131.970  20.915  1.00  0.00    -0.241 NA
ATOM     12  H   UNL     1      46.333 131.410  21.671  1.00  0.00     0.144 HD
ATOM     13  H   UNL     1      46.342 131.718  20.012  1.00  0.00     0.144 HD
ENDBRANCH  10  11
BRANCH  10  14
ATOM     14  C   UNL     1      43.845 131.147  22.020  1.00  0.00     0.068 A 
ATOM     15  C   UNL     1      42.946 132.028  22.637  1.00  0.00     0.028 A 
ATOM     16  C   UNL     1      44.062 129.864  22.575  1.00  0.00     0.008 A 
ATOM     17  C   UNL     1      42.276 131.655  23.803  1.00  0.00     0.003 A 
ATOM     18  C   UNL     1      44.932 128.938  21.967  1.00  0.00     0.019 A 
ATOM     19  C   UNL     1      43.380 129.495  23.763  1.00  0.00    -0.016 A 
ATOM     20  C   UNL     1      42.492 130.398  24.367  1.00  0.00     0.009 A 
ATOM     21  C   UNL     1      45.140 127.674  22.536  1.00  0.00    -0.018 A 
ATOM     22  C   UNL     1      43.589 128.229  24.331  1.00  0.00     0.017 A 
ATOM     23  C   UNL     1      46.013 126.756  21.932  1.00  0.00     0.009 A 
ATOM     24  C   UNL     1      44.465 127.317  23.727  1.00  0.00    -0.018 A 
ATOM     25  C   UNL     1      46.216 125.497  22.505  1.00  0.00     0.001 A 
ATOM     26  C   UNL     1      44.677 126.049  24.292  1.00  0.00     0.009 A 
ATOM     27  C   UNL     1      45.550 125.145  23.682  1.00  0.00     0.001 A 
ENDBRANCH  10  14
ENDBRANCH   1  10
TORSDOF 4
ENDMDL
MODEL 7
REMARK VINA RESULT:      -5.8      2.702      6.511
REMARK SMILES C=C1C(=O)OC[C@H]1C(=O)N(N)c1cccc2cc3ccccc3cc12
REMARK SMILES IDX 8 1 9 2 7 3 2 4 3 5 5 6 6 7 1 8 4 9 10 10 11 11 12 14 13 15
REMARK SMILES IDX 25 16 14 17 24 18 16 19 15 20 23 21 17 22 22 23 18 24 21 25
REMARK SMILES IDX 19 26 20 27
REMARK H PARENT 11 12 11 13
ROOT
ATOM      1  C   UNL     1      44.675 132.024  19.830  1.00  0.00     0.252 C 
ATOM      2  O   UNL     1      44.603 133.250  19.536  1.00  0.00    -0.272 OA
ENDROOT
BRANCH   1   3
ATOM      3  C   UNL     1      44.352 130.987  18.777  1.00  0.00     0.155 C 
ATOM      4  C   UNL     1      43.449 131.528  17.709  1.00  0.00     0.046 C 
ATOM      5  C   UNL     1      44.148 131.438  16.453  1.00  0.00     0.334 C 
ATOM      6  O   UNL     1      45.397 130.884  16.630  1.00  0.00    -0.461 OA
ATOM      7  C   UNL     1      45.627 130.557  17.999  1.00  0.00     0.251 C 
ATOM      8  C   UNL     1      42.203 131.964  17.884  1.00  0.00     0.021 C 
ATOM      9  O   UNL     1      43.699 131.804  15.335  1.00  0.00    -0.247 OA
ENDBRANCH   1   3
BRANCH   1  10
ATOM     10  N   UNL     1      45.133 131.630  21.136  1.00  0.00    -0.247 N 
BRANCH  10  11
ATOM     11  N   UNL     1      46.508 131.616  21.427  1.00  0.00    -0.241 NA
ATOM     12  H   UNL     1      47.025 131.847  20.548  1.00  0.00     0.144 HD
ATOM     13  H   UNL     1      46.696 132.380  22.115  1.00  0.00     0.144 HD
ENDBRANCH  10  11
BRANCH  10  14
ATOM     14  C   UNL     1      44.195 131.170  22.124  1.00  0.00     0.068 A 
ATOM     15  C   UNL     1      43.262 132.076  22.648  1.00  0.00     0.028 A 
ATOM     16  C   UNL     1      44.201 129.829  22.577  1.00  0.00     0.008 A 
ATOM     17  C   UNL     1      42.350 131.670  23.623  1.00  0.00     0.003 A 
ATOM     18  C   UNL     1      45.100 128.881  22.052  1.00  0.00     0.019 A 
ATOM     19  C   UNL     1      43.273 129.427  23.572  1.00  0.00    -0.016 A 
ATOM     20  C   UNL     1      42.355 130.355  24.086  1.00  0.00     0.009 A 
ATOM     21  C   UNL     1      45.095 127.559  22.517  1.00  0.00    -0.018 A 
ATOM     22  C   UNL     1      43.269 128.103  24.036  1.00  0.00     0.017 A 
ATOM     23  C   UNL     1      45.998 126.618  21.998  1.00  0.00     0.009 A 
ATOM     24  C   UNL     1      44.175 127.168  23.518  1.00  0.00    -0.018 A 
ATOM     25  C   UNL     1      45.988 125.301  22.468  1.00  0.00     0.001 A 
ATOM     26  C   UNL     1      44.175 125.842  23.981  1.00  0.00     0.009 A 
ATOM     27  C   UNL     1      45.079 124.914  23.456  1.00  0.00     0.001 A 
ENDBRANCH  10  14
ENDBRANCH   1  10
TORSDOF 4
ENDMDL


