MODEL 1
REMARK VINA RESULT:      -4.6      0.000      0.000
REMARK SMILES CC(=O)c1cc(-c2ccc(C)cc2)c(C(=O)N[C@@H]2C=CCC2)c(F)c1[O-]
REMARK SMILES IDX 4 1 5 2 6 3 14 4 23 5 24 6 25 7 26 8 2 9 1 10 3 11 7 12 8 13
REMARK SMILES IDX 13 14 9 15 12 16 10 17 11 18 15 19 17 20 16 21 18 23 19 24
REMARK SMILES IDX 22 25 20 26 21 27
REMARK H PARENT 17 22
ROOT
ATOM      1  C   UNL     1      43.472 129.461  22.948  1.00  0.00     0.013 A 
ATOM      2  C   UNL     1      44.526 128.540  22.805  1.00  0.00     0.021 A 
ATOM      3  C   UNL     1      44.360 127.186  23.136  1.00  0.00    -0.002 A 
ATOM      4  C   UNL     1      43.102 126.727  23.594  1.00  0.00     0.082 A 
ATOM      5  C   UNL     1      42.053 127.648  23.755  1.00  0.00     0.129 A 
ATOM      6  F   UNL     1      40.837 127.232  24.193  1.00  0.00    -0.207 F 
ATOM      7  C   UNL     1      42.233 128.999  23.437  1.00  0.00    -0.060 A 
ATOM      8  O   UNL     1      41.165 129.872  23.622  1.00  0.00    -0.870 OA
ENDROOT
BRANCH   1   9
ATOM      9  C   UNL     1      43.673 130.896  22.589  1.00  0.00     0.159 C 
ATOM     10  C   UNL     1      42.915 131.994  23.274  1.00  0.00     0.093 C 
ATOM     11  O   UNL     1      44.518 131.216  21.711  1.00  0.00    -0.295 OA
ENDBRANCH   1   9
BRANCH   3  12
ATOM     12  C   UNL     1      45.534 126.289  23.042  1.00  0.00    -0.017 A 
ATOM     13  C   UNL     1      46.207 125.879  24.204  1.00  0.00     0.009 A 
ATOM     14  C   UNL     1      45.987 125.842  21.790  1.00  0.00     0.009 A 
ATOM     15  C   UNL     1      47.341 125.067  24.111  1.00  0.00     0.004 A 
ATOM     16  C   UNL     1      47.115 125.021  21.700  1.00  0.00     0.004 A 
ATOM     17  C   UNL     1      47.815 124.652  22.858  1.00  0.00    -0.051 A 
ATOM     18  C   UNL     1      49.022 123.769  22.759  1.00  0.00     0.044 C 
ENDBRANCH   3  12
BRANCH   4  19
ATOM     19  C   UNL     1      42.852 125.292  23.872  1.00  0.00     0.255 C 
ATOM     20  N   UNL     1      41.642 124.878  24.526  1.00  0.00    -0.346 N 
ATOM     21  O   UNL     1      43.719 124.435  23.553  1.00  0.00    -0.269 OA
ATOM     22  H   UNL     1      41.030 125.615  24.944  1.00  0.00     0.164 HD
BRANCH  20  23
ATOM     23  C   UNL     1      41.243 123.469  24.608  1.00  0.00     0.105 C 
ATOM     24  C   UNL     1      41.743 122.730  23.415  1.00  0.00    -0.007 C 
ATOM     25  C   UNL     1      39.715 123.304  24.516  1.00  0.00     0.033 C 
ATOM     26  C   UNL     1      40.766 122.376  22.598  1.00  0.00    -0.029 C 
ATOM     27  C   UNL     1      39.435 122.807  23.097  1.00  0.00     0.029 C 
ENDBRANCH  20  23
ENDBRANCH   4  19
TORSDOF 4
ENDMDL
MODEL 2
REMARK VINA RESULT:      -3.8      5.191      8.315
REMARK SMILES CC(=O)c1cc(-c2ccc(C)cc2)c(C(=O)N[C@@H]2C=CCC2)c(F)c1[O-]
REMARK SMILES IDX 4 1 5 2 6 3 14 4 23 5 24 6 25 7 26 8 2 9 1 10 3 11 7 12 8 13
REMARK SMILES IDX 13 14 9 15 12 16 10 17 11 18 15 19 17 20 16 21 18 23 19 24
REMARK SMILES IDX 22 25 20 26 21 27
REMARK H PARENT 17 22
ROOT
ATOM      1  C   UNL     1      44.852 131.123  15.770  1.00  0.00     0.013 A 
ATOM      2  C   UNL     1      44.006 131.645  16.766  1.00  0.00     0.021 A 
ATOM      3  C   UNL     1      44.239 131.391  18.127  1.00  0.00    -0.002 A 
ATOM      4  C   UNL     1      45.360 130.619  18.512  1.00  0.00     0.082 A 
ATOM      5  C   UNL     1      46.196 130.081  17.519  1.00  0.00     0.129 A 
ATOM      6  F   UNL     1      47.279 129.337  17.864  1.00  0.00    -0.207 F 
ATOM      7  C   UNL     1      45.948 130.327  16.164  1.00  0.00    -0.060 A 
ATOM      8  O   UNL     1      46.801 129.765  15.220  1.00  0.00    -0.870 OA
ENDROOT
BRANCH   1   9
ATOM      9  C   UNL     1      44.584 131.408  14.330  1.00  0.00     0.159 C 
ATOM     10  C   UNL     1      43.199 131.688  13.825  1.00  0.00     0.093 C 
ATOM     11  O   UNL     1      45.536 131.447  13.505  1.00  0.00    -0.295 OA
ENDBRANCH   1   9
BRANCH   3  12
ATOM     12  C   UNL     1      43.261 131.900  19.116  1.00  0.00    -0.017 A 
ATOM     13  C   UNL     1      42.040 132.444  18.689  1.00  0.00     0.009 A 
ATOM     14  C   UNL     1      43.549 131.846  20.489  1.00  0.00     0.009 A 
ATOM     15  C   UNL     1      41.137 132.964  19.620  1.00  0.00     0.004 A 
ATOM     16  C   UNL     1      42.640 132.357  21.420  1.00  0.00     0.004 A 
ATOM     17  C   UNL     1      41.441 132.944  20.989  1.00  0.00    -0.051 A 
ATOM     18  C   UNL     1      40.466 133.487  21.991  1.00  0.00     0.044 C 
ENDBRANCH   3  12
BRANCH   4  19
ATOM     19  C   UNL     1      45.698 130.396  19.939  1.00  0.00     0.255 C 
ATOM     20  N   UNL     1      45.015 129.387  20.698  1.00  0.00    -0.346 N 
ATOM     21  O   UNL     1      46.575 131.114  20.490  1.00  0.00    -0.269 OA
ATOM     22  H   UNL     1      44.172 128.937  20.275  1.00  0.00     0.164 HD
BRANCH  20  23
ATOM     23  C   UNL     1      45.472 128.969  22.028  1.00  0.00     0.105 C 
ATOM     24  C   UNL     1      45.397 127.485  22.146  1.00  0.00    -0.007 C 
ATOM     25  C   UNL     1      44.526 129.464  23.136  1.00  0.00     0.033 C 
ATOM     26  C   UNL     1      44.441 127.096  22.972  1.00  0.00    -0.029 C 
ATOM     27  C   UNL     1      43.706 128.245  23.559  1.00  0.00     0.029 C 
ENDBRANCH  20  23
ENDBRANCH   4  19
TORSDOF 4
ENDMDL
MODEL 3
REMARK VINA RESULT:      -2.3      2.275      6.005
REMARK SMILES CC(=O)c1cc(-c2ccc(C)cc2)c(C(=O)N[C@@H]2C=CCC2)c(F)c1[O-]
REMARK SMILES IDX 4 1 5 2 6 3 14 4 23 5 24 6 25 7 26 8 2 9 1 10 3 11 7 12 8 13
REMARK SMILES IDX 13 14 9 15 12 16 10 17 11 18 15 19 17 20 16 21 18 23 19 24
REMARK SMILES IDX 22 25 20 26 21 27
REMARK H PARENT 17 22
ROOT
ATOM      1  C   UNL     1      40.624 125.089  23.194  1.00  0.00     0.013 A 
ATOM      2  C   UNL     1      41.188 126.379  23.217  1.00  0.00     0.021 A 
ATOM      3  C   UNL     1      42.576 126.565  23.308  1.00  0.00    -0.002 A 
ATOM      4  C   UNL     1      43.432 125.439  23.350  1.00  0.00     0.082 A 
ATOM      5  C   UNL     1      42.870 124.151  23.347  1.00  0.00     0.129 A 
ATOM      6  F   UNL     1      43.671 123.055  23.387  1.00  0.00    -0.207 F 
ATOM      7  C   UNL     1      41.485 123.975  23.271  1.00  0.00    -0.060 A 
ATOM      8  O   UNL     1      40.979 122.678  23.278  1.00  0.00    -0.870 OA
ENDROOT
BRANCH   1   9
ATOM      9  C   UNL     1      39.145 124.916  23.095  1.00  0.00     0.159 C 
ATOM     10  C   UNL     1      38.505 123.560  23.133  1.00  0.00     0.093 C 
ATOM     11  O   UNL     1      38.395 125.925  23.007  1.00  0.00    -0.295 OA
ENDBRANCH   1   9
BRANCH   3  12
ATOM     12  C   UNL     1      43.096 127.948  23.412  1.00  0.00    -0.017 A 
ATOM     13  C   UNL     1      42.815 128.726  24.546  1.00  0.00     0.009 A 
ATOM     14  C   UNL     1      43.871 128.494  22.377  1.00  0.00     0.009 A 
ATOM     15  C   UNL     1      43.269 130.046  24.624  1.00  0.00     0.004 A 
ATOM     16  C   UNL     1      44.334 129.810  22.461  1.00  0.00     0.004 A 
ATOM     17  C   UNL     1      44.012 130.603  23.573  1.00  0.00    -0.051 A 
ATOM     18  C   UNL     1      44.513 132.013  23.662  1.00  0.00     0.044 C 
ENDBRANCH   3  12
BRANCH   4  19
ATOM     19  C   UNL     1      44.908 125.583  23.359  1.00  0.00     0.255 C 
ATOM     20  N   UNL     1      45.746 124.462  23.678  1.00  0.00    -0.346 N 
ATOM     21  O   UNL     1      45.425 126.705  23.107  1.00  0.00    -0.269 OA
ATOM     22  H   UNL     1      45.294 123.601  24.062  1.00  0.00     0.164 HD
BRANCH  20  23
ATOM     23  C   UNL     1      47.198 124.490  23.470  1.00  0.00     0.105 C 
ATOM     24  C   UNL     1      47.501 124.486  22.011  1.00  0.00    -0.007 C 
ATOM     25  C   UNL     1      47.870 123.202  23.978  1.00  0.00     0.033 C 
ATOM     26  C   UNL     1      48.032 123.343  21.612  1.00  0.00    -0.029 C 
ATOM     27  C   UNL     1      48.187 122.377  22.729  1.00  0.00     0.029 C 
ENDBRANCH  20  23
ENDBRANCH   4  19
TORSDOF 4
ENDMDL
MODEL 4
REMARK VINA RESULT:      -2.1      4.131      7.632
REMARK SMILES CC(=O)c1cc(-c2ccc(C)cc2)c(C(=O)N[C@@H]2C=CCC2)c(F)c1[O-]
REMARK SMILES IDX 4 1 5 2 6 3 14 4 23 5 24 6 25 7 26 8 2 9 1 10 3 11 7 12 8 13
REMARK SMILES IDX 13 14 9 15 12 16 10 17 11 18 15 19 17 20 16 21 18 23 19 24
REMARK SMILES IDX 22 25 20 26 21 27
REMARK H PARENT 17 22
ROOT
ATOM      1  C   UNL     1      44.780 131.361  17.414  1.00  0.00     0.013 A 
ATOM      2  C   UNL     1      43.837 131.943  18.283  1.00  0.00     0.021 A 
ATOM      3  C   UNL     1      43.837 131.654  19.656  1.00  0.00    -0.002 A 
ATOM      4  C   UNL     1      44.818 130.785  20.189  1.00  0.00     0.082 A 
ATOM      5  C   UNL     1      45.748 130.187  19.321  1.00  0.00     0.129 A 
ATOM      6  F   UNL     1      46.699 129.350  19.809  1.00  0.00    -0.207 F 
ATOM      7  C   UNL     1      45.732 130.470  17.951  1.00  0.00    -0.060 A 
ATOM      8  O   UNL     1      46.670 129.847  17.134  1.00  0.00    -0.870 OA
ENDROOT
BRANCH   1   9
ATOM      9  C   UNL     1      44.761 131.684  15.957  1.00  0.00     0.159 C 
ATOM     10  C   UNL     1      46.016 132.016  15.206  1.00  0.00     0.093 C 
ATOM     11  O   UNL     1      43.676 131.654  15.317  1.00  0.00    -0.295 OA
ENDBRANCH   1   9
BRANCH   3  12
ATOM     12  C   UNL     1      42.765 132.234  20.497  1.00  0.00    -0.017 A 
ATOM     13  C   UNL     1      42.724 131.969  21.875  1.00  0.00     0.009 A 
ATOM     14  C   UNL     1      41.779 133.053  19.924  1.00  0.00     0.009 A 
ATOM     15  C   UNL     1      41.688 132.481  22.660  1.00  0.00     0.004 A 
ATOM     16  C   UNL     1      40.749 133.574  20.713  1.00  0.00     0.004 A 
ATOM     17  C   UNL     1      40.682 133.269  22.081  1.00  0.00    -0.051 A 
ATOM     18  C   UNL     1      39.579 133.832  22.925  1.00  0.00     0.044 C 
ENDBRANCH   3  12
BRANCH   4  19
ATOM     19  C   UNL     1      44.913 130.517  21.644  1.00  0.00     0.255 C 
ATOM     20  N   UNL     1      44.326 129.332  22.205  1.00  0.00    -0.346 N 
ATOM     21  O   UNL     1      45.493 131.348  22.393  1.00  0.00    -0.269 OA
ATOM     22  H   UNL     1      43.697 128.758  21.599  1.00  0.00     0.164 HD
BRANCH  20  23
ATOM     23  C   UNL     1      44.596 128.906  23.583  1.00  0.00     0.105 C 
ATOM     24  C   UNL     1      45.288 127.586  23.579  1.00  0.00    -0.007 C 
ATOM     25  C   UNL     1      43.295 128.626  24.356  1.00  0.00     0.033 C 
ATOM     26  C   UNL     1      44.513 126.613  24.027  1.00  0.00    -0.029 C 
ATOM     27  C   UNL     1      43.166 127.103  24.416  1.00  0.00     0.029 C 
ENDBRANCH  20  23
ENDBRANCH   4  19
TORSDOF 4
ENDMDL
MODEL 5
REMARK VINA RESULT:      -1.9      4.172      7.685
REMARK SMILES CC(=O)c1cc(-c2ccc(C)cc2)c(C(=O)N[C@@H]2C=CCC2)c(F)c1[O-]
REMARK SMILES IDX 4 1 5 2 6 3 14 4 23 5 24 6 25 7 26 8 2 9 1 10 3 11 7 12 8 13
REMARK SMILES IDX 13 14 9 15 12 16 10 17 11 18 15 19 17 20 16 21 18 23 19 24
REMARK SMILES IDX 22 25 20 26 21 27
REMARK H PARENT 17 22
ROOT
ATOM      1  C   UNL     1      44.854 131.436  17.319  1.00  0.00     0.013 A 
ATOM      2  C   UNL     1      43.892 131.984  18.188  1.00  0.00     0.021 A 
ATOM      3  C   UNL     1      43.869 131.654  19.552  1.00  0.00    -0.002 A 
ATOM      4  C   UNL     1      44.846 130.776  20.076  1.00  0.00     0.082 A 
ATOM      5  C   UNL     1      45.797 130.211  19.207  1.00  0.00     0.129 A 
ATOM      6  F   UNL     1      46.745 129.365  19.686  1.00  0.00    -0.207 F 
ATOM      7  C   UNL     1      45.803 130.535  17.846  1.00  0.00    -0.060 A 
ATOM      8  O   UNL     1      46.760 129.943  17.027  1.00  0.00    -0.870 OA
ENDROOT
BRANCH   1   9
ATOM      9  C   UNL     1      44.859 131.803  15.873  1.00  0.00     0.159 C 
ATOM     10  C   UNL     1      43.683 131.524  14.984  1.00  0.00     0.093 C 
ATOM     11  O   UNL     1      45.856 132.389  15.372  1.00  0.00    -0.295 OA
ENDBRANCH   1   9
BRANCH   3  12
ATOM     12  C   UNL     1      42.778 132.202  20.390  1.00  0.00    -0.017 A 
ATOM     13  C   UNL     1      41.804 133.041  19.826  1.00  0.00     0.009 A 
ATOM     14  C   UNL     1      42.711 131.890  21.758  1.00  0.00     0.009 A 
ATOM     15  C   UNL     1      40.800 133.591  20.628  1.00  0.00     0.004 A 
ATOM     16  C   UNL     1      41.700 132.433  22.556  1.00  0.00     0.004 A 
ATOM     17  C   UNL     1      40.755 133.309  22.001  1.00  0.00    -0.051 A 
ATOM     18  C   UNL     1      39.669 133.887  22.858  1.00  0.00     0.044 C 
ENDBRANCH   3  12
BRANCH   4  19
ATOM     19  C   UNL     1      44.917 130.464  21.524  1.00  0.00     0.255 C 
ATOM     20  N   UNL     1      44.391 129.227  22.028  1.00  0.00    -0.346 N 
ATOM     21  O   UNL     1      45.423 131.304  22.317  1.00  0.00    -0.269 OA
ATOM     22  H   UNL     1      43.816 128.637  21.385  1.00  0.00     0.164 HD
BRANCH  20  23
ATOM     23  C   UNL     1      44.648 128.772  23.399  1.00  0.00     0.105 C 
ATOM     24  C   UNL     1      45.318 127.440  23.373  1.00  0.00    -0.007 C 
ATOM     25  C   UNL     1      43.340 128.500  24.162  1.00  0.00     0.033 C 
ATOM     26  C   UNL     1      44.525 126.473  23.801  1.00  0.00    -0.029 C 
ATOM     27  C   UNL     1      43.185 126.979  24.194  1.00  0.00     0.029 C 
ENDBRANCH  20  23
ENDBRANCH   4  19
TORSDOF 4
ENDMDL


