MODEL 1
REMARK VINA RESULT:      -8.4      0.000      0.000
REMARK SMILES CC(=O)c1ccc(-c2cc(N=C=O)c(O)c([NH2+]c3ccc(C)c(F)c3)c2)cn1
REMARK SMILES IDX 14 1 10 2 9 3 8 4 26 5 16 6 15 7 11 9 12 10 13 11 17 12
REMARK SMILES IDX 18 15 19 16 25 17 20 18 23 19 21 20 24 21 22 22 7 23 27 24
REMARK SMILES IDX 6 25 28 26 5 27 4 28 2 29 3 30 1 31
REMARK H PARENT 15 8 17 13 17 14
ROOT
ATOM      1  C   UNL     1      43.241 131.696  21.116  1.00  0.00     0.204 A 
ATOM      2  C   UNL     1      42.697 132.126  19.890  1.00  0.00     0.125 A 
ATOM      3  C   UNL     1      43.409 131.892  18.698  1.00  0.00     0.042 A 
ATOM      4  C   UNL     1      44.650 131.239  18.717  1.00  0.00    -0.008 A 
ATOM      5  C   UNL     1      45.181 130.818  19.945  1.00  0.00     0.081 A 
ATOM      6  C   UNL     1      44.490 131.043  21.147  1.00  0.00     0.179 A 
ENDROOT
BRANCH   1   7
ATOM      7  O   UNL     1      42.554 131.914  22.313  1.00  0.00    -0.501 OA
ATOM      8  H   UNL     1      42.859 131.529  23.198  1.00  0.00     0.293 HD
ENDBRANCH   1   7
BRANCH   2   9
ATOM      9  N   UNL     1      41.424 132.797  19.886  1.00  0.00    -0.164 NA
BRANCH   9  10
ATOM     10  C   UNL     1      40.861 133.274  20.924  1.00  0.00     0.240 C 
ATOM     11  O   UNL     1      40.316 133.737  21.933  1.00  0.00    -0.211 OA
ENDBRANCH   9  10
ENDBRANCH   2   9
BRANCH   6  12
ATOM     12  N   UNL     1      45.044 130.559  22.392  1.00  0.00    -0.278 N 
ATOM     13  H   UNL     1      44.726 131.153  23.191  1.00  0.00     0.358 HD
ATOM     14  H   UNL     1      46.089 130.634  22.372  1.00  0.00     0.358 HD
BRANCH  12  15
ATOM     15  C   UNL     1      44.659 129.184  22.598  1.00  0.00     0.137 A 
ATOM     16  C   UNL     1      45.423 128.140  22.051  1.00  0.00     0.068 A 
ATOM     17  C   UNL     1      43.530 128.871  23.375  1.00  0.00     0.107 A 
ATOM     18  C   UNL     1      45.065 126.808  22.276  1.00  0.00     0.012 A 
ATOM     19  C   UNL     1      43.172 127.538  23.601  1.00  0.00     0.132 A 
ATOM     20  C   UNL     1      43.945 126.496  23.061  1.00  0.00    -0.015 A 
ATOM     21  F   UNL     1      42.071 127.263  24.346  1.00  0.00    -0.206 F 
ATOM     22  C   UNL     1      43.546 125.066  23.283  1.00  0.00     0.047 C 
ENDBRANCH  12  15
ENDBRANCH   6  12
BRANCH   4  23
ATOM     23  C   UNL     1      45.392 130.993  17.453  1.00  0.00     0.000 A 
ATOM     24  C   UNL     1      46.114 129.802  17.261  1.00  0.00     0.120 A 
ATOM     25  C   UNL     1      45.394 131.944  16.421  1.00  0.00     0.013 A 
ATOM     26  N   UNL     1      46.791 129.590  16.103  1.00  0.00    -0.253 NA
ATOM     27  C   UNL     1      46.096 131.701  15.239  1.00  0.00     0.033 A 
ATOM     28  C   UNL     1      46.803 130.499  15.089  1.00  0.00     0.106 A 
BRANCH  28  29
ATOM     29  C   UNL     1      47.559 130.206  13.852  1.00  0.00     0.178 C 
ATOM     30  O   UNL     1      48.140 129.096  13.711  1.00  0.00    -0.293 OA
ATOM     31  C   UNL     1      47.645 131.219  12.753  1.00  0.00     0.095 C 
ENDBRANCH  28  29
ENDBRANCH   4  23
TORSDOF 7
ENDMDL
MODEL 2
REMARK VINA RESULT:      -7.9      1.033      1.571
REMARK SMILES CC(=O)c1ccc(-c2cc(N=C=O)c(O)c([NH2+]c3ccc(C)c(F)c3)c2)cn1
REMARK SMILES IDX 14 1 10 2 9 3 8 4 26 5 16 6 15 7 11 9 12 10 13 11 17 12
REMARK SMILES IDX 18 15 19 16 25 17 20 18 23 19 21 20 24 21 22 22 7 23 27 24
REMARK SMILES IDX 6 25 28 26 5 27 4 28 2 29 3 30 1 31
REMARK H PARENT 15 8 17 13 17 14
ROOT
ATOM      1  C   UNL     1      43.295 131.750  20.893  1.00  0.00     0.204 A 
ATOM      2  C   UNL     1      42.753 132.125  19.648  1.00  0.00     0.125 A 
ATOM      3  C   UNL     1      43.479 131.862  18.470  1.00  0.00     0.042 A 
ATOM      4  C   UNL     1      44.732 131.234  18.522  1.00  0.00    -0.008 A 
ATOM      5  C   UNL     1      45.260 130.867  19.768  1.00  0.00     0.081 A 
ATOM      6  C   UNL     1      44.556 131.121  20.956  1.00  0.00     0.179 A 
ENDROOT
BRANCH   1   7
ATOM      7  O   UNL     1      42.594 131.997  22.076  1.00  0.00    -0.501 OA
ATOM      8  H   UNL     1      41.695 132.464  22.092  1.00  0.00     0.293 HD
ENDBRANCH   1   7
BRANCH   2   9
ATOM      9  N   UNL     1      41.468 132.771  19.610  1.00  0.00    -0.164 NA
BRANCH   9  10
ATOM     10  C   UNL     1      40.917 133.330  20.613  1.00  0.00     0.240 C 
ATOM     11  O   UNL     1      40.382 133.872  21.588  1.00  0.00    -0.211 OA
ENDBRANCH   9  10
ENDBRANCH   2   9
BRANCH   6  12
ATOM     12  N   UNL     1      45.109 130.693  22.222  1.00  0.00    -0.278 N 
ATOM     13  H   UNL     1      44.831 131.351  22.986  1.00  0.00     0.358 HD
ATOM     14  H   UNL     1      46.155 130.719  22.182  1.00  0.00     0.358 HD
BRANCH  12  15
ATOM     15  C   UNL     1      44.667 129.353  22.521  1.00  0.00     0.137 A 
ATOM     16  C   UNL     1      43.478 129.137  23.238  1.00  0.00     0.068 A 
ATOM     17  C   UNL     1      45.406 128.244  22.073  1.00  0.00     0.107 A 
ATOM     18  C   UNL     1      43.036 127.838  23.502  1.00  0.00     0.012 A 
ATOM     19  C   UNL     1      44.964 126.943  22.337  1.00  0.00     0.132 A 
ATOM     20  C   UNL     1      43.769 126.732  23.044  1.00  0.00    -0.015 A 
ATOM     21  F   UNL     1      45.702 125.890  21.902  1.00  0.00    -0.206 F 
ATOM     22  C   UNL     1      43.308 125.336  23.349  1.00  0.00     0.047 C 
ENDBRANCH  12  15
ENDBRANCH   6  12
BRANCH   4  23
ATOM     23  C   UNL     1      45.489 130.957  17.273  1.00  0.00     0.000 A 
ATOM     24  C   UNL     1      45.538 131.903  16.235  1.00  0.00     0.120 A 
ATOM     25  C   UNL     1      46.171 129.743  17.098  1.00  0.00     0.013 A 
ATOM     26  N   UNL     1      46.231 131.637  15.097  1.00  0.00    -0.253 NA
ATOM     27  C   UNL     1      46.876 129.493  15.920  1.00  0.00     0.033 A 
ATOM     28  C   UNL     1      46.900 130.466  14.908  1.00  0.00     0.106 A 
BRANCH  28  29
ATOM     29  C   UNL     1      47.637 130.239  13.647  1.00  0.00     0.178 C 
ATOM     30  O   UNL     1      48.338 129.201  13.500  1.00  0.00    -0.293 OA
ATOM     31  C   UNL     1      47.562 131.233  12.530  1.00  0.00     0.095 C 
ENDBRANCH  28  29
ENDBRANCH   4  23
TORSDOF 7
ENDMDL
MODEL 3
REMARK VINA RESULT:      -6.1      1.146      1.404
REMARK SMILES CC(=O)c1ccc(-c2cc(N=C=O)c(O)c([NH2+]c3ccc(C)c(F)c3)c2)cn1
REMARK SMILES IDX 14 1 10 2 9 3 8 4 26 5 16 6 15 7 11 9 12 10 13 11 17 12
REMARK SMILES IDX 18 15 19 16 25 17 20 18 23 19 21 20 24 21 22 22 7 23 27 24
REMARK SMILES IDX 6 25 28 26 5 27 4 28 2 29 3 30 1 31
REMARK H PARENT 15 8 17 13 17 14
ROOT
ATOM      1  C   UNL     1      42.781 132.071  21.798  1.00  0.00     0.204 A 
ATOM      2  C   UNL     1      42.250 132.570  20.592  1.00  0.00     0.125 A 
ATOM      3  C   UNL     1      42.911 132.296  19.380  1.00  0.00     0.042 A 
ATOM      4  C   UNL     1      44.089 131.534  19.358  1.00  0.00    -0.008 A 
ATOM      5  C   UNL     1      44.607 131.045  20.566  1.00  0.00     0.081 A 
ATOM      6  C   UNL     1      43.967 131.308  21.788  1.00  0.00     0.179 A 
ENDROOT
BRANCH   1   7
ATOM      7  O   UNL     1      42.143 132.328  23.014  1.00  0.00    -0.501 OA
ATOM      8  H   UNL     1      41.660 133.198  23.206  1.00  0.00     0.293 HD
ENDBRANCH   1   7
BRANCH   2   9
ATOM      9  N   UNL     1      41.042 133.352  20.629  1.00  0.00    -0.164 NA
BRANCH   9  10
ATOM     10  C   UNL     1      40.359 133.566  21.683  1.00  0.00     0.240 C 
ATOM     11  O   UNL     1      39.695 133.774  22.706  1.00  0.00    -0.211 OA
ENDBRANCH   9  10
ENDBRANCH   2   9
BRANCH   6  12
ATOM     12  N   UNL     1      44.503 130.755  23.011  1.00  0.00    -0.278 N 
ATOM     13  H   UNL     1      44.181 131.309  23.838  1.00  0.00     0.358 HD
ATOM     14  H   UNL     1      45.548 130.820  23.006  1.00  0.00     0.358 HD
BRANCH  12  15
ATOM     15  C   UNL     1      44.103 129.374  23.141  1.00  0.00     0.137 A 
ATOM     16  C   UNL     1      44.927 128.344  22.659  1.00  0.00     0.068 A 
ATOM     17  C   UNL     1      42.895 129.041  23.779  1.00  0.00     0.107 A 
ATOM     18  C   UNL     1      44.552 127.007  22.811  1.00  0.00     0.012 A 
ATOM     19  C   UNL     1      42.519 127.703  23.932  1.00  0.00     0.132 A 
ATOM     20  C   UNL     1      43.352 126.676  23.459  1.00  0.00    -0.015 A 
ATOM     21  F   UNL     1      41.342 127.409  24.542  1.00  0.00    -0.206 F 
ATOM     22  C   UNL     1      42.936 125.240  23.600  1.00  0.00     0.047 C 
ENDBRANCH  12  15
ENDBRANCH   6  12
BRANCH   4  23
ATOM     23  C   UNL     1      44.778 131.245  18.073  1.00  0.00     0.000 A 
ATOM     24  C   UNL     1      44.322 131.808  16.869  1.00  0.00     0.120 A 
ATOM     25  C   UNL     1      45.897 130.401  18.029  1.00  0.00     0.013 A 
ATOM     26  N   UNL     1      44.957 131.534  15.700  1.00  0.00    -0.253 NA
ATOM     27  C   UNL     1      46.534 130.136  16.816  1.00  0.00     0.033 A 
ATOM     28  C   UNL     1      46.047 130.720  15.637  1.00  0.00     0.106 A 
BRANCH  28  29
ATOM     29  C   UNL     1      46.694 130.463  14.333  1.00  0.00     0.178 C 
ATOM     30  O   UNL     1      46.626 131.320  13.410  1.00  0.00    -0.293 OA
ATOM     31  C   UNL     1      47.439 129.187  14.089  1.00  0.00     0.095 C 
ENDBRANCH  28  29
ENDBRANCH   4  23
TORSDOF 7
ENDMDL


