REMARK SMILES C/C=C(\C)C(=O)N1CC[C@H](C)[C@H](F)[C@@H]1c1ccc(C(C)=O)cc1
REMARK SMILES IDX 7 1 8 2 9 3 10 4 11 5 12 6 13 7 14 8 5 9 6 10 3 11 4 12 2 13
REMARK SMILES IDX 1 14 15 15 16 16 23 17 17 18 22 19 18 20 19 21 21 22 20 23
REMARK H PARENT
ROOT
ATOM      1  N   UNL     1      -1.172   1.029   0.169  1.00  0.00    -0.329 N 
ATOM      2  C   UNL     1      -1.998   2.131  -0.349  1.00  0.00     0.121 C 
ATOM      3  C   UNL     1      -1.172   3.096  -1.202  1.00  0.00     0.028 C 
ATOM      4  C   UNL     1       0.071   3.570  -0.434  1.00  0.00     0.024 C 
ATOM      5  C   UNL     1       0.882   4.566  -1.273  1.00  0.00     0.011 C 
ATOM      6  C   UNL     1       0.927   2.358  -0.027  1.00  0.00     0.196 C 
ATOM      7  F   UNL     1       1.409   1.724  -1.163  1.00  0.00    -0.245 F 
ATOM      8  C   UNL     1       0.105   1.373   0.834  1.00  0.00     0.150 C 
ENDROOT
BRANCH   1   9
ATOM      9  C   UNL     1      -1.875  -0.175   0.537  1.00  0.00     0.249 C 
ATOM     10  O   UNL     1      -1.922  -0.515   1.751  1.00  0.00    -0.269 OA
BRANCH   9  11
ATOM     11  C   UNL     1      -2.533  -1.023  -0.492  1.00  0.00     0.010 C 
ATOM     12  C   UNL     1      -3.536  -2.064  -0.057  1.00  0.00     0.050 C 
BRANCH  11  13
ATOM     13  C   UNL     1      -2.152  -0.929  -1.782  1.00  0.00    -0.021 C 
ATOM     14  C   UNL     1      -2.725  -1.778  -2.879  1.00  0.00     0.036 C 
ENDBRANCH  11  13
ENDBRANCH   9  11
ENDBRANCH   1   9
BRANCH   8  15
ATOM     15  C   UNL     1       0.947   0.145   1.155  1.00  0.00    -0.022 A 
ATOM     16  C   UNL     1       1.195  -0.843   0.186  1.00  0.00     0.007 A 
ATOM     17  C   UNL     1       1.526   0.008   2.426  1.00  0.00     0.007 A 
ATOM     18  C   UNL     1       1.994  -1.948   0.485  1.00  0.00     0.012 A 
ATOM     19  C   UNL     1       2.320  -1.104   2.729  1.00  0.00     0.012 A 
ATOM     20  C   UNL     1       2.566  -2.095   1.763  1.00  0.00     0.017 A 
BRANCH  20  21
ATOM     21  C   UNL     1       3.421  -3.266   2.098  1.00  0.00     0.159 C 
ATOM     22  O   UNL     1       3.841  -3.417   3.278  1.00  0.00    -0.295 OA
ATOM     23  C   UNL     1       3.803  -4.289   1.069  1.00  0.00     0.093 C 
ENDBRANCH  20  21
ENDBRANCH   8  15
TORSDOF 5


