MODEL 1
REMARK VINA RESULT:      -7.6      0.000      0.000
REMARK SMILES O/C(=C/CF)[N-]c1cc(F)c(F)cc1Nc1ccc(F)cc1
REMARK SMILES IDX 6 1 2 2 1 3 3 5 4 6 5 7 7 8 8 9 14 10 9 11 13 12 11 13 10 14
REMARK SMILES IDX 12 15 15 16 16 18 17 19 22 20 18 21 21 22 19 23 20 24
REMARK H PARENT 1 4 15 17
ROOT
ATOM      1  N   UNL     1      45.165 131.030  21.305  1.00  0.00    -0.626 NA
ENDROOT
BRANCH   1   2
ATOM      2  C   UNL     1      44.903 130.159  22.412  1.00  0.00     0.012 C 
BRANCH   2   3
ATOM      3  O   UNL     1      44.724 130.698  23.687  1.00  0.00    -0.531 OA
ATOM      4  H   UNL     1      44.933 130.172  24.527  1.00  0.00     0.290 HD
ENDBRANCH   2   3
BRANCH   2   5
ATOM      5  C   UNL     1      44.823 128.836  22.226  1.00  0.00     0.028 C 
BRANCH   5   6
ATOM      6  C   UNL     1      43.996 127.948  23.104  1.00  0.00     0.244 C 
ATOM      7  F   UNL     1      42.772 128.540  23.358  1.00  0.00    -0.247 F 
ENDBRANCH   5   6
ENDBRANCH   2   5
ENDBRANCH   1   2
BRANCH   1   8
ATOM      8  C   UNL     1      44.169 131.486  20.379  1.00  0.00    -0.107 A 
ATOM      9  C   UNL     1      43.013 132.088  20.891  1.00  0.00     0.028 A 
ATOM     10  C   UNL     1      44.314 131.333  18.978  1.00  0.00     0.027 A 
ATOM     11  C   UNL     1      42.040 132.601  20.029  1.00  0.00     0.157 A 
ATOM     12  C   UNL     1      43.344 131.878  18.124  1.00  0.00     0.067 A 
ATOM     13  C   UNL     1      42.212 132.509  18.646  1.00  0.00     0.160 A 
ATOM     14  F   UNL     1      40.935 133.200  20.538  1.00  0.00    -0.204 F 
ATOM     15  F   UNL     1      41.273 133.015  17.810  1.00  0.00    -0.204 F 
BRANCH  10  16
ATOM     16  N   UNL     1      45.419 130.619  18.399  1.00  0.00    -0.356 N 
ATOM     17  H   UNL     1      46.037 130.077  19.044  1.00  0.00     0.166 HD
BRANCH  16  18
ATOM     18  C   UNL     1      45.785 130.692  17.009  1.00  0.00     0.039 A 
ATOM     19  C   UNL     1      45.651 131.909  16.324  1.00  0.00     0.029 A 
ATOM     20  C   UNL     1      46.262 129.563  16.315  1.00  0.00     0.029 A 
ATOM     21  C   UNL     1      46.016 132.007  14.978  1.00  0.00     0.041 A 
ATOM     22  C   UNL     1      46.625 129.664  14.969  1.00  0.00     0.041 A 
ATOM     23  C   UNL     1      46.506 130.887  14.301  1.00  0.00     0.123 A 
ATOM     24  F   UNL     1      46.862 130.984  12.996  1.00  0.00    -0.207 F 
ENDBRANCH  16  18
ENDBRANCH  10  16
ENDBRANCH   1   8
TORSDOF 7
ENDMDL
MODEL 2
REMARK VINA RESULT:      -7.6      0.816      1.312
REMARK SMILES O/C(=C/CF)[N-]c1cc(F)c(F)cc1Nc1ccc(F)cc1
REMARK SMILES IDX 6 1 2 2 1 3 3 5 4 6 5 7 7 8 8 9 14 10 9 11 13 12 11 13 10 14
REMARK SMILES IDX 12 15 15 16 16 18 17 19 22 20 18 21 21 22 19 23 20 24
REMARK H PARENT 1 4 15 17
ROOT
ATOM      1  N   UNL     1      44.932 130.775  21.466  1.00  0.00    -0.626 NA
ENDROOT
BRANCH   1   2
ATOM      2  C   UNL     1      44.602 130.358  22.796  1.00  0.00     0.012 C 
BRANCH   2   3
ATOM      3  O   UNL     1      44.714 131.264  23.851  1.00  0.00    -0.531 OA
ATOM      4  H   UNL     1      44.889 132.251  23.696  1.00  0.00     0.290 HD
ENDBRANCH   2   3
BRANCH   2   5
ATOM      5  C   UNL     1      44.180 129.108  23.027  1.00  0.00     0.028 C 
BRANCH   5   6
ATOM      6  C   UNL     1      45.101 127.927  22.984  1.00  0.00     0.244 C 
ATOM      7  F   UNL     1      45.393 127.602  21.673  1.00  0.00    -0.247 F 
ENDBRANCH   5   6
ENDBRANCH   2   5
ENDBRANCH   1   2
BRANCH   1   8
ATOM      8  C   UNL     1      43.998 131.352  20.542  1.00  0.00    -0.107 A 
ATOM      9  C   UNL     1      42.850 131.966  21.056  1.00  0.00     0.028 A 
ATOM     10  C   UNL     1      44.197 131.304  19.139  1.00  0.00     0.027 A 
ATOM     11  C   UNL     1      41.939 132.593  20.201  1.00  0.00     0.157 A 
ATOM     12  C   UNL     1      43.290 131.962  18.296  1.00  0.00     0.067 A 
ATOM     13  C   UNL     1      42.167 132.604  18.823  1.00  0.00     0.160 A 
ATOM     14  F   UNL     1      40.841 133.202  20.713  1.00  0.00    -0.204 F 
ATOM     15  F   UNL     1      41.288 133.221  17.994  1.00  0.00    -0.204 F 
BRANCH  10  16
ATOM     16  N   UNL     1      45.292 130.587  18.548  1.00  0.00    -0.356 N 
ATOM     17  H   UNL     1      45.908 130.031  19.185  1.00  0.00     0.166 HD
BRANCH  16  18
ATOM     18  C   UNL     1      45.654 130.672  17.158  1.00  0.00     0.039 A 
ATOM     19  C   UNL     1      45.960 129.498  16.452  1.00  0.00     0.029 A 
ATOM     20  C   UNL     1      45.723 131.910  16.492  1.00  0.00     0.029 A 
ATOM     21  C   UNL     1      46.298 129.555  15.097  1.00  0.00     0.041 A 
ATOM     22  C   UNL     1      46.063 131.964  15.137  1.00  0.00     0.041 A 
ATOM     23  C   UNL     1      46.346 130.787  14.438  1.00  0.00     0.123 A 
ATOM     24  F   UNL     1      46.672 130.841  13.123  1.00  0.00    -0.207 F 
ENDBRANCH  16  18
ENDBRANCH  10  16
ENDBRANCH   1   8
TORSDOF 7
ENDMDL
MODEL 3
REMARK VINA RESULT:      -7.3      0.943      1.414
REMARK SMILES O/C(=C/CF)[N-]c1cc(F)c(F)cc1Nc1ccc(F)cc1
REMARK SMILES IDX 6 1 2 2 1 3 3 5 4 6 5 7 7 8 8 9 14 10 9 11 13 12 11 13 10 14
REMARK SMILES IDX 12 15 15 16 16 18 17 19 22 20 18 21 21 22 19 23 20 24
REMARK H PARENT 1 4 15 17
ROOT
ATOM      1  N   UNL     1      45.090 131.002  21.266  1.00  0.00    -0.626 NA
ENDROOT
BRANCH   1   2
ATOM      2  C   UNL     1      45.321 129.624  21.582  1.00  0.00     0.012 C 
BRANCH   2   3
ATOM      3  O   UNL     1      46.155 128.859  20.765  1.00  0.00    -0.531 OA
ATOM      4  H   UNL     1      45.812 128.060  20.244  1.00  0.00     0.290 HD
ENDBRANCH   2   3
BRANCH   2   5
ATOM      5  C   UNL     1      44.748 129.073  22.659  1.00  0.00     0.028 C 
BRANCH   5   6
ATOM      6  C   UNL     1      43.738 129.799  23.494  1.00  0.00     0.244 C 
ATOM      7  F   UNL     1      42.473 129.627  22.963  1.00  0.00    -0.247 F 
ENDBRANCH   5   6
ENDBRANCH   2   5
ENDBRANCH   1   2
BRANCH   1   8
ATOM      8  C   UNL     1      44.093 131.466  20.345  1.00  0.00    -0.107 A 
ATOM      9  C   UNL     1      42.947 132.081  20.862  1.00  0.00     0.028 A 
ATOM     10  C   UNL     1      44.228 131.308  18.943  1.00  0.00     0.027 A 
ATOM     11  C   UNL     1      41.974 132.603  20.005  1.00  0.00     0.157 A 
ATOM     12  C   UNL     1      43.258 131.861  18.094  1.00  0.00     0.067 A 
ATOM     13  C   UNL     1      42.137 132.505  18.621  1.00  0.00     0.160 A 
ATOM     14  F   UNL     1      40.878 133.214  20.519  1.00  0.00    -0.204 F 
ATOM     15  F   UNL     1      41.197 133.019  17.789  1.00  0.00    -0.204 F 
BRANCH  10  16
ATOM     16  N   UNL     1      45.321 130.581  18.359  1.00  0.00    -0.356 N 
ATOM     17  H   UNL     1      45.906 129.992  18.995  1.00  0.00     0.166 HD
BRANCH  16  18
ATOM     18  C   UNL     1      45.723 130.699  16.983  1.00  0.00     0.039 A 
ATOM     19  C   UNL     1      46.155 129.557  16.291  1.00  0.00     0.029 A 
ATOM     20  C   UNL     1      45.706 131.939  16.316  1.00  0.00     0.029 A 
ATOM     21  C   UNL     1      46.534 129.644  14.948  1.00  0.00     0.041 A 
ATOM     22  C   UNL     1      46.088 132.023  14.974  1.00  0.00     0.041 A 
ATOM     23  C   UNL     1      46.497 130.876  14.288  1.00  0.00     0.123 A 
ATOM     24  F   UNL     1      46.863 130.959  12.985  1.00  0.00    -0.207 F 
ENDBRANCH  16  18
ENDBRANCH  10  16
ENDBRANCH   1   8
TORSDOF 7
ENDMDL
MODEL 4
REMARK VINA RESULT:      -6.7      1.476      1.898
REMARK SMILES O/C(=C/CF)[N-]c1cc(F)c(F)cc1Nc1ccc(F)cc1
REMARK SMILES IDX 6 1 2 2 1 3 3 5 4 6 5 7 7 8 8 9 14 10 9 11 13 12 11 13 10 14
REMARK SMILES IDX 12 15 15 16 16 18 17 19 22 20 18 21 21 22 19 23 20 24
REMARK H PARENT 1 4 15 17
ROOT
ATOM      1  N   UNL     1      45.300 129.565  21.687  1.00  0.00    -0.626 NA
ENDROOT
BRANCH   1   2
ATOM      2  C   UNL     1      44.893 128.697  22.751  1.00  0.00     0.012 C 
BRANCH   2   3
ATOM      3  O   UNL     1      44.613 129.233  24.009  1.00  0.00    -0.531 OA
ATOM      4  H   UNL     1      44.727 130.220  24.210  1.00  0.00     0.290 HD
ENDBRANCH   2   3
BRANCH   2   5
ATOM      5  C   UNL     1      44.772 127.381  22.541  1.00  0.00     0.028 C 
BRANCH   5   6
ATOM      6  C   UNL     1      45.945 126.506  22.225  1.00  0.00     0.244 C 
ATOM      7  F   UNL     1      46.342 125.818  23.357  1.00  0.00    -0.247 F 
ENDBRANCH   5   6
ENDBRANCH   2   5
ENDBRANCH   1   2
BRANCH   1   8
ATOM      8  C   UNL     1      44.451 130.540  21.065  1.00  0.00    -0.107 A 
ATOM      9  C   UNL     1      43.392 131.070  21.812  1.00  0.00     0.028 A 
ATOM     10  C   UNL     1      44.644 130.966  19.727  1.00  0.00     0.027 A 
ATOM     11  C   UNL     1      42.572 132.065  21.272  1.00  0.00     0.157 A 
ATOM     12  C   UNL     1      43.831 131.985  19.208  1.00  0.00     0.067 A 
ATOM     13  C   UNL     1      42.801 132.532  19.976  1.00  0.00     0.160 A 
ATOM     14  F   UNL     1      41.563 132.584  22.013  1.00  0.00    -0.204 F 
ATOM     15  F   UNL     1      42.011 133.504  19.455  1.00  0.00    -0.204 F 
BRANCH  10  16
ATOM     16  N   UNL     1      45.636 130.374  18.874  1.00  0.00    -0.356 N 
ATOM     17  H   UNL     1      46.405 129.831  19.328  1.00  0.00     0.166 HD
BRANCH  16  18
ATOM     18  C   UNL     1      45.695 130.570  17.450  1.00  0.00     0.039 A 
ATOM     19  C   UNL     1      45.976 129.479  16.614  1.00  0.00     0.029 A 
ATOM     20  C   UNL     1      45.490 131.839  16.874  1.00  0.00     0.029 A 
ATOM     21  C   UNL     1      46.022 129.643  15.226  1.00  0.00     0.041 A 
ATOM     22  C   UNL     1      45.539 132.000  15.487  1.00  0.00     0.041 A 
ATOM     23  C   UNL     1      45.800 130.902  14.662  1.00  0.00     0.123 A 
ATOM     24  F   UNL     1      45.842 131.060  13.316  1.00  0.00    -0.207 F 
ENDBRANCH  16  18
ENDBRANCH  10  16
ENDBRANCH   1   8
TORSDOF 7
ENDMDL
MODEL 5
REMARK VINA RESULT:      -6.7      0.812      1.318
REMARK SMILES O/C(=C/CF)[N-]c1cc(F)c(F)cc1Nc1ccc(F)cc1
REMARK SMILES IDX 6 1 2 2 1 3 3 5 4 6 5 7 7 8 8 9 14 10 9 11 13 12 11 13 10 14
REMARK SMILES IDX 12 15 15 16 16 18 17 19 22 20 18 21 21 22 19 23 20 24
REMARK H PARENT 1 4 15 17
ROOT
ATOM      1  N   UNL     1      45.265 130.526  20.594  1.00  0.00    -0.626 NA
ENDROOT
BRANCH   1   2
ATOM      2  C   UNL     1      44.991 130.243  21.972  1.00  0.00     0.012 C 
BRANCH   2   3
ATOM      3  O   UNL     1      44.887 131.295  22.884  1.00  0.00    -0.531 OA
ATOM      4  H   UNL     1      44.022 131.499  23.372  1.00  0.00     0.290 HD
ENDBRANCH   2   3
BRANCH   2   5
ATOM      5  C   UNL     1      44.828 128.980  22.383  1.00  0.00     0.028 C 
BRANCH   5   6
ATOM      6  C   UNL     1      43.583 128.512  23.073  1.00  0.00     0.244 C 
ATOM      7  F   UNL     1      43.825 127.320  23.729  1.00  0.00    -0.247 F 
ENDBRANCH   5   6
ENDBRANCH   2   5
ENDBRANCH   1   2
BRANCH   1   8
ATOM      8  C   UNL     1      44.313 131.082  19.676  1.00  0.00    -0.107 A 
ATOM      9  C   UNL     1      43.142 131.646  20.196  1.00  0.00     0.028 A 
ATOM     10  C   UNL     1      44.516 131.062  18.274  1.00  0.00     0.027 A 
ATOM     11  C   UNL     1      42.211 132.253  19.348  1.00  0.00     0.157 A 
ATOM     12  C   UNL     1      43.588 131.699  17.437  1.00  0.00     0.067 A 
ATOM     13  C   UNL     1      42.441 132.291  17.971  1.00  0.00     0.160 A 
ATOM     14  F   UNL     1      41.091 132.814  19.865  1.00  0.00    -0.204 F 
ATOM     15  F   UNL     1      41.543 132.888  17.148  1.00  0.00    -0.204 F 
BRANCH  10  16
ATOM     16  N   UNL     1      45.638 130.393  17.675  1.00  0.00    -0.356 N 
ATOM     17  H   UNL     1      46.222 129.780  18.289  1.00  0.00     0.166 HD
BRANCH  16  18
ATOM     18  C   UNL     1      46.067 130.598  16.317  1.00  0.00     0.039 A 
ATOM     19  C   UNL     1      46.625 129.528  15.601  1.00  0.00     0.029 A 
ATOM     20  C   UNL     1      45.953 131.855  15.693  1.00  0.00     0.029 A 
ATOM     21  C   UNL     1      47.033 129.699  14.275  1.00  0.00     0.041 A 
ATOM     22  C   UNL     1      46.364 132.024  14.367  1.00  0.00     0.041 A 
ATOM     23  C   UNL     1      46.900 130.945  13.656  1.00  0.00     0.123 A 
ATOM     24  F   UNL     1      47.295 131.110  12.370  1.00  0.00    -0.207 F 
ENDBRANCH  16  18
ENDBRANCH  10  16
ENDBRANCH   1   8
TORSDOF 7
ENDMDL
MODEL 6
REMARK VINA RESULT:      -6.4      2.572      6.751
REMARK SMILES O/C(=C/CF)[N-]c1cc(F)c(F)cc1Nc1ccc(F)cc1
REMARK SMILES IDX 6 1 2 2 1 3 3 5 4 6 5 7 7 8 8 9 14 10 9 11 13 12 11 13 10 14
REMARK SMILES IDX 12 15 15 16 16 18 17 19 22 20 18 21 21 22 19 23 20 24
REMARK H PARENT 1 4 15 17
ROOT
ATOM      1  N   UNL     1      46.869 130.274  16.012  1.00  0.00    -0.626 NA
ENDROOT
BRANCH   1   2
ATOM      2  C   UNL     1      47.080 129.340  14.945  1.00  0.00     0.012 C 
BRANCH   2   3
ATOM      3  O   UNL     1      46.308 128.179  14.882  1.00  0.00    -0.531 OA
ATOM      4  H   UNL     1      46.722 127.255  14.927  1.00  0.00     0.290 HD
ENDBRANCH   2   3
BRANCH   2   5
ATOM      5  C   UNL     1      48.006 129.582  14.010  1.00  0.00     0.028 C 
BRANCH   5   6
ATOM      6  C   UNL     1      47.935 130.765  13.093  1.00  0.00     0.244 C 
ATOM      7  F   UNL     1      46.615 131.059  12.801  1.00  0.00    -0.247 F 
ENDBRANCH   5   6
ENDBRANCH   2   5
ENDBRANCH   1   2
BRANCH   1   8
ATOM      8  C   UNL     1      45.599 130.853  16.342  1.00  0.00    -0.107 A 
ATOM      9  C   UNL     1      44.775 131.286  15.296  1.00  0.00     0.028 A 
ATOM     10  C   UNL     1      45.167 131.013  17.683  1.00  0.00     0.027 A 
ATOM     11  C   UNL     1      43.504 131.803  15.562  1.00  0.00     0.157 A 
ATOM     12  C   UNL     1      43.879 131.507  17.934  1.00  0.00     0.067 A 
ATOM     13  C   UNL     1      43.052 131.901  16.880  1.00  0.00     0.160 A 
ATOM     14  F   UNL     1      42.708 132.199  14.539  1.00  0.00    -0.204 F 
ATOM     15  F   UNL     1      41.815 132.395  17.139  1.00  0.00    -0.204 F 
BRANCH  10  16
ATOM     16  N   UNL     1      46.015 130.699  18.799  1.00  0.00    -0.356 N 
ATOM     17  H   UNL     1      47.032 130.549  18.609  1.00  0.00     0.166 HD
BRANCH  16  18
ATOM     18  C   UNL     1      45.535 130.475  20.137  1.00  0.00     0.039 A 
ATOM     19  C   UNL     1      44.992 131.547  20.863  1.00  0.00     0.029 A 
ATOM     20  C   UNL     1      45.612 129.206  20.742  1.00  0.00     0.029 A 
ATOM     21  C   UNL     1      44.504 131.349  22.158  1.00  0.00     0.041 A 
ATOM     22  C   UNL     1      45.125 129.013  22.038  1.00  0.00     0.041 A 
ATOM     23  C   UNL     1      44.567 130.082  22.745  1.00  0.00     0.123 A 
ATOM     24  F   UNL     1      44.092 129.892  24.000  1.00  0.00    -0.207 F 
ENDBRANCH  16  18
ENDBRANCH  10  16
ENDBRANCH   1   8
TORSDOF 7
ENDMDL
MODEL 7
REMARK VINA RESULT:      -6.1      1.564      2.154
REMARK SMILES O/C(=C/CF)[N-]c1cc(F)c(F)cc1Nc1ccc(F)cc1
REMARK SMILES IDX 6 1 2 2 1 3 3 5 4 6 5 7 7 8 8 9 14 10 9 11 13 12 11 13 10 14
REMARK SMILES IDX 12 15 15 16 16 18 17 19 22 20 18 21 21 22 19 23 20 24
REMARK H PARENT 1 4 15 17
ROOT
ATOM      1  N   UNL     1      45.708 130.928  19.918  1.00  0.00    -0.626 NA
ENDROOT
BRANCH   1   2
ATOM      2  C   UNL     1      45.507 131.187  21.313  1.00  0.00     0.012 C 
BRANCH   2   3
ATOM      3  O   UNL     1      45.950 132.391  21.862  1.00  0.00    -0.531 OA
ATOM      4  H   UNL     1      46.738 132.434  22.498  1.00  0.00     0.290 HD
ENDBRANCH   2   3
BRANCH   2   5
ATOM      5  C   UNL     1      44.890 130.284  22.085  1.00  0.00     0.028 C 
BRANCH   5   6
ATOM      6  C   UNL     1      43.993 130.675  23.220  1.00  0.00     0.244 C 
ATOM      7  F   UNL     1      42.788 131.146  22.730  1.00  0.00    -0.247 F 
ENDBRANCH   5   6
ENDBRANCH   2   5
ENDBRANCH   1   2
BRANCH   1   8
ATOM      8  C   UNL     1      44.749 131.219  18.893  1.00  0.00    -0.107 A 
ATOM      9  C   UNL     1      43.504 131.734  19.275  1.00  0.00     0.028 A 
ATOM     10  C   UNL     1      45.018 130.990  17.520  1.00  0.00     0.027 A 
ATOM     11  C   UNL     1      42.557 132.089  18.311  1.00  0.00     0.157 A 
ATOM     12  C   UNL     1      44.070 131.377  16.562  1.00  0.00     0.067 A 
ATOM     13  C   UNL     1      42.845 131.923  16.954  1.00  0.00     0.160 A 
ATOM     14  F   UNL     1      41.364 132.605  18.694  1.00  0.00    -0.204 F 
ATOM     15  F   UNL     1      41.930 132.276  16.017  1.00  0.00    -0.204 F 
BRANCH  10  16
ATOM     16  N   UNL     1      46.227 130.354  17.076  1.00  0.00    -0.356 N 
ATOM     17  H   UNL     1      46.820 129.882  17.796  1.00  0.00     0.166 HD
BRANCH  16  18
ATOM     18  C   UNL     1      46.723 130.421  15.727  1.00  0.00     0.039 A 
ATOM     19  C   UNL     1      47.376 129.307  15.177  1.00  0.00     0.029 A 
ATOM     20  C   UNL     1      46.580 131.585  14.948  1.00  0.00     0.029 A 
ATOM     21  C   UNL     1      47.851 129.343  13.862  1.00  0.00     0.041 A 
ATOM     22  C   UNL     1      47.058 131.619  13.635  1.00  0.00     0.041 A 
ATOM     23  C   UNL     1      47.689 130.496  13.090  1.00  0.00     0.123 A 
ATOM     24  F   UNL     1      48.149 130.529  11.815  1.00  0.00    -0.207 F 
ENDBRANCH  16  18
ENDBRANCH  10  16
ENDBRANCH   1   8
TORSDOF 7
ENDMDL
MODEL 8
REMARK VINA RESULT:      -6.1      2.388      2.949
REMARK SMILES O/C(=C/CF)[N-]c1cc(F)c(F)cc1Nc1ccc(F)cc1
REMARK SMILES IDX 6 1 2 2 1 3 3 5 4 6 5 7 7 8 8 9 14 10 9 11 13 12 11 13 10 14
REMARK SMILES IDX 12 15 15 16 16 18 17 19 22 20 18 21 21 22 19 23 20 24
REMARK H PARENT 1 4 15 17
ROOT
ATOM      1  N   UNL     1      46.250 131.802  20.467  1.00  0.00    -0.626 NA
ENDROOT
BRANCH   1   2
ATOM      2  C   UNL     1      46.591 132.554  21.638  1.00  0.00     0.012 C 
BRANCH   2   3
ATOM      3  O   UNL     1      45.712 132.577  22.722  1.00  0.00    -0.531 OA
ATOM      4  H   UNL     1      45.055 133.335  22.866  1.00  0.00     0.290 HD
ENDBRANCH   2   3
BRANCH   2   5
ATOM      5  C   UNL     1      47.747 133.226  21.697  1.00  0.00     0.028 C 
BRANCH   5   6
ATOM      6  C   UNL     1      47.899 134.500  22.470  1.00  0.00     0.244 C 
ATOM      7  F   UNL     1      47.616 134.280  23.805  1.00  0.00    -0.247 F 
ENDBRANCH   5   6
ENDBRANCH   2   5
ENDBRANCH   1   2
BRANCH   1   8
ATOM      8  C   UNL     1      44.966 131.831  19.829  1.00  0.00    -0.107 A 
ATOM      9  C   UNL     1      43.910 132.469  20.492  1.00  0.00     0.028 A 
ATOM     10  C   UNL     1      44.735 131.225  18.569  1.00  0.00     0.027 A 
ATOM     11  C   UNL     1      42.655 132.576  19.888  1.00  0.00     0.157 A 
ATOM     12  C   UNL     1      43.478 131.364  17.961  1.00  0.00     0.067 A 
ATOM     13  C   UNL     1      42.443 132.035  18.617  1.00  0.00     0.160 A 
ATOM     14  F   UNL     1      41.647 133.214  20.531  1.00  0.00    -0.204 F 
ATOM     15  F   UNL     1      41.227 132.147  18.026  1.00  0.00    -0.204 F 
BRANCH  10  16
ATOM     16  N   UNL     1      45.744 130.455  17.896  1.00  0.00    -0.356 N 
ATOM     17  H   UNL     1      46.308 129.789  18.470  1.00  0.00     0.166 HD
BRANCH  16  18
ATOM     18  C   UNL     1      46.094 130.622  16.511  1.00  0.00     0.039 A 
ATOM     19  C   UNL     1      46.487 129.504  15.759  1.00  0.00     0.029 A 
ATOM     20  C   UNL     1      46.066 131.888  15.893  1.00  0.00     0.029 A 
ATOM     21  C   UNL     1      46.816 129.640  14.407  1.00  0.00     0.041 A 
ATOM     22  C   UNL     1      46.397 132.020  14.541  1.00  0.00     0.041 A 
ATOM     23  C   UNL     1      46.768 130.896  13.797  1.00  0.00     0.123 A 
ATOM     24  F   UNL     1      47.085 131.027  12.485  1.00  0.00    -0.207 F 
ENDBRANCH  16  18
ENDBRANCH  10  16
ENDBRANCH   1   8
TORSDOF 7
ENDMDL
MODEL 9
REMARK VINA RESULT:      -6.0      2.310      6.727
REMARK SMILES O/C(=C/CF)[N-]c1cc(F)c(F)cc1Nc1ccc(F)cc1
REMARK SMILES IDX 6 1 2 2 1 3 3 5 4 6 5 7 7 8 8 9 14 10 9 11 13 12 11 13 10 14
REMARK SMILES IDX 12 15 15 16 16 18 17 19 22 20 18 21 21 22 19 23 20 24
REMARK H PARENT 1 4 15 17
ROOT
ATOM      1  N   UNL     1      46.490 130.164  16.939  1.00  0.00    -0.626 NA
ENDROOT
BRANCH   1   2
ATOM      2  C   UNL     1      46.684 129.480  15.695  1.00  0.00     0.012 C 
BRANCH   2   3
ATOM      3  O   UNL     1      45.825 128.439  15.339  1.00  0.00    -0.531 OA
ATOM      4  H   UNL     1      45.584 127.696  15.985  1.00  0.00     0.290 HD
ENDBRANCH   2   3
BRANCH   2   5
ATOM      5  C   UNL     1      47.677 129.842  14.873  1.00  0.00     0.028 C 
BRANCH   5   6
ATOM      6  C   UNL     1      47.459 130.105  13.415  1.00  0.00     0.244 C 
ATOM      7  F   UNL     1      46.476 131.063  13.248  1.00  0.00    -0.247 F 
ENDBRANCH   5   6
ENDBRANCH   2   5
ENDBRANCH   1   2
BRANCH   1   8
ATOM      8  C   UNL     1      45.274 130.824  17.320  1.00  0.00    -0.107 A 
ATOM      9  C   UNL     1      44.434 131.303  16.308  1.00  0.00     0.028 A 
ATOM     10  C   UNL     1      44.913 131.016  18.678  1.00  0.00     0.027 A 
ATOM     11  C   UNL     1      43.211 131.901  16.626  1.00  0.00     0.157 A 
ATOM     12  C   UNL     1      43.671 131.592  18.982  1.00  0.00     0.067 A 
ATOM     13  C   UNL     1      42.824 132.032  17.962  1.00  0.00     0.160 A 
ATOM     14  F   UNL     1      42.397 132.341  15.636  1.00  0.00    -0.204 F 
ATOM     15  F   UNL     1      41.633 132.604  18.271  1.00  0.00    -0.204 F 
BRANCH  10  16
ATOM     16  N   UNL     1      45.789 130.655  19.758  1.00  0.00    -0.356 N 
ATOM     17  H   UNL     1      46.818 130.725  19.592  1.00  0.00     0.166 HD
BRANCH  16  18
ATOM     18  C   UNL     1      45.339 130.103  21.009  1.00  0.00     0.039 A 
ATOM     19  C   UNL     1      45.516 128.734  21.262  1.00  0.00     0.029 A 
ATOM     20  C   UNL     1      44.710 130.905  21.981  1.00  0.00     0.029 A 
ATOM     21  C   UNL     1      45.103 128.180  22.477  1.00  0.00     0.041 A 
ATOM     22  C   UNL     1      44.295 130.347  23.194  1.00  0.00     0.041 A 
ATOM     23  C   UNL     1      44.495 128.986  23.444  1.00  0.00     0.123 A 
ATOM     24  F   UNL     1      44.096 128.448  24.623  1.00  0.00    -0.207 F 
ENDBRANCH  16  18
ENDBRANCH  10  16
ENDBRANCH   1   8
TORSDOF 7
ENDMDL


