REMARK SMILES C=C[C@@H](Oc1[nH+]c[nH+]c(C)c1C)c1ccc2[nH]c(-c3cnc4oc[nH+]c4c3)cc2c1
REMARK SMILES IDX 3 1 2 2 1 3 4 4 5 5 6 6 11 7 7 8 9 9 8 10 12 12 10 13 13 15
REMARK SMILES IDX 14 16 30 17 15 18 29 19 16 20 28 21 17 22 18 23 19 25 20 26
REMARK SMILES IDX 27 27 21 28 26 29 22 30 25 31 23 32 24 33
REMARK H PARENT 6 11 8 14 17 24 25 34
ROOT
ATOM      1  C   UNL     1       1.366  -0.938   2.046  1.00  0.00     0.232 C 
ENDROOT
BRANCH   1   2
ATOM      2  C   UNL     1       2.785  -0.774   1.562  1.00  0.00     0.015 C 
ATOM      3  C   UNL     1       3.449  -1.772   0.970  1.00  0.00     0.008 C 
ENDBRANCH   1   2
BRANCH   1   4
ATOM      4  O   UNL     1       1.211  -0.316   3.324  1.00  0.00    -0.431 OA
BRANCH   4   5
ATOM      5  C   UNL     1       1.803  -0.748   4.523  1.00  0.00     0.381 A 
ATOM      6  N   UNL     1       2.499  -1.921   4.588  1.00  0.00    -0.123 N 
ATOM      7  C   UNL     1       1.670   0.045   5.679  1.00  0.00     0.128 A 
ATOM      8  C   UNL     1       3.051  -2.347   5.753  1.00  0.00     0.632 A 
ATOM      9  C   UNL     1       2.233  -0.432   6.884  1.00  0.00     0.194 A 
ATOM     10  N   UNL     1       2.915  -1.613   6.884  1.00  0.00    -0.159 N 
ATOM     11  H   UNL     1       2.616  -2.527   3.748  1.00  0.00     0.463 HD
ATOM     12  C   UNL     1       0.914   1.355   5.632  1.00  0.00     0.063 C 
ATOM     13  C   UNL     1       2.131   0.358   8.161  1.00  0.00     0.124 C 
ATOM     14  H   UNL     1       3.356  -1.967   7.762  1.00  0.00     0.460 HD
ENDBRANCH   4   5
ENDBRANCH   1   4
BRANCH   1  15
ATOM     15  C   UNL     1       0.433  -0.297   1.047  1.00  0.00    -0.003 A 
ATOM     16  C   UNL     1       0.168   1.099   1.091  1.00  0.00     0.010 A 
ATOM     17  C   UNL     1      -0.123  -1.079   0.009  1.00  0.00     0.018 A 
ATOM     18  C   UNL     1      -0.667   1.703   0.134  1.00  0.00     0.027 A 
ATOM     19  C   UNL     1      -0.940  -0.445  -0.924  1.00  0.00     0.000 A 
ATOM     20  C   UNL     1      -1.207   0.895  -0.862  1.00  0.00     0.046 A 
ATOM     21  C   UNL     1      -1.600  -0.948  -2.023  1.00  0.00     0.037 A 
ATOM     22  N   UNL     1      -2.012   1.272  -1.869  1.00  0.00    -0.354 N 
ATOM     23  C   UNL     1      -2.260   0.148  -2.588  1.00  0.00     0.048 A 
ATOM     24  H   UNL     1      -2.347   2.243  -2.060  1.00  0.00     0.167 HD
BRANCH  23  25
ATOM     25  C   UNL     1      -3.107   0.109  -3.808  1.00  0.00     0.023 A 
ATOM     26  C   UNL     1      -4.049   1.147  -4.073  1.00  0.00     0.126 A 
ATOM     27  C   UNL     1      -2.995  -0.961  -4.731  1.00  0.00     0.097 A 
ATOM     28  N   UNL     1      -4.825   1.121  -5.200  1.00  0.00    -0.215 NA
ATOM     29  C   UNL     1      -3.812  -0.925  -5.854  1.00  0.00     0.270 A 
ATOM     30  C   UNL     1      -4.686   0.087  -6.063  1.00  0.00     0.297 A 
ATOM     31  N   UNL     1      -3.891  -1.786  -6.878  1.00  0.00    -0.175 N 
ATOM     32  O   UNL     1      -5.324  -0.104  -7.189  1.00  0.00    -0.384 OA
ATOM     33  C   UNL     1      -4.840  -1.237  -7.679  1.00  0.00     0.522 A 
ATOM     34  H   UNL     1      -3.350  -2.666  -7.028  1.00  0.00     0.457 HD
ENDBRANCH  23  25
ENDBRANCH   1  15
TORSDOF 5


