MODEL 1
REMARK VINA RESULT:      -7.5      0.000      0.000
REMARK SMILES C#Cc1cncc([NH2+]c2cc(C)cc(-n3[nH+]c4ccccc4[nH+]3)c2N=[N+]=[N-])c1
REMARK SMILES IDX 9 1 10 2 11 3 12 4 13 5 14 6 24 7 8 8 7 11 3 12 4 13 28 14
REMARK SMILES IDX 5 15 6 16 2 17 1 18 25 19 26 20 27 21 15 22 16 23 23 24
REMARK SMILES IDX 17 25 22 26 18 27 21 28 19 29 20 30
REMARK H PARENT 8 9 8 10 16 31 23 32
ROOT
ATOM      1  C   UNL     1      44.127 131.231  21.747  1.00  0.00     0.147 A 
ATOM      2  C   UNL     1      42.936 131.980  21.729  1.00  0.00     0.072 A 
ATOM      3  C   UNL     1      42.387 132.436  20.527  1.00  0.00    -0.043 A 
ATOM      4  C   UNL     1      41.136 133.265  20.536  1.00  0.00     0.044 C 
ATOM      5  C   UNL     1      43.061 132.196  19.328  1.00  0.00     0.043 A 
ATOM      6  C   UNL     1      44.257 131.467  19.310  1.00  0.00     0.184 A 
ATOM      7  C   UNL     1      44.775 130.941  20.514  1.00  0.00     0.134 A 
ENDROOT
BRANCH   1   8
ATOM      8  N   UNL     1      44.713 130.878  23.023  1.00  0.00    -0.280 N 
ATOM      9  H   UNL     1      45.745 130.731  22.924  1.00  0.00     0.358 HD
ATOM     10  H   UNL     1      44.610 131.654  23.712  1.00  0.00     0.358 HD
BRANCH   8  11
ATOM     11  C   UNL     1      44.118 129.660  23.517  1.00  0.00     0.154 A 
ATOM     12  C   UNL     1      42.189 128.217  23.831  1.00  0.00     0.048 A 
ATOM     13  C   UNL     1      43.018 127.276  24.448  1.00  0.00     0.128 A 
ATOM     14  C   UNL     1      42.743 129.415  23.366  1.00  0.00     0.088 A 
ATOM     15  N   UNL     1      44.345 127.527  24.592  1.00  0.00    -0.257 NA
ATOM     16  C   UNL     1      44.907 128.682  24.147  1.00  0.00     0.179 A 
BRANCH  12  17
ATOM     17  C   UNL     1      40.783 127.957  23.675  1.00  0.00    -0.069 C 
ATOM     18  C   UNL     1      39.604 127.740  23.543  1.00  0.00     0.010 C 
ENDBRANCH  12  17
ENDBRANCH   8  11
ENDBRANCH   1   8
BRANCH   7  19
ATOM     19  N   UNL     1      45.949 130.119  20.453  1.00  0.00    -0.052 NA
BRANCH  19  20
ATOM     20  N   UNL     1      45.957 128.965  20.880  1.00  0.00     0.006 N 
ATOM     21  N   UNL     1      45.968 127.813  21.309  1.00  0.00    -0.003 NA
ENDBRANCH  19  20
ENDBRANCH   7  19
BRANCH   6  22
ATOM     22  N   UNL     1      44.927 131.246  18.058  1.00  0.00     0.080 N 
ATOM     23  N   UNL     1      45.294 130.046  17.610  1.00  0.00    -0.062 N 
ATOM     24  N   UNL     1      45.214 132.202  17.175  1.00  0.00    -0.062 N 
ATOM     25  C   UNL     1      45.845 130.250  16.402  1.00  0.00     0.306 A 
ATOM     26  C   UNL     1      45.794 131.585  16.133  1.00  0.00     0.306 A 
ATOM     27  C   UNL     1      46.382 129.331  15.507  1.00  0.00     0.089 A 
ATOM     28  C   UNL     1      46.272 132.122  14.941  1.00  0.00     0.089 A 
ATOM     29  C   UNL     1      46.883 129.836  14.290  1.00  0.00     0.007 A 
ATOM     30  C   UNL     1      46.828 131.223  14.008  1.00  0.00     0.007 A 
ATOM     31  H   UNL     1      45.175 129.137  18.112  1.00  0.00     0.495 HD
ATOM     32  H   UNL     1      44.990 133.217  17.269  1.00  0.00     0.495 HD
ENDBRANCH   6  22
TORSDOF 6
ENDMDL
MODEL 2
REMARK VINA RESULT:      -7.3      0.204      1.110
REMARK SMILES C#Cc1cncc([NH2+]c2cc(C)cc(-n3[nH+]c4ccccc4[nH+]3)c2N=[N+]=[N-])c1
REMARK SMILES IDX 9 1 10 2 11 3 12 4 13 5 14 6 24 7 8 8 7 11 3 12 4 13 28 14
REMARK SMILES IDX 5 15 6 16 2 17 1 18 25 19 26 20 27 21 15 22 16 23 23 24
REMARK SMILES IDX 17 25 22 26 18 27 21 28 19 29 20 30
REMARK H PARENT 8 9 8 10 16 31 23 32
ROOT
ATOM      1  C   UNL     1      44.083 131.108  21.837  1.00  0.00     0.147 A 
ATOM      2  C   UNL     1      42.912 131.890  21.843  1.00  0.00     0.072 A 
ATOM      3  C   UNL     1      42.372 132.391  20.656  1.00  0.00    -0.043 A 
ATOM      4  C   UNL     1      41.144 133.253  20.691  1.00  0.00     0.044 C 
ATOM      5  C   UNL     1      43.036 132.163  19.448  1.00  0.00     0.043 A 
ATOM      6  C   UNL     1      44.211 131.403  19.407  1.00  0.00     0.184 A 
ATOM      7  C   UNL     1      44.719 130.833  20.595  1.00  0.00     0.134 A 
ENDROOT
BRANCH   1   8
ATOM      8  N   UNL     1      44.663 130.707  23.101  1.00  0.00    -0.280 N 
ATOM      9  H   UNL     1      45.694 130.556  23.000  1.00  0.00     0.358 HD
ATOM     10  H   UNL     1      44.563 131.458  23.817  1.00  0.00     0.358 HD
BRANCH   8  11
ATOM     11  C   UNL     1      44.059 129.476  23.551  1.00  0.00     0.154 A 
ATOM     12  C   UNL     1      42.133 128.010  23.756  1.00  0.00     0.048 A 
ATOM     13  C   UNL     1      42.943 127.068  24.397  1.00  0.00     0.128 A 
ATOM     14  C   UNL     1      42.695 129.219  23.333  1.00  0.00     0.088 A 
ATOM     15  N   UNL     1      44.259 127.331  24.605  1.00  0.00    -0.257 NA
ATOM     16  C   UNL     1      44.829 128.497  24.203  1.00  0.00     0.179 A 
BRANCH  12  17
ATOM     17  C   UNL     1      40.738 127.739  23.531  1.00  0.00    -0.069 C 
ATOM     18  C   UNL     1      39.569 127.511  23.343  1.00  0.00     0.010 C 
ENDBRANCH  12  17
ENDBRANCH   8  11
ENDBRANCH   1   8
BRANCH   7  19
ATOM     19  N   UNL     1      45.870 129.982  20.509  1.00  0.00    -0.052 NA
BRANCH  19  20
ATOM     20  N   UNL     1      45.885 128.857  21.008  1.00  0.00     0.006 N 
ATOM     21  N   UNL     1      45.905 127.732  21.506  1.00  0.00    -0.003 NA
ENDBRANCH  19  20
ENDBRANCH   7  19
BRANCH   6  22
ATOM     22  N   UNL     1      44.871 131.196  18.146  1.00  0.00     0.080 N 
ATOM     23  N   UNL     1      45.061 132.152  17.238  1.00  0.00    -0.062 N 
ATOM     24  N   UNL     1      45.415 130.043  17.759  1.00  0.00    -0.062 N 
ATOM     25  C   UNL     1      45.740 131.581  16.231  1.00  0.00     0.306 A 
ATOM     26  C   UNL     1      45.961 130.275  16.554  1.00  0.00     0.306 A 
ATOM     27  C   UNL     1      46.196 132.139  15.041  1.00  0.00     0.089 A 
ATOM     28  C   UNL     1      46.661 129.411  15.718  1.00  0.00     0.089 A 
ATOM     29  C   UNL     1      46.906 131.294  14.164  1.00  0.00     0.007 A 
ATOM     30  C   UNL     1      47.138 129.938  14.501  1.00  0.00     0.007 A 
ATOM     31  H   UNL     1      44.734 133.143  17.307  1.00  0.00     0.495 HD
ATOM     32  H   UNL     1      45.441 129.156  18.309  1.00  0.00     0.495 HD
ENDBRANCH   6  22
TORSDOF 6
ENDMDL
MODEL 3
REMARK VINA RESULT:      -5.6      1.900      3.256
REMARK SMILES C#Cc1cncc([NH2+]c2cc(C)cc(-n3[nH+]c4ccccc4[nH+]3)c2N=[N+]=[N-])c1
REMARK SMILES IDX 9 1 10 2 11 3 12 4 13 5 14 6 24 7 8 8 7 11 3 12 4 13 28 14
REMARK SMILES IDX 5 15 6 16 2 17 1 18 25 19 26 20 27 21 15 22 16 23 23 24
REMARK SMILES IDX 17 25 22 26 18 27 21 28 19 29 20 30
REMARK H PARENT 8 9 8 10 16 31 23 32
ROOT
ATOM      1  C   UNL     1      44.019 131.917  22.186  1.00  0.00     0.147 A 
ATOM      2  C   UNL     1      45.155 132.510  22.768  1.00  0.00     0.072 A 
ATOM      3  C   UNL     1      46.294 132.790  22.008  1.00  0.00    -0.043 A 
ATOM      4  C   UNL     1      47.507 133.388  22.659  1.00  0.00     0.044 C 
ATOM      5  C   UNL     1      46.330 132.421  20.661  1.00  0.00     0.043 A 
ATOM      6  C   UNL     1      45.224 131.814  20.054  1.00  0.00     0.184 A 
ATOM      7  C   UNL     1      44.045 131.599  20.800  1.00  0.00     0.134 A 
ENDROOT
BRANCH   1   8
ATOM      8  N   UNL     1      42.909 131.546  23.037  1.00  0.00    -0.280 N 
ATOM      9  H   UNL     1      42.931 132.097  23.928  1.00  0.00     0.358 HD
ATOM     10  H   UNL     1      41.996 131.781  22.591  1.00  0.00     0.358 HD
BRANCH   8  11
ATOM     11  C   UNL     1      42.984 130.142  23.361  1.00  0.00     0.154 A 
ATOM     12  C   UNL     1      44.116 127.996  23.239  1.00  0.00     0.048 A 
ATOM     13  C   UNL     1      43.115 127.445  24.044  1.00  0.00     0.128 A 
ATOM     14  C   UNL     1      44.048 129.350  22.895  1.00  0.00     0.088 A 
ATOM     15  N   UNL     1      42.090 128.220  24.484  1.00  0.00    -0.257 NA
ATOM     16  C   UNL     1      42.002 129.539  24.165  1.00  0.00     0.179 A 
BRANCH  12  17
ATOM     17  C   UNL     1      45.205 127.181  22.770  1.00  0.00    -0.069 C 
ATOM     18  C   UNL     1      46.118 126.498  22.377  1.00  0.00     0.010 C 
ENDBRANCH  12  17
ENDBRANCH   8  11
ENDBRANCH   1   8
BRANCH   7  19
ATOM     19  N   UNL     1      42.897 131.063  20.127  1.00  0.00    -0.052 NA
BRANCH  19  20
ATOM     20  N   UNL     1      42.248 131.728  19.319  1.00  0.00     0.006 N 
ATOM     21  N   UNL     1      41.605 132.394  18.509  1.00  0.00    -0.003 NA
ENDBRANCH  19  20
ENDBRANCH   7  19
BRANCH   6  22
ATOM     22  N   UNL     1      45.300 131.442  18.667  1.00  0.00     0.080 N 
ATOM     23  N   UNL     1      44.743 132.137  17.676  1.00  0.00    -0.062 N 
ATOM     24  N   UNL     1      45.977 130.391  18.203  1.00  0.00    -0.062 N 
ATOM     25  C   UNL     1      45.069 131.496  16.542  1.00  0.00     0.306 A 
ATOM     26  C   UNL     1      45.835 130.417  16.868  1.00  0.00     0.306 A 
ATOM     27  C   UNL     1      44.747 131.808  15.225  1.00  0.00     0.089 A 
ATOM     28  C   UNL     1      46.350 129.554  15.906  1.00  0.00     0.089 A 
ATOM     29  C   UNL     1      45.247 130.954  14.221  1.00  0.00     0.007 A 
ATOM     30  C   UNL     1      46.044 129.834  14.559  1.00  0.00     0.007 A 
ATOM     31  H   UNL     1      44.165 133.002  17.778  1.00  0.00     0.495 HD
ATOM     32  H   UNL     1      46.536 129.717  18.770  1.00  0.00     0.495 HD
ENDBRANCH   6  22
TORSDOF 6
ENDMDL
MODEL 4
REMARK VINA RESULT:      -5.5      1.227      1.665
REMARK SMILES C#Cc1cncc([NH2+]c2cc(C)cc(-n3[nH+]c4ccccc4[nH+]3)c2N=[N+]=[N-])c1
REMARK SMILES IDX 9 1 10 2 11 3 12 4 13 5 14 6 24 7 8 8 7 11 3 12 4 13 28 14
REMARK SMILES IDX 5 15 6 16 2 17 1 18 25 19 26 20 27 21 15 22 16 23 23 24
REMARK SMILES IDX 17 25 22 26 18 27 21 28 19 29 20 30
REMARK H PARENT 8 9 8 10 16 31 23 32
ROOT
ATOM      1  C   UNL     1      43.654 130.590  22.037  1.00  0.00     0.147 A 
ATOM      2  C   UNL     1      42.575 131.492  22.093  1.00  0.00     0.072 A 
ATOM      3  C   UNL     1      42.202 132.243  20.975  1.00  0.00    -0.043 A 
ATOM      4  C   UNL     1      41.071 133.225  21.069  1.00  0.00     0.044 C 
ATOM      5  C   UNL     1      42.948 132.142  19.798  1.00  0.00     0.043 A 
ATOM      6  C   UNL     1      44.038 131.267  19.713  1.00  0.00     0.184 A 
ATOM      7  C   UNL     1      44.371 130.452  20.817  1.00  0.00     0.134 A 
ENDROOT
BRANCH   1   8
ATOM      8  N   UNL     1      44.070 129.920  23.251  1.00  0.00    -0.280 N 
ATOM      9  H   UNL     1      44.937 129.359  23.081  1.00  0.00     0.358 HD
ATOM     10  H   UNL     1      44.326 130.607  23.992  1.00  0.00     0.358 HD
BRANCH   8  11
ATOM     11  C   UNL     1      43.027 129.031  23.703  1.00  0.00     0.154 A 
ATOM     12  C   UNL     1      42.218 126.798  24.214  1.00  0.00     0.048 A 
ATOM     13  C   UNL     1      41.003 127.353  24.625  1.00  0.00     0.128 A 
ATOM     14  C   UNL     1      43.233 127.642  23.751  1.00  0.00     0.088 A 
ATOM     15  N   UNL     1      40.815 128.697  24.570  1.00  0.00    -0.257 NA
ATOM     16  C   UNL     1      41.786 129.538  24.125  1.00  0.00     0.179 A 
BRANCH  12  17
ATOM     17  C   UNL     1      42.425 125.375  24.270  1.00  0.00    -0.069 C 
ATOM     18  C   UNL     1      42.598 124.182  24.316  1.00  0.00     0.010 C 
ENDBRANCH  12  17
ENDBRANCH   8  11
ENDBRANCH   1   8
BRANCH   7  19
ATOM     19  N   UNL     1      45.432 129.498  20.668  1.00  0.00    -0.052 NA
BRANCH  19  20
ATOM     20  N   UNL     1      45.411 128.409  21.243  1.00  0.00     0.006 N 
ATOM     21  N   UNL     1      45.388 127.324  21.820  1.00  0.00    -0.003 NA
ENDBRANCH  19  20
ENDBRANCH   7  19
BRANCH   6  22
ATOM     22  N   UNL     1      44.788 131.196  18.488  1.00  0.00     0.080 N 
ATOM     23  N   UNL     1      45.558 130.165  18.143  1.00  0.00    -0.062 N 
ATOM     24  N   UNL     1      44.762 132.124  17.532  1.00  0.00    -0.062 N 
ATOM     25  C   UNL     1      46.049 130.455  16.928  1.00  0.00     0.306 A 
ATOM     26  C   UNL     1      45.555 131.667  16.548  1.00  0.00     0.306 A 
ATOM     27  C   UNL     1      46.900 129.711  16.116  1.00  0.00     0.089 A 
ATOM     28  C   UNL     1      45.864 132.244  15.320  1.00  0.00     0.089 A 
ATOM     29  C   UNL     1      47.241 130.264  14.865  1.00  0.00     0.007 A 
ATOM     30  C   UNL     1      46.726 131.523  14.469  1.00  0.00     0.007 A 
ATOM     31  H   UNL     1      45.740 129.311  18.719  1.00  0.00     0.495 HD
ATOM     32  H   UNL     1      44.201 133.004  17.539  1.00  0.00     0.495 HD
ENDBRANCH   6  22
TORSDOF 6
ENDMDL
MODEL 5
REMARK VINA RESULT:      -5.5      1.155      1.539
REMARK SMILES C#Cc1cncc([NH2+]c2cc(C)cc(-n3[nH+]c4ccccc4[nH+]3)c2N=[N+]=[N-])c1
REMARK SMILES IDX 9 1 10 2 11 3 12 4 13 5 14 6 24 7 8 8 7 11 3 12 4 13 28 14
REMARK SMILES IDX 5 15 6 16 2 17 1 18 25 19 26 20 27 21 15 22 16 23 23 24
REMARK SMILES IDX 17 25 22 26 18 27 21 28 19 29 20 30
REMARK H PARENT 8 9 8 10 16 31 23 32
ROOT
ATOM      1  C   UNL     1      43.475 131.451  22.129  1.00  0.00     0.147 A 
ATOM      2  C   UNL     1      42.319 132.231  22.315  1.00  0.00     0.072 A 
ATOM      3  C   UNL     1      41.659 132.816  21.230  1.00  0.00    -0.043 A 
ATOM      4  C   UNL     1      40.449 133.674  21.456  1.00  0.00     0.044 C 
ATOM      5  C   UNL     1      42.188 132.674  19.945  1.00  0.00     0.043 A 
ATOM      6  C   UNL     1      43.347 131.917  19.726  1.00  0.00     0.184 A 
ATOM      7  C   UNL     1      43.973 131.264  20.810  1.00  0.00     0.134 A 
ENDROOT
BRANCH   1   8
ATOM      8  N   UNL     1      44.183 130.961  23.293  1.00  0.00    -0.280 N 
ATOM      9  H   UNL     1      45.214 130.938  23.111  1.00  0.00     0.358 HD
ATOM     10  H   UNL     1      44.060 131.601  24.106  1.00  0.00     0.358 HD
BRANCH   8  11
ATOM     11  C   UNL     1      43.741 129.624  23.611  1.00  0.00     0.154 A 
ATOM     12  C   UNL     1      41.964 128.009  23.972  1.00  0.00     0.048 A 
ATOM     13  C   UNL     1      42.931 127.022  24.186  1.00  0.00     0.128 A 
ATOM     14  C   UNL     1      42.372 129.315  23.685  1.00  0.00     0.088 A 
ATOM     15  N   UNL     1      44.250 127.335  24.115  1.00  0.00    -0.257 NA
ATOM     16  C   UNL     1      44.673 128.597  23.837  1.00  0.00     0.179 A 
BRANCH  12  17
ATOM     17  C   UNL     1      40.564 127.684  24.044  1.00  0.00    -0.069 C 
ATOM     18  C   UNL     1      39.390 127.412  24.105  1.00  0.00     0.010 C 
ENDBRANCH  12  17
ENDBRANCH   8  11
ENDBRANCH   1   8
BRANCH   7  19
ATOM     19  N   UNL     1      45.101 130.420  20.541  1.00  0.00    -0.052 NA
BRANCH  19  20
ATOM     20  N   UNL     1      46.238 130.875  20.418  1.00  0.00     0.006 N 
ATOM     21  N   UNL     1      47.373 131.329  20.290  1.00  0.00    -0.003 NA
ENDBRANCH  19  20
ENDBRANCH   7  19
BRANCH   6  22
ATOM     22  N   UNL     1      43.867 131.799  18.391  1.00  0.00     0.080 N 
ATOM     23  N   UNL     1      45.154 131.941  18.076  1.00  0.00    -0.062 N 
ATOM     24  N   UNL     1      43.137 131.485  17.321  1.00  0.00    -0.062 N 
ATOM     25  C   UNL     1      45.241 131.720  16.755  1.00  0.00     0.306 A 
ATOM     26  C   UNL     1      43.993 131.436  16.287  1.00  0.00     0.306 A 
ATOM     27  C   UNL     1      46.359 131.738  15.927  1.00  0.00     0.089 A 
ATOM     28  C   UNL     1      43.750 131.139  14.950  1.00  0.00     0.089 A 
ATOM     29  C   UNL     1      46.153 131.448  14.562  1.00  0.00     0.007 A 
ATOM     30  C   UNL     1      44.857 131.150  14.077  1.00  0.00     0.007 A 
ATOM     31  H   UNL     1      45.927 132.184  18.737  1.00  0.00     0.495 HD
ATOM     32  H   UNL     1      42.114 131.279  17.309  1.00  0.00     0.495 HD
ENDBRANCH   6  22
TORSDOF 6
ENDMDL
MODEL 6
REMARK VINA RESULT:      -5.0      1.962      3.197
REMARK SMILES C#Cc1cncc([NH2+]c2cc(C)cc(-n3[nH+]c4ccccc4[nH+]3)c2N=[N+]=[N-])c1
REMARK SMILES IDX 9 1 10 2 11 3 12 4 13 5 14 6 24 7 8 8 7 11 3 12 4 13 28 14
REMARK SMILES IDX 5 15 6 16 2 17 1 18 25 19 26 20 27 21 15 22 16 23 23 24
REMARK SMILES IDX 17 25 22 26 18 27 21 28 19 29 20 30
REMARK H PARENT 8 9 8 10 16 31 23 32
ROOT
ATOM      1  C   UNL     1      44.212 131.935  22.502  1.00  0.00     0.147 A 
ATOM      2  C   UNL     1      45.366 132.557  23.013  1.00  0.00     0.072 A 
ATOM      3  C   UNL     1      46.452 132.859  22.185  1.00  0.00    -0.043 A 
ATOM      4  C   UNL     1      47.687 133.488  22.760  1.00  0.00     0.044 C 
ATOM      5  C   UNL     1      46.416 132.484  20.840  1.00  0.00     0.043 A 
ATOM      6  C   UNL     1      45.289 131.849  20.302  1.00  0.00     0.184 A 
ATOM      7  C   UNL     1      44.162 131.610  21.118  1.00  0.00     0.134 A 
ENDROOT
BRANCH   1   8
ATOM      8  N   UNL     1      43.163 131.544  23.420  1.00  0.00    -0.280 N 
ATOM      9  H   UNL     1      43.336 131.952  24.368  1.00  0.00     0.358 HD
ATOM     10  H   UNL     1      42.239 131.924  23.121  1.00  0.00     0.358 HD
BRANCH   8  11
ATOM     11  C   UNL     1      43.122 130.106  23.536  1.00  0.00     0.154 A 
ATOM     12  C   UNL     1      44.243 127.968  23.804  1.00  0.00     0.048 A 
ATOM     13  C   UNL     1      42.996 127.336  23.801  1.00  0.00     0.128 A 
ATOM     14  C   UNL     1      44.305 129.359  23.670  1.00  0.00     0.088 A 
ATOM     15  N   UNL     1      41.861 128.070  23.666  1.00  0.00    -0.257 NA
ATOM     16  C   UNL     1      41.895 129.423  23.535  1.00  0.00     0.179 A 
BRANCH  12  17
ATOM     17  C   UNL     1      45.450 127.197  23.947  1.00  0.00    -0.069 C 
ATOM     18  C   UNL     1      46.461 126.552  24.067  1.00  0.00     0.010 C 
ENDBRANCH  12  17
ENDBRANCH   8  11
ENDBRANCH   1   8
BRANCH   7  19
ATOM     19  N   UNL     1      42.989 131.045  20.517  1.00  0.00    -0.052 NA
BRANCH  19  20
ATOM     20  N   UNL     1      42.309 131.672  19.704  1.00  0.00     0.006 N 
ATOM     21  N   UNL     1      41.627 132.300  18.897  1.00  0.00    -0.003 NA
ENDBRANCH  19  20
ENDBRANCH   7  19
BRANCH   6  22
ATOM     22  N   UNL     1      45.292 131.471  18.914  1.00  0.00     0.080 N 
ATOM     23  N   UNL     1      45.939 130.411  18.431  1.00  0.00    -0.062 N 
ATOM     24  N   UNL     1      44.609 132.100  17.959  1.00  0.00    -0.062 N 
ATOM     25  C   UNL     1      45.666 130.374  17.117  1.00  0.00     0.306 A 
ATOM     26  C   UNL     1      44.841 131.419  16.825  1.00  0.00     0.306 A 
ATOM     27  C   UNL     1      46.086 129.466  16.151  1.00  0.00     0.089 A 
ATOM     28  C   UNL     1      44.359 131.648  15.540  1.00  0.00     0.089 A 
ATOM     29  C   UNL     1      45.624 129.667  14.834  1.00  0.00     0.007 A 
ATOM     30  C   UNL     1      44.764 130.751  14.531  1.00  0.00     0.007 A 
ATOM     31  H   UNL     1      46.541 129.754  18.978  1.00  0.00     0.495 HD
ATOM     32  H   UNL     1      43.989 132.930  18.086  1.00  0.00     0.495 HD
ENDBRANCH   6  22
TORSDOF 6
ENDMDL


