REMARK SMILES CC(=O)c1ccc(-c2[nH+]ccc(C)c2F)c([NH2+]N)c1
REMARK SMILES IDX 4 1 5 2 6 3 7 4 16 5 19 6 2 7 1 8 3 9 17 10 18 13 8 16 9 17
REMARK SMILES IDX 14 18 10 19 12 20 11 21 15 23 13 24
REMARK H PARENT 17 11 17 12 18 14 18 15 9 22
ROOT
ATOM      1  C   UNL     1       2.883   0.493   0.603  1.00  0.00     0.023 A 
ATOM      2  C   UNL     1       1.830   1.120   1.292  1.00  0.00     0.013 A 
ATOM      3  C   UNL     1       0.541   0.588   1.256  1.00  0.00     0.022 A 
ATOM      4  C   UNL     1       0.268  -0.576   0.526  1.00  0.00     0.112 A 
ATOM      5  C   UNL     1       1.312  -1.220  -0.180  1.00  0.00     0.163 A 
ATOM      6  C   UNL     1       2.611  -0.681  -0.123  1.00  0.00     0.082 A 
ENDROOT
BRANCH   1   7
ATOM      7  C   UNL     1       4.265   1.044   0.638  1.00  0.00     0.160 C 
ATOM      8  C   UNL     1       4.604   2.287   1.405  1.00  0.00     0.093 C 
ATOM      9  O   UNL     1       5.189   0.459   0.010  1.00  0.00    -0.295 OA
ENDBRANCH   1   7
BRANCH   5  10
ATOM     10  N   UNL     1       1.086  -2.460  -0.886  1.00  0.00    -0.239 N 
ATOM     11  H   UNL     1       0.207  -2.402  -1.449  1.00  0.00     0.376 HD
ATOM     12  H   UNL     1       1.875  -2.678  -1.540  1.00  0.00     0.376 HD
BRANCH  10  13
ATOM     13  N   UNL     1       0.962  -3.501   0.057  1.00  0.00    -0.178 NA
ATOM     14  H   UNL     1       0.670  -4.366  -0.455  1.00  0.00     0.183 HD
ATOM     15  H   UNL     1       1.910  -3.700   0.457  1.00  0.00     0.183 HD
ENDBRANCH  10  13
ENDBRANCH   5  10
BRANCH   4  16
ATOM     16  C   UNL     1      -1.110  -1.105   0.523  1.00  0.00     0.253 A 
ATOM     17  N   UNL     1      -1.873  -1.014  -0.604  1.00  0.00    -0.208 N 
ATOM     18  C   UNL     1      -1.647  -1.683   1.685  1.00  0.00     0.198 A 
ATOM     19  C   UNL     1      -3.150  -1.482  -0.639  1.00  0.00     0.307 A 
ATOM     20  C   UNL     1      -2.958  -2.183   1.666  1.00  0.00    -0.002 A 
ATOM     21  C   UNL     1      -3.715  -2.071   0.493  1.00  0.00     0.077 A 
ATOM     22  H   UNL     1      -1.480  -0.568  -1.464  1.00  0.00     0.453 HD
ATOM     23  F   UNL     1      -0.898  -1.769   2.815  1.00  0.00    -0.199 F 
ATOM     24  C   UNL     1      -3.553  -2.791   2.902  1.00  0.00     0.048 C 
ENDBRANCH   4  16
TORSDOF 4


