MODEL 1
REMARK VINA RESULT:      -7.8      0.000      0.000
REMARK SMILES N#Cc1c(F)cc(F)cc1-c1ccc(C(N)=O)cc1
REMARK SMILES IDX 3 1 4 2 5 3 6 4 7 5 8 6 9 7 10 8 2 9 1 10 11 11 12 12 19 13
REMARK SMILES IDX 13 14 18 15 14 16 15 17 16 18 17 19
REMARK H PARENT 16 20 16 21
ROOT
ATOM      1  C   UNL     1      44.605 131.514  19.674  1.00  0.00     0.096 A 
ATOM      2  C   UNL     1      43.746 131.864  20.729  1.00  0.00     0.144 A 
ATOM      3  F   UNL     1      44.178 131.815  22.015  1.00  0.00    -0.205 F 
ATOM      4  C   UNL     1      42.432 132.259  20.465  1.00  0.00     0.080 A 
ATOM      5  C   UNL     1      41.964 132.302  19.152  1.00  0.00     0.126 A 
ATOM      6  F   UNL     1      40.686 132.683  18.901  1.00  0.00    -0.207 F 
ATOM      7  C   UNL     1      42.808 131.957  18.094  1.00  0.00     0.049 A 
ATOM      8  C   UNL     1      44.137 131.567  18.338  1.00  0.00     0.005 A 
ENDROOT
BRANCH   1   9
ATOM      9  C   UNL     1      45.941 131.059  19.986  1.00  0.00     0.103 C 
ATOM     10  N   UNL     1      47.011 130.695  20.235  1.00  0.00    -0.192 NA
ENDBRANCH   1   9
BRANCH   8  11
ATOM     11  C   UNL     1      45.004 131.222  17.186  1.00  0.00    -0.017 A 
ATOM     12  C   UNL     1      45.400 132.216  16.279  1.00  0.00     0.009 A 
ATOM     13  C   UNL     1      45.460 129.908  17.003  1.00  0.00     0.009 A 
ATOM     14  C   UNL     1      46.228 131.898  15.197  1.00  0.00     0.014 A 
ATOM     15  C   UNL     1      46.288 129.588  15.922  1.00  0.00     0.014 A 
ATOM     16  C   UNL     1      46.687 130.582  15.010  1.00  0.00     0.039 A 
BRANCH  16  17
ATOM     17  C   UNL     1      47.561 130.260  13.855  1.00  0.00     0.248 C 
ATOM     18  N   UNL     1      48.342 129.063  13.817  1.00  0.00    -0.366 N 
ATOM     19  O   UNL     1      47.631 131.062  12.885  1.00  0.00    -0.270 OA
ATOM     20  H   UNL     1      48.902 128.833  12.966  1.00  0.00     0.159 HD
ATOM     21  H   UNL     1      48.445 128.447  14.653  1.00  0.00     0.159 HD
ENDBRANCH  16  17
ENDBRANCH   8  11
TORSDOF 3
ENDMDL
MODEL 2
REMARK VINA RESULT:      -7.8      0.062      1.111
REMARK SMILES N#Cc1c(F)cc(F)cc1-c1ccc(C(N)=O)cc1
REMARK SMILES IDX 3 1 4 2 5 3 6 4 7 5 8 6 9 7 10 8 2 9 1 10 11 11 12 12 19 13
REMARK SMILES IDX 13 14 18 15 14 16 15 17 16 18 17 19
REMARK H PARENT 16 20 16 21
ROOT
ATOM      1  C   UNL     1      44.623 131.549  19.689  1.00  0.00     0.096 A 
ATOM      2  C   UNL     1      43.749 131.882  20.737  1.00  0.00     0.144 A 
ATOM      3  F   UNL     1      44.173 131.850  22.026  1.00  0.00    -0.205 F 
ATOM      4  C   UNL     1      42.427 132.243  20.462  1.00  0.00     0.080 A 
ATOM      5  C   UNL     1      41.967 132.268  19.145  1.00  0.00     0.126 A 
ATOM      6  F   UNL     1      40.682 132.615  18.884  1.00  0.00    -0.207 F 
ATOM      7  C   UNL     1      42.826 131.938  18.095  1.00  0.00     0.049 A 
ATOM      8  C   UNL     1      44.163 131.583  18.350  1.00  0.00     0.005 A 
ENDROOT
BRANCH   1   9
ATOM      9  C   UNL     1      45.968 131.129  20.012  1.00  0.00     0.103 C 
ATOM     10  N   UNL     1      47.045 130.793  20.272  1.00  0.00    -0.192 NA
ENDBRANCH   1   9
BRANCH   8  11
ATOM     11  C   UNL     1      45.047 131.254  17.206  1.00  0.00    -0.017 A 
ATOM     12  C   UNL     1      45.548 129.952  17.054  1.00  0.00     0.009 A 
ATOM     13  C   UNL     1      45.372 132.227  16.249  1.00  0.00     0.009 A 
ATOM     14  C   UNL     1      46.372 129.633  15.971  1.00  0.00     0.014 A 
ATOM     15  C   UNL     1      46.195 131.910  15.165  1.00  0.00     0.014 A 
ATOM     16  C   UNL     1      46.700 130.605  15.010  1.00  0.00     0.039 A 
BRANCH  16  17
ATOM     17  C   UNL     1      47.580 130.252  13.869  1.00  0.00     0.248 C 
ATOM     18  N   UNL     1      48.299 129.016  13.832  1.00  0.00    -0.366 N 
ATOM     19  O   UNL     1      47.711 131.060  12.911  1.00  0.00    -0.270 OA
ATOM     20  H   UNL     1      48.863 128.767  12.989  1.00  0.00     0.159 HD
ATOM     21  H   UNL     1      48.352 128.386  14.661  1.00  0.00     0.159 HD
ENDBRANCH  16  17
ENDBRANCH   8  11
TORSDOF 3
ENDMDL
MODEL 3
REMARK VINA RESULT:      -7.1      1.643      2.926
REMARK SMILES N#Cc1c(F)cc(F)cc1-c1ccc(C(N)=O)cc1
REMARK SMILES IDX 3 1 4 2 5 3 6 4 7 5 8 6 9 7 10 8 2 9 1 10 11 11 12 12 19 13
REMARK SMILES IDX 13 14 18 15 14 16 15 17 16 18 17 19
REMARK H PARENT 16 20 16 21
ROOT
ATOM      1  C   UNL     1      43.293 131.832  19.085  1.00  0.00     0.096 A 
ATOM      2  C   UNL     1      42.699 132.068  20.336  1.00  0.00     0.144 A 
ATOM      3  F   UNL     1      41.411 132.491  20.419  1.00  0.00    -0.205 F 
ATOM      4  C   UNL     1      43.431 131.879  21.510  1.00  0.00     0.080 A 
ATOM      5  C   UNL     1      44.761 131.460  21.447  1.00  0.00     0.126 A 
ATOM      6  F   UNL     1      45.469 131.281  22.589  1.00  0.00    -0.207 F 
ATOM      7  C   UNL     1      45.363 131.222  20.209  1.00  0.00     0.049 A 
ATOM      8  C   UNL     1      44.639 131.396  19.016  1.00  0.00     0.005 A 
ENDROOT
BRANCH   1   9
ATOM      9  C   UNL     1      42.523 132.089  17.889  1.00  0.00     0.103 C 
ATOM     10  N   UNL     1      41.906 132.295  16.932  1.00  0.00    -0.192 NA
ENDBRANCH   1   9
BRANCH   8  11
ATOM     11  C   UNL     1      45.311 131.119  17.724  1.00  0.00    -0.017 A 
ATOM     12  C   UNL     1      45.799 129.834  17.444  1.00  0.00     0.009 A 
ATOM     13  C   UNL     1      45.445 132.127  16.758  1.00  0.00     0.009 A 
ATOM     14  C   UNL     1      46.423 129.564  16.223  1.00  0.00     0.014 A 
ATOM     15  C   UNL     1      46.069 131.859  15.535  1.00  0.00     0.014 A 
ATOM     16  C   UNL     1      46.560 130.571  15.251  1.00  0.00     0.039 A 
BRANCH  16  17
ATOM     17  C   UNL     1      47.229 130.270  13.962  1.00  0.00     0.248 C 
ATOM     18  N   UNL     1      48.135 129.171  13.826  1.00  0.00    -0.366 N 
ATOM     19  O   UNL     1      47.009 131.003  12.960  1.00  0.00    -0.270 OA
ATOM     20  H   UNL     1      48.545 128.948  12.892  1.00  0.00     0.159 HD
ATOM     21  H   UNL     1      48.474 128.633  14.652  1.00  0.00     0.159 HD
ENDBRANCH  16  17
ENDBRANCH   8  11
TORSDOF 3
ENDMDL
MODEL 4
REMARK VINA RESULT:      -7.0      1.630      2.699
REMARK SMILES N#Cc1c(F)cc(F)cc1-c1ccc(C(N)=O)cc1
REMARK SMILES IDX 3 1 4 2 5 3 6 4 7 5 8 6 9 7 10 8 2 9 1 10 11 11 12 12 19 13
REMARK SMILES IDX 13 14 18 15 14 16 15 17 16 18 17 19
REMARK H PARENT 16 20 16 21
ROOT
ATOM      1  C   UNL     1      43.402 131.753  18.894  1.00  0.00     0.096 A 
ATOM      2  C   UNL     1      42.820 131.985  20.152  1.00  0.00     0.144 A 
ATOM      3  F   UNL     1      41.525 132.382  20.250  1.00  0.00    -0.205 F 
ATOM      4  C   UNL     1      43.572 131.817  21.317  1.00  0.00     0.080 A 
ATOM      5  C   UNL     1      44.909 131.424  21.238  1.00  0.00     0.126 A 
ATOM      6  F   UNL     1      45.636 131.266  22.371  1.00  0.00    -0.207 F 
ATOM      7  C   UNL     1      45.498 131.190  19.994  1.00  0.00     0.049 A 
ATOM      8  C   UNL     1      44.755 131.343  18.810  1.00  0.00     0.005 A 
ENDROOT
BRANCH   1   9
ATOM      9  C   UNL     1      42.611 131.988  17.707  1.00  0.00     0.103 C 
ATOM     10  N   UNL     1      41.978 132.175  16.757  1.00  0.00    -0.192 NA
ENDBRANCH   1   9
BRANCH   8  11
ATOM     11  C   UNL     1      45.415 131.072  17.510  1.00  0.00    -0.017 A 
ATOM     12  C   UNL     1      45.575 132.102  16.572  1.00  0.00     0.009 A 
ATOM     13  C   UNL     1      45.909 129.793  17.212  1.00  0.00     0.009 A 
ATOM     14  C   UNL     1      46.207 131.855  15.349  1.00  0.00     0.014 A 
ATOM     15  C   UNL     1      46.543 129.544  15.990  1.00  0.00     0.014 A 
ATOM     16  C   UNL     1      46.704 130.576  15.046  1.00  0.00     0.039 A 
BRANCH  16  17
ATOM     17  C   UNL     1      47.368 130.328  13.743  1.00  0.00     0.248 C 
ATOM     18  N   UNL     1      48.325 129.278  13.577  1.00  0.00    -0.366 N 
ATOM     19  O   UNL     1      47.097 131.065  12.757  1.00  0.00    -0.270 OA
ATOM     20  H   UNL     1      48.732 129.090  12.634  1.00  0.00     0.159 HD
ATOM     21  H   UNL     1      48.702 128.745  14.390  1.00  0.00     0.159 HD
ENDBRANCH  16  17
ENDBRANCH   8  11
TORSDOF 3
ENDMDL
MODEL 5
REMARK VINA RESULT:      -6.8      1.300      1.763
REMARK SMILES N#Cc1c(F)cc(F)cc1-c1ccc(C(N)=O)cc1
REMARK SMILES IDX 3 1 4 2 5 3 6 4 7 5 8 6 9 7 10 8 2 9 1 10 11 11 12 12 19 13
REMARK SMILES IDX 13 14 18 15 14 16 15 17 16 18 17 19
REMARK H PARENT 16 20 16 21
ROOT
ATOM      1  C   UNL     1      44.144 131.088  20.772  1.00  0.00     0.096 A 
ATOM      2  C   UNL     1      43.493 131.428  21.970  1.00  0.00     0.144 A 
ATOM      3  F   UNL     1      43.912 130.913  23.154  1.00  0.00    -0.205 F 
ATOM      4  C   UNL     1      42.398 132.297  21.954  1.00  0.00     0.080 A 
ATOM      5  C   UNL     1      41.942 132.827  20.746  1.00  0.00     0.126 A 
ATOM      6  F   UNL     1      40.877 133.666  20.735  1.00  0.00    -0.207 F 
ATOM      7  C   UNL     1      42.581 132.496  19.549  1.00  0.00     0.049 A 
ATOM      8  C   UNL     1      43.691 131.632  19.545  1.00  0.00     0.005 A 
ENDROOT
BRANCH   1   9
ATOM      9  C   UNL     1      45.238 130.146  20.819  1.00  0.00     0.103 C 
ATOM     10  N   UNL     1      46.115 129.391  20.857  1.00  0.00    -0.192 NA
ENDBRANCH   1   9
BRANCH   8  11
ATOM     11  C   UNL     1      44.348 131.317  18.255  1.00  0.00    -0.017 A 
ATOM     12  C   UNL     1      45.588 130.662  18.237  1.00  0.00     0.009 A 
ATOM     13  C   UNL     1      43.731 131.646  17.038  1.00  0.00     0.009 A 
ATOM     14  C   UNL     1      46.208 130.352  17.022  1.00  0.00     0.014 A 
ATOM     15  C   UNL     1      44.349 131.336  15.823  1.00  0.00     0.014 A 
ATOM     16  C   UNL     1      45.593 130.679  15.801  1.00  0.00     0.039 A 
BRANCH  16  17
ATOM     17  C   UNL     1      46.266 130.348  14.521  1.00  0.00     0.248 C 
ATOM     18  N   UNL     1      47.204 129.273  14.424  1.00  0.00    -0.366 N 
ATOM     19  O   UNL     1      46.019 131.033  13.493  1.00  0.00    -0.270 OA
ATOM     20  H   UNL     1      47.617 129.024  13.497  1.00  0.00     0.159 HD
ATOM     21  H   UNL     1      47.563 128.778  15.269  1.00  0.00     0.159 HD
ENDBRANCH  16  17
ENDBRANCH   8  11
TORSDOF 3
ENDMDL
MODEL 6
REMARK VINA RESULT:      -6.7      1.335      1.622
REMARK SMILES N#Cc1c(F)cc(F)cc1-c1ccc(C(N)=O)cc1
REMARK SMILES IDX 3 1 4 2 5 3 6 4 7 5 8 6 9 7 10 8 2 9 1 10 11 11 12 12 19 13
REMARK SMILES IDX 13 14 18 15 14 16 15 17 16 18 17 19
REMARK H PARENT 16 20 16 21
ROOT
ATOM      1  C   UNL     1      44.078 131.119  20.837  1.00  0.00     0.096 A 
ATOM      2  C   UNL     1      43.425 131.475  22.028  1.00  0.00     0.144 A 
ATOM      3  F   UNL     1      43.836 130.968  23.219  1.00  0.00    -0.205 F 
ATOM      4  C   UNL     1      42.336 132.351  21.999  1.00  0.00     0.080 A 
ATOM      5  C   UNL     1      41.888 132.872  20.785  1.00  0.00     0.126 A 
ATOM      6  F   UNL     1      40.829 133.718  20.762  1.00  0.00    -0.207 F 
ATOM      7  C   UNL     1      42.529 132.525  19.594  1.00  0.00     0.049 A 
ATOM      8  C   UNL     1      43.633 131.655  19.603  1.00  0.00     0.005 A 
ENDROOT
BRANCH   1   9
ATOM      9  C   UNL     1      45.166 130.170  20.897  1.00  0.00     0.103 C 
ATOM     10  N   UNL     1      46.038 129.410  20.946  1.00  0.00    -0.192 NA
ENDBRANCH   1   9
BRANCH   8  11
ATOM     11  C   UNL     1      44.294 131.323  18.318  1.00  0.00    -0.017 A 
ATOM     12  C   UNL     1      43.674 131.646  17.102  1.00  0.00     0.009 A 
ATOM     13  C   UNL     1      45.555 130.708  18.300  1.00  0.00     0.009 A 
ATOM     14  C   UNL     1      44.298 131.346  15.887  1.00  0.00     0.014 A 
ATOM     15  C   UNL     1      46.181 130.408  17.086  1.00  0.00     0.014 A 
ATOM     16  C   UNL     1      45.561 130.730  15.864  1.00  0.00     0.039 A 
BRANCH  16  17
ATOM     17  C   UNL     1      46.208 130.415  14.567  1.00  0.00     0.248 C 
ATOM     18  N   UNL     1      47.134 129.333  14.435  1.00  0.00    -0.366 N 
ATOM     19  O   UNL     1      45.950 131.120  13.555  1.00  0.00    -0.270 OA
ATOM     20  H   UNL     1      47.529 129.096  13.498  1.00  0.00     0.159 HD
ATOM     21  H   UNL     1      47.503 128.820  15.266  1.00  0.00     0.159 HD
ENDBRANCH  16  17
ENDBRANCH   8  11
TORSDOF 3
ENDMDL
MODEL 7
REMARK VINA RESULT:      -6.4      1.845      3.047
REMARK SMILES N#Cc1c(F)cc(F)cc1-c1ccc(C(N)=O)cc1
REMARK SMILES IDX 3 1 4 2 5 3 6 4 7 5 8 6 9 7 10 8 2 9 1 10 11 11 12 12 19 13
REMARK SMILES IDX 13 14 18 15 14 16 15 17 16 18 17 19
REMARK H PARENT 16 20 16 21
ROOT
ATOM      1  C   UNL     1      43.551 131.654  18.292  1.00  0.00     0.096 A 
ATOM      2  C   UNL     1      42.886 131.861  19.512  1.00  0.00     0.144 A 
ATOM      3  F   UNL     1      41.583 132.245  19.531  1.00  0.00    -0.205 F 
ATOM      4  C   UNL     1      43.561 131.680  20.722  1.00  0.00     0.080 A 
ATOM      5  C   UNL     1      44.904 131.300  20.725  1.00  0.00     0.126 A 
ATOM      6  F   UNL     1      45.556 131.130  21.901  1.00  0.00    -0.207 F 
ATOM      7  C   UNL     1      45.576 131.092  19.519  1.00  0.00     0.049 A 
ATOM      8  C   UNL     1      44.911 131.257  18.291  1.00  0.00     0.005 A 
ENDROOT
BRANCH   1   9
ATOM      9  C   UNL     1      42.838 131.902  17.060  1.00  0.00     0.103 C 
ATOM     10  N   UNL     1      42.267 132.099  16.073  1.00  0.00    -0.192 NA
ENDBRANCH   1   9
BRANCH   8  11
ATOM     11  C   UNL     1      45.658 131.013  17.033  1.00  0.00    -0.017 A 
ATOM     12  C   UNL     1      46.169 129.737  16.753  1.00  0.00     0.009 A 
ATOM     13  C   UNL     1      45.840 132.043  16.098  1.00  0.00     0.009 A 
ATOM     14  C   UNL     1      46.864 129.498  15.564  1.00  0.00     0.014 A 
ATOM     15  C   UNL     1      46.534 131.805  14.907  1.00  0.00     0.014 A 
ATOM     16  C   UNL     1      47.049 130.527  14.624  1.00  0.00     0.039 A 
BRANCH  16  17
ATOM     17  C   UNL     1      47.792 130.258  13.369  1.00  0.00     0.248 C 
ATOM     18  N   UNL     1      47.679 131.119  12.232  1.00  0.00    -0.366 N 
ATOM     19  O   UNL     1      48.534 129.242  13.289  1.00  0.00    -0.270 OA
ATOM     20  H   UNL     1      48.260 130.939  11.383  1.00  0.00     0.159 HD
ATOM     21  H   UNL     1      46.965 131.878  12.186  1.00  0.00     0.159 HD
ENDBRANCH  16  17
ENDBRANCH   8  11
TORSDOF 3
ENDMDL
MODEL 8
REMARK VINA RESULT:      -6.2      2.720      4.081
REMARK SMILES N#Cc1c(F)cc(F)cc1-c1ccc(C(N)=O)cc1
REMARK SMILES IDX 3 1 4 2 5 3 6 4 7 5 8 6 9 7 10 8 2 9 1 10 11 11 12 12 19 13
REMARK SMILES IDX 13 14 18 15 14 16 15 17 16 18 17 19
REMARK H PARENT 16 20 16 21
ROOT
ATOM      1  C   UNL     1      42.887 131.649  21.877  1.00  0.00     0.096 A 
ATOM      2  C   UNL     1      42.630 131.444  23.243  1.00  0.00     0.144 A 
ATOM      3  F   UNL     1      41.651 132.142  23.873  1.00  0.00    -0.205 F 
ATOM      4  C   UNL     1      43.387 130.523  23.971  1.00  0.00     0.080 A 
ATOM      5  C   UNL     1      44.408 129.805  23.347  1.00  0.00     0.126 A 
ATOM      6  F   UNL     1      45.142 128.915  24.059  1.00  0.00    -0.207 F 
ATOM      7  C   UNL     1      44.673 130.000  21.990  1.00  0.00     0.049 A 
ATOM      8  C   UNL     1      43.915 130.915  21.237  1.00  0.00     0.005 A 
ENDROOT
BRANCH   1   9
ATOM      9  C   UNL     1      42.121 132.648  21.167  1.00  0.00     0.103 C 
ATOM     10  N   UNL     1      41.508 133.448  20.599  1.00  0.00    -0.192 NA
ENDBRANCH   1   9
BRANCH   8  11
ATOM     11  C   UNL     1      44.220 131.082  19.796  1.00  0.00    -0.017 A 
ATOM     12  C   UNL     1      43.243 131.581  18.921  1.00  0.00     0.009 A 
ATOM     13  C   UNL     1      45.492 130.769  19.293  1.00  0.00     0.009 A 
ATOM     14  C   UNL     1      43.529 131.752  17.564  1.00  0.00     0.014 A 
ATOM     15  C   UNL     1      45.780 130.940  17.935  1.00  0.00     0.014 A 
ATOM     16  C   UNL     1      44.802 131.440  17.055  1.00  0.00     0.039 A 
BRANCH  16  17
ATOM     17  C   UNL     1      45.088 131.622  15.611  1.00  0.00     0.248 C 
ATOM     18  N   UNL     1      46.153 132.463  15.158  1.00  0.00    -0.366 N 
ATOM     19  O   UNL     1      44.373 131.035  14.756  1.00  0.00    -0.270 OA
ATOM     20  H   UNL     1      46.369 132.526  14.139  1.00  0.00     0.159 HD
ATOM     21  H   UNL     1      46.671 133.092  15.809  1.00  0.00     0.159 HD
ENDBRANCH  16  17
ENDBRANCH   8  11
TORSDOF 3
ENDMDL
MODEL 9
REMARK VINA RESULT:      -6.1      2.659      4.054
REMARK SMILES N#Cc1c(F)cc(F)cc1-c1ccc(C(N)=O)cc1
REMARK SMILES IDX 3 1 4 2 5 3 6 4 7 5 8 6 9 7 10 8 2 9 1 10 11 11 12 12 19 13
REMARK SMILES IDX 13 14 18 15 14 16 15 17 16 18 17 19
REMARK H PARENT 16 20 16 21
ROOT
ATOM      1  C   UNL     1      42.893 131.643  21.766  1.00  0.00     0.096 A 
ATOM      2  C   UNL     1      42.660 131.398  23.129  1.00  0.00     0.144 A 
ATOM      3  F   UNL     1      41.693 132.078  23.797  1.00  0.00    -0.205 F 
ATOM      4  C   UNL     1      43.430 130.457  23.817  1.00  0.00     0.080 A 
ATOM      5  C   UNL     1      44.440 129.758  23.154  1.00  0.00     0.126 A 
ATOM      6  F   UNL     1      45.187 128.847  23.827  1.00  0.00    -0.207 F 
ATOM      7  C   UNL     1      44.681 129.992  21.798  1.00  0.00     0.049 A 
ATOM      8  C   UNL     1      43.909 130.927  21.086  1.00  0.00     0.005 A 
ENDROOT
BRANCH   1   9
ATOM      9  C   UNL     1      42.115 132.661  21.098  1.00  0.00     0.103 C 
ATOM     10  N   UNL     1      41.492 133.477  20.564  1.00  0.00    -0.192 NA
ENDBRANCH   1   9
BRANCH   8  11
ATOM     11  C   UNL     1      44.188 131.136  19.645  1.00  0.00    -0.017 A 
ATOM     12  C   UNL     1      45.471 130.892  19.132  1.00  0.00     0.009 A 
ATOM     13  C   UNL     1      43.172 131.554  18.773  1.00  0.00     0.009 A 
ATOM     14  C   UNL     1      45.737 131.075  17.772  1.00  0.00     0.014 A 
ATOM     15  C   UNL     1      43.436 131.737  17.411  1.00  0.00     0.014 A 
ATOM     16  C   UNL     1      44.722 131.494  16.894  1.00  0.00     0.039 A 
BRANCH  16  17
ATOM     17  C   UNL     1      45.021 131.689  15.455  1.00  0.00     0.248 C 
ATOM     18  N   UNL     1      46.346 131.974  14.997  1.00  0.00    -0.366 N 
ATOM     19  O   UNL     1      44.089 131.616  14.610  1.00  0.00    -0.270 OA
ATOM     20  H   UNL     1      46.538 132.047  13.973  1.00  0.00     0.159 HD
ATOM     21  H   UNL     1      47.120 132.201  15.658  1.00  0.00     0.159 HD
ENDBRANCH  16  17
ENDBRANCH   8  11
TORSDOF 3
ENDMDL


