REMARK SMILES Cc1ccc(N[C@H]2CC[C@H]3[N+](C)=NN[C@@]3(N)[C@@H]2O)cc1
REMARK SMILES IDX 7 1 8 2 9 3 10 4 11 5 12 6 13 7 14 8 15 9 17 10 6 12 5 14
REMARK SMILES IDX 2 15 3 16 20 17 4 18 19 19 1 20 18 21 16 23
REMARK H PARENT 14 11 6 13 18 22 16 24 16 25
ROOT
ATOM      1  C   UNL     1       1.003  -0.554  -0.149  1.00  0.00     0.114 C 
ATOM      2  C   UNL     1       2.546  -0.353  -0.223  1.00  0.00     0.032 C 
ATOM      3  C   UNL     1       3.036   0.906   0.501  1.00  0.00     0.061 C 
ATOM      4  C   UNL     1       2.340   2.172  -0.035  1.00  0.00     0.266 C 
ATOM      5  N   UNL     1       2.732   2.432  -1.423  1.00  0.00    -0.163 N 
ATOM      6  C   UNL     1       4.079   2.762  -1.874  1.00  0.00     0.319 C 
ATOM      7  N   UNL     1       1.751   2.385  -2.222  1.00  0.00     0.079 NA
ATOM      8  N   UNL     1       0.558   2.111  -1.562  1.00  0.00    -0.156 N 
ATOM      9  C   UNL     1       0.787   2.025  -0.127  1.00  0.00     0.244 C 
ATOM     10  C   UNL     1       0.241   0.677   0.424  1.00  0.00     0.206 C 
ATOM     11  H   UNL     1      -0.370   2.070  -2.039  1.00  0.00     0.337 HD
ENDROOT
BRANCH   1  12
ATOM     12  N   UNL     1       0.460  -0.916  -1.468  1.00  0.00    -0.379 N 
ATOM     13  H   UNL     1       0.992  -0.628  -2.321  1.00  0.00     0.160 HD
BRANCH  12  14
ATOM     14  C   UNL     1      -0.792  -1.602  -1.681  1.00  0.00     0.034 A 
ATOM     15  C   UNL     1      -3.222  -2.949  -2.177  1.00  0.00    -0.051 A 
ATOM     16  C   UNL     1      -2.823  -2.673  -0.862  1.00  0.00     0.005 A 
ATOM     17  C   UNL     1      -2.416  -2.527  -3.243  1.00  0.00     0.005 A 
ATOM     18  C   UNL     1      -1.617  -2.012  -0.613  1.00  0.00     0.026 A 
ATOM     19  C   UNL     1      -1.210  -1.866  -2.995  1.00  0.00     0.026 A 
ATOM     20  C   UNL     1      -4.536  -3.622  -2.443  1.00  0.00     0.044 C 
ENDBRANCH  12  14
ENDBRANCH   1  12
BRANCH  10  21
ATOM     21  O   UNL     1       0.324   0.671   1.828  1.00  0.00    -0.384 OA
ATOM     22  H   UNL     1      -0.315  -0.016   2.154  1.00  0.00     0.211 HD
ENDBRANCH  10  21
BRANCH   9  23
ATOM     23  N   UNL     1       0.132   3.168   0.520  1.00  0.00    -0.283 NA
ATOM     24  H   UNL     1      -0.905   3.068   0.425  1.00  0.00     0.123 HD
ATOM     25  H   UNL     1       0.354   3.168   1.542  1.00  0.00     0.123 HD
ENDBRANCH   9  23
TORSDOF 4


