REMARK SMILES C=C[C@H]1CCC[C@H](c2ccc(C(C)=O)cc2)C1=C
REMARK SMILES IDX 3 1 4 2 5 3 6 4 7 5 17 6 18 7 2 8 1 9 8 10 9 11 16 12 10 13
REMARK SMILES IDX 15 14 11 15 12 16 13 17 14 18
REMARK H PARENT
ROOT
ATOM      1  C   UNL     1       1.636  -0.209  -2.574  1.00  0.00     0.037 C 
ATOM      2  C   UNL     1       0.308  -0.309  -3.348  1.00  0.00     0.012 C 
ATOM      3  C   UNL     1      -0.578  -1.436  -2.814  1.00  0.00     0.002 C 
ATOM      4  C   UNL     1      -0.929  -1.175  -1.350  1.00  0.00     0.013 C 
ATOM      5  C   UNL     1       0.330  -1.096  -0.460  1.00  0.00     0.045 C 
ATOM      6  C   UNL     1       1.409  -0.194  -1.069  1.00  0.00    -0.063 C 
ATOM      7  C   UNL     1       2.345   0.390  -0.294  1.00  0.00     0.009 C 
ENDROOT
BRANCH   1   8
ATOM      8  C   UNL     1       2.566  -1.344  -2.944  1.00  0.00    -0.027 C 
ATOM      9  C   UNL     1       3.217  -1.363  -4.112  1.00  0.00     0.004 C 
ENDBRANCH   1   8
BRANCH   5  10
ATOM     10  C   UNL     1      -0.086  -0.682   0.944  1.00  0.00    -0.041 A 
ATOM     11  C   UNL     1      -0.556   0.617   1.202  1.00  0.00     0.005 A 
ATOM     12  C   UNL     1      -0.028  -1.606   1.998  1.00  0.00     0.005 A 
ATOM     13  C   UNL     1      -0.948   0.988   2.491  1.00  0.00     0.012 A 
ATOM     14  C   UNL     1      -0.420  -1.236   3.288  1.00  0.00     0.012 A 
ATOM     15  C   UNL     1      -0.884   0.065   3.553  1.00  0.00     0.017 A 
BRANCH  15  16
ATOM     16  C   UNL     1      -1.296   0.443   4.932  1.00  0.00     0.159 C 
ATOM     17  C   UNL     1      -1.796   1.817   5.262  1.00  0.00     0.093 C 
ATOM     18  O   UNL     1      -1.228  -0.408   5.861  1.00  0.00    -0.295 OA
ENDBRANCH  15  16
ENDBRANCH   5  10
TORSDOF 3


