MODEL 1
REMARK VINA RESULT:      -7.5      0.000      0.000
REMARK SMILES CC1CN(CCOC(=O)c2cc(F)ccc2Nc2cc3ccccc3[n-]2)C1
REMARK SMILES IDX 7 1 6 2 5 3 4 4 2 5 3 6 27 7 1 8 8 9 9 10 10 11 11 12 16 13
REMARK SMILES IDX 12 14 15 15 14 16 13 17 17 18 18 20 19 21 26 22 20 23 25 24
REMARK SMILES IDX 21 25 24 26 22 27 23 28
REMARK H PARENT 17 19
ROOT
ATOM      1  O   UNL     1      44.185 129.218  22.123  1.00  0.00    -0.461 OA
ENDROOT
BRANCH   1   2
ATOM      2  C   UNL     1      45.372 128.515  21.774  1.00  0.00     0.248 C 
BRANCH   2   3
ATOM      3  C   UNL     1      45.218 127.032  22.112  1.00  0.00     0.126 C 
BRANCH   3   4
ATOM      4  N   UNL     1      44.667 126.868  23.473  1.00  0.00    -0.299 NA
ATOM      5  C   UNL     1      43.065 125.470  23.922  1.00  0.00     0.014 C 
ATOM      6  C   UNL     1      43.195 126.926  23.505  1.00  0.00     0.089 C 
ATOM      7  C   UNL     1      44.583 125.449  23.853  1.00  0.00     0.089 C 
ATOM      8  C   UNL     1      42.380 124.579  22.883  1.00  0.00     0.010 C 
ENDBRANCH   3   4
ENDBRANCH   2   3
ENDBRANCH   1   2
BRANCH   1   9
ATOM      9  C   UNL     1      44.141 130.605  22.297  1.00  0.00     0.338 C 
ATOM     10  O   UNL     1      44.680 131.135  23.307  1.00  0.00    -0.246 OA
BRANCH   9  11
ATOM     11  C   UNL     1      43.424 131.446  21.312  1.00  0.00     0.066 A 
ATOM     12  C   UNL     1      42.323 132.212  21.738  1.00  0.00     0.055 A 
ATOM     13  C   UNL     1      43.787 131.457  19.944  1.00  0.00    -0.029 A 
ATOM     14  C   UNL     1      41.580 132.959  20.819  1.00  0.00     0.124 A 
ATOM     15  C   UNL     1      43.029 132.214  19.034  1.00  0.00     0.007 A 
ATOM     16  C   UNL     1      41.929 132.955  19.469  1.00  0.00     0.039 A 
ATOM     17  F   UNL     1      40.514 133.684  21.240  1.00  0.00    -0.207 F 
BRANCH  13  18
ATOM     18  N   UNL     1      44.977 130.791  19.493  1.00  0.00    -0.456 N 
ATOM     19  H   UNL     1      45.561 130.280  20.193  1.00  0.00     0.026 HD
BRANCH  18  20
ATOM     20  C   UNL     1      45.357 130.724  18.114  1.00  0.00    -0.060 A 
ATOM     21  C   UNL     1      45.023 131.689  17.172  1.00  0.00     0.007 A 
ATOM     22  N   UNL     1      46.146 129.747  17.600  1.00  0.00    -0.436 NA
ATOM     23  C   UNL     1      45.633 131.263  16.019  1.00  0.00    -0.023 A 
ATOM     24  C   UNL     1      46.297 130.099  16.311  1.00  0.00    -0.034 A 
ATOM     25  C   UNL     1      45.665 131.832  14.748  1.00  0.00     0.008 A 
ATOM     26  C   UNL     1      47.041 129.424  15.345  1.00  0.00     0.004 A 
ATOM     27  C   UNL     1      46.408 131.171  13.752  1.00  0.00     0.001 A 
ATOM     28  C   UNL     1      47.092 129.971  14.050  1.00  0.00     0.000 A 
ENDBRANCH  18  20
ENDBRANCH  13  18
ENDBRANCH   9  11
ENDBRANCH   1   9
TORSDOF 7
ENDMDL
MODEL 2
REMARK VINA RESULT:      -7.4      2.070      7.853
REMARK SMILES CC1CN(CCOC(=O)c2cc(F)ccc2Nc2cc3ccccc3[n-]2)C1
REMARK SMILES IDX 7 1 6 2 5 3 4 4 2 5 3 6 27 7 1 8 8 9 9 10 10 11 11 12 16 13
REMARK SMILES IDX 12 14 15 15 14 16 13 17 17 18 18 20 19 21 26 22 20 23 25 24
REMARK SMILES IDX 21 25 24 26 22 27 23 28
REMARK H PARENT 17 19
ROOT
ATOM      1  O   UNL     1      44.900 131.666  19.941  1.00  0.00    -0.461 OA
ENDROOT
BRANCH   1   2
ATOM      2  C   UNL     1      44.086 131.544  18.781  1.00  0.00     0.248 C 
BRANCH   2   3
ATOM      3  C   UNL     1      44.939 131.716  17.524  1.00  0.00     0.126 C 
BRANCH   3   4
ATOM      4  N   UNL     1      44.399 130.897  16.419  1.00  0.00    -0.299 NA
ATOM      5  C   UNL     1      45.459 130.630  14.541  1.00  0.00     0.014 C 
ATOM      6  C   UNL     1      44.435 131.592  15.121  1.00  0.00     0.089 C 
ATOM      7  C   UNL     1      45.408 129.958  15.903  1.00  0.00     0.089 C 
ATOM      8  C   UNL     1      46.807 131.273  14.211  1.00  0.00     0.010 C 
ENDBRANCH   3   4
ENDBRANCH   2   3
ENDBRANCH   1   2
BRANCH   1   9
ATOM      9  C   UNL     1      45.234 130.582  20.758  1.00  0.00     0.338 C 
ATOM     10  O   UNL     1      46.135 129.773  20.402  1.00  0.00    -0.246 OA
BRANCH   9  11
ATOM     11  C   UNL     1      44.498 130.361  22.023  1.00  0.00     0.066 A 
ATOM     12  C   UNL     1      43.864 131.452  22.647  1.00  0.00     0.055 A 
ATOM     13  C   UNL     1      44.461 129.091  22.646  1.00  0.00    -0.029 A 
ATOM     14  C   UNL     1      43.224 131.291  23.879  1.00  0.00     0.124 A 
ATOM     15  C   UNL     1      43.812 128.946  23.885  1.00  0.00     0.007 A 
ATOM     16  C   UNL     1      43.204 130.042  24.500  1.00  0.00     0.039 A 
ATOM     17  F   UNL     1      42.627 132.352  24.476  1.00  0.00    -0.207 F 
BRANCH  13  18
ATOM     18  N   UNL     1      44.984 127.930  21.982  1.00  0.00    -0.456 N 
ATOM     19  H   UNL     1      45.216 127.996  20.965  1.00  0.00     0.026 HD
BRANCH  18  20
ATOM     20  C   UNL     1      45.284 126.708  22.667  1.00  0.00    -0.060 A 
ATOM     21  C   UNL     1      44.331 125.751  22.994  1.00  0.00     0.007 A 
ATOM     22  N   UNL     1      46.542 126.326  23.003  1.00  0.00    -0.436 NA
ATOM     23  C   UNL     1      45.053 124.738  23.574  1.00  0.00    -0.023 A 
ATOM     24  C   UNL     1      46.372 125.115  23.562  1.00  0.00    -0.034 A 
ATOM     25  C   UNL     1      44.641 123.510  24.086  1.00  0.00     0.008 A 
ATOM     26  C   UNL     1      47.371 124.282  24.065  1.00  0.00     0.004 A 
ATOM     27  C   UNL     1      45.628 122.650  24.601  1.00  0.00     0.001 A 
ATOM     28  C   UNL     1      46.986 123.035  24.592  1.00  0.00     0.000 A 
ENDBRANCH  18  20
ENDBRANCH  13  18
ENDBRANCH   9  11
ENDBRANCH   1   9
TORSDOF 7
ENDMDL
MODEL 3
REMARK VINA RESULT:      -5.6      3.554      5.108
REMARK SMILES CC1CN(CCOC(=O)c2cc(F)ccc2Nc2cc3ccccc3[n-]2)C1
REMARK SMILES IDX 7 1 6 2 5 3 4 4 2 5 3 6 27 7 1 8 8 9 9 10 10 11 11 12 16 13
REMARK SMILES IDX 12 14 15 15 14 16 13 17 17 18 18 20 19 21 26 22 20 23 25 24
REMARK SMILES IDX 21 25 24 26 22 27 23 28
REMARK H PARENT 17 19
ROOT
ATOM      1  O   UNL     1      46.672 133.077  20.916  1.00  0.00    -0.461 OA
ENDROOT
BRANCH   1   2
ATOM      2  C   UNL     1      46.966 133.662  22.180  1.00  0.00     0.248 C 
BRANCH   2   3
ATOM      3  C   UNL     1      48.039 134.737  22.019  1.00  0.00     0.126 C 
BRANCH   3   4
ATOM      4  N   UNL     1      48.626 135.079  23.332  1.00  0.00    -0.299 NA
ATOM      5  C   UNL     1      50.057 133.791  24.340  1.00  0.00     0.014 C 
ATOM      6  C   UNL     1      48.548 133.970  24.299  1.00  0.00     0.089 C 
ATOM      7  C   UNL     1      50.089 134.922  23.325  1.00  0.00     0.089 C 
ATOM      8  C   UNL     1      50.544 132.447  23.794  1.00  0.00     0.010 C 
ENDBRANCH   3   4
ENDBRANCH   2   3
ENDBRANCH   1   2
BRANCH   1   9
ATOM      9  C   UNL     1      45.910 131.913  20.771  1.00  0.00     0.338 C 
ATOM     10  O   UNL     1      46.272 130.844  21.336  1.00  0.00    -0.246 OA
BRANCH   9  11
ATOM     11  C   UNL     1      44.701 131.928  19.918  1.00  0.00     0.066 A 
ATOM     12  C   UNL     1      43.626 132.767  20.267  1.00  0.00     0.055 A 
ATOM     13  C   UNL     1      44.580 131.082  18.790  1.00  0.00    -0.029 A 
ATOM     14  C   UNL     1      42.442 132.750  19.524  1.00  0.00     0.124 A 
ATOM     15  C   UNL     1      43.382 131.078  18.054  1.00  0.00     0.007 A 
ATOM     16  C   UNL     1      42.319 131.902  18.424  1.00  0.00     0.039 A 
ATOM     17  F   UNL     1      41.409 133.554  19.878  1.00  0.00    -0.207 F 
BRANCH  13  18
ATOM     18  N   UNL     1      45.698 130.307  18.328  1.00  0.00    -0.456 N 
ATOM     19  H   UNL     1      46.144 129.629  18.986  1.00  0.00     0.026 HD
BRANCH  18  20
ATOM     20  C   UNL     1      46.177 130.359  16.979  1.00  0.00    -0.060 A 
ATOM     21  C   UNL     1      46.023 131.460  16.145  1.00  0.00     0.007 A 
ATOM     22  N   UNL     1      46.895 129.364  16.400  1.00  0.00    -0.436 NA
ATOM     23  C   UNL     1      46.674 131.104  14.991  1.00  0.00    -0.023 A 
ATOM     24  C   UNL     1      47.184 129.845  15.178  1.00  0.00    -0.034 A 
ATOM     25  C   UNL     1      46.867 131.811  13.806  1.00  0.00     0.008 A 
ATOM     26  C   UNL     1      47.927 129.206  14.186  1.00  0.00     0.004 A 
ATOM     27  C   UNL     1      47.612 131.189  12.787  1.00  0.00     0.001 A 
ATOM     28  C   UNL     1      48.138 129.893  12.976  1.00  0.00     0.000 A 
ENDBRANCH  18  20
ENDBRANCH  13  18
ENDBRANCH   9  11
ENDBRANCH   1   9
TORSDOF 7
ENDMDL
MODEL 4
REMARK VINA RESULT:      -5.2      4.544      7.362
REMARK SMILES CC1CN(CCOC(=O)c2cc(F)ccc2Nc2cc3ccccc3[n-]2)C1
REMARK SMILES IDX 7 1 6 2 5 3 4 4 2 5 3 6 27 7 1 8 8 9 9 10 10 11 11 12 16 13
REMARK SMILES IDX 12 14 15 15 14 16 13 17 17 18 18 20 19 21 26 22 20 23 25 24
REMARK SMILES IDX 21 25 24 26 22 27 23 28
REMARK H PARENT 17 19
ROOT
ATOM      1  O   UNL     1      44.305 131.782  18.764  1.00  0.00    -0.461 OA
ENDROOT
BRANCH   1   2
ATOM      2  C   UNL     1      44.879 132.093  17.500  1.00  0.00     0.248 C 
BRANCH   2   3
ATOM      3  C   UNL     1      44.318 131.158  16.429  1.00  0.00     0.126 C 
BRANCH   3   4
ATOM      4  N   UNL     1      45.196 129.982  16.260  1.00  0.00    -0.299 NA
ATOM      5  C   UNL     1      46.645 129.829  14.648  1.00  0.00     0.014 C 
ATOM      6  C   UNL     1      45.190 129.456  14.884  1.00  0.00     0.089 C 
ATOM      7  C   UNL     1      46.599 130.381  16.063  1.00  0.00     0.089 C 
ATOM      8  C   UNL     1      46.851 130.895  13.568  1.00  0.00     0.010 C 
ENDBRANCH   3   4
ENDBRANCH   2   3
ENDBRANCH   1   2
BRANCH   1   9
ATOM      9  C   UNL     1      45.035 131.225  19.819  1.00  0.00     0.338 C 
ATOM     10  O   UNL     1      45.879 130.313  19.595  1.00  0.00    -0.246 OA
BRANCH   9  11
ATOM     11  C   UNL     1      44.786 131.679  21.205  1.00  0.00     0.066 A 
ATOM     12  C   UNL     1      43.520 131.460  21.782  1.00  0.00     0.055 A 
ATOM     13  C   UNL     1      45.772 132.373  21.946  1.00  0.00    -0.029 A 
ATOM     14  C   UNL     1      43.230 131.942  23.061  1.00  0.00     0.124 A 
ATOM     15  C   UNL     1      45.463 132.850  23.232  1.00  0.00     0.007 A 
ATOM     16  C   UNL     1      44.198 132.641  23.782  1.00  0.00     0.039 A 
ATOM     17  F   UNL     1      42.003 131.735  23.600  1.00  0.00    -0.207 F 
BRANCH  13  18
ATOM     18  N   UNL     1      47.112 132.504  21.445  1.00  0.00    -0.456 N 
ATOM     19  H   UNL     1      47.443 131.831  20.718  1.00  0.00     0.026 HD
BRANCH  18  20
ATOM     20  C   UNL     1      47.989 133.568  21.834  1.00  0.00    -0.060 A 
ATOM     21  C   UNL     1      48.827 133.514  22.941  1.00  0.00     0.007 A 
ATOM     22  N   UNL     1      48.145 134.710  21.119  1.00  0.00    -0.436 NA
ATOM     23  C   UNL     1      49.519 134.698  22.901  1.00  0.00    -0.023 A 
ATOM     24  C   UNL     1      49.087 135.388  21.797  1.00  0.00    -0.034 A 
ATOM     25  C   UNL     1      50.509 135.197  23.743  1.00  0.00     0.008 A 
ATOM     26  C   UNL     1      49.621 136.632  21.463  1.00  0.00     0.004 A 
ATOM     27  C   UNL     1      51.065 136.451  23.430  1.00  0.00     0.001 A 
ATOM     28  C   UNL     1      50.622 137.166  22.296  1.00  0.00     0.000 A 
ENDBRANCH  18  20
ENDBRANCH  13  18
ENDBRANCH   9  11
ENDBRANCH   1   9
TORSDOF 7
ENDMDL
MODEL 5
REMARK VINA RESULT:      -4.9      1.763      7.404
REMARK SMILES CC1CN(CCOC(=O)c2cc(F)ccc2Nc2cc3ccccc3[n-]2)C1
REMARK SMILES IDX 7 1 6 2 5 3 4 4 2 5 3 6 27 7 1 8 8 9 9 10 10 11 11 12 16 13
REMARK SMILES IDX 12 14 15 15 14 16 13 17 17 18 18 20 19 21 26 22 20 23 25 24
REMARK SMILES IDX 21 25 24 26 22 27 23 28
REMARK H PARENT 17 19
ROOT
ATOM      1  O   UNL     1      44.279 132.064  17.633  1.00  0.00    -0.461 OA
ENDROOT
BRANCH   1   2
ATOM      2  C   UNL     1      43.755 131.803  16.336  1.00  0.00     0.248 C 
BRANCH   2   3
ATOM      3  C   UNL     1      44.883 131.825  15.304  1.00  0.00     0.126 C 
BRANCH   3   4
ATOM      4  N   UNL     1      45.279 130.447  14.944  1.00  0.00    -0.299 NA
ATOM      5  C   UNL     1      47.008 130.018  13.700  1.00  0.00     0.014 C 
ATOM      6  C   UNL     1      45.524 130.280  13.501  1.00  0.00     0.089 C 
ATOM      7  C   UNL     1      46.715 130.222  15.177  1.00  0.00     0.089 C 
ATOM      8  C   UNL     1      47.920 131.086  13.091  1.00  0.00     0.010 C 
ENDBRANCH   3   4
ENDBRANCH   2   3
ENDBRANCH   1   2
BRANCH   1   9
ATOM      9  C   UNL     1      44.157 131.169  18.700  1.00  0.00     0.338 C 
ATOM     10  O   UNL     1      44.621 130.000  18.604  1.00  0.00    -0.246 OA
BRANCH   9  11
ATOM     11  C   UNL     1      43.444 131.585  19.929  1.00  0.00     0.066 A 
ATOM     12  C   UNL     1      42.256 132.329  19.815  1.00  0.00     0.055 A 
ATOM     13  C   UNL     1      43.957 131.295  21.216  1.00  0.00    -0.029 A 
ATOM     14  C   UNL     1      41.599 132.799  20.955  1.00  0.00     0.124 A 
ATOM     15  C   UNL     1      43.284 131.775  22.353  1.00  0.00     0.007 A 
ATOM     16  C   UNL     1      42.116 132.527  22.222  1.00  0.00     0.039 A 
ATOM     17  F   UNL     1      40.461 133.526  20.830  1.00  0.00    -0.207 F 
BRANCH  13  18
ATOM     18  N   UNL     1      45.094 130.432  21.378  1.00  0.00    -0.456 N 
ATOM     19  H   UNL     1      46.030 130.772  21.063  1.00  0.00     0.026 HD
BRANCH  18  20
ATOM     20  C   UNL     1      45.020 129.159  22.031  1.00  0.00    -0.060 A 
ATOM     21  C   UNL     1      44.476 128.970  23.296  1.00  0.00     0.007 A 
ATOM     22  N   UNL     1      45.405 127.995  21.451  1.00  0.00    -0.436 NA
ATOM     23  C   UNL     1      44.551 127.615  23.497  1.00  0.00    -0.023 A 
ATOM     24  C   UNL     1      45.110 127.063  22.374  1.00  0.00    -0.034 A 
ATOM     25  C   UNL     1      44.145 126.836  24.579  1.00  0.00     0.008 A 
ATOM     26  C   UNL     1      45.302 125.686  22.258  1.00  0.00     0.004 A 
ATOM     27  C   UNL     1      44.328 125.444  24.489  1.00  0.00     0.001 A 
ATOM     28  C   UNL     1      44.904 124.872  23.334  1.00  0.00     0.000 A 
ENDBRANCH  18  20
ENDBRANCH  13  18
ENDBRANCH   9  11
ENDBRANCH   1   9
TORSDOF 7
ENDMDL


