REMARK SMILES NCC[C@H]1CC[C@]([S-])(c2cnc3ccnn3c2)CC1
REMARK SMILES IDX 2 1 1 2 3 5 4 6 19 7 5 8 18 9 6 10 7 11 8 12 9 13 10 14
REMARK SMILES IDX 17 15 11 16 16 17 12 18 15 19 13 20 14 21
REMARK H PARENT 1 3 1 4
ROOT
ATOM      1  C   UNL     1      -3.596   2.777  -1.210  1.00  0.00     0.078 C 
ENDROOT
BRANCH   1   2
ATOM      2  N   UNL     1      -3.487   3.293   0.153  1.00  0.00    -0.330 NA
ATOM      3  H   UNL     1      -4.027   2.679   0.805  1.00  0.00     0.118 HD
ATOM      4  H   UNL     1      -2.483   3.281   0.446  1.00  0.00     0.118 HD
ENDBRANCH   1   2
BRANCH   1   5
ATOM      5  C   UNL     1      -3.403   1.249  -1.288  1.00  0.00     0.018 C 
BRANCH   5   6
ATOM      6  C   UNL     1      -2.042   0.733  -0.762  1.00  0.00    -0.010 C 
ATOM      7  C   UNL     1      -2.027  -0.806  -0.795  1.00  0.00     0.002 C 
ATOM      8  C   UNL     1      -0.860   1.284  -1.584  1.00  0.00     0.002 C 
ATOM      9  C   UNL     1      -0.690  -1.362  -0.284  1.00  0.00    -0.014 C 
ATOM     10  C   UNL     1       0.484   0.721  -1.093  1.00  0.00    -0.014 C 
ATOM     11  C   UNL     1       0.535  -0.831  -1.081  1.00  0.00    -0.123 C 
ATOM     12  S   UNL     1       0.450  -1.463  -2.763  1.00  0.00    -0.781 S 
BRANCH  11  13
ATOM     13  C   UNL     1       1.877  -1.291  -0.486  1.00  0.00    -0.029 A 
ATOM     14  C   UNL     1       3.098  -0.889  -1.101  1.00  0.00     0.117 A 
ATOM     15  C   UNL     1       1.979  -2.128   0.655  1.00  0.00     0.119 A 
ATOM     16  N   UNL     1       4.305  -1.281  -0.602  1.00  0.00    -0.237 NA
ATOM     17  N   UNL     1       3.212  -2.474   1.093  1.00  0.00    -0.222 N 
ATOM     18  C   UNL     1       4.332  -2.068   0.495  1.00  0.00     0.154 A 
ATOM     19  N   UNL     1       3.503  -3.238   2.131  1.00  0.00    -0.175 NA
ATOM     20  C   UNL     1       5.426  -2.574   1.152  1.00  0.00     0.071 A 
ATOM     21  C   UNL     1       4.855  -3.312   2.187  1.00  0.00     0.138 A 
ENDBRANCH  11  13
ENDBRANCH   5   6
ENDBRANCH   1   5
TORSDOF 4


