REMARK SMILES O=Cc1cc(F)c(F)cc1[NH2+]c1cc2ccccc2[n-]1
REMARK SMILES IDX 3 1 4 2 5 3 6 4 7 5 8 6 9 7 10 8 2 9 1 10 11 11 12 14 13 15
REMARK SMILES IDX 20 16 14 17 19 18 15 19 18 20 16 21 17 22
REMARK H PARENT 11 12 11 13
ROOT
ATOM      1  C   UNL     1      -1.685  -1.365  -1.743  1.00  0.00     0.079 A 
ATOM      2  C   UNL     1      -1.821  -2.511  -2.549  1.00  0.00     0.060 A 
ATOM      3  C   UNL     1      -0.867  -2.827  -3.517  1.00  0.00     0.160 A 
ATOM      4  F   UNL     1      -1.016  -3.942  -4.274  1.00  0.00    -0.204 F 
ATOM      5  C   UNL     1       0.241  -2.003  -3.700  1.00  0.00     0.164 A 
ATOM      6  F   UNL     1       1.172  -2.314  -4.635  1.00  0.00    -0.204 F 
ATOM      7  C   UNL     1       0.392  -0.854  -2.924  1.00  0.00     0.111 A 
ATOM      8  C   UNL     1      -0.565  -0.504  -1.949  1.00  0.00     0.146 A 
ENDROOT
BRANCH   1   9
ATOM      9  C   UNL     1      -2.740  -1.138  -0.725  1.00  0.00     0.266 C 
ATOM     10  O   UNL     1      -2.602  -0.325   0.224  1.00  0.00    -0.298 OA
ENDBRANCH   1   9
BRANCH   8  11
ATOM     11  N   UNL     1      -0.365   0.712  -1.191  1.00  0.00    -0.299 N 
ATOM     12  H   UNL     1      -1.273   1.208  -1.045  1.00  0.00     0.356 HD
ATOM     13  H   UNL     1       0.246   1.375  -1.722  1.00  0.00     0.356 HD
BRANCH  11  14
ATOM     14  C   UNL     1       0.285   0.427   0.060  1.00  0.00     0.036 A 
ATOM     15  C   UNL     1      -0.043   1.036   1.269  1.00  0.00     0.050 A 
ATOM     16  N   UNL     1       1.375  -0.375   0.168  1.00  0.00    -0.610 NA
ATOM     17  C   UNL     1       0.880   0.546   2.159  1.00  0.00    -0.036 A 
ATOM     18  C   UNL     1       1.712  -0.295   1.468  1.00  0.00    -0.125 A 
ATOM     19  C   UNL     1       1.047   0.796   3.520  1.00  0.00     0.007 A 
ATOM     20  C   UNL     1       2.773  -0.948   2.095  1.00  0.00    -0.015 A 
ATOM     21  C   UNL     1       2.107   0.148   4.179  1.00  0.00     0.001 A 
ATOM     22  C   UNL     1       2.966  -0.720   3.470  1.00  0.00    -0.001 A 
ENDBRANCH  11  14
ENDBRANCH   8  11
TORSDOF 3


