MODEL 1
REMARK VINA RESULT:      -8.4      0.000      0.000
REMARK SMILES CC/C(O)=N/c1cc(F)c[n-]/c1=N\c1cnc2[nH]ccc2c1
REMARK SMILES IDX 6 1 7 2 8 3 9 4 10 5 11 6 12 7 5 8 3 9 4 10 2 12 1 13 13 14
REMARK SMILES IDX 14 15 15 16 22 17 16 18 21 19 17 20 20 21 18 22 19 23
REMARK H PARENT 4 11 18 24
ROOT
ATOM      1  C   UNL     1      43.913 131.669  20.319  1.00  0.00     0.069 A 
ATOM      2  C   UNL     1      42.774 132.319  20.828  1.00  0.00     0.067 A 
ATOM      3  C   UNL     1      41.769 132.750  19.963  1.00  0.00     0.121 A 
ATOM      4  F   UNL     1      40.671 133.381  20.449  1.00  0.00    -0.207 F 
ATOM      5  C   UNL     1      41.897 132.516  18.595  1.00  0.00     0.018 A 
ATOM      6  N   UNL     1      42.988 131.859  18.119  1.00  0.00    -0.438 NA
ATOM      7  C   UNL     1      43.984 131.415  18.937  1.00  0.00    -0.032 A 
ENDROOT
BRANCH   1   8
ATOM      8  N   UNL     1      44.955 131.183  21.183  1.00  0.00    -0.218 NA
BRANCH   8   9
ATOM      9  C   UNL     1      44.793 130.594  22.332  1.00  0.00     0.185 C 
BRANCH   9  10
ATOM     10  O   UNL     1      44.702 131.333  23.512  1.00  0.00    -0.496 OA
ATOM     11  H   UNL     1      45.356 132.080  23.715  1.00  0.00     0.294 HD
ENDBRANCH   9  10
BRANCH   9  12
ATOM     12  C   UNL     1      44.712 129.098  22.385  1.00  0.00     0.093 C 
ATOM     13  C   UNL     1      43.548 128.656  23.262  1.00  0.00     0.014 C 
ENDBRANCH   9  12
ENDBRANCH   8   9
ENDBRANCH   1   8
BRANCH   7  14
ATOM     14  N   UNL     1      45.026 130.802  18.450  1.00  0.00    -0.433 NA
BRANCH  14  15
ATOM     15  C   UNL     1      45.629 131.009  17.162  1.00  0.00    -0.022 A 
ATOM     16  C   UNL     1      45.530 132.251  16.472  1.00  0.00     0.117 A 
ATOM     17  C   UNL     1      46.262 129.922  16.529  1.00  0.00     0.017 A 
ATOM     18  N   UNL     1      46.081 132.401  15.229  1.00  0.00    -0.238 NA
ATOM     19  C   UNL     1      46.807 130.136  15.269  1.00  0.00     0.019 A 
ATOM     20  C   UNL     1      46.714 131.349  14.656  1.00  0.00     0.137 A 
ATOM     21  C   UNL     1      47.487 129.297  14.412  1.00  0.00     0.029 A 
ATOM     22  N   UNL     1      47.297 131.336  13.449  1.00  0.00    -0.346 N 
ATOM     23  C   UNL     1      47.774 130.079  13.294  1.00  0.00     0.085 A 
ATOM     24  H   UNL     1      47.364 132.126  12.768  1.00  0.00     0.167 HD
ENDBRANCH  14  15
ENDBRANCH   7  14
TORSDOF 6
ENDMDL
MODEL 2
REMARK VINA RESULT:      -6.8      3.021      7.053
REMARK SMILES CC/C(O)=N/c1cc(F)c[n-]/c1=N\c1cnc2[nH]ccc2c1
REMARK SMILES IDX 6 1 7 2 8 3 9 4 10 5 11 6 12 7 5 8 3 9 4 10 2 12 1 13 13 14
REMARK SMILES IDX 14 15 15 16 22 17 16 18 21 19 17 20 20 21 18 22 19 23
REMARK H PARENT 4 11 18 24
ROOT
ATOM      1  C   UNL     1      45.513 130.889  15.626  1.00  0.00     0.069 A 
ATOM      2  C   UNL     1      44.709 131.100  14.491  1.00  0.00     0.067 A 
ATOM      3  C   UNL     1      43.415 131.599  14.635  1.00  0.00     0.121 A 
ATOM      4  F   UNL     1      42.633 131.801  13.544  1.00  0.00    -0.207 F 
ATOM      5  C   UNL     1      42.935 131.902  15.908  1.00  0.00     0.018 A 
ATOM      6  N   UNL     1      43.733 131.722  16.993  1.00  0.00    -0.438 NA
ATOM      7  C   UNL     1      45.006 131.245  16.889  1.00  0.00    -0.032 A 
ENDROOT
BRANCH   1   8
ATOM      8  N   UNL     1      46.863 130.404  15.516  1.00  0.00    -0.218 NA
BRANCH   8   9
ATOM      9  C   UNL     1      47.297 129.516  14.670  1.00  0.00     0.185 C 
BRANCH   9  10
ATOM     10  O   UNL     1      46.806 128.210  14.684  1.00  0.00    -0.496 OA
ATOM     11  H   UNL     1      47.410 127.420  14.492  1.00  0.00     0.294 HD
ENDBRANCH   9  10
BRANCH   9  12
ATOM     12  C   UNL     1      48.348 129.904  13.673  1.00  0.00     0.093 C 
ATOM     13  C   UNL     1      47.849 131.037  12.785  1.00  0.00     0.014 C 
ENDBRANCH   9  12
ENDBRANCH   8   9
ENDBRANCH   1   8
BRANCH   7  14
ATOM     14  N   UNL     1      45.743 131.069  17.949  1.00  0.00    -0.433 NA
BRANCH  14  15
ATOM     15  C   UNL     1      45.290 130.937  19.307  1.00  0.00    -0.022 A 
ATOM     16  C   UNL     1      45.853 129.985  20.203  1.00  0.00     0.117 A 
ATOM     17  C   UNL     1      44.197 131.716  19.734  1.00  0.00     0.017 A 
ATOM     18  N   UNL     1      45.370 129.857  21.476  1.00  0.00    -0.238 NA
ATOM     19  C   UNL     1      43.753 131.547  21.039  1.00  0.00     0.019 A 
ATOM     20  C   UNL     1      44.340 130.642  21.873  1.00  0.00     0.137 A 
ATOM     21  C   UNL     1      42.737 132.154  21.746  1.00  0.00     0.029 A 
ATOM     22  N   UNL     1      43.755 130.634  23.079  1.00  0.00    -0.346 N 
ATOM     23  C   UNL     1      42.771 131.561  23.007  1.00  0.00     0.085 A 
ATOM     24  H   UNL     1      44.001 130.036  23.899  1.00  0.00     0.167 HD
ENDBRANCH  14  15
ENDBRANCH   7  14
TORSDOF 6
ENDMDL
MODEL 3
REMARK VINA RESULT:      -6.4      3.133      7.011
REMARK SMILES CC/C(O)=N/c1cc(F)c[n-]/c1=N\c1cnc2[nH]ccc2c1
REMARK SMILES IDX 6 1 7 2 8 3 9 4 10 5 11 6 12 7 5 8 3 9 4 10 2 12 1 13 13 14
REMARK SMILES IDX 14 15 15 16 22 17 16 18 21 19 17 20 20 21 18 22 19 23
REMARK H PARENT 4 11 18 24
ROOT
ATOM      1  C   UNL     1      45.465 130.570  15.782  1.00  0.00     0.069 A 
ATOM      2  C   UNL     1      44.662 130.881  14.670  1.00  0.00     0.067 A 
ATOM      3  C   UNL     1      43.449 131.546  14.848  1.00  0.00     0.121 A 
ATOM      4  F   UNL     1      42.669 131.844  13.779  1.00  0.00    -0.207 F 
ATOM      5  C   UNL     1      43.051 131.912  16.132  1.00  0.00     0.018 A 
ATOM      6  N   UNL     1      43.851 131.633  17.195  1.00  0.00    -0.438 NA
ATOM      7  C   UNL     1      45.047 130.993  17.057  1.00  0.00    -0.032 A 
ENDROOT
BRANCH   1   8
ATOM      8  N   UNL     1      46.737 129.912  15.635  1.00  0.00    -0.218 NA
BRANCH   8   9
ATOM      9  C   UNL     1      47.499 129.934  14.581  1.00  0.00     0.185 C 
BRANCH   9  10
ATOM     10  O   UNL     1      48.192 128.794  14.172  1.00  0.00    -0.496 OA
ATOM     11  H   UNL     1      47.701 127.948  13.910  1.00  0.00     0.294 HD
ENDBRANCH   9  10
BRANCH   9  12
ATOM     12  C   UNL     1      47.640 131.208  13.804  1.00  0.00     0.093 C 
ATOM     13  C   UNL     1      47.654 130.921  12.307  1.00  0.00     0.014 C 
ENDBRANCH   9  12
ENDBRANCH   8   9
ENDBRANCH   1   8
BRANCH   7  14
ATOM     14  N   UNL     1      45.786 130.725  18.096  1.00  0.00    -0.433 NA
BRANCH  14  15
ATOM     15  C   UNL     1      45.404 130.822  19.478  1.00  0.00    -0.022 A 
ATOM     16  C   UNL     1      45.213 132.077  20.124  1.00  0.00     0.117 A 
ATOM     17  C   UNL     1      45.299 129.639  20.236  1.00  0.00     0.017 A 
ATOM     18  N   UNL     1      44.890 132.134  21.451  1.00  0.00    -0.238 NA
ATOM     19  C   UNL     1      44.962 129.759  21.578  1.00  0.00     0.019 A 
ATOM     20  C   UNL     1      44.762 130.980  22.150  1.00  0.00     0.137 A 
ATOM     21  C   UNL     1      44.775 128.812  22.562  1.00  0.00     0.029 A 
ATOM     22  N   UNL     1      44.456 130.870  23.450  1.00  0.00    -0.346 N 
ATOM     23  C   UNL     1      44.461 129.541  23.708  1.00  0.00     0.085 A 
ATOM     24  H   UNL     1      44.260 131.644  24.123  1.00  0.00     0.167 HD
ENDBRANCH  14  15
ENDBRANCH   7  14
TORSDOF 6
ENDMDL
MODEL 4
REMARK VINA RESULT:      -6.4      1.219      1.548
REMARK SMILES CC/C(O)=N/c1cc(F)c[n-]/c1=N\c1cnc2[nH]ccc2c1
REMARK SMILES IDX 6 1 7 2 8 3 9 4 10 5 11 6 12 7 5 8 3 9 4 10 2 12 1 13 13 14
REMARK SMILES IDX 14 15 15 16 22 17 16 18 21 19 17 20 20 21 18 22 19 23
REMARK H PARENT 4 11 18 24
ROOT
ATOM      1  C   UNL     1      43.905 131.563  20.426  1.00  0.00     0.069 A 
ATOM      2  C   UNL     1      42.712 132.170  20.856  1.00  0.00     0.067 A 
ATOM      3  C   UNL     1      41.798 132.656  19.921  1.00  0.00     0.121 A 
ATOM      4  F   UNL     1      40.648 133.247  20.331  1.00  0.00    -0.207 F 
ATOM      5  C   UNL     1      42.071 132.518  18.562  1.00  0.00     0.018 A 
ATOM      6  N   UNL     1      43.213 131.901  18.159  1.00  0.00    -0.438 NA
ATOM      7  C   UNL     1      44.123 131.406  19.044  1.00  0.00    -0.032 A 
ENDROOT
BRANCH   1   8
ATOM      8  N   UNL     1      44.857 131.022  21.359  1.00  0.00    -0.218 NA
BRANCH   8   9
ATOM      9  C   UNL     1      44.641 130.065  22.214  1.00  0.00     0.185 C 
BRANCH   9  10
ATOM     10  O   UNL     1      45.054 128.759  21.951  1.00  0.00    -0.496 OA
ATOM     11  H   UNL     1      45.284 128.461  21.011  1.00  0.00     0.294 HD
ENDBRANCH   9  10
BRANCH   9  12
ATOM     12  C   UNL     1      43.930 130.375  23.497  1.00  0.00     0.093 C 
ATOM     13  C   UNL     1      42.868 129.321  23.787  1.00  0.00     0.014 C 
ENDBRANCH   9  12
ENDBRANCH   8   9
ENDBRANCH   1   8
BRANCH   7  14
ATOM     14  N   UNL     1      45.218 130.833  18.629  1.00  0.00    -0.433 NA
BRANCH  14  15
ATOM     15  C   UNL     1      45.576 130.534  17.269  1.00  0.00    -0.022 A 
ATOM     16  C   UNL     1      45.418 129.233  16.714  1.00  0.00     0.117 A 
ATOM     17  C   UNL     1      46.181 131.542  16.493  1.00  0.00     0.017 A 
ATOM     18  N   UNL     1      45.807 128.973  15.429  1.00  0.00    -0.238 NA
ATOM     19  C   UNL     1      46.551 131.221  15.193  1.00  0.00     0.019 A 
ATOM     20  C   UNL     1      46.356 129.969  14.692  1.00  0.00     0.137 A 
ATOM     21  C   UNL     1      47.140 131.971  14.198  1.00  0.00     0.029 A 
ATOM     22  N   UNL     1      46.790 129.872  13.427  1.00  0.00    -0.346 N 
ATOM     23  C   UNL     1      47.271 131.099  13.118  1.00  0.00     0.085 A 
ATOM     24  H   UNL     1      46.767 129.029  12.811  1.00  0.00     0.167 HD
ENDBRANCH  14  15
ENDBRANCH   7  14
TORSDOF 6
ENDMDL
MODEL 5
REMARK VINA RESULT:      -6.2      1.177      1.294
REMARK SMILES CC/C(O)=N/c1cc(F)c[n-]/c1=N\c1cnc2[nH]ccc2c1
REMARK SMILES IDX 6 1 7 2 8 3 9 4 10 5 11 6 12 7 5 8 3 9 4 10 2 12 1 13 13 14
REMARK SMILES IDX 14 15 15 16 22 17 16 18 21 19 17 20 20 21 18 22 19 23
REMARK H PARENT 4 11 18 24
ROOT
ATOM      1  C   UNL     1      44.042 131.515  19.114  1.00  0.00     0.069 A 
ATOM      2  C   UNL     1      43.413 132.375  20.031  1.00  0.00     0.067 A 
ATOM      3  C   UNL     1      42.176 132.941  19.724  1.00  0.00     0.121 A 
ATOM      4  F   UNL     1      41.567 133.775  20.604  1.00  0.00    -0.207 F 
ATOM      5  C   UNL     1      41.565 132.633  18.509  1.00  0.00     0.018 A 
ATOM      6  N   UNL     1      42.169 131.776  17.645  1.00  0.00    -0.438 NA
ATOM      7  C   UNL     1      43.373 131.197  17.917  1.00  0.00    -0.032 A 
ENDROOT
BRANCH   1   8
ATOM      8  N   UNL     1      45.303 130.887  19.408  1.00  0.00    -0.218 NA
BRANCH   8   9
ATOM      9  C   UNL     1      45.838 130.746  20.585  1.00  0.00     0.185 C 
BRANCH   9  10
ATOM     10  O   UNL     1      46.650 131.741  21.130  1.00  0.00    -0.496 OA
ATOM     11  H   UNL     1      46.252 132.531  21.624  1.00  0.00     0.294 HD
ENDBRANCH   9  10
BRANCH   9  12
ATOM     12  C   UNL     1      45.582 129.489  21.361  1.00  0.00     0.093 C 
ATOM     13  C   UNL     1      44.501 129.719  22.410  1.00  0.00     0.014 C 
ENDBRANCH   9  12
ENDBRANCH   8   9
ENDBRANCH   1   8
BRANCH   7  14
ATOM     14  N   UNL     1      43.936 130.391  17.062  1.00  0.00    -0.433 NA
BRANCH  14  15
ATOM     15  C   UNL     1      44.980 130.712  16.128  1.00  0.00    -0.022 A 
ATOM     16  C   UNL     1      45.211 132.043  15.679  1.00  0.00     0.117 A 
ATOM     17  C   UNL     1      45.742 129.662  15.577  1.00  0.00     0.017 A 
ATOM     18  N   UNL     1      46.186 132.308  14.759  1.00  0.00    -0.238 NA
ATOM     19  C   UNL     1      46.722 129.992  14.650  1.00  0.00     0.019 A 
ATOM     20  C   UNL     1      46.927 131.285  14.269  1.00  0.00     0.137 A 
ATOM     21  C   UNL     1      47.622 129.214  13.954  1.00  0.00     0.029 A 
ATOM     22  N   UNL     1      47.911 131.380  13.364  1.00  0.00    -0.346 N 
ATOM     23  C   UNL     1      48.342 130.112  13.168  1.00  0.00     0.085 A 
ATOM     24  H   UNL     1      48.267 132.247  12.902  1.00  0.00     0.167 HD
ENDBRANCH  14  15
ENDBRANCH   7  14
TORSDOF 6
ENDMDL
MODEL 6
REMARK VINA RESULT:      -6.2      2.536      3.889
REMARK SMILES CC/C(O)=N/c1cc(F)c[n-]/c1=N\c1cnc2[nH]ccc2c1
REMARK SMILES IDX 6 1 7 2 8 3 9 4 10 5 11 6 12 7 5 8 3 9 4 10 2 12 1 13 13 14
REMARK SMILES IDX 14 15 15 16 22 17 16 18 21 19 17 20 20 21 18 22 19 23
REMARK H PARENT 4 11 18 24
ROOT
ATOM      1  C   UNL     1      44.547 130.158  22.050  1.00  0.00     0.069 A 
ATOM      2  C   UNL     1      44.147 129.167  22.965  1.00  0.00     0.067 A 
ATOM      3  C   UNL     1      44.633 127.866  22.843  1.00  0.00     0.121 A 
ATOM      4  F   UNL     1      44.247 126.906  23.720  1.00  0.00    -0.207 F 
ATOM      5  C   UNL     1      45.528 127.563  21.818  1.00  0.00     0.018 A 
ATOM      6  N   UNL     1      45.931 128.537  20.960  1.00  0.00    -0.438 NA
ATOM      7  C   UNL     1      45.484 129.821  21.056  1.00  0.00    -0.032 A 
ENDROOT
BRANCH   1   8
ATOM      8  N   UNL     1      44.092 131.518  22.162  1.00  0.00    -0.218 NA
BRANCH   8   9
ATOM      9  C   UNL     1      42.854 131.915  22.228  1.00  0.00     0.185 C 
BRANCH   9  10
ATOM     10  O   UNL     1      42.106 132.131  21.071  1.00  0.00    -0.496 OA
ATOM     11  H   UNL     1      41.467 131.428  20.720  1.00  0.00     0.294 HD
ENDBRANCH   9  10
BRANCH   9  12
ATOM     12  C   UNL     1      42.230 132.149  23.571  1.00  0.00     0.093 C 
ATOM     13  C   UNL     1      43.303 132.426  24.618  1.00  0.00     0.014 C 
ENDBRANCH   9  12
ENDBRANCH   8   9
ENDBRANCH   1   8
BRANCH   7  14
ATOM     14  N   UNL     1      45.875 130.731  20.208  1.00  0.00    -0.433 NA
BRANCH  14  15
ATOM     15  C   UNL     1      45.355 130.966  18.889  1.00  0.00    -0.022 A 
ATOM     16  C   UNL     1      44.107 131.616  18.673  1.00  0.00     0.117 A 
ATOM     17  C   UNL     1      46.064 130.460  17.782  1.00  0.00     0.017 A 
ATOM     18  N   UNL     1      43.622 131.787  17.407  1.00  0.00    -0.238 NA
ATOM     19  C   UNL     1      45.525 130.669  16.519  1.00  0.00     0.019 A 
ATOM     20  C   UNL     1      44.339 131.320  16.356  1.00  0.00     0.137 A 
ATOM     21  C   UNL     1      45.972 130.315  15.264  1.00  0.00     0.029 A 
ATOM     22  N   UNL     1      43.999 131.406  15.062  1.00  0.00    -0.346 N 
ATOM     23  C   UNL     1      44.998 130.791  14.387  1.00  0.00     0.085 A 
ATOM     24  H   UNL     1      43.142 131.847  14.660  1.00  0.00     0.167 HD
ENDBRANCH  14  15
ENDBRANCH   7  14
TORSDOF 6
ENDMDL
MODEL 7
REMARK VINA RESULT:      -6.1      2.306      3.256
REMARK SMILES CC/C(O)=N/c1cc(F)c[n-]/c1=N\c1cnc2[nH]ccc2c1
REMARK SMILES IDX 6 1 7 2 8 3 9 4 10 5 11 6 12 7 5 8 3 9 4 10 2 12 1 13 13 14
REMARK SMILES IDX 14 15 15 16 22 17 16 18 21 19 17 20 20 21 18 22 19 23
REMARK H PARENT 4 11 18 24
ROOT
ATOM      1  C   UNL     1      44.584 129.588  22.191  1.00  0.00     0.069 A 
ATOM      2  C   UNL     1      43.683 129.630  23.270  1.00  0.00     0.067 A 
ATOM      3  C   UNL     1      42.857 130.739  23.448  1.00  0.00     0.121 A 
ATOM      4  F   UNL     1      41.989 130.786  24.490  1.00  0.00    -0.207 F 
ATOM      5  C   UNL     1      42.921 131.793  22.539  1.00  0.00     0.018 A 
ATOM      6  N   UNL     1      43.774 131.726  21.483  1.00  0.00    -0.438 NA
ATOM      7  C   UNL     1      44.589 130.654  21.273  1.00  0.00    -0.032 A 
ENDROOT
BRANCH   1   8
ATOM      8  N   UNL     1      45.431 128.448  21.957  1.00  0.00    -0.218 NA
BRANCH   8   9
ATOM      9  C   UNL     1      45.312 127.274  22.505  1.00  0.00     0.185 C 
BRANCH   9  10
ATOM     10  O   UNL     1      44.720 126.216  21.816  1.00  0.00    -0.496 OA
ATOM     11  H   UNL     1      45.011 125.973  20.876  1.00  0.00     0.294 HD
ENDBRANCH   9  10
BRANCH   9  12
ATOM     12  C   UNL     1      45.814 127.062  23.902  1.00  0.00     0.093 C 
ATOM     13  C   UNL     1      46.387 125.659  24.057  1.00  0.00     0.014 C 
ENDBRANCH   9  12
ENDBRANCH   8   9
ENDBRANCH   1   8
BRANCH   7  14
ATOM     14  N   UNL     1      45.408 130.625  20.260  1.00  0.00    -0.433 NA
BRANCH  14  15
ATOM     15  C   UNL     1      45.098 130.915  18.887  1.00  0.00    -0.022 A 
ATOM     16  C   UNL     1      43.891 131.568  18.506  1.00  0.00     0.117 A 
ATOM     17  C   UNL     1      45.977 130.462  17.884  1.00  0.00     0.017 A 
ATOM     18  N   UNL     1      43.608 131.792  17.188  1.00  0.00    -0.238 NA
ATOM     19  C   UNL     1      45.640 130.723  16.562  1.00  0.00     0.019 A 
ATOM     20  C   UNL     1      44.486 131.376  16.243  1.00  0.00     0.137 A 
ATOM     21  C   UNL     1      46.281 130.427  15.379  1.00  0.00     0.029 A 
ATOM     22  N   UNL     1      44.351 131.516  14.917  1.00  0.00    -0.346 N 
ATOM     23  C   UNL     1      45.451 130.937  14.382  1.00  0.00     0.085 A 
ATOM     24  H   UNL     1      43.563 131.970  14.405  1.00  0.00     0.167 HD
ENDBRANCH  14  15
ENDBRANCH   7  14
TORSDOF 6
ENDMDL
MODEL 8
REMARK VINA RESULT:      -6.0      1.128      1.679
REMARK SMILES CC/C(O)=N/c1cc(F)c[n-]/c1=N\c1cnc2[nH]ccc2c1
REMARK SMILES IDX 6 1 7 2 8 3 9 4 10 5 11 6 12 7 5 8 3 9 4 10 2 12 1 13 13 14
REMARK SMILES IDX 14 15 15 16 22 17 16 18 21 19 17 20 20 21 18 22 19 23
REMARK H PARENT 4 11 18 24
ROOT
ATOM      1  C   UNL     1      44.182 131.912  20.133  1.00  0.00     0.069 A 
ATOM      2  C   UNL     1      43.038 132.543  20.655  1.00  0.00     0.067 A 
ATOM      3  C   UNL     1      41.909 132.716  19.856  1.00  0.00     0.121 A 
ATOM      4  F   UNL     1      40.805 133.328  20.354  1.00  0.00    -0.207 F 
ATOM      5  C   UNL     1      41.919 132.242  18.545  1.00  0.00     0.018 A 
ATOM      6  N   UNL     1      43.019 131.606  18.063  1.00  0.00    -0.438 NA
ATOM      7  C   UNL     1      44.137 131.412  18.818  1.00  0.00    -0.032 A 
ENDROOT
BRANCH   1   8
ATOM      8  N   UNL     1      45.355 131.689  20.935  1.00  0.00    -0.218 NA
BRANCH   8   9
ATOM      9  C   UNL     1      45.475 131.928  22.208  1.00  0.00     0.185 C 
BRANCH   9  10
ATOM     10  O   UNL     1      44.804 131.151  23.152  1.00  0.00    -0.496 OA
ATOM     11  H   UNL     1      44.634 130.165  22.995  1.00  0.00     0.294 HD
ENDBRANCH   9  10
BRANCH   9  12
ATOM     12  C   UNL     1      46.344 133.063  22.663  1.00  0.00     0.093 C 
ATOM     13  C   UNL     1      47.442 133.337  21.643  1.00  0.00     0.014 C 
ENDBRANCH   9  12
ENDBRANCH   8   9
ENDBRANCH   1   8
BRANCH   7  14
ATOM     14  N   UNL     1      45.183 130.813  18.323  1.00  0.00    -0.433 NA
BRANCH  14  15
ATOM     15  C   UNL     1      45.759 131.011  17.021  1.00  0.00    -0.022 A 
ATOM     16  C   UNL     1      45.598 132.228  16.301  1.00  0.00     0.117 A 
ATOM     17  C   UNL     1      46.430 129.935  16.408  1.00  0.00     0.017 A 
ATOM     18  N   UNL     1      46.125 132.369  15.047  1.00  0.00    -0.238 NA
ATOM     19  C   UNL     1      46.948 130.138  15.135  1.00  0.00     0.019 A 
ATOM     20  C   UNL     1      46.795 131.329  14.492  1.00  0.00     0.137 A 
ATOM     21  C   UNL     1      47.651 129.306  14.291  1.00  0.00     0.029 A 
ATOM     22  N   UNL     1      47.361 131.309  13.277  1.00  0.00    -0.346 N 
ATOM     23  C   UNL     1      47.890 130.069  13.149  1.00  0.00     0.085 A 
ATOM     24  H   UNL     1      47.386 132.082  12.576  1.00  0.00     0.167 HD
ENDBRANCH  14  15
ENDBRANCH   7  14
TORSDOF 6
ENDMDL
MODEL 9
REMARK VINA RESULT:      -5.5      1.236      1.626
REMARK SMILES CC/C(O)=N/c1cc(F)c[n-]/c1=N\c1cnc2[nH]ccc2c1
REMARK SMILES IDX 6 1 7 2 8 3 9 4 10 5 11 6 12 7 5 8 3 9 4 10 2 12 1 13 13 14
REMARK SMILES IDX 14 15 15 16 22 17 16 18 21 19 17 20 20 21 18 22 19 23
REMARK H PARENT 4 11 18 24
ROOT
ATOM      1  C   UNL     1      43.744 131.428  20.924  1.00  0.00     0.069 A 
ATOM      2  C   UNL     1      42.593 132.100  21.372  1.00  0.00     0.067 A 
ATOM      3  C   UNL     1      41.806 132.817  20.471  1.00  0.00     0.121 A 
ATOM      4  F   UNL     1      40.697 133.471  20.899  1.00  0.00    -0.207 F 
ATOM      5  C   UNL     1      42.163 132.846  19.124  1.00  0.00     0.018 A 
ATOM      6  N   UNL     1      43.260 132.167  18.699  1.00  0.00    -0.438 NA
ATOM      7  C   UNL     1      44.046 131.448  19.550  1.00  0.00    -0.032 A 
ENDROOT
BRANCH   1   8
ATOM      8  N   UNL     1      44.563 130.654  21.818  1.00  0.00    -0.218 NA
BRANCH   8   9
ATOM      9  C   UNL     1      44.157 129.704  22.609  1.00  0.00     0.185 C 
BRANCH   9  10
ATOM     10  O   UNL     1      42.871 129.721  23.150  1.00  0.00    -0.496 OA
ATOM     11  H   UNL     1      42.298 128.886  23.168  1.00  0.00     0.294 HD
ENDBRANCH   9  10
BRANCH   9  12
ATOM     12  C   UNL     1      45.091 128.582  22.949  1.00  0.00     0.093 C 
ATOM     13  C   UNL     1      44.368 127.243  22.872  1.00  0.00     0.014 C 
ENDBRANCH   9  12
ENDBRANCH   8   9
ENDBRANCH   1   8
BRANCH   7  14
ATOM     14  N   UNL     1      45.102 130.819  19.116  1.00  0.00    -0.433 NA
BRANCH  14  15
ATOM     15  C   UNL     1      45.436 130.531  17.748  1.00  0.00    -0.022 A 
ATOM     16  C   UNL     1      45.423 129.205  17.229  1.00  0.00     0.117 A 
ATOM     17  C   UNL     1      45.872 131.585  16.921  1.00  0.00     0.017 A 
ATOM     18  N   UNL     1      45.786 128.961  15.934  1.00  0.00    -0.238 NA
ATOM     19  C   UNL     1      46.223 131.278  15.613  1.00  0.00     0.019 A 
ATOM     20  C   UNL     1      46.170 129.997  15.150  1.00  0.00     0.137 A 
ATOM     21  C   UNL     1      46.668 132.068  14.576  1.00  0.00     0.029 A 
ATOM     22  N   UNL     1      46.557 129.921  13.869  1.00  0.00    -0.346 N 
ATOM     23  C   UNL     1      46.863 131.190  13.511  1.00  0.00     0.085 A 
ATOM     24  H   UNL     1      46.616 129.065  13.274  1.00  0.00     0.167 HD
ENDBRANCH  14  15
ENDBRANCH   7  14
TORSDOF 6
ENDMDL


