REMARK SMILES C=C1CC[C@H]2CC(c3[nH+]c[nH+]c4c3COC4)=N[C@H]2C1
REMARK SMILES IDX 1 1 2 2 3 3 4 4 5 5 6 6 7 7 17 8 18 9 19 10 8 11 9 12 13 13
REMARK SMILES IDX 10 14 12 15 14 16 11 17 16 18 15 19
REMARK H PARENT 9 20 11 21
ROOT
ATOM      1  C   UNL     1       0.824   4.118  -1.682  1.00  0.00     0.008 C 
ATOM      2  C   UNL     1       0.852   2.797  -1.907  1.00  0.00    -0.075 C 
ATOM      3  C   UNL     1       2.143   2.033  -1.740  1.00  0.00     0.031 C 
ATOM      4  C   UNL     1       1.996   0.574  -2.195  1.00  0.00     0.010 C 
ATOM      5  C   UNL     1       0.767  -0.126  -1.567  1.00  0.00     0.020 C 
ATOM      6  C   UNL     1       0.971  -0.442  -0.076  1.00  0.00     0.068 C 
ATOM      7  C   UNL     1      -0.088   0.356   0.598  1.00  0.00     0.108 C 
ATOM      8  N   UNL     1      -0.873   0.968  -0.220  1.00  0.00    -0.279 NA
ATOM      9  C   UNL     1      -0.529   0.727  -1.609  1.00  0.00     0.113 C 
ATOM     10  C   UNL     1      -0.390   2.064  -2.356  1.00  0.00     0.058 C 
ENDROOT
BRANCH   7  11
ATOM     11  C   UNL     1      -0.237   0.460   2.072  1.00  0.00     0.241 A 
ATOM     12  N   UNL     1       0.525  -0.318   2.905  1.00  0.00    -0.153 N 
ATOM     13  C   UNL     1      -1.142   1.352   2.669  1.00  0.00     0.121 A 
ATOM     14  C   UNL     1       0.409  -0.227   4.266  1.00  0.00     0.630 A 
ATOM     15  C   UNL     1      -1.232   1.422   4.007  1.00  0.00     0.222 A 
ATOM     16  C   UNL     1      -2.083   2.338   2.095  1.00  0.00     0.210 C 
ATOM     17  N   UNL     1      -0.474   0.650   4.823  1.00  0.00    -0.156 N 
ATOM     18  C   UNL     1      -2.222   2.438   4.391  1.00  0.00     0.269 C 
ATOM     19  O   UNL     1      -2.727   2.993   3.183  1.00  0.00    -0.365 OA
ATOM     20  H   UNL     1       1.212  -1.002   2.518  1.00  0.00     0.460 HD
ATOM     21  H   UNL     1      -0.561   0.726   5.861  1.00  0.00     0.460 HD
ENDBRANCH   7  11
TORSDOF 1


