REMARK SMILES Cc1cc(N)c(O)c(-n2[nH+]c3ccccc3[nH+]2)c1F
REMARK SMILES IDX 1 1 2 2 3 3 4 4 6 5 8 6 18 7 19 8 5 9 9 12 10 13 17 14 11 15
REMARK SMILES IDX 16 16 12 17 15 18 13 19 14 20 7 23
REMARK H PARENT 5 10 5 11 10 21 17 22 7 24
ROOT
ATOM      1  C   UNL     1       3.861  -2.156   2.156  1.00  0.00     0.048 C 
ATOM      2  C   UNL     1       3.042  -1.892   0.926  1.00  0.00    -0.010 A 
ATOM      3  C   UNL     1       3.229  -2.668  -0.225  1.00  0.00     0.036 A 
ATOM      4  C   UNL     1       2.446  -2.461  -1.369  1.00  0.00     0.077 A 
ATOM      5  C   UNL     1       1.463  -1.442  -1.365  1.00  0.00     0.177 A 
ATOM      6  C   UNL     1       1.247  -0.686  -0.195  1.00  0.00     0.247 A 
ATOM      7  C   UNL     1       2.036  -0.916   0.944  1.00  0.00     0.165 A 
ATOM      8  F   UNL     1       1.804  -0.211   2.081  1.00  0.00    -0.204 F 
ENDROOT
BRANCH   4   9
ATOM      9  N   UNL     1       2.660  -3.306  -2.509  1.00  0.00    -0.396 N 
ATOM     10  H   UNL     1       3.455  -3.983  -2.520  1.00  0.00     0.156 HD
ATOM     11  H   UNL     1       1.997  -3.352  -3.310  1.00  0.00     0.156 HD
ENDBRANCH   4   9
BRANCH   6  12
ATOM     12  N   UNL     1       0.229   0.329  -0.166  1.00  0.00     0.086 N 
ATOM     13  N   UNL     1       0.406   1.555   0.324  1.00  0.00    -0.062 N 
ATOM     14  N   UNL     1      -1.014   0.159  -0.614  1.00  0.00    -0.062 N 
ATOM     15  C   UNL     1      -0.769   2.188   0.179  1.00  0.00     0.306 A 
ATOM     16  C   UNL     1      -1.649   1.323  -0.401  1.00  0.00     0.306 A 
ATOM     17  C   UNL     1      -1.124   3.488   0.527  1.00  0.00     0.089 A 
ATOM     18  C   UNL     1      -2.965   1.678  -0.681  1.00  0.00     0.089 A 
ATOM     19  C   UNL     1      -2.449   3.887   0.257  1.00  0.00     0.007 A 
ATOM     20  C   UNL     1      -3.364   2.987  -0.343  1.00  0.00     0.007 A 
ATOM     21  H   UNL     1       1.293   1.939   0.721  1.00  0.00     0.495 HD
ATOM     22  H   UNL     1      -1.410  -0.718  -1.021  1.00  0.00     0.495 HD
ENDBRANCH   6  12
BRANCH   5  23
ATOM     23  O   UNL     1       0.714  -1.134  -2.504  1.00  0.00    -0.504 OA
ATOM     24  H   UNL     1       0.870  -1.546  -3.413  1.00  0.00     0.293 HD
ENDBRANCH   5  23
TORSDOF 3


