REMARK SMILES Cn1nnc2cc(N(C(=O)c3cc(F)c[nH]3)C(=O)[C@H](F)Cl)ccc21
REMARK SMILES IDX 8 1 7 2 2 3 3 4 24 5 4 6 23 7 5 8 22 9 6 10 1 11 9 12 10 13
REMARK SMILES IDX 11 14 12 15 16 16 13 17 15 18 14 20 17 21 18 22 19 23 20 24
REMARK SMILES IDX 21 25
REMARK H PARENT 16 19
ROOT
ATOM      1  N   UNL     1      -1.521   1.852  -0.090  1.00  0.00    -0.241 N 
ENDROOT
BRANCH   1   2
ATOM      2  C   UNL     1      -1.261   0.527   0.417  1.00  0.00     0.055 A 
ATOM      3  N   UNL     1      -0.326  -3.117   2.024  1.00  0.00    -0.248 N 
ATOM      4  N   UNL     1       0.421  -2.699   3.041  1.00  0.00    -0.066 NA
ATOM      5  C   UNL     1      -0.739  -2.028   1.362  1.00  0.00     0.089 A 
ATOM      6  N   UNL     1       0.498  -1.368   3.060  1.00  0.00    -0.130 NA
ATOM      7  C   UNL     1      -1.525  -1.913   0.220  1.00  0.00     0.032 A 
ATOM      8  C   UNL     1      -0.230  -0.947   2.008  1.00  0.00     0.115 A 
ATOM      9  C   UNL     1      -1.786  -0.613  -0.254  1.00  0.00     0.029 A 
ATOM     10  C   UNL     1      -0.462   0.353   1.573  1.00  0.00     0.059 A 
ATOM     11  C   UNL     1      -0.591  -4.513   1.703  1.00  0.00     0.176 C 
ENDBRANCH   1   2
BRANCH   1  12
ATOM     12  C   UNL     1      -1.403   2.126  -1.501  1.00  0.00     0.281 C 
ATOM     13  O   UNL     1      -2.227   2.906  -2.053  1.00  0.00    -0.266 OA
BRANCH  12  14
ATOM     14  C   UNL     1      -0.341   1.511  -2.324  1.00  0.00     0.108 A 
ATOM     15  C   UNL     1      -0.355   1.426  -3.705  1.00  0.00     0.072 A 
ATOM     16  N   UNL     1       0.802   0.986  -1.834  1.00  0.00    -0.355 N 
ATOM     17  C   UNL     1       0.828   0.808  -4.050  1.00  0.00     0.141 A 
ATOM     18  C   UNL     1       1.519   0.551  -2.887  1.00  0.00     0.122 A 
ATOM     19  H   UNL     1       1.105   0.947  -0.836  1.00  0.00     0.166 HD
ATOM     20  F   UNL     1       1.242   0.520  -5.308  1.00  0.00    -0.205 F 
ENDBRANCH  12  14
ENDBRANCH   1  12
BRANCH   1  21
ATOM     21  C   UNL     1      -1.981   2.900   0.789  1.00  0.00     0.284 C 
ATOM     22  O   UNL     1      -1.667   4.097   0.541  1.00  0.00    -0.269 OA
BRANCH  21  23
ATOM     23  C   UNL     1      -2.794   2.592   2.021  1.00  0.00     0.347 C 
ATOM     24  F   UNL     1      -3.623   1.509   1.787  1.00  0.00    -0.219 F 
ATOM     25  Cl  UNL     1      -3.812   3.980   2.494  1.00  0.00    -0.075 Cl
ENDBRANCH  21  23
ENDBRANCH   1  21
TORSDOF 5


