REMARK SMILES CCC[C@@H](N)/C=C(\O)N1CC[C@@H](C)[C@@H](c2cc3cc(F)ccc3[nH]2)[C@H]1F
REMARK SMILES IDX 6 1 7 2 8 3 9 5 10 6 25 7 11 8 14 9 12 10 26 11 13 12 15 13
REMARK SMILES IDX 16 14 24 15 17 16 23 17 18 18 22 19 19 20 21 21 20 23 4 24
REMARK SMILES IDX 5 25 3 28 2 29 1 30
REMARK H PARENT 8 4 24 22 5 26 5 27
ROOT
ATOM      1  C   UNL     1      -0.676  -1.285   1.520  1.00  0.00     0.057 C 
ENDROOT
BRANCH   1   2
ATOM      2  C   UNL     1      -1.286  -0.188   1.023  1.00  0.00     0.186 C 
BRANCH   2   3
ATOM      3  O   UNL     1      -2.510  -0.270   0.347  1.00  0.00    -0.495 OA
ATOM      4  H   UNL     1      -3.051  -1.113   0.259  1.00  0.00     0.295 HD
ENDBRANCH   2   3
BRANCH   2   5
ATOM      5  N   UNL     1      -0.658   1.107   1.155  1.00  0.00    -0.313 N 
ATOM      6  C   UNL     1      -0.086   1.544   2.436  1.00  0.00     0.123 C 
ATOM      7  C   UNL     1      -0.858   2.143   0.127  1.00  0.00     0.274 C 
ATOM      8  C   UNL     1       1.263   2.221   2.196  1.00  0.00     0.026 C 
ATOM      9  C   UNL     1       0.450   2.928  -0.131  1.00  0.00     0.094 C 
ATOM     10  C   UNL     1       1.109   3.384   1.200  1.00  0.00     0.001 C 
ATOM     11  F   UNL     1      -1.308   1.594  -1.065  1.00  0.00    -0.223 F 
ATOM     12  C   UNL     1       2.454   4.093   0.976  1.00  0.00     0.008 C 
BRANCH   9  13
ATOM     13  C   UNL     1       1.397   2.165  -1.036  1.00  0.00     0.024 A 
ATOM     14  C   UNL     1       2.043   2.721  -2.140  1.00  0.00     0.032 A 
ATOM     15  N   UNL     1       1.750   0.864  -0.877  1.00  0.00    -0.358 N 
ATOM     16  C   UNL     1       2.802   1.699  -2.664  1.00  0.00     0.003 A 
ATOM     17  C   UNL     1       2.603   0.594  -1.879  1.00  0.00     0.046 A 
ATOM     18  C   UNL     1       3.651   1.674  -3.769  1.00  0.00     0.049 A 
ATOM     19  C   UNL     1       3.240  -0.617  -2.145  1.00  0.00     0.029 A 
ATOM     20  C   UNL     1       4.306   0.464  -4.065  1.00  0.00     0.123 A 
ATOM     21  C   UNL     1       4.101  -0.677  -3.256  1.00  0.00     0.041 A 
ATOM     22  H   UNL     1       1.431   0.198  -0.141  1.00  0.00     0.166 HD
ATOM     23  F   UNL     1       5.145   0.395  -5.129  1.00  0.00    -0.207 F 
ENDBRANCH   9  13
ENDBRANCH   2   5
ENDBRANCH   1   2
BRANCH   1  24
ATOM     24  C   UNL     1      -1.182  -2.701   1.363  1.00  0.00     0.079 C 
BRANCH  24  25
ATOM     25  N   UNL     1      -0.553  -3.559   2.372  1.00  0.00    -0.324 NA
ATOM     26  H   UNL     1      -0.875  -3.260   3.323  1.00  0.00     0.119 HD
ATOM     27  H   UNL     1      -0.908  -4.534   2.242  1.00  0.00     0.119 HD
ENDBRANCH  24  25
BRANCH  24  28
ATOM     28  C   UNL     1      -0.884  -3.230  -0.059  1.00  0.00     0.023 C 
BRANCH  28  29
ATOM     29  C   UNL     1       0.625  -3.315  -0.371  1.00  0.00    -0.002 C 
ATOM     30  C   UNL     1       0.868  -3.791  -1.798  1.00  0.00     0.004 C 
ENDBRANCH  28  29
ENDBRANCH  24  28
ENDBRANCH   1  24
TORSDOF 8


