MODEL 1
REMARK VINA RESULT:      -4.2      0.000      0.000
REMARK SMILES O=C(c1cscn1)N1C[C@@H]2CCCC[C@@H]2N[C@@H]1c1ccc2[nH]ccc2c1
REMARK SMILES IDX 8 1 9 2 10 3 11 4 12 5 13 6 14 7 15 8 16 9 17 10 2 12 1 13
REMARK SMILES IDX 3 14 4 15 7 16 5 17 6 18 18 19 19 20 26 21 20 22 25 23 21 24
REMARK SMILES IDX 24 25 22 26 23 27
REMARK H PARENT 16 11 22 28
ROOT
ATOM      1  N   UNL     1      43.228 125.187  23.728  1.00  0.00    -0.317 N 
ATOM      2  C   UNL     1      44.079 124.368  24.605  1.00  0.00     0.127 C 
ATOM      3  C   UNL     1      45.146 123.551  23.827  1.00  0.00     0.026 C 
ATOM      4  C   UNL     1      46.557 123.850  24.387  1.00  0.00     0.007 C 
ATOM      5  C   UNL     1      47.649 123.120  23.604  1.00  0.00     0.000 C 
ATOM      6  C   UNL     1      47.588 123.494  22.122  1.00  0.00     0.002 C 
ATOM      7  C   UNL     1      46.215 123.147  21.540  1.00  0.00     0.019 C 
ATOM      8  C   UNL     1      45.064 123.829  22.310  1.00  0.00     0.060 C 
ATOM      9  N   UNL     1      45.059 125.282  22.103  1.00  0.00    -0.290 NA
ATOM     10  C   UNL     1      43.767 125.855  22.521  1.00  0.00     0.185 C 
ATOM     11  H   UNL     1      45.181 125.486  21.083  1.00  0.00     0.125 HD
ENDROOT
BRANCH   1  12
ATOM     12  C   UNL     1      41.927 125.566  24.214  1.00  0.00     0.274 C 
ATOM     13  O   UNL     1      41.727 126.752  24.590  1.00  0.00    -0.267 OA
BRANCH  12  14
ATOM     14  C   UNL     1      40.820 124.597  24.284  1.00  0.00     0.139 A 
ATOM     15  C   UNL     1      39.489 124.959  24.484  1.00  0.00     0.100 A 
ATOM     16  N   UNL     1      41.032 123.264  24.107  1.00  0.00    -0.240 NA
ATOM     17  S   UNL     1      38.570 123.552  24.457  1.00  0.00    -0.130 S 
ATOM     18  C   UNL     1      39.889 122.548  24.183  1.00  0.00     0.176 A 
ENDBRANCH  12  14
ENDBRANCH   1  12
BRANCH  10  19
ATOM     19  C   UNL     1      43.935 127.333  22.785  1.00  0.00    -0.010 A 
ATOM     20  C   UNL     1      44.947 128.066  22.111  1.00  0.00     0.009 A 
ATOM     21  C   UNL     1      43.053 128.005  23.663  1.00  0.00     0.017 A 
ATOM     22  C   UNL     1      45.092 129.450  22.320  1.00  0.00     0.027 A 
ATOM     23  C   UNL     1      43.226 129.373  23.845  1.00  0.00    -0.000 A 
ATOM     24  C   UNL     1      44.210 130.072  23.198  1.00  0.00     0.045 A 
ATOM     25  C   UNL     1      42.528 130.270  24.625  1.00  0.00     0.028 A 
ATOM     26  N   UNL     1      44.171 131.371  23.532  1.00  0.00    -0.361 N 
ATOM     27  C   UNL     1      43.144 131.498  24.405  1.00  0.00     0.083 A 
ATOM     28  H   UNL     1      44.798 132.132  23.190  1.00  0.00     0.166 HD
ENDBRANCH  10  19
TORSDOF 3
ENDMDL
MODEL 2
REMARK VINA RESULT:      -3.9      3.203      5.417
REMARK SMILES O=C(c1cscn1)N1C[C@@H]2CCCC[C@@H]2N[C@@H]1c1ccc2[nH]ccc2c1
REMARK SMILES IDX 8 1 9 2 10 3 11 4 12 5 13 6 14 7 15 8 16 9 17 10 2 12 1 13
REMARK SMILES IDX 3 14 4 15 7 16 5 17 6 18 18 19 19 20 26 21 20 22 25 23 21 24
REMARK SMILES IDX 24 25 22 26 23 27
REMARK H PARENT 16 11 22 28
ROOT
ATOM      1  N   UNL     1      45.960 125.830  23.788  1.00  0.00    -0.317 N 
ATOM      2  C   UNL     1      45.846 124.730  22.817  1.00  0.00     0.127 C 
ATOM      3  C   UNL     1      44.559 123.882  23.006  1.00  0.00     0.026 C 
ATOM      4  C   UNL     1      43.765 123.819  21.680  1.00  0.00     0.007 C 
ATOM      5  C   UNL     1      42.451 123.051  21.837  1.00  0.00     0.000 C 
ATOM      6  C   UNL     1      41.588 123.684  22.930  1.00  0.00     0.002 C 
ATOM      7  C   UNL     1      42.340 123.698  24.263  1.00  0.00     0.019 C 
ATOM      8  C   UNL     1      43.694 124.431  24.162  1.00  0.00     0.060 C 
ATOM      9  N   UNL     1      43.517 125.875  23.965  1.00  0.00    -0.290 NA
ATOM     10  C   UNL     1      44.775 126.590  24.246  1.00  0.00     0.185 C 
ATOM     11  H   UNL     1      42.794 126.229  24.635  1.00  0.00     0.125 HD
ENDROOT
BRANCH   1  12
ATOM     12  C   UNL     1      47.273 126.346  24.069  1.00  0.00     0.274 C 
ATOM     13  O   UNL     1      47.391 127.474  24.622  1.00  0.00    -0.267 OA
BRANCH  12  14
ATOM     14  C   UNL     1      48.488 125.587  23.726  1.00  0.00     0.139 A 
ATOM     15  C   UNL     1      48.522 124.199  23.604  1.00  0.00     0.100 A 
ATOM     16  N   UNL     1      49.665 126.216  23.459  1.00  0.00    -0.240 NA
ATOM     17  S   UNL     1      50.086 123.766  23.168  1.00  0.00    -0.130 S 
ATOM     18  C   UNL     1      50.650 125.348  23.142  1.00  0.00     0.176 A 
ENDBRANCH  12  14
ENDBRANCH   1  12
BRANCH  10  19
ATOM     19  C   UNL     1      44.743 127.943  23.577  1.00  0.00    -0.010 A 
ATOM     20  C   UNL     1      44.330 129.090  24.307  1.00  0.00     0.009 A 
ATOM     21  C   UNL     1      45.175 128.087  22.238  1.00  0.00     0.017 A 
ATOM     22  C   UNL     1      44.330 130.362  23.708  1.00  0.00     0.027 A 
ATOM     23  C   UNL     1      45.162 129.361  21.678  1.00  0.00    -0.000 A 
ATOM     24  C   UNL     1      44.753 130.459  22.385  1.00  0.00     0.045 A 
ATOM     25  C   UNL     1      45.520 129.791  20.419  1.00  0.00     0.028 A 
ATOM     26  N   UNL     1      44.835 131.568  21.634  1.00  0.00    -0.361 N 
ATOM     27  C   UNL     1      45.304 131.165  20.430  1.00  0.00     0.083 A 
ATOM     28  H   UNL     1      44.591 132.543  21.916  1.00  0.00     0.166 HD
ENDBRANCH  10  19
TORSDOF 3
ENDMDL
MODEL 3
REMARK VINA RESULT:      -3.8      4.268      7.240
REMARK SMILES O=C(c1cscn1)N1C[C@@H]2CCCC[C@@H]2N[C@@H]1c1ccc2[nH]ccc2c1
REMARK SMILES IDX 8 1 9 2 10 3 11 4 12 5 13 6 14 7 15 8 16 9 17 10 2 12 1 13
REMARK SMILES IDX 3 14 4 15 7 16 5 17 6 18 18 19 19 20 26 21 20 22 25 23 21 24
REMARK SMILES IDX 24 25 22 26 23 27
REMARK H PARENT 16 11 22 28
ROOT
ATOM      1  N   UNL     1      43.978 131.055  23.782  1.00  0.00    -0.317 N 
ATOM      2  C   UNL     1      44.969 130.092  24.285  1.00  0.00     0.127 C 
ATOM      3  C   UNL     1      44.355 128.707  24.623  1.00  0.00     0.026 C 
ATOM      4  C   UNL     1      45.112 127.590  23.868  1.00  0.00     0.007 C 
ATOM      5  C   UNL     1      44.496 126.212  24.116  1.00  0.00     0.000 C 
ATOM      6  C   UNL     1      43.021 126.204  23.712  1.00  0.00     0.002 C 
ATOM      7  C   UNL     1      42.246 127.266  24.498  1.00  0.00     0.019 C 
ATOM      8  C   UNL     1      42.841 128.678  24.315  1.00  0.00     0.060 C 
ATOM      9  N   UNL     1      42.635 129.182  22.952  1.00  0.00    -0.290 NA
ATOM     10  C   UNL     1      42.861 130.637  22.903  1.00  0.00     0.185 C 
ATOM     11  H   UNL     1      41.643 129.005  22.665  1.00  0.00     0.125 HD
ENDROOT
BRANCH   1  12
ATOM     12  C   UNL     1      44.271 132.458  23.920  1.00  0.00     0.274 C 
ATOM     13  O   UNL     1      43.381 133.237  24.358  1.00  0.00    -0.267 OA
BRANCH  12  14
ATOM     14  C   UNL     1      45.589 133.007  23.561  1.00  0.00     0.139 A 
ATOM     15  C   UNL     1      46.089 133.025  22.260  1.00  0.00     0.100 A 
ATOM     16  N   UNL     1      46.396 133.583  24.493  1.00  0.00    -0.240 NA
ATOM     17  S   UNL     1      47.595 133.769  22.305  1.00  0.00    -0.130 S 
ATOM     18  C   UNL     1      47.547 134.046  23.961  1.00  0.00     0.176 A 
ENDBRANCH  12  14
ENDBRANCH   1  12
BRANCH  10  19
ATOM     19  C   UNL     1      43.146 131.054  21.480  1.00  0.00    -0.010 A 
ATOM     20  C   UNL     1      42.271 131.952  20.812  1.00  0.00     0.009 A 
ATOM     21  C   UNL     1      44.310 130.595  20.822  1.00  0.00     0.017 A 
ATOM     22  C   UNL     1      42.542 132.376  19.498  1.00  0.00     0.027 A 
ATOM     23  C   UNL     1      44.547 131.036  19.523  1.00  0.00    -0.000 A 
ATOM     24  C   UNL     1      43.694 131.894  18.883  1.00  0.00     0.045 A 
ATOM     25  C   UNL     1      45.580 130.759  18.656  1.00  0.00     0.028 A 
ATOM     26  N   UNL     1      44.138 132.176  17.648  1.00  0.00    -0.361 N 
ATOM     27  C   UNL     1      45.292 131.484  17.504  1.00  0.00     0.083 A 
ATOM     28  H   UNL     1      43.690 132.801  16.941  1.00  0.00     0.166 HD
ENDBRANCH  10  19
TORSDOF 3
ENDMDL
MODEL 4
REMARK VINA RESULT:      -3.8      5.290      8.504
REMARK SMILES O=C(c1cscn1)N1C[C@@H]2CCCC[C@@H]2N[C@@H]1c1ccc2[nH]ccc2c1
REMARK SMILES IDX 8 1 9 2 10 3 11 4 12 5 13 6 14 7 15 8 16 9 17 10 2 12 1 13
REMARK SMILES IDX 3 14 4 15 7 16 5 17 6 18 18 19 19 20 26 21 20 22 25 23 21 24
REMARK SMILES IDX 24 25 22 26 23 27
REMARK H PARENT 16 11 22 28
ROOT
ATOM      1  N   UNL     1      44.862 131.871  21.796  1.00  0.00    -0.317 N 
ATOM      2  C   UNL     1      45.398 130.695  22.500  1.00  0.00     0.127 C 
ATOM      3  C   UNL     1      44.331 129.958  23.353  1.00  0.00     0.026 C 
ATOM      4  C   UNL     1      44.273 128.464  22.958  1.00  0.00     0.007 C 
ATOM      5  C   UNL     1      43.185 127.712  23.725  1.00  0.00     0.000 C 
ATOM      6  C   UNL     1      41.820 128.362  23.496  1.00  0.00     0.002 C 
ATOM      7  C   UNL     1      41.846 129.827  23.940  1.00  0.00     0.019 C 
ATOM      8  C   UNL     1      42.948 130.636  23.225  1.00  0.00     0.060 C 
ATOM      9  N   UNL     1      42.650 130.817  21.799  1.00  0.00    -0.290 NA
ATOM     10  C   UNL     1      43.494 131.883  21.230  1.00  0.00     0.185 C 
ATOM     11  H   UNL     1      41.651 131.110  21.689  1.00  0.00     0.125 HD
ENDROOT
BRANCH   1  12
ATOM     12  C   UNL     1      45.786 132.906  21.413  1.00  0.00     0.274 C 
ATOM     13  O   UNL     1      45.724 133.395  20.253  1.00  0.00    -0.267 OA
BRANCH  12  14
ATOM     14  C   UNL     1      46.806 133.411  22.349  1.00  0.00     0.139 A 
ATOM     15  C   UNL     1      48.127 133.666  21.985  1.00  0.00     0.100 A 
ATOM     16  N   UNL     1      46.499 133.705  23.641  1.00  0.00    -0.240 NA
ATOM     17  S   UNL     1      48.922 134.258  23.343  1.00  0.00    -0.130 S 
ATOM     18  C   UNL     1      47.563 134.176  24.327  1.00  0.00     0.176 A 
ENDBRANCH  12  14
ENDBRANCH   1  12
BRANCH  10  19
ATOM     19  C   UNL     1      43.559 131.725  19.729  1.00  0.00    -0.010 A 
ATOM     20  C   UNL     1      42.450 132.101  18.924  1.00  0.00     0.009 A 
ATOM     21  C   UNL     1      44.740 131.252  19.112  1.00  0.00     0.017 A 
ATOM     22  C   UNL     1      42.509 131.993  17.523  1.00  0.00     0.027 A 
ATOM     23  C   UNL     1      44.763 131.159  17.724  1.00  0.00    -0.000 A 
ATOM     24  C   UNL     1      43.687 131.514  16.956  1.00  0.00     0.045 A 
ATOM     25  C   UNL     1      45.759 130.740  16.869  1.00  0.00     0.028 A 
ATOM     26  N   UNL     1      43.953 131.340  15.652  1.00  0.00    -0.361 N 
ATOM     27  C   UNL     1      45.219 130.867  15.593  1.00  0.00     0.083 A 
ATOM     28  H   UNL     1      43.318 131.532  14.845  1.00  0.00     0.166 HD
ENDBRANCH  10  19
TORSDOF 3
ENDMDL
MODEL 5
REMARK VINA RESULT:      -3.7      6.383      8.962
REMARK SMILES O=C(c1cscn1)N1C[C@@H]2CCCC[C@@H]2N[C@@H]1c1ccc2[nH]ccc2c1
REMARK SMILES IDX 8 1 9 2 10 3 11 4 12 5 13 6 14 7 15 8 16 9 17 10 2 12 1 13
REMARK SMILES IDX 3 14 4 15 7 16 5 17 6 18 18 19 19 20 26 21 20 22 25 23 21 24
REMARK SMILES IDX 24 25 22 26 23 27
REMARK H PARENT 16 11 22 28
ROOT
ATOM      1  N   UNL     1      50.338 124.030  22.194  1.00  0.00    -0.317 N 
ATOM      2  C   UNL     1      49.140 124.206  21.358  1.00  0.00     0.127 C 
ATOM      3  C   UNL     1      47.820 124.200  22.175  1.00  0.00     0.026 C 
ATOM      4  C   UNL     1      47.006 125.482  21.880  1.00  0.00     0.007 C 
ATOM      5  C   UNL     1      45.729 125.553  22.718  1.00  0.00     0.000 C 
ATOM      6  C   UNL     1      46.061 125.481  24.209  1.00  0.00     0.002 C 
ATOM      7  C   UNL     1      46.815 124.186  24.526  1.00  0.00     0.019 C 
ATOM      8  C   UNL     1      48.101 124.038  23.686  1.00  0.00     0.060 C 
ATOM      9  N   UNL     1      49.121 125.018  24.077  1.00  0.00    -0.290 NA
ATOM     10  C   UNL     1      50.439 124.627  23.545  1.00  0.00     0.185 C 
ATOM     11  H   UNL     1      49.195 125.043  25.121  1.00  0.00     0.125 HD
ENDROOT
BRANCH   1  12
ATOM     12  C   UNL     1      51.525 123.509  21.569  1.00  0.00     0.274 C 
ATOM     13  O   UNL     1      52.067 122.470  22.035  1.00  0.00    -0.267 OA
BRANCH  12  14
ATOM     14  C   UNL     1      52.127 124.165  20.395  1.00  0.00     0.139 A 
ATOM     15  C   UNL     1      53.280 124.945  20.453  1.00  0.00     0.100 A 
ATOM     16  N   UNL     1      51.604 124.005  19.149  1.00  0.00    -0.240 NA
ATOM     17  S   UNL     1      53.625 125.458  18.890  1.00  0.00    -0.130 S 
ATOM     18  C   UNL     1      52.312 124.665  18.207  1.00  0.00     0.176 A 
ENDBRANCH  12  14
ENDBRANCH   1  12
BRANCH  10  19
ATOM     19  C   UNL     1      51.343 125.837  23.504  1.00  0.00    -0.010 A 
ATOM     20  C   UNL     1      52.574 125.782  22.798  1.00  0.00     0.009 A 
ATOM     21  C   UNL     1      50.946 127.044  24.124  1.00  0.00     0.017 A 
ATOM     22  C   UNL     1      53.409 126.911  22.721  1.00  0.00     0.027 A 
ATOM     23  C   UNL     1      51.798 128.141  24.027  1.00  0.00    -0.000 A 
ATOM     24  C   UNL     1      52.987 128.078  23.352  1.00  0.00     0.045 A 
ATOM     25  C   UNL     1      51.672 129.420  24.523  1.00  0.00     0.028 A 
ATOM     26  N   UNL     1      53.624 129.259  23.396  1.00  0.00    -0.361 N 
ATOM     27  C   UNL     1      52.824 130.083  24.111  1.00  0.00     0.083 A 
ATOM     28  H   UNL     1      54.545 129.497  22.967  1.00  0.00     0.166 HD
ENDBRANCH  10  19
TORSDOF 3
ENDMDL
MODEL 6
REMARK VINA RESULT:      -3.5      5.122      8.656
REMARK SMILES O=C(c1cscn1)N1C[C@@H]2CCCC[C@@H]2N[C@@H]1c1ccc2[nH]ccc2c1
REMARK SMILES IDX 8 1 9 2 10 3 11 4 12 5 13 6 14 7 15 8 16 9 17 10 2 12 1 13
REMARK SMILES IDX 3 14 4 15 7 16 5 17 6 18 18 19 19 20 26 21 20 22 25 23 21 24
REMARK SMILES IDX 24 25 22 26 23 27
REMARK H PARENT 16 11 22 28
ROOT
ATOM      1  N   UNL     1      45.645 131.971  20.618  1.00  0.00    -0.317 N 
ATOM      2  C   UNL     1      44.884 132.670  19.570  1.00  0.00     0.127 C 
ATOM      3  C   UNL     1      45.104 132.070  18.155  1.00  0.00     0.026 C 
ATOM      4  C   UNL     1      43.745 131.701  17.516  1.00  0.00     0.007 C 
ATOM      5  C   UNL     1      43.918 131.041  16.147  1.00  0.00     0.000 C 
ATOM      6  C   UNL     1      44.794 129.792  16.261  1.00  0.00     0.002 C 
ATOM      7  C   UNL     1      46.166 130.153  16.837  1.00  0.00     0.019 C 
ATOM      8  C   UNL     1      46.058 130.856  18.207  1.00  0.00     0.060 C 
ATOM      9  N   UNL     1      45.587 129.939  19.251  1.00  0.00    -0.290 NA
ATOM     10  C   UNL     1      45.848 130.505  20.587  1.00  0.00     0.185 C 
ATOM     11  H   UNL     1      46.113 129.035  19.182  1.00  0.00     0.125 HD
ENDROOT
BRANCH   1  12
ATOM     12  C   UNL     1      45.947 132.693  21.826  1.00  0.00     0.274 C 
ATOM     13  O   UNL     1      45.243 132.505  22.854  1.00  0.00    -0.267 OA
BRANCH  12  14
ATOM     14  C   UNL     1      47.064 133.652  21.889  1.00  0.00     0.139 A 
ATOM     15  C   UNL     1      48.245 133.415  22.593  1.00  0.00     0.100 A 
ATOM     16  N   UNL     1      47.026 134.832  21.213  1.00  0.00    -0.240 NA
ATOM     17  S   UNL     1      49.246 134.745  22.364  1.00  0.00    -0.130 S 
ATOM     18  C   UNL     1      48.153 135.556  21.380  1.00  0.00     0.176 A 
ENDBRANCH  12  14
ENDBRANCH   1  12
BRANCH  10  19
ATOM     19  C   UNL     1      44.944 129.841  21.599  1.00  0.00    -0.010 A 
ATOM     20  C   UNL     1      43.709 130.445  21.956  1.00  0.00     0.009 A 
ATOM     21  C   UNL     1      45.296 128.591  22.158  1.00  0.00     0.017 A 
ATOM     22  C   UNL     1      42.841 129.821  22.870  1.00  0.00     0.027 A 
ATOM     23  C   UNL     1      44.414 128.003  23.058  1.00  0.00    -0.000 A 
ATOM     24  C   UNL     1      43.229 128.596  23.404  1.00  0.00     0.045 A 
ATOM     25  C   UNL     1      44.494 126.812  23.745  1.00  0.00     0.028 A 
ATOM     26  N   UNL     1      42.553 127.836  24.280  1.00  0.00    -0.361 N 
ATOM     27  C   UNL     1      43.323 126.743  24.492  1.00  0.00     0.083 A 
ATOM     28  H   UNL     1      41.624 128.040  24.709  1.00  0.00     0.166 HD
ENDBRANCH  10  19
TORSDOF 3
ENDMDL
MODEL 7
REMARK VINA RESULT:      -3.5      4.713      8.332
REMARK SMILES O=C(c1cscn1)N1C[C@@H]2CCCC[C@@H]2N[C@@H]1c1ccc2[nH]ccc2c1
REMARK SMILES IDX 8 1 9 2 10 3 11 4 12 5 13 6 14 7 15 8 16 9 17 10 2 12 1 13
REMARK SMILES IDX 3 14 4 15 7 16 5 17 6 18 18 19 19 20 26 21 20 22 25 23 21 24
REMARK SMILES IDX 24 25 22 26 23 27
REMARK H PARENT 16 11 22 28
ROOT
ATOM      1  N   UNL     1      45.261 131.852  21.206  1.00  0.00    -0.317 N 
ATOM      2  C   UNL     1      44.472 132.572  20.194  1.00  0.00     0.127 C 
ATOM      3  C   UNL     1      44.796 132.129  18.742  1.00  0.00     0.026 C 
ATOM      4  C   UNL     1      43.500 131.698  18.016  1.00  0.00     0.007 C 
ATOM      5  C   UNL     1      43.780 131.186  16.602  1.00  0.00     0.000 C 
ATOM      6  C   UNL     1      44.766 130.018  16.640  1.00  0.00     0.002 C 
ATOM      7  C   UNL     1      46.077 130.448  17.303  1.00  0.00     0.019 C 
ATOM      8  C   UNL     1      45.858 131.007  18.724  1.00  0.00     0.060 C 
ATOM      9  N   UNL     1      45.441 129.958  19.663  1.00  0.00    -0.290 NA
ATOM     10  C   UNL     1      45.602 130.419  21.053  1.00  0.00     0.185 C 
ATOM     11  H   UNL     1      46.052 129.117  19.534  1.00  0.00     0.125 HD
ENDROOT
BRANCH   1  12
ATOM     12  C   UNL     1      45.453 132.483  22.485  1.00  0.00     0.274 C 
ATOM     13  O   UNL     1      44.559 132.381  23.368  1.00  0.00    -0.267 OA
BRANCH  12  14
ATOM     14  C   UNL     1      46.673 133.250  22.789  1.00  0.00     0.139 A 
ATOM     15  C   UNL     1      47.653 133.547  21.843  1.00  0.00     0.100 A 
ATOM     16  N   UNL     1      46.899 133.764  24.028  1.00  0.00    -0.240 NA
ATOM     17  S   UNL     1      48.837 134.462  22.608  1.00  0.00    -0.130 S 
ATOM     18  C   UNL     1      48.058 134.453  24.096  1.00  0.00     0.176 A 
ENDBRANCH  12  14
ENDBRANCH   1  12
BRANCH  10  19
ATOM     19  C   UNL     1      44.733 129.585  21.963  1.00  0.00    -0.010 A 
ATOM     20  C   UNL     1      43.453 130.060  22.359  1.00  0.00     0.009 A 
ATOM     21  C   UNL     1      45.163 128.305  22.384  1.00  0.00     0.017 A 
ATOM     22  C   UNL     1      42.618 129.278  23.177  1.00  0.00     0.027 A 
ATOM     23  C   UNL     1      44.310 127.559  23.192  1.00  0.00    -0.000 A 
ATOM     24  C   UNL     1      43.083 128.028  23.577  1.00  0.00     0.045 A 
ATOM     25  C   UNL     1      44.463 126.306  23.741  1.00  0.00     0.028 A 
ATOM     26  N   UNL     1      42.448 127.129  24.346  1.00  0.00    -0.361 N 
ATOM     27  C   UNL     1      43.289 126.074  24.450  1.00  0.00     0.083 A 
ATOM     28  H   UNL     1      41.501 127.220  24.775  1.00  0.00     0.166 HD
ENDBRANCH  10  19
TORSDOF 3
ENDMDL
MODEL 8
REMARK VINA RESULT:      -3.4      3.255      5.375
REMARK SMILES O=C(c1cscn1)N1C[C@@H]2CCCC[C@@H]2N[C@@H]1c1ccc2[nH]ccc2c1
REMARK SMILES IDX 8 1 9 2 10 3 11 4 12 5 13 6 14 7 15 8 16 9 17 10 2 12 1 13
REMARK SMILES IDX 3 14 4 15 7 16 5 17 6 18 18 19 19 20 26 21 20 22 25 23 21 24
REMARK SMILES IDX 24 25 22 26 23 27
REMARK H PARENT 16 11 22 28
ROOT
ATOM      1  N   UNL     1      46.286 124.960  22.717  1.00  0.00    -0.317 N 
ATOM      2  C   UNL     1      45.732 123.889  21.874  1.00  0.00     0.127 C 
ATOM      3  C   UNL     1      44.596 123.092  22.570  1.00  0.00     0.026 C 
ATOM      4  C   UNL     1      43.328 123.092  21.686  1.00  0.00     0.007 C 
ATOM      5  C   UNL     1      42.158 122.376  22.364  1.00  0.00     0.000 C 
ATOM      6  C   UNL     1      41.848 123.019  23.717  1.00  0.00     0.002 C 
ATOM      7  C   UNL     1      43.080 122.971  24.625  1.00  0.00     0.019 C 
ATOM      8  C   UNL     1      44.308 123.649  23.981  1.00  0.00     0.060 C 
ATOM      9  N   UNL     1      44.134 125.103  23.880  1.00  0.00    -0.290 NA
ATOM     10  C   UNL     1      45.429 125.758  23.624  1.00  0.00     0.185 C 
ATOM     11  H   UNL     1      43.766 125.472  24.788  1.00  0.00     0.125 HD
ENDROOT
BRANCH   1  12
ATOM     12  C   UNL     1      47.622 125.415  22.438  1.00  0.00     0.274 C 
ATOM     13  O   UNL     1      47.945 126.602  22.716  1.00  0.00    -0.267 OA
BRANCH  12  14
ATOM     14  C   UNL     1      48.627 124.525  21.831  1.00  0.00     0.139 A 
ATOM     15  C   UNL     1      48.561 124.070  20.516  1.00  0.00     0.100 A 
ATOM     16  N   UNL     1      49.726 124.121  22.524  1.00  0.00    -0.240 NA
ATOM     17  S   UNL     1      49.918 123.119  20.238  1.00  0.00    -0.130 S 
ATOM     18  C   UNL     1      50.536 123.330  21.786  1.00  0.00     0.176 A 
ENDBRANCH  12  14
ENDBRANCH   1  12
BRANCH  10  19
ATOM     19  C   UNL     1      45.191 127.127  23.031  1.00  0.00    -0.010 A 
ATOM     20  C   UNL     1      46.062 127.631  22.028  1.00  0.00     0.009 A 
ATOM     21  C   UNL     1      44.072 127.893  23.433  1.00  0.00     0.017 A 
ATOM     22  C   UNL     1      45.832 128.888  21.442  1.00  0.00     0.027 A 
ATOM     23  C   UNL     1      43.876 129.133  22.831  1.00  0.00    -0.000 A 
ATOM     24  C   UNL     1      44.725 129.615  21.872  1.00  0.00     0.045 A 
ATOM     25  C   UNL     1      42.891 130.076  23.021  1.00  0.00     0.028 A 
ATOM     26  N   UNL     1      44.325 130.822  21.443  1.00  0.00    -0.361 N 
ATOM     27  C   UNL     1      43.203 131.109  22.143  1.00  0.00     0.083 A 
ATOM     28  H   UNL     1      44.779 131.419  20.718  1.00  0.00     0.166 HD
ENDBRANCH  10  19
TORSDOF 3
ENDMDL
MODEL 9
REMARK VINA RESULT:      -3.3      5.162      8.537
REMARK SMILES O=C(c1cscn1)N1C[C@@H]2CCCC[C@@H]2N[C@@H]1c1ccc2[nH]ccc2c1
REMARK SMILES IDX 8 1 9 2 10 3 11 4 12 5 13 6 14 7 15 8 16 9 17 10 2 12 1 13
REMARK SMILES IDX 3 14 4 15 7 16 5 17 6 18 18 19 19 20 26 21 20 22 25 23 21 24
REMARK SMILES IDX 24 25 22 26 23 27
REMARK H PARENT 16 11 22 28
ROOT
ATOM      1  N   UNL     1      45.674 131.935  20.538  1.00  0.00    -0.317 N 
ATOM      2  C   UNL     1      44.837 132.619  19.539  1.00  0.00     0.127 C 
ATOM      3  C   UNL     1      45.047 132.082  18.098  1.00  0.00     0.026 C 
ATOM      4  C   UNL     1      43.692 131.651  17.488  1.00  0.00     0.007 C 
ATOM      5  C   UNL     1      43.860 131.049  16.092  1.00  0.00     0.000 C 
ATOM      6  C   UNL     1      44.814 129.854  16.135  1.00  0.00     0.002 C 
ATOM      7  C   UNL     1      46.179 130.281  16.680  1.00  0.00     0.019 C 
ATOM      8  C   UNL     1      46.075 130.929  18.077  1.00  0.00     0.060 C 
ATOM      9  N   UNL     1      45.695 129.950  19.102  1.00  0.00    -0.290 NA
ATOM     10  C   UNL     1      45.965 130.486  20.448  1.00  0.00     0.185 C 
ATOM     11  H   UNL     1      46.273 129.084  18.984  1.00  0.00     0.125 HD
ENDROOT
BRANCH   1  12
ATOM     12  C   UNL     1      45.971 132.634  21.760  1.00  0.00     0.274 C 
ATOM     13  O   UNL     1      45.237 132.457  22.770  1.00  0.00    -0.267 OA
BRANCH  12  14
ATOM     14  C   UNL     1      47.117 133.555  21.860  1.00  0.00     0.139 A 
ATOM     15  C   UNL     1      47.195 134.766  21.175  1.00  0.00     0.100 A 
ATOM     16  N   UNL     1      48.169 133.290  22.681  1.00  0.00    -0.240 NA
ATOM     17  S   UNL     1      48.643 135.501  21.609  1.00  0.00    -0.130 S 
ATOM     18  C   UNL     1      49.103 134.266  22.650  1.00  0.00     0.176 A 
ENDBRANCH  12  14
ENDBRANCH   1  12
BRANCH  10  19
ATOM     19  C   UNL     1      45.138 129.734  21.464  1.00  0.00    -0.010 A 
ATOM     20  C   UNL     1      45.540 128.441  21.894  1.00  0.00     0.009 A 
ATOM     21  C   UNL     1      43.989 130.332  22.031  1.00  0.00     0.017 A 
ATOM     22  C   UNL     1      44.799 127.743  22.865  1.00  0.00     0.027 A 
ATOM     23  C   UNL     1      43.281 129.613  22.990  1.00  0.00    -0.000 A 
ATOM     24  C   UNL     1      43.670 128.363  23.392  1.00  0.00     0.045 A 
ATOM     25  C   UNL     1      42.146 129.939  23.699  1.00  0.00     0.028 A 
ATOM     26  N   UNL     1      42.833 127.880  24.324  1.00  0.00    -0.361 N 
ATOM     27  C   UNL     1      41.899 128.840  24.515  1.00  0.00     0.083 A 
ATOM     28  H   UNL     1      42.889 126.956  24.807  1.00  0.00     0.166 HD
ENDBRANCH  10  19
TORSDOF 3
ENDMDL


