REMARK SMILES C=C[C@H](OCC)C(=O)Nc1cc(F)c[nH]/c1=N\c1c[nH]c2nccc-2c1
REMARK SMILES IDX 7 1 8 2 9 3 3 5 2 6 1 7 4 8 5 9 6 10 10 11 11 12 16 13 12 14
REMARK SMILES IDX 15 15 14 16 13 17 17 19 18 20 26 21 19 22 25 23 20 24 24 25
REMARK SMILES IDX 21 26 23 27 22 28
REMARK H PARENT 9 4 15 18 20 29
ROOT
ATOM      1  C   UNL     1      -2.347   0.566  -0.752  1.00  0.00     0.257 C 
ATOM      2  O   UNL     1      -2.469   1.335  -1.744  1.00  0.00    -0.271 OA
ATOM      3  N   UNL     1      -1.202   0.668   0.111  1.00  0.00    -0.320 N 
ATOM      4  H   UNL     1      -1.015  -0.120   0.770  1.00  0.00     0.170 HD
ENDROOT
BRANCH   1   5
ATOM      5  C   UNL     1      -3.364  -0.518  -0.529  1.00  0.00     0.229 C 
BRANCH   5   6
ATOM      6  C   UNL     1      -3.097  -1.653  -1.487  1.00  0.00     0.007 C 
ATOM      7  C   UNL     1      -2.052  -2.473  -1.332  1.00  0.00     0.007 C 
ENDBRANCH   5   6
BRANCH   5   8
ATOM      8  O   UNL     1      -4.654   0.020  -0.766  1.00  0.00    -0.365 OA
BRANCH   8   9
ATOM      9  C   UNL     1      -5.633  -0.687  -0.031  1.00  0.00     0.158 C 
ATOM     10  C   UNL     1      -7.013  -0.190  -0.431  1.00  0.00     0.035 C 
ENDBRANCH   8   9
ENDBRANCH   5   8
ENDBRANCH   1   5
BRANCH   3  11
ATOM     11  C   UNL     1      -0.241   1.737   0.034  1.00  0.00     0.087 A 
ATOM     12  C   UNL     1      -0.659   3.061  -0.170  1.00  0.00     0.070 A 
ATOM     13  C   UNL     1       1.132   1.479   0.229  1.00  0.00     0.154 A 
ATOM     14  C   UNL     1       0.276   4.091  -0.217  1.00  0.00     0.141 A 
ATOM     15  N   UNL     1       2.030   2.514   0.154  1.00  0.00    -0.342 N 
ATOM     16  C   UNL     1       1.628   3.795  -0.059  1.00  0.00     0.123 A 
ATOM     17  F   UNL     1      -0.125   5.371  -0.416  1.00  0.00    -0.205 F 
ATOM     18  H   UNL     1       3.058   2.346   0.221  1.00  0.00     0.168 HD
BRANCH  13  19
ATOM     19  N   UNL     1       1.521   0.248   0.425  1.00  0.00    -0.228 NA
BRANCH  19  20
ATOM     20  C   UNL     1       2.845  -0.209   0.737  1.00  0.00     0.082 A 
ATOM     21  C   UNL     1       3.365  -1.314   0.033  1.00  0.00     0.042 A 
ATOM     22  C   UNL     1       3.580   0.358   1.818  1.00  0.00     0.112 A 
ATOM     23  C   UNL     1       4.622  -1.767   0.399  1.00  0.00     0.021 A 
ATOM     24  N   UNL     1       4.820  -0.112   2.159  1.00  0.00    -0.344 N 
ATOM     25  C   UNL     1       5.421  -2.785  -0.053  1.00  0.00     0.032 A 
ATOM     26  C   UNL     1       5.338  -1.150   1.462  1.00  0.00     0.137 A 
ATOM     27  C   UNL     1       6.568  -2.737   0.744  1.00  0.00     0.114 A 
ATOM     28  N   UNL     1       6.523  -1.745   1.672  1.00  0.00    -0.239 NA
ATOM     29  H   UNL     1       5.350   0.317   2.950  1.00  0.00     0.168 HD
ENDBRANCH  19  20
ENDBRANCH  13  19
ENDBRANCH   3  11
TORSDOF 7


