REMARK SMILES O=C(N[C@H]1CCCOC1)N1C[NH2+]C[C@H](F)[C@@H]1c1cc2ccc(F)cc2[nH]1
REMARK SMILES IDX 10 1 11 2 12 3 13 4 14 5 15 6 16 7 2 10 3 11 1 12 4 14 5 15
REMARK SMILES IDX 9 16 6 17 8 18 7 19 17 20 18 21 26 22 19 23 25 24 20 25
REMARK SMILES IDX 24 26 21 27 22 28 23 30
REMARK H PARENT 12 8 12 9 3 13 26 29
ROOT
ATOM      1  N   UNL     1       1.852  -0.280   1.717  1.00  0.00    -0.266 N 
ATOM      2  C   UNL     1       3.231   0.175   1.969  1.00  0.00     0.393 C 
ATOM      3  N   UNL     1       3.929   0.438   0.701  1.00  0.00    -0.327 N 
ATOM      4  C   UNL     1       3.883  -0.679  -0.273  1.00  0.00     0.302 C 
ATOM      5  C   UNL     1       2.981  -1.850   0.155  1.00  0.00     0.250 C 
ATOM      6  F   UNL     1       2.773  -2.703  -0.917  1.00  0.00    -0.238 F 
ATOM      7  C   UNL     1       1.639  -1.353   0.727  1.00  0.00     0.179 C 
ATOM      8  H   UNL     1       4.928   0.662   0.918  1.00  0.00     0.347 HD
ATOM      9  H   UNL     1       3.511   1.294   0.266  1.00  0.00     0.347 HD
ENDROOT
BRANCH   1  10
ATOM     10  C   UNL     1       0.756   0.243   2.509  1.00  0.00     0.322 C 
ATOM     11  N   UNL     1      -0.566  -0.322   2.427  1.00  0.00    -0.333 N 
ATOM     12  O   UNL     1       0.955   1.219   3.284  1.00  0.00    -0.248 OA
ATOM     13  H   UNL     1      -0.704  -1.242   1.956  1.00  0.00     0.165 HD
BRANCH  11  14
ATOM     14  C   UNL     1      -1.730   0.322   3.050  1.00  0.00     0.109 C 
ATOM     15  C   UNL     1      -2.134   1.584   2.270  1.00  0.00     0.030 C 
ATOM     16  C   UNL     1      -2.927  -0.648   3.098  1.00  0.00     0.185 C 
ATOM     17  C   UNL     1      -2.777   1.213   0.932  1.00  0.00     0.031 C 
ATOM     18  O   UNL     1      -3.369  -0.981   1.794  1.00  0.00    -0.379 OA
ATOM     19  C   UNL     1      -3.879   0.170   1.146  1.00  0.00     0.160 C 
ENDBRANCH  11  14
ENDBRANCH   1  10
BRANCH   7  20
ATOM     20  C   UNL     1       0.718  -0.888  -0.376  1.00  0.00     0.042 A 
ATOM     21  C   UNL     1      -0.247  -1.686  -0.989  1.00  0.00     0.034 A 
ATOM     22  N   UNL     1       0.725   0.359  -0.906  1.00  0.00    -0.356 N 
ATOM     23  C   UNL     1      -0.847  -0.866  -1.918  1.00  0.00    -0.000 A 
ATOM     24  C   UNL     1      -0.235   0.358  -1.845  1.00  0.00     0.049 A 
ATOM     25  C   UNL     1      -1.900  -1.110  -2.797  1.00  0.00     0.013 A 
ATOM     26  C   UNL     1      -0.636   1.427  -2.645  1.00  0.00     0.065 A 
ATOM     27  C   UNL     1      -2.325  -0.052  -3.620  1.00  0.00     0.040 A 
ATOM     28  C   UNL     1      -1.697   1.212  -3.545  1.00  0.00     0.125 A 
ATOM     29  H   UNL     1       1.329   1.164  -0.631  1.00  0.00     0.166 HD
ATOM     30  F   UNL     1      -2.120   2.224  -4.341  1.00  0.00    -0.207 F 
ENDBRANCH   7  20
TORSDOF 3


