REMARK SMILES CO[C@H]1CCC[C@H](c2cc3cc(F)ccc3[nH]2)N1C(=O)C(C)(F)F
REMARK SMILES IDX 3 1 4 2 5 3 6 4 7 5 18 6 2 7 1 8 19 9 20 10 21 11 22 12
REMARK SMILES IDX 23 13 24 14 8 15 9 16 17 17 10 18 16 19 11 20 15 21 12 22
REMARK SMILES IDX 14 23 13 25
REMARK H PARENT 17 24
ROOT
ATOM      1  C   UNL     1      -1.645  -0.678   0.144  1.00  0.00     0.217 C 
ATOM      2  C   UNL     1      -1.506  -2.137  -0.320  1.00  0.00     0.055 C 
ATOM      3  C   UNL     1      -0.673  -2.237  -1.599  1.00  0.00     0.007 C 
ATOM      4  C   UNL     1       0.711  -1.627  -1.378  1.00  0.00     0.032 C 
ATOM      5  C   UNL     1       0.603  -0.161  -0.923  1.00  0.00     0.135 C 
ATOM      6  N   UNL     1      -0.323  -0.040   0.226  1.00  0.00    -0.303 N 
ENDROOT
BRANCH   1   7
ATOM      7  O   UNL     1      -2.443   0.044  -0.781  1.00  0.00    -0.362 OA
ATOM      8  C   UNL     1      -3.754   0.212  -0.290  1.00  0.00     0.197 C 
ENDBRANCH   1   7
BRANCH   6   9
ATOM      9  C   UNL     1      -0.186   1.024   1.185  1.00  0.00     0.295 C 
ATOM     10  O   UNL     1      -0.009   0.733   2.399  1.00  0.00    -0.268 OA
BRANCH   9  11
ATOM     11  C   UNL     1      -0.360   2.468   0.789  1.00  0.00     0.322 C 
ATOM     12  C   UNL     1       0.822   3.314   1.259  1.00  0.00     0.098 C 
ATOM     13  F   UNL     1      -0.480   2.586  -0.584  1.00  0.00    -0.196 F 
ATOM     14  F   UNL     1      -1.520   2.950   1.370  1.00  0.00    -0.196 F 
ENDBRANCH   9  11
ENDBRANCH   6   9
BRANCH   5  15
ATOM     15  C   UNL     1       1.984   0.357  -0.599  1.00  0.00     0.039 A 
ATOM     16  C   UNL     1       2.772  -0.052   0.477  1.00  0.00     0.034 A 
ATOM     17  N   UNL     1       2.631   1.279  -1.352  1.00  0.00    -0.357 N 
ATOM     18  C   UNL     1       3.936   0.674   0.359  1.00  0.00     0.003 A 
ATOM     19  C   UNL     1       3.819   1.465  -0.754  1.00  0.00     0.046 A 
ATOM     20  C   UNL     1       5.079   0.691   1.156  1.00  0.00     0.049 A 
ATOM     21  C   UNL     1       4.837   2.332  -1.147  1.00  0.00     0.029 A 
ATOM     22  C   UNL     1       6.125   1.555   0.784  1.00  0.00     0.123 A 
ATOM     23  C   UNL     1       6.005   2.372  -0.363  1.00  0.00     0.041 A 
ATOM     24  H   UNL     1       2.278   1.751  -2.214  1.00  0.00     0.166 HD
ATOM     25  F   UNL     1       7.255   1.605   1.531  1.00  0.00    -0.207 F 
ENDBRANCH   5  15
TORSDOF 4


