REMARK SMILES Cn1n[nH+]c2cc(N(C(=O)c3cc(F)c[nH]3)C(=O)[C@H](F)Cl)ccc21
REMARK SMILES IDX 8 1 7 2 2 3 3 4 24 5 4 6 23 7 5 8 22 9 6 10 1 11 9 13 10 14
REMARK SMILES IDX 11 15 12 16 16 17 13 18 15 19 14 21 17 22 18 23 19 24 20 25
REMARK SMILES IDX 21 26
REMARK H PARENT 4 12 16 20
ROOT
ATOM      1  N   UNL     1      -1.765  -0.220  -2.569  1.00  0.00    -0.241 N 
ENDROOT
BRANCH   1   2
ATOM      2  C   UNL     1      -1.574   0.903  -1.681  1.00  0.00     0.057 A 
ATOM      3  N   UNL     1      -1.047   3.906   1.061  1.00  0.00    -0.133 N 
ATOM      4  N   UNL     1      -1.468   3.264   2.147  1.00  0.00     0.088 NA
ATOM      5  C   UNL     1      -1.155   3.054   0.026  1.00  0.00     0.197 A 
ATOM      6  N   UNL     1      -1.849   2.029   1.830  1.00  0.00    -0.143 N 
ATOM      7  C   UNL     1      -0.829   3.225  -1.316  1.00  0.00     0.061 A 
ATOM      8  C   UNL     1      -1.657   1.887   0.508  1.00  0.00     0.197 A 
ATOM      9  C   UNL     1      -1.044   2.130  -2.176  1.00  0.00     0.031 A 
ATOM     10  C   UNL     1      -1.884   0.782  -0.304  1.00  0.00     0.085 A 
ATOM     11  C   UNL     1      -0.531   5.268   1.046  1.00  0.00     0.327 C 
ATOM     12  H   UNL     1      -2.217   1.321   2.503  1.00  0.00     0.342 HD
ENDBRANCH   1   2
BRANCH   1  13
ATOM     13  C   UNL     1      -0.805  -0.483  -3.610  1.00  0.00     0.281 C 
ATOM     14  O   UNL     1      -1.202  -0.648  -4.795  1.00  0.00    -0.266 OA
BRANCH  13  15
ATOM     15  C   UNL     1       0.640  -0.555  -3.318  1.00  0.00     0.108 A 
ATOM     16  C   UNL     1       1.212  -0.626  -2.059  1.00  0.00     0.072 A 
ATOM     17  N   UNL     1       1.596  -0.594  -4.269  1.00  0.00    -0.355 N 
ATOM     18  C   UNL     1       2.571  -0.700  -2.275  1.00  0.00     0.141 A 
ATOM     19  C   UNL     1       2.780  -0.679  -3.636  1.00  0.00     0.122 A 
ATOM     20  H   UNL     1       1.453  -0.564  -5.303  1.00  0.00     0.166 HD
ATOM     21  F   UNL     1       3.528  -0.792  -1.320  1.00  0.00    -0.205 F 
ENDBRANCH  13  15
ENDBRANCH   1  13
BRANCH   1  22
ATOM     22  C   UNL     1      -2.954  -1.030  -2.465  1.00  0.00     0.284 C 
ATOM     23  O   UNL     1      -4.017  -0.524  -2.011  1.00  0.00    -0.269 OA
BRANCH  22  24
ATOM     24  C   UNL     1      -2.942  -2.483  -2.855  1.00  0.00     0.347 C 
ATOM     25  F   UNL     1      -4.194  -3.043  -2.673  1.00  0.00    -0.219 F 
ATOM     26  Cl  UNL     1      -1.767  -3.365  -1.849  1.00  0.00    -0.075 Cl
ENDBRANCH  22  24
ENDBRANCH   1  22
TORSDOF 5


