REMARK SMILES Cc1cc(NN)c([O-])c(-n2nc3ccc(-c4ccc([O-])cc4)cc3n2)c1
REMARK SMILES IDX 1 1 2 2 3 3 4 4 7 5 8 6 9 7 26 8 5 9 6 11 10 14 11 15 25 16
REMARK SMILES IDX 12 17 24 18 13 19 23 20 14 21 15 22 16 23 17 24 22 25 18 26
REMARK SMILES IDX 21 27 19 28 20 29
REMARK H PARENT 5 10 6 12 6 13
ROOT
ATOM      1  C   UNL     1       2.533  -3.589  -4.500  1.00  0.00     0.044 C 
ATOM      2  C   UNL     1       1.886  -2.239  -4.394  1.00  0.00    -0.047 A 
ATOM      3  C   UNL     1       1.891  -1.369  -5.490  1.00  0.00     0.030 A 
ATOM      4  C   UNL     1       1.320  -0.090  -5.393  1.00  0.00     0.043 A 
ATOM      5  C   UNL     1       0.752   0.323  -4.171  1.00  0.00    -0.055 A 
ATOM      6  O   UNL     1       0.182   1.589  -4.081  1.00  0.00    -0.870 OA
ATOM      7  C   UNL     1       0.760  -0.539  -3.049  1.00  0.00     0.080 A 
ATOM      8  C   UNL     1       1.337  -1.816  -3.178  1.00  0.00     0.033 A 
ENDROOT
BRANCH   4   9
ATOM      9  N   UNL     1       1.318   0.799  -6.526  1.00  0.00    -0.325 N 
ATOM     10  H   UNL     1       0.969   1.778  -6.416  1.00  0.00     0.181 HD
BRANCH   9  11
ATOM     11  N   UNL     1       1.811   0.395  -7.779  1.00  0.00    -0.250 NA
ATOM     12  H   UNL     1       1.792   1.227  -8.412  1.00  0.00     0.143 HD
ATOM     13  H   UNL     1       1.129  -0.292  -8.171  1.00  0.00     0.143 HD
ENDBRANCH   9  11
ENDBRANCH   4   9
BRANCH   7  14
ATOM     14  N   UNL     1       0.195  -0.139  -1.781  1.00  0.00    -0.151 N 
ATOM     15  N   UNL     1      -0.335   1.061  -1.542  1.00  0.00    -0.148 NA
ATOM     16  N   UNL     1       0.150  -0.938  -0.714  1.00  0.00    -0.148 NA
ATOM     17  C   UNL     1      -0.735   1.016  -0.262  1.00  0.00     0.113 A 
ATOM     18  C   UNL     1      -0.437  -0.206   0.244  1.00  0.00     0.114 A 
ATOM     19  C   UNL     1      -1.355   2.002   0.494  1.00  0.00     0.033 A 
ATOM     20  C   UNL     1      -0.732  -0.560   1.556  1.00  0.00     0.041 A 
ATOM     21  C   UNL     1      -1.674   1.689   1.830  1.00  0.00     0.011 A 
ATOM     22  C   UNL     1      -1.367   0.408   2.374  1.00  0.00    -0.016 A 
BRANCH  22  23
ATOM     23  C   UNL     1      -1.709   0.089   3.784  1.00  0.00    -0.018 A 
ATOM     24  C   UNL     1      -2.927   0.522   4.340  1.00  0.00     0.008 A 
ATOM     25  C   UNL     1      -0.820  -0.652   4.585  1.00  0.00     0.008 A 
ATOM     26  C   UNL     1      -3.247   0.220   5.668  1.00  0.00    -0.008 A 
ATOM     27  C   UNL     1      -1.144  -0.951   5.912  1.00  0.00    -0.008 A 
ATOM     28  C   UNL     1      -2.357  -0.516   6.454  1.00  0.00    -0.109 A 
ATOM     29  O   UNL     1      -2.676  -0.814   7.772  1.00  0.00    -0.872 OA
ENDBRANCH  22  23
ENDBRANCH   7  14
TORSDOF 4


