MODEL 1
REMARK VINA RESULT:      -9.6      0.000      0.000
REMARK SMILES CC(=O)c1ccc(-c2ccc([O-])cc2)c2c[n-]nc12
REMARK SMILES IDX 4 1 5 2 6 3 7 4 15 5 16 6 17 7 18 8 19 9 2 10 1 11 3 12 8 13
REMARK SMILES IDX 9 14 14 15 10 16 13 17 11 18 12 19
REMARK H PARENT
ROOT
ATOM      1  C   UNL     1      44.254 131.188  21.198  1.00  0.00     0.042 A 
ATOM      2  C   UNL     1      45.502 130.621  20.842  1.00  0.00     0.014 A 
ATOM      3  C   UNL     1      45.916 130.545  19.496  1.00  0.00     0.010 A 
ATOM      4  C   UNL     1      45.097 131.038  18.459  1.00  0.00    -0.011 A 
ATOM      5  C   UNL     1      43.864 131.587  18.833  1.00  0.00    -0.014 A 
ATOM      6  C   UNL     1      42.815 132.093  18.098  1.00  0.00    -0.113 A 
ATOM      7  N   UNL     1      41.835 132.456  18.954  1.00  0.00    -0.581 NA
ATOM      8  N   UNL     1      42.222 132.192  20.198  1.00  0.00    -0.367 NA
ATOM      9  C   UNL     1      43.457 131.660  20.139  1.00  0.00     0.058 A 
ENDROOT
BRANCH   1  10
ATOM     10  C   UNL     1      43.843 131.252  22.627  1.00  0.00     0.161 C 
ATOM     11  C   UNL     1      42.766 130.379  23.197  1.00  0.00     0.093 C 
ATOM     12  O   UNL     1      44.418 132.065  23.401  1.00  0.00    -0.294 OA
ENDBRANCH   1  10
BRANCH   4  13
ATOM     13  C   UNL     1      45.539 130.966  17.046  1.00  0.00    -0.018 A 
ATOM     14  C   UNL     1      45.705 132.138  16.287  1.00  0.00     0.008 A 
ATOM     15  C   UNL     1      45.824 129.723  16.456  1.00  0.00     0.008 A 
ATOM     16  C   UNL     1      46.132 132.065  14.958  1.00  0.00    -0.008 A 
ATOM     17  C   UNL     1      46.251 129.652  15.126  1.00  0.00    -0.008 A 
ATOM     18  C   UNL     1      46.403 130.823  14.377  1.00  0.00    -0.109 A 
ATOM     19  O   UNL     1      46.827 130.751  13.055  1.00  0.00    -0.872 OA
ENDBRANCH   4  13
TORSDOF 2
ENDMDL
MODEL 2
REMARK VINA RESULT:      -9.5      0.168      1.121
REMARK SMILES CC(=O)c1ccc(-c2ccc([O-])cc2)c2c[n-]nc12
REMARK SMILES IDX 4 1 5 2 6 3 7 4 15 5 16 6 17 7 18 8 19 9 2 10 1 11 3 12 8 13
REMARK SMILES IDX 9 14 14 15 10 16 13 17 11 18 12 19
REMARK H PARENT
ROOT
ATOM      1  C   UNL     1      44.237 131.165  21.351  1.00  0.00     0.042 A 
ATOM      2  C   UNL     1      45.482 130.587  21.003  1.00  0.00     0.014 A 
ATOM      3  C   UNL     1      45.905 130.510  19.660  1.00  0.00     0.010 A 
ATOM      4  C   UNL     1      45.099 131.013  18.617  1.00  0.00    -0.011 A 
ATOM      5  C   UNL     1      43.868 131.573  18.984  1.00  0.00    -0.014 A 
ATOM      6  C   UNL     1      42.830 132.091  18.243  1.00  0.00    -0.113 A 
ATOM      7  N   UNL     1      41.847 132.461  19.093  1.00  0.00    -0.581 NA
ATOM      8  N   UNL     1      42.222 132.191  20.338  1.00  0.00    -0.367 NA
ATOM      9  C   UNL     1      43.452 131.647  20.287  1.00  0.00     0.058 A 
ENDROOT
BRANCH   1  10
ATOM     10  C   UNL     1      43.816 131.229  22.777  1.00  0.00     0.161 C 
ATOM     11  C   UNL     1      42.784 130.308  23.356  1.00  0.00     0.093 C 
ATOM     12  O   UNL     1      44.342 132.084  23.541  1.00  0.00    -0.294 OA
ENDBRANCH   1  10
BRANCH   4  13
ATOM     13  C   UNL     1      45.550 130.941  17.208  1.00  0.00    -0.018 A 
ATOM     14  C   UNL     1      45.944 129.716  16.643  1.00  0.00     0.008 A 
ATOM     15  C   UNL     1      45.562 132.098  16.409  1.00  0.00     0.008 A 
ATOM     16  C   UNL     1      46.359 129.653  15.310  1.00  0.00    -0.008 A 
ATOM     17  C   UNL     1      45.978 132.032  15.075  1.00  0.00    -0.008 A 
ATOM     18  C   UNL     1      46.378 130.809  14.526  1.00  0.00    -0.109 A 
ATOM     19  O   UNL     1      46.791 130.746  13.202  1.00  0.00    -0.872 OA
ENDBRANCH   4  13
TORSDOF 2
ENDMDL
MODEL 3
REMARK VINA RESULT:      -8.5      1.801      2.535
REMARK SMILES CC(=O)c1ccc(-c2ccc([O-])cc2)c2c[n-]nc12
REMARK SMILES IDX 4 1 5 2 6 3 7 4 15 5 16 6 17 7 18 8 19 9 2 10 1 11 3 12 8 13
REMARK SMILES IDX 9 14 14 15 10 16 13 17 11 18 12 19
REMARK H PARENT
ROOT
ATOM      1  C   UNL     1      43.006 132.031  19.759  1.00  0.00     0.042 A 
ATOM      2  C   UNL     1      42.506 132.131  18.438  1.00  0.00     0.014 A 
ATOM      3  C   UNL     1      43.298 131.776  17.326  1.00  0.00     0.010 A 
ATOM      4  C   UNL     1      44.616 131.303  17.498  1.00  0.00    -0.011 A 
ATOM      5  C   UNL     1      45.092 131.221  18.813  1.00  0.00    -0.014 A 
ATOM      6  C   UNL     1      46.318 130.870  19.333  1.00  0.00    -0.113 A 
ATOM      7  N   UNL     1      46.260 131.002  20.677  1.00  0.00    -0.581 NA
ATOM      8  N   UNL     1      45.050 131.428  21.022  1.00  0.00    -0.367 NA
ATOM      9  C   UNL     1      44.327 131.567  19.895  1.00  0.00     0.058 A 
ENDROOT
BRANCH   1  10
ATOM     10  C   UNL     1      42.147 132.416  20.913  1.00  0.00     0.161 C 
ATOM     11  C   UNL     1      42.368 131.883  22.296  1.00  0.00     0.093 C 
ATOM     12  O   UNL     1      41.195 133.224  20.734  1.00  0.00    -0.294 OA
ENDBRANCH   1  10
BRANCH   4  13
ATOM     13  C   UNL     1      45.443 130.921  16.329  1.00  0.00    -0.018 A 
ATOM     14  C   UNL     1      46.021 131.904  15.508  1.00  0.00     0.008 A 
ATOM     15  C   UNL     1      45.682 129.565  16.045  1.00  0.00     0.008 A 
ATOM     16  C   UNL     1      46.807 131.537  14.412  1.00  0.00    -0.008 A 
ATOM     17  C   UNL     1      46.469 129.200  14.948  1.00  0.00    -0.008 A 
ATOM     18  C   UNL     1      47.031 130.186  14.131  1.00  0.00    -0.109 A 
ATOM     19  O   UNL     1      47.813 129.822  13.042  1.00  0.00    -0.872 OA
ENDBRANCH   4  13
TORSDOF 2
ENDMDL
MODEL 4
REMARK VINA RESULT:      -8.5      0.951      1.492
REMARK SMILES CC(=O)c1ccc(-c2ccc([O-])cc2)c2c[n-]nc12
REMARK SMILES IDX 4 1 5 2 6 3 7 4 15 5 16 6 17 7 18 8 19 9 2 10 1 11 3 12 8 13
REMARK SMILES IDX 9 14 14 15 10 16 13 17 11 18 12 19
REMARK H PARENT
ROOT
ATOM      1  C   UNL     1      43.986 131.234  20.467  1.00  0.00     0.042 A 
ATOM      2  C   UNL     1      45.310 130.755  20.322  1.00  0.00     0.014 A 
ATOM      3  C   UNL     1      45.911 130.636  19.051  1.00  0.00     0.010 A 
ATOM      4  C   UNL     1      45.208 130.995  17.882  1.00  0.00    -0.011 A 
ATOM      5  C   UNL     1      43.897 131.457  18.049  1.00  0.00    -0.014 A 
ATOM      6  C   UNL     1      42.924 131.828  17.148  1.00  0.00    -0.113 A 
ATOM      7  N   UNL     1      41.810 132.156  17.838  1.00  0.00    -0.581 NA
ATOM      8  N   UNL     1      42.041 132.000  19.138  1.00  0.00    -0.367 NA
ATOM      9  C   UNL     1      43.309 131.573  19.281  1.00  0.00     0.058 A 
ENDROOT
BRANCH   1  10
ATOM     10  C   UNL     1      43.377 131.347  21.821  1.00  0.00     0.161 C 
ATOM     11  C   UNL     1      44.006 130.744  23.041  1.00  0.00     0.093 C 
ATOM     12  O   UNL     1      42.293 131.974  21.963  1.00  0.00    -0.294 OA
ENDBRANCH   1  10
BRANCH   4  13
ATOM     13  C   UNL     1      45.845 130.878  16.549  1.00  0.00    -0.018 A 
ATOM     14  C   UNL     1      46.285 129.631  16.072  1.00  0.00     0.008 A 
ATOM     15  C   UNL     1      45.991 132.012  15.733  1.00  0.00     0.008 A 
ATOM     16  C   UNL     1      46.876 129.525  14.810  1.00  0.00    -0.008 A 
ATOM     17  C   UNL     1      46.583 131.904  14.470  1.00  0.00    -0.008 A 
ATOM     18  C   UNL     1      47.026 130.661  14.009  1.00  0.00    -0.109 A 
ATOM     19  O   UNL     1      47.614 130.555  12.755  1.00  0.00    -0.872 OA
ENDBRANCH   4  13
TORSDOF 2
ENDMDL
MODEL 5
REMARK VINA RESULT:      -8.5      1.777      2.722
REMARK SMILES CC(=O)c1ccc(-c2ccc([O-])cc2)c2c[n-]nc12
REMARK SMILES IDX 4 1 5 2 6 3 7 4 15 5 16 6 17 7 18 8 19 9 2 10 1 11 3 12 8 13
REMARK SMILES IDX 9 14 14 15 10 16 13 17 11 18 12 19
REMARK H PARENT
ROOT
ATOM      1  C   UNL     1      42.928 132.084  19.910  1.00  0.00     0.042 A 
ATOM      2  C   UNL     1      42.408 132.163  18.596  1.00  0.00     0.014 A 
ATOM      3  C   UNL     1      43.190 131.813  17.476  1.00  0.00     0.010 A 
ATOM      4  C   UNL     1      44.519 131.367  17.632  1.00  0.00    -0.011 A 
ATOM      5  C   UNL     1      45.015 131.304  18.940  1.00  0.00    -0.014 A 
ATOM      6  C   UNL     1      46.255 130.980  19.446  1.00  0.00    -0.113 A 
ATOM      7  N   UNL     1      46.214 131.123  20.789  1.00  0.00    -0.581 NA
ATOM      8  N   UNL     1      45.002 131.529  21.148  1.00  0.00    -0.367 NA
ATOM      9  C   UNL     1      44.260 131.646  20.031  1.00  0.00     0.058 A 
ENDROOT
BRANCH   1  10
ATOM     10  C   UNL     1      42.080 132.463  21.074  1.00  0.00     0.161 C 
ATOM     11  C   UNL     1      42.305 131.913  22.450  1.00  0.00     0.093 C 
ATOM     12  O   UNL     1      41.134 133.281  20.910  1.00  0.00    -0.294 OA
ENDBRANCH   1  10
BRANCH   4  13
ATOM     13  C   UNL     1      45.335 130.989  16.454  1.00  0.00    -0.018 A 
ATOM     14  C   UNL     1      45.482 129.640  16.088  1.00  0.00     0.008 A 
ATOM     15  C   UNL     1      45.949 131.981  15.671  1.00  0.00     0.008 A 
ATOM     16  C   UNL     1      46.245 129.290  14.970  1.00  0.00    -0.008 A 
ATOM     17  C   UNL     1      46.712 131.629  14.553  1.00  0.00    -0.008 A 
ATOM     18  C   UNL     1      46.861 130.283  14.203  1.00  0.00    -0.109 A 
ATOM     19  O   UNL     1      47.619 129.935  13.093  1.00  0.00    -0.872 OA
ENDBRANCH   4  13
TORSDOF 2
ENDMDL
MODEL 6
REMARK VINA RESULT:      -7.4      2.209      6.463
REMARK SMILES CC(=O)c1ccc(-c2ccc([O-])cc2)c2c[n-]nc12
REMARK SMILES IDX 4 1 5 2 6 3 7 4 15 5 16 6 17 7 18 8 19 9 2 10 1 11 3 12 8 13
REMARK SMILES IDX 9 14 14 15 10 16 13 17 11 18 12 19
REMARK H PARENT
ROOT
ATOM      1  C   UNL     1      46.474 130.317  15.188  1.00  0.00     0.042 A 
ATOM      2  C   UNL     1      47.006 130.083  16.478  1.00  0.00     0.014 A 
ATOM      3  C   UNL     1      46.286 130.427  17.641  1.00  0.00     0.010 A 
ATOM      4  C   UNL     1      45.007 131.014  17.553  1.00  0.00    -0.011 A 
ATOM      5  C   UNL     1      44.504 131.244  16.266  1.00  0.00    -0.014 A 
ATOM      6  C   UNL     1      43.347 131.841  15.818  1.00  0.00    -0.113 A 
ATOM      7  N   UNL     1      43.371 131.847  14.467  1.00  0.00    -0.581 NA
ATOM      8  N   UNL     1      44.499 131.285  14.048  1.00  0.00    -0.367 NA
ATOM      9  C   UNL     1      45.201 130.914  15.134  1.00  0.00     0.058 A 
ENDROOT
BRANCH   1  10
ATOM     10  C   UNL     1      47.259 129.946  13.978  1.00  0.00     0.161 C 
ATOM     11  C   UNL     1      47.521 130.909  12.859  1.00  0.00     0.093 C 
ATOM     12  O   UNL     1      47.730 128.780  13.879  1.00  0.00    -0.294 OA
ENDBRANCH   1  10
BRANCH   4  13
ATOM     13  C   UNL     1      44.248 131.365  18.777  1.00  0.00    -0.018 A 
ATOM     14  C   UNL     1      42.941 131.874  18.688  1.00  0.00     0.008 A 
ATOM     15  C   UNL     1      44.819 131.165  20.045  1.00  0.00     0.008 A 
ATOM     16  C   UNL     1      42.226 132.194  19.845  1.00  0.00    -0.008 A 
ATOM     17  C   UNL     1      44.102 131.485  21.203  1.00  0.00    -0.008 A 
ATOM     18  C   UNL     1      42.806 132.001  21.102  1.00  0.00    -0.109 A 
ATOM     19  O   UNL     1      42.096 132.320  22.253  1.00  0.00    -0.872 OA
ENDBRANCH   4  13
TORSDOF 2
ENDMDL
MODEL 7
REMARK VINA RESULT:      -7.3      2.159      6.487
REMARK SMILES CC(=O)c1ccc(-c2ccc([O-])cc2)c2c[n-]nc12
REMARK SMILES IDX 4 1 5 2 6 3 7 4 15 5 16 6 17 7 18 8 19 9 2 10 1 11 3 12 8 13
REMARK SMILES IDX 9 14 14 15 10 16 13 17 11 18 12 19
REMARK H PARENT
ROOT
ATOM      1  C   UNL     1      46.441 130.349  15.250  1.00  0.00     0.042 A 
ATOM      2  C   UNL     1      46.990 130.105  16.533  1.00  0.00     0.014 A 
ATOM      3  C   UNL     1      46.279 130.431  17.707  1.00  0.00     0.010 A 
ATOM      4  C   UNL     1      44.994 131.007  17.639  1.00  0.00    -0.011 A 
ATOM      5  C   UNL     1      44.475 131.246  16.360  1.00  0.00    -0.014 A 
ATOM      6  C   UNL     1      43.307 131.836  15.930  1.00  0.00    -0.113 A 
ATOM      7  N   UNL     1      43.316 131.856  14.579  1.00  0.00    -0.581 NA
ATOM      8  N   UNL     1      44.445 131.309  14.142  1.00  0.00    -0.367 NA
ATOM      9  C   UNL     1      45.163 130.934  15.217  1.00  0.00     0.058 A 
ENDROOT
BRANCH   1  10
ATOM     10  C   UNL     1      47.216 129.997  14.028  1.00  0.00     0.161 C 
ATOM     11  C   UNL     1      47.562 131.006  12.974  1.00  0.00     0.093 C 
ATOM     12  O   UNL     1      47.606 128.810  13.862  1.00  0.00    -0.294 OA
ENDBRANCH   1  10
BRANCH   4  13
ATOM     13  C   UNL     1      44.245 131.338  18.874  1.00  0.00    -0.018 A 
ATOM     14  C   UNL     1      44.774 131.024  20.138  1.00  0.00     0.008 A 
ATOM     15  C   UNL     1      43.007 131.997  18.796  1.00  0.00     0.008 A 
ATOM     16  C   UNL     1      44.068 131.347  21.300  1.00  0.00    -0.008 A 
ATOM     17  C   UNL     1      42.302 132.320  19.960  1.00  0.00    -0.008 A 
ATOM     18  C   UNL     1      42.832 131.994  21.212  1.00  0.00    -0.109 A 
ATOM     19  O   UNL     1      42.131 132.315  22.367  1.00  0.00    -0.872 OA
ENDBRANCH   4  13
TORSDOF 2
ENDMDL
MODEL 8
REMARK VINA RESULT:      -6.8      1.813      2.471
REMARK SMILES CC(=O)c1ccc(-c2ccc([O-])cc2)c2c[n-]nc12
REMARK SMILES IDX 4 1 5 2 6 3 7 4 15 5 16 6 17 7 18 8 19 9 2 10 1 11 3 12 8 13
REMARK SMILES IDX 9 14 14 15 10 16 13 17 11 18 12 19
REMARK H PARENT
ROOT
ATOM      1  C   UNL     1      42.850 132.001  20.524  1.00  0.00     0.042 A 
ATOM      2  C   UNL     1      42.175 132.278  19.311  1.00  0.00     0.014 A 
ATOM      3  C   UNL     1      42.792 132.057  18.061  1.00  0.00     0.010 A 
ATOM      4  C   UNL     1      44.104 131.546  17.983  1.00  0.00    -0.011 A 
ATOM      5  C   UNL     1      44.755 131.287  19.195  1.00  0.00    -0.014 A 
ATOM      6  C   UNL     1      46.029 130.852  19.487  1.00  0.00    -0.113 A 
ATOM      7  N   UNL     1      46.164 130.811  20.831  1.00  0.00    -0.581 NA
ATOM      8  N   UNL     1      45.029 131.207  21.396  1.00  0.00    -0.367 NA
ATOM      9  C   UNL     1      44.161 131.503  20.411  1.00  0.00     0.058 A 
ENDROOT
BRANCH   1  10
ATOM     10  C   UNL     1      42.175 132.247  21.828  1.00  0.00     0.161 C 
ATOM     11  C   UNL     1      42.654 131.641  23.112  1.00  0.00     0.093 C 
ATOM     12  O   UNL     1      41.161 132.996  21.868  1.00  0.00    -0.294 OA
ENDBRANCH   1  10
BRANCH   4  13
ATOM     13  C   UNL     1      44.745 131.304  16.669  1.00  0.00    -0.018 A 
ATOM     14  C   UNL     1      44.050 131.558  15.474  1.00  0.00     0.008 A 
ATOM     15  C   UNL     1      46.071 130.843  16.603  1.00  0.00     0.008 A 
ATOM     16  C   UNL     1      44.663 131.338  14.238  1.00  0.00    -0.008 A 
ATOM     17  C   UNL     1      46.684 130.623  15.365  1.00  0.00    -0.008 A 
ATOM     18  C   UNL     1      45.979 130.869  14.183  1.00  0.00    -0.109 A 
ATOM     19  O   UNL     1      46.588 130.650  12.953  1.00  0.00    -0.872 OA
ENDBRANCH   4  13
TORSDOF 2
ENDMDL


