REMARK SMILES Cc1cc(N)c(O)c(-n2nc3ccccc3[nH+]2)c1
REMARK SMILES IDX 1 1 2 2 3 3 4 4 6 5 8 6 18 7 5 8 9 11 10 12 17 13 11 14
REMARK SMILES IDX 16 15 12 16 15 17 13 18 14 19 7 21
REMARK H PARENT 5 9 5 10 17 20 7 22
ROOT
ATOM      1  C   UNL     1      -3.991  -1.897   0.280  1.00  0.00     0.044 C 
ATOM      2  C   UNL     1      -3.061  -0.744   0.043  1.00  0.00    -0.046 A 
ATOM      3  C   UNL     1      -3.573   0.546  -0.148  1.00  0.00     0.033 A 
ATOM      4  C   UNL     1      -2.711   1.633  -0.344  1.00  0.00     0.077 A 
ATOM      5  C   UNL     1      -1.317   1.434  -0.334  1.00  0.00     0.170 A 
ATOM      6  C   UNL     1      -0.796   0.144  -0.079  1.00  0.00     0.172 A 
ATOM      7  C   UNL     1      -1.675  -0.935   0.091  1.00  0.00     0.042 A 
ENDROOT
BRANCH   4   8
ATOM      8  N   UNL     1      -3.260   2.937  -0.570  1.00  0.00    -0.396 N 
ATOM      9  H   UNL     1      -4.294   3.083  -0.587  1.00  0.00     0.156 HD
ATOM     10  H   UNL     1      -2.647   3.769  -0.717  1.00  0.00     0.156 HD
ENDBRANCH   4   8
BRANCH   6  11
ATOM     11  N   UNL     1       0.616  -0.085   0.033  1.00  0.00    -0.009 N 
ATOM     12  N   UNL     1       1.240  -1.109  -0.547  1.00  0.00     0.054 NA
ATOM     13  N   UNL     1       1.433   0.635   0.800  1.00  0.00    -0.161 N 
ATOM     14  C   UNL     1       2.519  -1.011  -0.140  1.00  0.00     0.249 A 
ATOM     15  C   UNL     1       2.638   0.062   0.691  1.00  0.00     0.198 A 
ATOM     16  C   UNL     1       3.599  -1.833  -0.445  1.00  0.00     0.064 A 
ATOM     17  C   UNL     1       3.843   0.408   1.295  1.00  0.00     0.058 A 
ATOM     18  C   UNL     1       4.841  -1.513   0.141  1.00  0.00     0.005 A 
ATOM     19  C   UNL     1       4.962  -0.398   1.007  1.00  0.00     0.005 A 
ATOM     20  H   UNL     1       1.165   1.453   1.391  1.00  0.00     0.340 HD
ENDBRANCH   6  11
BRANCH   5  21
ATOM     21  O   UNL     1      -0.478   2.516  -0.611  1.00  0.00    -0.504 OA
ATOM     22  H   UNL     1       0.518   2.416  -0.761  1.00  0.00     0.293 HD
ENDBRANCH   5  21
TORSDOF 3


