MODEL 1
REMARK VINA RESULT:      -5.4      0.000      0.000
REMARK SMILES C=C[C@@H]1C[NH2+][C@H](c2ccc3ncnn3c2)N(C(=O)OCCCCCC)C1
REMARK SMILES IDX 20 1 19 2 17 3 18 4 16 5 3 6 4 7 26 8 5 9 6 10 2 13 1 14
REMARK SMILES IDX 7 15 8 16 15 17 9 18 14 19 10 20 13 21 11 22 12 23 21 24
REMARK SMILES IDX 22 25 23 26 24 27 25 28
REMARK H PARENT 5 11 5 12
ROOT
ATOM      1  C   UNL     1      41.439 131.914  19.199  1.00  0.00     0.235 C 
ENDROOT
BRANCH   1   2
ATOM      2  O   UNL     1      42.247 132.547  18.211  1.00  0.00    -0.449 OA
BRANCH   2   3
ATOM      3  C   UNL     1      43.340 131.920  17.607  1.00  0.00     0.414 C 
ATOM      4  O   UNL     1      43.267 131.557  16.400  1.00  0.00    -0.224 OA
BRANCH   3   5
ATOM      5  N   UNL     1      44.540 131.677  18.370  1.00  0.00    -0.253 N 
ATOM      6  C   UNL     1      45.214 131.657  20.740  1.00  0.00     0.086 C 
ATOM      7  C   UNL     1      46.001 130.368  20.372  1.00  0.00     0.272 C 
ATOM      8  C   UNL     1      44.899 132.530  19.512  1.00  0.00     0.143 C 
ATOM      9  N   UNL     1      46.523 130.407  18.997  1.00  0.00    -0.322 N 
ATOM     10  C   UNL     1      45.427 130.550  18.017  1.00  0.00     0.323 C 
ATOM     11  H   UNL     1      47.209 131.192  18.906  1.00  0.00     0.348 HD
ATOM     12  H   UNL     1      47.030 129.509  18.812  1.00  0.00     0.348 HD
BRANCH   6  13
ATOM     13  C   UNL     1      45.904 132.463  21.818  1.00  0.00    -0.024 C 
ATOM     14  C   UNL     1      47.013 133.177  21.590  1.00  0.00     0.004 C 
ENDBRANCH   6  13
BRANCH  10  15
ATOM     15  C   UNL     1      46.006 130.716  16.625  1.00  0.00     0.050 A 
ATOM     16  C   UNL     1      45.908 131.948  15.928  1.00  0.00     0.017 A 
ATOM     17  C   UNL     1      46.717 129.656  16.028  1.00  0.00     0.127 A 
ATOM     18  C   UNL     1      46.470 132.091  14.650  1.00  0.00     0.050 A 
ATOM     19  N   UNL     1      47.247 129.852  14.795  1.00  0.00    -0.221 N 
ATOM     20  C   UNL     1      47.139 130.995  14.114  1.00  0.00     0.155 A 
ATOM     21  N   UNL     1      47.921 128.985  14.067  1.00  0.00    -0.155 NA
ATOM     22  N   UNL     1      47.737 130.924  12.912  1.00  0.00    -0.215 NA
ATOM     23  C   UNL     1      48.211 129.651  12.924  1.00  0.00     0.247 A 
ENDBRANCH  10  15
ENDBRANCH   3   5
ENDBRANCH   2   3
ENDBRANCH   1   2
BRANCH   1  24
ATOM     24  C   UNL     1      41.685 132.561  20.562  1.00  0.00     0.042 C 
BRANCH  24  25
ATOM     25  C   UNL     1      42.497 131.634  21.480  1.00  0.00     0.003 C 
BRANCH  25  26
ATOM     26  C   UNL     1      42.494 132.091  22.946  1.00  0.00    -0.000 C 
BRANCH  26  27
ATOM     27  C   UNL     1      43.078 131.035  23.897  1.00  0.00    -0.003 C 
ATOM     28  C   UNL     1      42.086 129.901  24.136  1.00  0.00     0.004 C 
ENDBRANCH  26  27
ENDBRANCH  25  26
ENDBRANCH  24  25
ENDBRANCH   1  24
TORSDOF 9
ENDMDL
MODEL 2
REMARK VINA RESULT:      -5.1      3.229      7.279
REMARK SMILES C=C[C@@H]1C[NH2+][C@H](c2ccc3ncnn3c2)N(C(=O)OCCCCCC)C1
REMARK SMILES IDX 20 1 19 2 17 3 18 4 16 5 3 6 4 7 26 8 5 9 6 10 2 13 1 14
REMARK SMILES IDX 7 15 8 16 15 17 9 18 14 19 10 20 13 21 11 22 12 23 21 24
REMARK SMILES IDX 22 25 23 26 24 27 25 28
REMARK H PARENT 5 11 5 12
ROOT
ATOM      1  C   UNL     1      45.625 130.595  17.923  1.00  0.00     0.235 C 
ENDROOT
BRANCH   1   2
ATOM      2  O   UNL     1      44.881 130.317  19.105  1.00  0.00    -0.449 OA
BRANCH   2   3
ATOM      3  C   UNL     1      44.366 131.320  19.932  1.00  0.00     0.414 C 
ATOM      4  O   UNL     1      43.282 131.890  19.627  1.00  0.00    -0.224 OA
BRANCH   3   5
ATOM      5  N   UNL     1      45.084 131.707  21.122  1.00  0.00    -0.253 N 
ATOM      6  C   UNL     1      46.711 133.435  21.782  1.00  0.00     0.086 C 
ATOM      7  C   UNL     1      45.858 133.561  23.076  1.00  0.00     0.272 C 
ATOM      8  C   UNL     1      46.501 132.090  21.063  1.00  0.00     0.143 C 
ATOM      9  N   UNL     1      45.271 132.276  23.484  1.00  0.00    -0.322 N 
ATOM     10  C   UNL     1      44.393 131.734  22.428  1.00  0.00     0.323 C 
ATOM     11  H   UNL     1      46.037 131.600  23.716  1.00  0.00     0.348 HD
ATOM     12  H   UNL     1      44.704 132.434  24.350  1.00  0.00     0.348 HD
BRANCH   6  13
ATOM     13  C   UNL     1      48.181 133.693  22.036  1.00  0.00    -0.024 C 
ATOM     14  C   UNL     1      48.706 134.924  22.061  1.00  0.00     0.004 C 
ENDBRANCH   6  13
BRANCH  10  15
ATOM     15  C   UNL     1      43.909 130.353  22.827  1.00  0.00     0.050 A 
ATOM     16  C   UNL     1      42.606 130.151  23.351  1.00  0.00     0.017 A 
ATOM     17  C   UNL     1      44.734 129.230  22.615  1.00  0.00     0.127 A 
ATOM     18  C   UNL     1      42.166 128.862  23.694  1.00  0.00     0.050 A 
ATOM     19  N   UNL     1      44.256 128.008  22.957  1.00  0.00    -0.221 N 
ATOM     20  C   UNL     1      43.043 127.805  23.478  1.00  0.00     0.155 A 
ATOM     21  N   UNL     1      44.876 126.850  22.858  1.00  0.00    -0.155 NA
ATOM     22  N   UNL     1      42.820 126.505  23.743  1.00  0.00    -0.215 NA
ATOM     23  C   UNL     1      43.991 125.945  23.341  1.00  0.00     0.247 A 
ENDBRANCH  10  15
ENDBRANCH   3   5
ENDBRANCH   2   3
ENDBRANCH   1   2
BRANCH   1  24
ATOM     24  C   UNL     1      45.115 131.885  17.281  1.00  0.00     0.042 C 
BRANCH  24  25
ATOM     25  C   UNL     1      45.768 132.121  15.910  1.00  0.00     0.003 C 
BRANCH  25  26
ATOM     26  C   UNL     1      45.001 131.452  14.759  1.00  0.00    -0.000 C 
BRANCH  26  27
ATOM     27  C   UNL     1      45.934 130.807  13.722  1.00  0.00    -0.003 C 
ATOM     28  C   UNL     1      47.267 130.411  14.351  1.00  0.00     0.004 C 
ENDBRANCH  26  27
ENDBRANCH  25  26
ENDBRANCH  24  25
ENDBRANCH   1  24
TORSDOF 9
ENDMDL
MODEL 3
REMARK VINA RESULT:      -5.0      2.841      5.555
REMARK SMILES C=C[C@@H]1C[NH2+][C@H](c2ccc3ncnn3c2)N(C(=O)OCCCCCC)C1
REMARK SMILES IDX 20 1 19 2 17 3 18 4 16 5 3 6 4 7 26 8 5 9 6 10 2 13 1 14
REMARK SMILES IDX 7 15 8 16 15 17 9 18 14 19 10 20 13 21 11 22 12 23 21 24
REMARK SMILES IDX 22 25 23 26 24 27 25 28
REMARK H PARENT 5 11 5 12
ROOT
ATOM      1  C   UNL     1      47.717 134.380  21.011  1.00  0.00     0.235 C 
ENDROOT
BRANCH   1   2
ATOM      2  O   UNL     1      46.623 133.595  21.477  1.00  0.00    -0.449 OA
BRANCH   2   3
ATOM      3  C   UNL     1      46.410 132.274  21.073  1.00  0.00     0.414 C 
ATOM      4  O   UNL     1      47.378 131.583  20.649  1.00  0.00    -0.224 OA
BRANCH   3   5
ATOM      5  N   UNL     1      45.082 131.712  21.129  1.00  0.00    -0.253 N 
ATOM      6  C   UNL     1      43.321 131.375  22.818  1.00  0.00     0.086 C 
ATOM      7  C   UNL     1      42.342 131.840  21.703  1.00  0.00     0.272 C 
ATOM      8  C   UNL     1      44.661 130.869  22.256  1.00  0.00     0.143 C 
ATOM      9  N   UNL     1      42.786 131.427  20.363  1.00  0.00    -0.322 N 
ATOM     10  C   UNL     1      44.115 131.990  20.047  1.00  0.00     0.323 C 
ATOM     11  H   UNL     1      42.801 130.381  20.306  1.00  0.00     0.348 HD
ATOM     12  H   UNL     1      42.092 131.780  19.663  1.00  0.00     0.348 HD
BRANCH   6  13
ATOM     13  C   UNL     1      42.696 130.351  23.740  1.00  0.00    -0.024 C 
ATOM     14  C   UNL     1      42.451 129.090  23.362  1.00  0.00     0.004 C 
ENDBRANCH   6  13
BRANCH  10  15
ATOM     15  C   UNL     1      44.598 131.442  18.718  1.00  0.00     0.050 A 
ATOM     16  C   UNL     1      45.518 130.364  18.656  1.00  0.00     0.017 A 
ATOM     17  C   UNL     1      44.079 131.959  17.513  1.00  0.00     0.127 A 
ATOM     18  C   UNL     1      45.937 129.854  17.416  1.00  0.00     0.050 A 
ATOM     19  N   UNL     1      44.512 131.423  16.346  1.00  0.00    -0.221 N 
ATOM     20  C   UNL     1      45.399 130.428  16.269  1.00  0.00     0.155 A 
ATOM     21  N   UNL     1      44.167 131.780  15.125  1.00  0.00    -0.155 NA
ATOM     22  N   UNL     1      45.672 130.093  14.996  1.00  0.00    -0.215 NA
ATOM     23  C   UNL     1      44.881 130.963  14.315  1.00  0.00     0.247 A 
ENDBRANCH  10  15
ENDBRANCH   3   5
ENDBRANCH   2   3
ENDBRANCH   1   2
BRANCH   1  24
ATOM     24  C   UNL     1      48.632 134.740  22.182  1.00  0.00     0.042 C 
BRANCH  24  25
ATOM     25  C   UNL     1      49.467 135.992  21.870  1.00  0.00     0.003 C 
BRANCH  25  26
ATOM     26  C   UNL     1      50.040 135.990  20.445  1.00  0.00    -0.000 C 
BRANCH  26  27
ATOM     27  C   UNL     1      49.615 137.224  19.634  1.00  0.00    -0.003 C 
ATOM     28  C   UNL     1      48.744 138.158  20.469  1.00  0.00     0.004 C 
ENDBRANCH  26  27
ENDBRANCH  25  26
ENDBRANCH  24  25
ENDBRANCH   1  24
TORSDOF 9
ENDMDL
MODEL 4
REMARK VINA RESULT:      -4.9      2.895      5.483
REMARK SMILES C=C[C@@H]1C[NH2+][C@H](c2ccc3ncnn3c2)N(C(=O)OCCCCCC)C1
REMARK SMILES IDX 20 1 19 2 17 3 18 4 16 5 3 6 4 7 26 8 5 9 6 10 2 13 1 14
REMARK SMILES IDX 7 15 8 16 15 17 9 18 14 19 10 20 13 21 11 22 12 23 21 24
REMARK SMILES IDX 22 25 23 26 24 27 25 28
REMARK H PARENT 5 11 5 12
ROOT
ATOM      1  C   UNL     1      48.082 133.608  21.339  1.00  0.00     0.235 C 
ENDROOT
BRANCH   1   2
ATOM      2  O   UNL     1      46.778 133.037  21.391  1.00  0.00    -0.449 OA
BRANCH   2   3
ATOM      3  C   UNL     1      46.487 131.762  20.898  1.00  0.00     0.414 C 
ATOM      4  O   UNL     1      47.358 131.129  20.239  1.00  0.00    -0.224 OA
BRANCH   3   5
ATOM      5  N   UNL     1      45.187 131.181  21.133  1.00  0.00    -0.253 N 
ATOM      6  C   UNL     1      43.861 130.414  23.063  1.00  0.00     0.086 C 
ATOM      7  C   UNL     1      42.668 131.120  22.360  1.00  0.00     0.272 C 
ATOM      8  C   UNL     1      45.009 130.083  22.092  1.00  0.00     0.143 C 
ATOM      9  N   UNL     1      42.765 131.053  20.894  1.00  0.00    -0.322 N 
ATOM     10  C   UNL     1      44.005 131.698  20.414  1.00  0.00     0.323 C 
ATOM     11  H   UNL     1      42.722 130.053  20.586  1.00  0.00     0.348 HD
ATOM     12  H   UNL     1      41.941 131.554  20.486  1.00  0.00     0.348 HD
BRANCH   6  13
ATOM     13  C   UNL     1      43.428 129.187  23.834  1.00  0.00    -0.024 C 
ATOM     14  C   UNL     1      43.701 127.941  23.426  1.00  0.00     0.004 C 
ENDBRANCH   6  13
BRANCH  10  15
ATOM     15  C   UNL     1      44.136 131.498  18.916  1.00  0.00     0.050 A 
ATOM     16  C   UNL     1      43.200 132.061  18.012  1.00  0.00     0.017 A 
ATOM     17  C   UNL     1      45.243 130.797  18.395  1.00  0.00     0.127 A 
ATOM     18  C   UNL     1      43.349 131.885  16.627  1.00  0.00     0.050 A 
ATOM     19  N   UNL     1      45.342 130.664  17.049  1.00  0.00    -0.221 N 
ATOM     20  C   UNL     1      44.454 131.163  16.186  1.00  0.00     0.155 A 
ATOM     21  N   UNL     1      46.281 130.032  16.375  1.00  0.00    -0.155 NA
ATOM     22  N   UNL     1      44.774 130.878  14.912  1.00  0.00    -0.215 NA
ATOM     23  C   UNL     1      45.921 130.169  15.076  1.00  0.00     0.247 A 
ENDBRANCH  10  15
ENDBRANCH   3   5
ENDBRANCH   2   3
ENDBRANCH   1   2
BRANCH   1  24
ATOM     24  C   UNL     1      48.075 134.978  22.017  1.00  0.00     0.042 C 
BRANCH  24  25
ATOM     25  C   UNL     1      48.118 136.112  20.980  1.00  0.00     0.003 C 
BRANCH  25  26
ATOM     26  C   UNL     1      49.540 136.415  20.483  1.00  0.00    -0.000 C 
BRANCH  26  27
ATOM     27  C   UNL     1      50.538 136.616  21.634  1.00  0.00    -0.003 C 
ATOM     28  C   UNL     1      50.784 138.099  21.896  1.00  0.00     0.004 C 
ENDBRANCH  26  27
ENDBRANCH  25  26
ENDBRANCH  24  25
ENDBRANCH   1  24
TORSDOF 9
ENDMDL
MODEL 5
REMARK VINA RESULT:      -4.8      2.789      5.567
REMARK SMILES C=C[C@@H]1C[NH2+][C@H](c2ccc3ncnn3c2)N(C(=O)OCCCCCC)C1
REMARK SMILES IDX 20 1 19 2 17 3 18 4 16 5 3 6 4 7 26 8 5 9 6 10 2 13 1 14
REMARK SMILES IDX 7 15 8 16 15 17 9 18 14 19 10 20 13 21 11 22 12 23 21 24
REMARK SMILES IDX 22 25 23 26 24 27 25 28
REMARK H PARENT 5 11 5 12
ROOT
ATOM      1  C   UNL     1      47.430 134.324  21.611  1.00  0.00     0.235 C 
ENDROOT
BRANCH   1   2
ATOM      2  O   UNL     1      46.617 133.270  22.118  1.00  0.00    -0.449 OA
BRANCH   2   3
ATOM      3  C   UNL     1      46.243 132.162  21.351  1.00  0.00     0.414 C 
ATOM      4  O   UNL     1      47.047 131.687  20.501  1.00  0.00    -0.224 OA
BRANCH   3   5
ATOM      5  N   UNL     1      44.936 131.577  21.525  1.00  0.00    -0.253 N 
ATOM      6  C   UNL     1      43.439 130.997  23.393  1.00  0.00     0.086 C 
ATOM      7  C   UNL     1      42.309 131.586  22.502  1.00  0.00     0.272 C 
ATOM      8  C   UNL     1      44.681 130.589  22.581  1.00  0.00     0.143 C 
ATOM      9  N   UNL     1      42.552 131.357  21.069  1.00  0.00    -0.322 N 
ATOM     10  C   UNL     1      43.823 131.978  20.640  1.00  0.00     0.323 C 
ATOM     11  H   UNL     1      42.556 130.328  20.876  1.00  0.00     0.348 HD
ATOM     12  H   UNL     1      41.765 131.787  20.529  1.00  0.00     0.348 HD
BRANCH   6  13
ATOM     13  C   UNL     1      42.951 129.853  24.255  1.00  0.00    -0.024 C 
ATOM     14  C   UNL     1      42.965 128.579  23.843  1.00  0.00     0.004 C 
ENDBRANCH   6  13
BRANCH  10  15
ATOM     15  C   UNL     1      44.105 131.613  19.195  1.00  0.00     0.050 A 
ATOM     16  C   UNL     1      43.260 132.056  18.145  1.00  0.00     0.017 A 
ATOM     17  C   UNL     1      45.262 130.878  18.868  1.00  0.00     0.127 A 
ATOM     18  C   UNL     1      43.549 131.729  16.810  1.00  0.00     0.050 A 
ATOM     19  N   UNL     1      45.496 130.596  17.562  1.00  0.00    -0.221 N 
ATOM     20  C   UNL     1      44.696 130.981  16.565  1.00  0.00     0.155 A 
ATOM     21  N   UNL     1      46.501 129.908  17.060  1.00  0.00    -0.155 NA
ATOM     22  N   UNL     1      45.144 130.560  15.369  1.00  0.00    -0.215 NA
ATOM     23  C   UNL     1      46.273 129.894  15.725  1.00  0.00     0.247 A 
ENDBRANCH  10  15
ENDBRANCH   3   5
ENDBRANCH   2   3
ENDBRANCH   1   2
BRANCH   1  24
ATOM     24  C   UNL     1      48.811 134.272  22.264  1.00  0.00     0.042 C 
BRANCH  24  25
ATOM     25  C   UNL     1      49.490 135.652  22.240  1.00  0.00     0.003 C 
BRANCH  25  26
ATOM     26  C   UNL     1      49.689 136.196  20.818  1.00  0.00    -0.000 C 
BRANCH  26  27
ATOM     27  C   UNL     1      48.642 137.252  20.436  1.00  0.00    -0.003 C 
ATOM     28  C   UNL     1      48.908 137.813  19.042  1.00  0.00     0.004 C 
ENDBRANCH  26  27
ENDBRANCH  25  26
ENDBRANCH  24  25
ENDBRANCH   1  24
TORSDOF 9
ENDMDL
MODEL 6
REMARK VINA RESULT:      -3.9      3.315      7.599
REMARK SMILES C=C[C@@H]1C[NH2+][C@H](c2ccc3ncnn3c2)N(C(=O)OCCCCCC)C1
REMARK SMILES IDX 20 1 19 2 17 3 18 4 16 5 3 6 4 7 26 8 5 9 6 10 2 13 1 14
REMARK SMILES IDX 7 15 8 16 15 17 9 18 14 19 10 20 13 21 11 22 12 23 21 24
REMARK SMILES IDX 22 25 23 26 24 27 25 28
REMARK H PARENT 5 11 5 12
ROOT
ATOM      1  C   UNL     1      44.921 132.131  17.960  1.00  0.00     0.235 C 
ENDROOT
BRANCH   1   2
ATOM      2  O   UNL     1      44.118 132.493  19.080  1.00  0.00    -0.449 OA
BRANCH   2   3
ATOM      3  C   UNL     1      44.000 131.694  20.220  1.00  0.00     0.414 C 
ATOM      4  O   UNL     1      43.113 130.797  20.269  1.00  0.00    -0.224 OA
BRANCH   3   5
ATOM      5  N   UNL     1      44.883 131.908  21.341  1.00  0.00    -0.253 N 
ATOM      6  C   UNL     1      46.698 133.457  21.955  1.00  0.00     0.086 C 
ATOM      7  C   UNL     1      46.019 133.493  23.354  1.00  0.00     0.272 C 
ATOM      8  C   UNL     1      46.306 132.211  21.139  1.00  0.00     0.143 C 
ATOM      9  N   UNL     1      45.396 132.208  23.704  1.00  0.00    -0.322 N 
ATOM     10  C   UNL     1      44.358 131.835  22.720  1.00  0.00     0.323 C 
ATOM     11  H   UNL     1      46.133 131.467  23.768  1.00  0.00     0.348 HD
ATOM     12  H   UNL     1      44.950 132.305  24.647  1.00  0.00     0.348 HD
BRANCH   6  13
ATOM     13  C   UNL     1      48.202 133.599  22.043  1.00  0.00    -0.024 C 
ATOM     14  C   UNL     1      48.805 134.347  22.974  1.00  0.00     0.004 C 
ENDBRANCH   6  13
BRANCH  10  15
ATOM     15  C   UNL     1      43.829 130.450  23.039  1.00  0.00     0.050 A 
ATOM     16  C   UNL     1      44.627 129.293  22.846  1.00  0.00     0.017 A 
ATOM     17  C   UNL     1      42.545 130.300  23.601  1.00  0.00     0.127 A 
ATOM     18  C   UNL     1      44.129 128.020  23.168  1.00  0.00     0.050 A 
ATOM     19  N   UNL     1      42.118 129.048  23.900  1.00  0.00    -0.221 N 
ATOM     20  C   UNL     1      42.845 127.947  23.698  1.00  0.00     0.155 A 
ATOM     21  N   UNL     1      40.952 128.701  24.407  1.00  0.00    -0.155 NA
ATOM     22  N   UNL     1      42.186 126.833  24.064  1.00  0.00    -0.215 NA
ATOM     23  C   UNL     1      41.007 127.351  24.499  1.00  0.00     0.247 A 
ENDBRANCH  10  15
ENDBRANCH   3   5
ENDBRANCH   2   3
ENDBRANCH   1   2
BRANCH   1  24
ATOM     24  C   UNL     1      45.428 130.699  18.129  1.00  0.00     0.042 C 
BRANCH  24  25
ATOM     25  C   UNL     1      45.115 129.848  16.888  1.00  0.00     0.003 C 
BRANCH  25  26
ATOM     26  C   UNL     1      44.912 130.691  15.620  1.00  0.00    -0.000 C 
BRANCH  26  27
ATOM     27  C   UNL     1      45.896 130.323  14.499  1.00  0.00    -0.003 C 
ATOM     28  C   UNL     1      46.894 131.450  14.251  1.00  0.00     0.004 C 
ENDBRANCH  26  27
ENDBRANCH  25  26
ENDBRANCH  24  25
ENDBRANCH   1  24
TORSDOF 9
ENDMDL
MODEL 7
REMARK VINA RESULT:      -3.7      3.700      7.153
REMARK SMILES C=C[C@@H]1C[NH2+][C@H](c2ccc3ncnn3c2)N(C(=O)OCCCCCC)C1
REMARK SMILES IDX 20 1 19 2 17 3 18 4 16 5 3 6 4 7 26 8 5 9 6 10 2 13 1 14
REMARK SMILES IDX 7 15 8 16 15 17 9 18 14 19 10 20 13 21 11 22 12 23 21 24
REMARK SMILES IDX 22 25 23 26 24 27 25 28
REMARK H PARENT 5 11 5 12
ROOT
ATOM      1  C   UNL     1      44.724 130.310  19.499  1.00  0.00     0.235 C 
ENDROOT
BRANCH   1   2
ATOM      2  O   UNL     1      44.069 131.528  19.842  1.00  0.00    -0.449 OA
BRANCH   2   3
ATOM      3  C   UNL     1      43.522 131.768  21.106  1.00  0.00     0.414 C 
ATOM      4  O   UNL     1      42.275 131.913  21.233  1.00  0.00    -0.224 OA
BRANCH   3   5
ATOM      5  N   UNL     1      44.389 131.861  22.256  1.00  0.00    -0.253 N 
ATOM      6  C   UNL     1      45.885 133.533  23.274  1.00  0.00     0.086 C 
ATOM      7  C   UNL     1      45.267 133.074  24.625  1.00  0.00     0.272 C 
ATOM      8  C   UNL     1      45.715 132.485  22.159  1.00  0.00     0.143 C 
ATOM      9  N   UNL     1      44.923 131.644  24.624  1.00  0.00    -0.322 N 
ATOM     10  C   UNL     1      43.943 131.334  23.562  1.00  0.00     0.323 C 
ATOM     11  H   UNL     1      45.794 131.075  24.504  1.00  0.00     0.348 HD
ATOM     12  H   UNL     1      44.505 131.406  25.553  1.00  0.00     0.348 HD
BRANCH   6  13
ATOM     13  C   UNL     1      47.333 133.947  23.416  1.00  0.00    -0.024 C 
ATOM     14  C   UNL     1      48.103 134.259  22.367  1.00  0.00     0.004 C 
ENDBRANCH   6  13
BRANCH  10  15
ATOM     15  C   UNL     1      43.710 129.837  23.506  1.00  0.00     0.050 A 
ATOM     16  C   UNL     1      42.470 129.268  23.897  1.00  0.00     0.017 A 
ATOM     17  C   UNL     1      44.711 128.988  22.993  1.00  0.00     0.127 A 
ATOM     18  C   UNL     1      42.264 127.882  23.816  1.00  0.00     0.050 A 
ATOM     19  N   UNL     1      44.455 127.658  22.930  1.00  0.00    -0.221 N 
ATOM     20  C   UNL     1      43.305 127.104  23.321  1.00  0.00     0.155 A 
ATOM     21  N   UNL     1      45.262 126.707  22.506  1.00  0.00    -0.155 NA
ATOM     22  N   UNL     1      43.312 125.768  23.170  1.00  0.00    -0.215 NA
ATOM     23  C   UNL     1      44.554 125.563  22.660  1.00  0.00     0.247 A 
ENDBRANCH  10  15
ENDBRANCH   3   5
ENDBRANCH   2   3
ENDBRANCH   1   2
BRANCH   1  24
ATOM     24  C   UNL     1      45.668 130.543  18.320  1.00  0.00     0.042 C 
BRANCH  24  25
ATOM     25  C   UNL     1      45.373 131.885  17.628  1.00  0.00     0.003 C 
BRANCH  25  26
ATOM     26  C   UNL     1      45.144 131.741  16.116  1.00  0.00    -0.000 C 
BRANCH  26  27
ATOM     27  C   UNL     1      45.144 130.275  15.654  1.00  0.00    -0.003 C 
ATOM     28  C   UNL     1      46.549 129.819  15.273  1.00  0.00     0.004 C 
ENDBRANCH  26  27
ENDBRANCH  25  26
ENDBRANCH  24  25
ENDBRANCH   1  24
TORSDOF 9
ENDMDL
MODEL 8
REMARK VINA RESULT:      -3.6      2.767      5.095
REMARK SMILES C=C[C@@H]1C[NH2+][C@H](c2ccc3ncnn3c2)N(C(=O)OCCCCCC)C1
REMARK SMILES IDX 20 1 19 2 17 3 18 4 16 5 3 6 4 7 26 8 5 9 6 10 2 13 1 14
REMARK SMILES IDX 7 15 8 16 15 17 9 18 14 19 10 20 13 21 11 22 12 23 21 24
REMARK SMILES IDX 22 25 23 26 24 27 25 28
REMARK H PARENT 5 11 5 12
ROOT
ATOM      1  C   UNL     1      47.138 134.053  22.377  1.00  0.00     0.235 C 
ENDROOT
BRANCH   1   2
ATOM      2  O   UNL     1      46.813 133.540  21.088  1.00  0.00    -0.449 OA
BRANCH   2   3
ATOM      3  C   UNL     1      46.692 132.173  20.822  1.00  0.00     0.414 C 
ATOM      4  O   UNL     1      47.727 131.477  20.630  1.00  0.00    -0.224 OA
BRANCH   3   5
ATOM      5  N   UNL     1      45.384 131.568  20.755  1.00  0.00    -0.253 N 
ATOM      6  C   UNL     1      43.613 130.889  22.328  1.00  0.00     0.086 C 
ATOM      7  C   UNL     1      42.633 131.508  21.290  1.00  0.00     0.272 C 
ATOM      8  C   UNL     1      44.978 130.531  21.713  1.00  0.00     0.143 C 
ATOM      9  N   UNL     1      43.110 131.346  19.908  1.00  0.00    -0.322 N 
ATOM     10  C   UNL     1      44.422 131.997  19.719  1.00  0.00     0.323 C 
ATOM     11  H   UNL     1      43.162 130.327  19.673  1.00  0.00     0.348 HD
ATOM     12  H   UNL     1      42.413 131.792  19.266  1.00  0.00     0.348 HD
BRANCH   6  13
ATOM     13  C   UNL     1      43.011 129.703  23.048  1.00  0.00    -0.024 C 
ATOM     14  C   UNL     1      42.061 129.828  23.983  1.00  0.00     0.004 C 
ENDBRANCH   6  13
BRANCH  10  15
ATOM     15  C   UNL     1      44.942 131.702  18.325  1.00  0.00     0.050 A 
ATOM     16  C   UNL     1      45.117 132.735  17.369  1.00  0.00     0.017 A 
ATOM     17  C   UNL     1      45.325 130.390  17.981  1.00  0.00     0.127 A 
ATOM     18  C   UNL     1      45.620 132.447  16.090  1.00  0.00     0.050 A 
ATOM     19  N   UNL     1      45.813 130.170  16.735  1.00  0.00    -0.221 N 
ATOM     20  C   UNL     1      45.957 131.126  15.815  1.00  0.00     0.155 A 
ATOM     21  N   UNL     1      46.202 129.021  16.220  1.00  0.00    -0.155 NA
ATOM     22  N   UNL     1      46.445 130.642  14.658  1.00  0.00    -0.215 NA
ATOM     23  C   UNL     1      46.582 129.324  14.956  1.00  0.00     0.247 A 
ENDBRANCH  10  15
ENDBRANCH   3   5
ENDBRANCH   2   3
ENDBRANCH   1   2
BRANCH   1  24
ATOM     24  C   UNL     1      48.635 134.351  22.452  1.00  0.00     0.042 C 
BRANCH  24  25
ATOM     25  C   UNL     1      49.159 134.208  23.891  1.00  0.00     0.003 C 
BRANCH  25  26
ATOM     26  C   UNL     1      50.336 133.228  24.005  1.00  0.00    -0.000 C 
BRANCH  26  27
ATOM     27  C   UNL     1      51.691 133.943  24.129  1.00  0.00    -0.003 C 
ATOM     28  C   UNL     1      51.528 135.456  24.015  1.00  0.00     0.004 C 
ENDBRANCH  26  27
ENDBRANCH  25  26
ENDBRANCH  24  25
ENDBRANCH   1  24
TORSDOF 9
ENDMDL
MODEL 9
REMARK VINA RESULT:      -3.4      3.156      7.723
REMARK SMILES C=C[C@@H]1C[NH2+][C@H](c2ccc3ncnn3c2)N(C(=O)OCCCCCC)C1
REMARK SMILES IDX 20 1 19 2 17 3 18 4 16 5 3 6 4 7 26 8 5 9 6 10 2 13 1 14
REMARK SMILES IDX 7 15 8 16 15 17 9 18 14 19 10 20 13 21 11 22 12 23 21 24
REMARK SMILES IDX 22 25 23 26 24 27 25 28
REMARK H PARENT 5 11 5 12
ROOT
ATOM      1  C   UNL     1      45.748 130.941  17.214  1.00  0.00     0.235 C 
ENDROOT
BRANCH   1   2
ATOM      2  O   UNL     1      45.094 131.179  18.457  1.00  0.00    -0.449 OA
BRANCH   2   3
ATOM      3  C   UNL     1      45.408 130.480  19.627  1.00  0.00     0.414 C 
ATOM      4  O   UNL     1      45.408 129.218  19.624  1.00  0.00    -0.224 OA
BRANCH   3   5
ATOM      5  N   UNL     1      45.716 131.207  20.835  1.00  0.00    -0.253 N 
ATOM      6  C   UNL     1      46.960 133.236  21.468  1.00  0.00     0.086 C 
ATOM      7  C   UNL     1      45.757 133.524  22.410  1.00  0.00     0.272 C 
ATOM      8  C   UNL     1      47.059 131.752  21.071  1.00  0.00     0.143 C 
ATOM      9  N   UNL     1      45.160 132.291  22.945  1.00  0.00    -0.322 N 
ATOM     10  C   UNL     1      44.670 131.422  21.856  1.00  0.00     0.323 C 
ATOM     11  H   UNL     1      45.865 131.788  23.534  1.00  0.00     0.348 HD
ATOM     12  H   UNL     1      44.354 132.555  23.559  1.00  0.00     0.348 HD
BRANCH   6  13
ATOM     13  C   UNL     1      48.269 133.735  22.041  1.00  0.00    -0.024 C 
ATOM     14  C   UNL     1      48.338 134.738  22.924  1.00  0.00     0.004 C 
ENDBRANCH   6  13
BRANCH  10  15
ATOM     15  C   UNL     1      44.180 130.108  22.433  1.00  0.00     0.050 A 
ATOM     16  C   UNL     1      45.054 129.003  22.594  1.00  0.00     0.017 A 
ATOM     17  C   UNL     1      42.850 129.990  22.885  1.00  0.00     0.127 A 
ATOM     18  C   UNL     1      44.590 127.800  23.152  1.00  0.00     0.050 A 
ATOM     19  N   UNL     1      42.458 128.809  23.423  1.00  0.00    -0.221 N 
ATOM     20  C   UNL     1      43.260 127.750  23.555  1.00  0.00     0.155 A 
ATOM     21  N   UNL     1      41.262 128.496  23.879  1.00  0.00    -0.155 NA
ATOM     22  N   UNL     1      42.622 126.700  24.102  1.00  0.00    -0.215 NA
ATOM     23  C   UNL     1      41.377 127.210  24.287  1.00  0.00     0.247 A 
ENDBRANCH  10  15
ENDBRANCH   3   5
ENDBRANCH   2   3
ENDBRANCH   1   2
BRANCH   1  24
ATOM     24  C   UNL     1      45.475 132.099  16.255  1.00  0.00     0.042 C 
BRANCH  24  25
ATOM     25  C   UNL     1      46.273 131.942  14.951  1.00  0.00     0.003 C 
BRANCH  25  26
ATOM     26  C   UNL     1      45.900 130.673  14.170  1.00  0.00    -0.000 C 
BRANCH  26  27
ATOM     27  C   UNL     1      47.032 129.635  14.150  1.00  0.00    -0.003 C 
ATOM     28  C   UNL     1      48.225 130.139  13.342  1.00  0.00     0.004 C 
ENDBRANCH  26  27
ENDBRANCH  25  26
ENDBRANCH  24  25
ENDBRANCH   1  24
TORSDOF 9
ENDMDL


