MODEL 1
REMARK VINA RESULT:      -8.9      0.000      0.000
REMARK SMILES O=C=Nc1c(C(=O)NCc2ccc[nH]2)ccc2cc[nH]c12
REMARK SMILES IDX 15 1 5 2 4 3 21 4 17 5 16 6 18 7 19 8 20 9 6 11 8 12 7 13
REMARK SMILES IDX 9 15 10 16 11 17 14 18 12 19 13 20 3 22 2 23 1 24
REMARK H PARENT 20 10 8 14 14 21
ROOT
ATOM      1  C   UNL     1      45.668 130.538  19.233  1.00  0.00     0.017 A 
ATOM      2  C   UNL     1      44.529 131.271  18.814  1.00  0.00     0.068 A 
ATOM      3  C   UNL     1      43.530 131.637  19.758  1.00  0.00     0.113 A 
ATOM      4  C   UNL     1      43.695 131.179  21.086  1.00  0.00     0.073 A 
ATOM      5  C   UNL     1      44.801 130.456  21.459  1.00  0.00     0.002 A 
ATOM      6  C   UNL     1      45.811 130.125  20.565  1.00  0.00     0.011 A 
ATOM      7  C   UNL     1      44.669 130.136  22.792  1.00  0.00     0.028 A 
ATOM      8  C   UNL     1      43.451 130.680  23.175  1.00  0.00     0.083 A 
ATOM      9  N   UNL     1      42.859 131.309  22.136  1.00  0.00    -0.359 N 
ATOM     10  H   UNL     1      41.918 131.755  22.167  1.00  0.00     0.166 HD
ENDROOT
BRANCH   2  11
ATOM     11  C   UNL     1      44.431 131.679  17.394  1.00  0.00     0.253 C 
ATOM     12  N   UNL     1      45.610 131.993  16.640  1.00  0.00    -0.346 N 
ATOM     13  O   UNL     1      43.295 131.773  16.853  1.00  0.00    -0.269 OA
ATOM     14  H   UNL     1      46.507 132.181  17.143  1.00  0.00     0.164 HD
BRANCH  12  15
ATOM     15  C   UNL     1      45.612 132.034  15.181  1.00  0.00     0.170 C 
BRANCH  15  16
ATOM     16  C   UNL     1      46.627 131.071  14.648  1.00  0.00     0.034 A 
ATOM     17  C   UNL     1      47.256 131.160  13.421  1.00  0.00     0.025 A 
ATOM     18  N   UNL     1      46.989 129.939  15.279  1.00  0.00    -0.364 N 
ATOM     19  C   UNL     1      48.045 130.032  13.313  1.00  0.00     0.020 A 
ATOM     20  C   UNL     1      47.856 129.303  14.471  1.00  0.00     0.082 A 
ATOM     21  H   UNL     1      46.650 129.606  16.210  1.00  0.00     0.166 HD
ENDBRANCH  15  16
ENDBRANCH  12  15
ENDBRANCH   2  11
BRANCH   3  22
ATOM     22  N   UNL     1      42.442 132.482  19.343  1.00  0.00    -0.165 NA
BRANCH  22  23
ATOM     23  C   UNL     1      41.619 133.053  20.127  1.00  0.00     0.240 C 
ATOM     24  O   UNL     1      40.817 133.604  20.892  1.00  0.00    -0.211 OA
ENDBRANCH  22  23
ENDBRANCH   3  22
TORSDOF 5
ENDMDL
MODEL 2
REMARK VINA RESULT:      -7.4      1.340      1.341
REMARK SMILES O=C=Nc1c(C(=O)NCc2ccc[nH]2)ccc2cc[nH]c12
REMARK SMILES IDX 15 1 5 2 4 3 21 4 17 5 16 6 18 7 19 8 20 9 6 11 8 12 7 13
REMARK SMILES IDX 9 15 10 16 11 17 14 18 12 19 13 20 3 22 2 23 1 24
REMARK H PARENT 20 10 8 14 14 21
ROOT
ATOM      1  C   UNL     1      46.110 130.575  19.581  1.00  0.00     0.017 A 
ATOM      2  C   UNL     1      45.051 131.093  18.794  1.00  0.00     0.068 A 
ATOM      3  C   UNL     1      43.868 131.573  19.420  1.00  0.00     0.113 A 
ATOM      4  C   UNL     1      43.779 131.442  20.825  1.00  0.00     0.073 A 
ATOM      5  C   UNL     1      44.814 130.919  21.560  1.00  0.00     0.002 A 
ATOM      6  C   UNL     1      45.997 130.486  20.975  1.00  0.00     0.011 A 
ATOM      7  C   UNL     1      44.428 130.897  22.882  1.00  0.00     0.028 A 
ATOM      8  C   UNL     1      43.137 131.405  22.889  1.00  0.00     0.083 A 
ATOM      9  N   UNL     1      42.742 131.731  21.639  1.00  0.00    -0.359 N 
ATOM     10  H   UNL     1      41.797 132.089  21.386  1.00  0.00     0.166 HD
ENDROOT
BRANCH   2  11
ATOM     11  C   UNL     1      45.225 131.161  17.326  1.00  0.00     0.253 C 
ATOM     12  N   UNL     1      45.222 129.965  16.532  1.00  0.00    -0.346 N 
ATOM     13  O   UNL     1      45.402 132.281  16.773  1.00  0.00    -0.269 OA
ATOM     14  H   UNL     1      45.351 129.040  16.999  1.00  0.00     0.164 HD
BRANCH  12  15
ATOM     15  C   UNL     1      45.017 129.992  15.088  1.00  0.00     0.170 C 
BRANCH  15  16
ATOM     16  C   UNL     1      46.337 130.079  14.389  1.00  0.00     0.034 A 
ATOM     17  C   UNL     1      46.719 131.074  13.509  1.00  0.00     0.025 A 
ATOM     18  N   UNL     1      47.293 129.136  14.472  1.00  0.00    -0.364 N 
ATOM     19  C   UNL     1      47.971 130.718  13.049  1.00  0.00     0.020 A 
ATOM     20  C   UNL     1      48.294 129.522  13.661  1.00  0.00     0.082 A 
ATOM     21  H   UNL     1      47.260 128.262  15.044  1.00  0.00     0.166 HD
ENDBRANCH  15  16
ENDBRANCH  12  15
ENDBRANCH   2  11
BRANCH   3  22
ATOM     22  N   UNL     1      42.852 132.205  18.620  1.00  0.00    -0.165 NA
BRANCH  22  23
ATOM     23  C   UNL     1      41.646 131.813  18.524  1.00  0.00     0.240 C 
ATOM     24  O   UNL     1      40.471 131.436  18.431  1.00  0.00    -0.211 OA
ENDBRANCH  22  23
ENDBRANCH   3  22
TORSDOF 5
ENDMDL
MODEL 3
REMARK VINA RESULT:      -7.3      1.932      6.847
REMARK SMILES O=C=Nc1c(C(=O)NCc2ccc[nH]2)ccc2cc[nH]c12
REMARK SMILES IDX 15 1 5 2 4 3 21 4 17 5 16 6 18 7 19 8 20 9 6 11 8 12 7 13
REMARK SMILES IDX 9 15 10 16 11 17 14 18 12 19 13 20 3 22 2 23 1 24
REMARK H PARENT 20 10 8 14 14 21
ROOT
ATOM      1  C   UNL     1      43.277 131.839  16.797  1.00  0.00     0.017 A 
ATOM      2  C   UNL     1      43.833 131.484  18.052  1.00  0.00     0.068 A 
ATOM      3  C   UNL     1      45.104 130.848  18.114  1.00  0.00     0.113 A 
ATOM      4  C   UNL     1      45.730 130.532  16.886  1.00  0.00     0.073 A 
ATOM      5  C   UNL     1      45.159 130.873  15.685  1.00  0.00     0.002 A 
ATOM      6  C   UNL     1      43.941 131.534  15.601  1.00  0.00     0.011 A 
ATOM      7  C   UNL     1      45.982 130.417  14.679  1.00  0.00     0.028 A 
ATOM      8  C   UNL     1      47.035 129.791  15.330  1.00  0.00     0.083 A 
ATOM      9  N   UNL     1      46.879 129.857  16.670  1.00  0.00    -0.359 N 
ATOM     10  H   UNL     1      47.516 129.420  17.368  1.00  0.00     0.166 HD
ENDROOT
BRANCH   2  11
ATOM     11  C   UNL     1      43.087 131.830  19.283  1.00  0.00     0.253 C 
ATOM     12  N   UNL     1      43.258 131.060  20.483  1.00  0.00    -0.346 N 
ATOM     13  O   UNL     1      42.275 132.795  19.266  1.00  0.00    -0.269 OA
ATOM     14  H   UNL     1      43.706 130.118  20.428  1.00  0.00     0.164 HD
BRANCH  12  15
ATOM     15  C   UNL     1      42.853 131.561  21.792  1.00  0.00     0.170 C 
BRANCH  15  16
ATOM     16  C   UNL     1      43.093 130.513  22.833  1.00  0.00     0.034 A 
ATOM     17  C   UNL     1      44.266 129.803  23.006  1.00  0.00     0.025 A 
ATOM     18  N   UNL     1      42.148 130.072  23.683  1.00  0.00    -0.364 N 
ATOM     19  C   UNL     1      44.019 128.898  24.019  1.00  0.00     0.020 A 
ATOM     20  C   UNL     1      42.709 129.089  24.412  1.00  0.00     0.082 A 
ATOM     21  H   UNL     1      41.163 130.412  23.755  1.00  0.00     0.166 HD
ENDBRANCH  15  16
ENDBRANCH  12  15
ENDBRANCH   2  11
BRANCH   3  22
ATOM     22  N   UNL     1      45.709 130.602  19.396  1.00  0.00    -0.165 NA
BRANCH  22  23
ATOM     23  C   UNL     1      46.006 131.498  20.249  1.00  0.00     0.240 C 
ATOM     24  O   UNL     1      46.293 132.366  21.083  1.00  0.00    -0.211 OA
ENDBRANCH  22  23
ENDBRANCH   3  22
TORSDOF 5
ENDMDL
MODEL 4
REMARK VINA RESULT:      -7.3      1.694      6.824
REMARK SMILES O=C=Nc1c(C(=O)NCc2ccc[nH]2)ccc2cc[nH]c12
REMARK SMILES IDX 15 1 5 2 4 3 21 4 17 5 16 6 18 7 19 8 20 9 6 11 8 12 7 13
REMARK SMILES IDX 9 15 10 16 11 17 14 18 12 19 13 20 3 22 2 23 1 24
REMARK H PARENT 20 10 8 14 14 21
ROOT
ATOM      1  C   UNL     1      43.666 131.894  15.956  1.00  0.00     0.017 A 
ATOM      2  C   UNL     1      44.000 131.342  17.218  1.00  0.00     0.068 A 
ATOM      3  C   UNL     1      45.205 130.602  17.376  1.00  0.00     0.113 A 
ATOM      4  C   UNL     1      45.992 130.392  16.219  1.00  0.00     0.073 A 
ATOM      5  C   UNL     1      45.633 130.924  15.006  1.00  0.00     0.002 A 
ATOM      6  C   UNL     1      44.485 131.687  14.838  1.00  0.00     0.011 A 
ATOM      7  C   UNL     1      46.571 130.532  14.076  1.00  0.00     0.028 A 
ATOM      8  C   UNL     1      47.471 129.746  14.781  1.00  0.00     0.083 A 
ATOM      9  N   UNL     1      47.116 129.658  16.082  1.00  0.00    -0.359 N 
ATOM     10  H   UNL     1      47.611 129.088  16.799  1.00  0.00     0.166 HD
ENDROOT
BRANCH   2  11
ATOM     11  C   UNL     1      43.097 131.591  18.364  1.00  0.00     0.253 C 
ATOM     12  N   UNL     1      43.614 131.660  19.702  1.00  0.00    -0.346 N 
ATOM     13  O   UNL     1      41.859 131.720  18.162  1.00  0.00    -0.269 OA
ATOM     14  H   UNL     1      44.570 131.290  19.901  1.00  0.00     0.164 HD
BRANCH  12  15
ATOM     15  C   UNL     1      42.858 132.259  20.797  1.00  0.00     0.170 C 
BRANCH  15  16
ATOM     16  C   UNL     1      43.068 131.468  22.050  1.00  0.00     0.034 A 
ATOM     17  C   UNL     1      43.966 131.771  23.054  1.00  0.00     0.025 A 
ATOM     18  N   UNL     1      42.453 130.299  22.309  1.00  0.00    -0.364 N 
ATOM     19  C   UNL     1      43.880 130.741  23.970  1.00  0.00     0.020 A 
ATOM     20  C   UNL     1      42.941 129.854  23.480  1.00  0.00     0.082 A 
ATOM     21  H   UNL     1      41.744 129.819  21.710  1.00  0.00     0.166 HD
ENDBRANCH  15  16
ENDBRANCH  12  15
ENDBRANCH   2  11
BRANCH   3  22
ATOM     22  N   UNL     1      45.591 130.152  18.687  1.00  0.00    -0.165 NA
BRANCH  22  23
ATOM     23  C   UNL     1      46.065 130.893  19.606  1.00  0.00     0.240 C 
ATOM     24  O   UNL     1      46.525 131.619  20.495  1.00  0.00    -0.211 OA
ENDBRANCH  22  23
ENDBRANCH   3  22
TORSDOF 5
ENDMDL
MODEL 5
REMARK VINA RESULT:      -6.7      1.206      1.440
REMARK SMILES O=C=Nc1c(C(=O)NCc2ccc[nH]2)ccc2cc[nH]c12
REMARK SMILES IDX 15 1 5 2 4 3 21 4 17 5 16 6 18 7 19 8 20 9 6 11 8 12 7 13
REMARK SMILES IDX 9 15 10 16 11 17 14 18 12 19 13 20 3 22 2 23 1 24
REMARK H PARENT 20 10 8 14 14 21
ROOT
ATOM      1  C   UNL     1      45.570 129.916  20.495  1.00  0.00     0.017 A 
ATOM      2  C   UNL     1      44.704 130.796  19.798  1.00  0.00     0.068 A 
ATOM      3  C   UNL     1      43.624 131.421  20.480  1.00  0.00     0.113 A 
ATOM      4  C   UNL     1      43.422 131.070  21.834  1.00  0.00     0.073 A 
ATOM      5  C   UNL     1      44.267 130.200  22.479  1.00  0.00     0.002 A 
ATOM      6  C   UNL     1      45.354 129.612  21.846  1.00  0.00     0.011 A 
ATOM      7  C   UNL     1      43.806 130.037  23.767  1.00  0.00     0.028 A 
ATOM      8  C   UNL     1      42.665 130.822  23.844  1.00  0.00     0.083 A 
ATOM      9  N   UNL     1      42.430 131.445  22.668  1.00  0.00    -0.359 N 
ATOM     10  H   UNL     1      41.608 132.052  22.468  1.00  0.00     0.166 HD
ENDROOT
BRANCH   2  11
ATOM     11  C   UNL     1      44.978 131.079  18.371  1.00  0.00     0.253 C 
ATOM     12  N   UNL     1      43.909 131.121  17.415  1.00  0.00    -0.346 N 
ATOM     13  O   UNL     1      46.167 131.259  17.991  1.00  0.00    -0.269 OA
ATOM     14  H   UNL     1      42.981 130.711  17.665  1.00  0.00     0.164 HD
BRANCH  12  15
ATOM     15  C   UNL     1      44.060 131.747  16.106  1.00  0.00     0.170 C 
BRANCH  15  16
ATOM     16  C   UNL     1      45.226 131.144  15.387  1.00  0.00     0.034 A 
ATOM     17  C   UNL     1      46.235 131.846  14.754  1.00  0.00     0.025 A 
ATOM     18  N   UNL     1      45.385 129.821  15.196  1.00  0.00    -0.364 N 
ATOM     19  C   UNL     1      47.048 130.899  14.164  1.00  0.00     0.020 A 
ATOM     20  C   UNL     1      46.497 129.666  14.455  1.00  0.00     0.082 A 
ATOM     21  H   UNL     1      44.759 129.060  15.542  1.00  0.00     0.166 HD
ENDBRANCH  15  16
ENDBRANCH  12  15
ENDBRANCH   2  11
BRANCH   3  22
ATOM     22  N   UNL     1      42.828 132.403  19.791  1.00  0.00    -0.165 NA
BRANCH  22  23
ATOM     23  C   UNL     1      41.834 133.021  20.291  1.00  0.00     0.240 C 
ATOM     24  O   UNL     1      40.871 133.621  20.783  1.00  0.00    -0.211 OA
ENDBRANCH  22  23
ENDBRANCH   3  22
TORSDOF 5
ENDMDL
MODEL 6
REMARK VINA RESULT:      -6.6      2.122      7.034
REMARK SMILES O=C=Nc1c(C(=O)NCc2ccc[nH]2)ccc2cc[nH]c12
REMARK SMILES IDX 15 1 5 2 4 3 21 4 17 5 16 6 18 7 19 8 20 9 6 11 8 12 7 13
REMARK SMILES IDX 9 15 10 16 11 17 14 18 12 19 13 20 3 22 2 23 1 24
REMARK H PARENT 20 10 8 14 14 21
ROOT
ATOM      1  C   UNL     1      43.030 131.908  17.458  1.00  0.00     0.017 A 
ATOM      2  C   UNL     1      43.765 131.637  18.639  1.00  0.00     0.068 A 
ATOM      3  C   UNL     1      45.080 131.102  18.553  1.00  0.00     0.113 A 
ATOM      4  C   UNL     1      45.572 130.796  17.263  1.00  0.00     0.073 A 
ATOM      5  C   UNL     1      44.829 131.054  16.137  1.00  0.00     0.002 A 
ATOM      6  C   UNL     1      43.561 131.617  16.194  1.00  0.00     0.011 A 
ATOM      7  C   UNL     1      45.554 130.631  15.044  1.00  0.00     0.028 A 
ATOM      8  C   UNL     1      46.727 130.108  15.570  1.00  0.00     0.083 A 
ATOM      9  N   UNL     1      46.735 130.205  16.917  1.00  0.00    -0.359 N 
ATOM     10  H   UNL     1      47.487 129.840  17.538  1.00  0.00     0.166 HD
ENDROOT
BRANCH   2  11
ATOM     11  C   UNL     1      43.153 131.963  19.947  1.00  0.00     0.253 C 
ATOM     12  N   UNL     1      42.922 130.936  20.923  1.00  0.00    -0.346 N 
ATOM     13  O   UNL     1      42.811 133.152  20.193  1.00  0.00    -0.269 OA
ATOM     14  H   UNL     1      42.947 129.934  20.628  1.00  0.00     0.164 HD
BRANCH  12  15
ATOM     15  C   UNL     1      42.680 131.241  22.329  1.00  0.00     0.170 C 
BRANCH  15  16
ATOM     16  C   UNL     1      42.864 130.006  23.155  1.00  0.00     0.034 A 
ATOM     17  C   UNL     1      41.925 129.458  24.007  1.00  0.00     0.025 A 
ATOM     18  N   UNL     1      44.020 129.321  23.229  1.00  0.00    -0.364 N 
ATOM     19  C   UNL     1      42.541 128.382  24.615  1.00  0.00     0.020 A 
ATOM     20  C   UNL     1      43.827 128.327  24.115  1.00  0.00     0.082 A 
ATOM     21  H   UNL     1      44.904 129.528  22.713  1.00  0.00     0.166 HD
ENDBRANCH  15  16
ENDBRANCH  12  15
ENDBRANCH   2  11
BRANCH   3  22
ATOM     22  N   UNL     1      45.859 130.945  19.753  1.00  0.00    -0.165 NA
BRANCH  22  23
ATOM     23  C   UNL     1      45.925 129.881  20.448  1.00  0.00     0.240 C 
ATOM     24  O   UNL     1      45.985 128.845  21.120  1.00  0.00    -0.211 OA
ENDBRANCH  22  23
ENDBRANCH   3  22
TORSDOF 5
ENDMDL
MODEL 7
REMARK VINA RESULT:      -6.6      2.223      6.426
REMARK SMILES O=C=Nc1c(C(=O)NCc2ccc[nH]2)ccc2cc[nH]c12
REMARK SMILES IDX 15 1 5 2 4 3 21 4 17 5 16 6 18 7 19 8 20 9 6 11 8 12 7 13
REMARK SMILES IDX 9 15 10 16 11 17 14 18 12 19 13 20 3 22 2 23 1 24
REMARK H PARENT 20 10 8 14 14 21
ROOT
ATOM      1  C   UNL     1      46.300 130.061  18.237  1.00  0.00     0.017 A 
ATOM      2  C   UNL     1      45.366 130.926  18.862  1.00  0.00     0.068 A 
ATOM      3  C   UNL     1      44.377 131.589  18.083  1.00  0.00     0.113 A 
ATOM      4  C   UNL     1      44.423 131.401  16.683  1.00  0.00     0.073 A 
ATOM      5  C   UNL     1      45.350 130.571  16.104  1.00  0.00     0.002 A 
ATOM      6  C   UNL     1      46.297 129.878  16.848  1.00  0.00     0.011 A 
ATOM      7  C   UNL     1      45.163 130.610  14.740  1.00  0.00     0.028 A 
ATOM      8  C   UNL     1      44.113 131.495  14.545  1.00  0.00     0.083 A 
ATOM      9  N   UNL     1      43.667 131.979  15.726  1.00  0.00    -0.359 N 
ATOM     10  H   UNL     1      42.917 132.693  15.833  1.00  0.00     0.166 HD
ENDROOT
BRANCH   2  11
ATOM     11  C   UNL     1      45.418 131.083  20.333  1.00  0.00     0.253 C 
ATOM     12  N   UNL     1      44.324 130.647  21.154  1.00  0.00    -0.346 N 
ATOM     13  O   UNL     1      46.424 131.627  20.864  1.00  0.00    -0.269 OA
ATOM     14  H   UNL     1      43.397 130.454  20.713  1.00  0.00     0.164 HD
BRANCH  12  15
ATOM     15  C   UNL     1      44.467 130.434  22.591  1.00  0.00     0.170 C 
BRANCH  15  16
ATOM     16  C   UNL     1      44.275 128.984  22.910  1.00  0.00     0.034 A 
ATOM     17  C   UNL     1      45.091 127.951  22.490  1.00  0.00     0.025 A 
ATOM     18  N   UNL     1      43.217 128.500  23.586  1.00  0.00    -0.364 N 
ATOM     19  C   UNL     1      44.502 126.789  22.945  1.00  0.00     0.020 A 
ATOM     20  C   UNL     1      43.353 127.162  23.615  1.00  0.00     0.082 A 
ATOM     21  H   UNL     1      42.432 129.053  23.997  1.00  0.00     0.166 HD
ENDBRANCH  15  16
ENDBRANCH  12  15
ENDBRANCH   2  11
BRANCH   3  22
ATOM     22  N   UNL     1      43.363 132.367  18.744  1.00  0.00    -0.165 NA
BRANCH  22  23
ATOM     23  C   UNL     1      42.141 132.031  18.857  1.00  0.00     0.240 C 
ATOM     24  O   UNL     1      40.952 131.706  18.961  1.00  0.00    -0.211 OA
ENDBRANCH  22  23
ENDBRANCH   3  22
TORSDOF 5
ENDMDL
MODEL 8
REMARK VINA RESULT:      -6.5      2.088      6.338
REMARK SMILES O=C=Nc1c(C(=O)NCc2ccc[nH]2)ccc2cc[nH]c12
REMARK SMILES IDX 15 1 5 2 4 3 21 4 17 5 16 6 18 7 19 8 20 9 6 11 8 12 7 13
REMARK SMILES IDX 9 15 10 16 11 17 14 18 12 19 13 20 3 22 2 23 1 24
REMARK H PARENT 20 10 8 14 14 21
ROOT
ATOM      1  C   UNL     1      46.347 129.889  17.641  1.00  0.00     0.017 A 
ATOM      2  C   UNL     1      45.500 130.716  18.420  1.00  0.00     0.068 A 
ATOM      3  C   UNL     1      44.456 131.454  17.797  1.00  0.00     0.113 A 
ATOM      4  C   UNL     1      44.359 131.377  16.389  1.00  0.00     0.073 A 
ATOM      5  C   UNL     1      45.206 130.581  15.658  1.00  0.00     0.002 A 
ATOM      6  C   UNL     1      46.204 129.817  16.249  1.00  0.00     0.011 A 
ATOM      7  C   UNL     1      44.887 130.731  14.327  1.00  0.00     0.028 A 
ATOM      8  C   UNL     1      43.844 131.646  14.306  1.00  0.00     0.083 A 
ATOM      9  N   UNL     1      43.528 132.042  15.559  1.00  0.00    -0.359 N 
ATOM     10  H   UNL     1      42.808 132.757  15.796  1.00  0.00     0.166 HD
ENDROOT
BRANCH   2  11
ATOM     11  C   UNL     1      45.698 130.755  19.887  1.00  0.00     0.253 C 
ATOM     12  N   UNL     1      45.536 131.981  20.615  1.00  0.00    -0.346 N 
ATOM     13  O   UNL     1      46.037 129.703  20.495  1.00  0.00    -0.269 OA
ATOM     14  H   UNL     1      45.528 132.888  20.096  1.00  0.00     0.164 HD
BRANCH  12  15
ATOM     15  C   UNL     1      45.353 132.008  22.062  1.00  0.00     0.170 C 
BRANCH  15  16
ATOM     16  C   UNL     1      44.334 130.988  22.463  1.00  0.00     0.034 A 
ATOM     17  C   UNL     1      42.964 131.125  22.342  1.00  0.00     0.025 A 
ATOM     18  N   UNL     1      44.635 129.830  23.079  1.00  0.00    -0.364 N 
ATOM     19  C   UNL     1      42.414 129.989  22.901  1.00  0.00     0.020 A 
ATOM     20  C   UNL     1      43.469 129.215  23.345  1.00  0.00     0.082 A 
ATOM     21  H   UNL     1      45.590 129.481  23.321  1.00  0.00     0.166 HD
ENDBRANCH  15  16
ENDBRANCH  12  15
ENDBRANCH   2  11
BRANCH   3  22
ATOM     22  N   UNL     1      43.529 132.193  18.614  1.00  0.00    -0.165 NA
BRANCH  22  23
ATOM     23  C   UNL     1      42.302 131.900  18.777  1.00  0.00     0.240 C 
ATOM     24  O   UNL     1      41.110 131.615  18.941  1.00  0.00    -0.211 OA
ENDBRANCH  22  23
ENDBRANCH   3  22
TORSDOF 5
ENDMDL
MODEL 9
REMARK VINA RESULT:      -6.4      1.966      2.906
REMARK SMILES O=C=Nc1c(C(=O)NCc2ccc[nH]2)ccc2cc[nH]c12
REMARK SMILES IDX 15 1 5 2 4 3 21 4 17 5 16 6 18 7 19 8 20 9 6 11 8 12 7 13
REMARK SMILES IDX 9 15 10 16 11 17 14 18 12 19 13 20 3 22 2 23 1 24
REMARK H PARENT 20 10 8 14 14 21
ROOT
ATOM      1  C   UNL     1      42.617 132.561  18.954  1.00  0.00     0.017 A 
ATOM      2  C   UNL     1      43.858 131.887  18.822  1.00  0.00     0.068 A 
ATOM      3  C   UNL     1      44.468 131.288  19.958  1.00  0.00     0.113 A 
ATOM      4  C   UNL     1      43.823 131.458  21.205  1.00  0.00     0.073 A 
ATOM      5  C   UNL     1      42.630 132.131  21.306  1.00  0.00     0.002 A 
ATOM      6  C   UNL     1      41.994 132.686  20.203  1.00  0.00     0.011 A 
ATOM      7  C   UNL     1      42.266 132.153  22.634  1.00  0.00     0.028 A 
ATOM      8  C   UNL     1      43.287 131.490  23.299  1.00  0.00     0.083 A 
ATOM      9  N   UNL     1      44.235 131.073  22.431  1.00  0.00    -0.359 N 
ATOM     10  H   UNL     1      45.119 130.592  22.698  1.00  0.00     0.166 HD
ENDROOT
BRANCH   2  11
ATOM     11  C   UNL     1      44.472 131.788  17.479  1.00  0.00     0.253 C 
ATOM     12  N   UNL     1      43.814 131.067  16.425  1.00  0.00    -0.346 N 
ATOM     13  O   UNL     1      45.595 132.322  17.268  1.00  0.00    -0.269 OA
ATOM     14  H   UNL     1      43.039 130.407  16.662  1.00  0.00     0.164 HD
BRANCH  12  15
ATOM     15  C   UNL     1      44.171 131.245  15.022  1.00  0.00     0.170 C 
BRANCH  15  16
ATOM     16  C   UNL     1      45.489 130.592  14.747  1.00  0.00     0.034 A 
ATOM     17  C   UNL     1      46.477 131.087  13.917  1.00  0.00     0.025 A 
ATOM     18  N   UNL     1      45.838 129.381  15.219  1.00  0.00    -0.364 N 
ATOM     19  C   UNL     1      47.475 130.133  13.897  1.00  0.00     0.020 A 
ATOM     20  C   UNL     1      47.049 129.098  14.707  1.00  0.00     0.082 A 
ATOM     21  H   UNL     1      45.272 128.768  15.848  1.00  0.00     0.166 HD
ENDBRANCH  15  16
ENDBRANCH  12  15
ENDBRANCH   2  11
BRANCH   3  22
ATOM     22  N   UNL     1      45.664 130.506  19.788  1.00  0.00    -0.165 NA
BRANCH  22  23
ATOM     23  C   UNL     1      45.940 129.442  20.428  1.00  0.00     0.240 C 
ATOM     24  O   UNL     1      46.209 128.410  21.055  1.00  0.00    -0.211 OA
ENDBRANCH  22  23
ENDBRANCH   3  22
TORSDOF 5
ENDMDL


