REMARK SMILES Cc1cc(-c2cnc3ccnn3c2)ccc1C(=O)[N-][C@H]1CC12CCC2
REMARK SMILES IDX 17 1 18 2 16 3 2 4 3 5 4 6 15 7 14 8 1 9 5 10 6 11 13 12
REMARK SMILES IDX 7 13 12 14 8 15 11 16 9 17 10 18 19 19 20 20 21 21 22 22
REMARK SMILES IDX 23 23 25 24 24 25
REMARK H PARENT
ROOT
ATOM      1  C   UNL     1      -0.216  -1.607   1.544  1.00  0.00     0.082 C 
ATOM      2  O   UNL     1      -0.204  -2.865   1.625  1.00  0.00    -0.315 OA
ENDROOT
BRANCH   1   3
ATOM      3  C   UNL     1       0.757  -0.891   0.677  1.00  0.00     0.002 A 
ATOM      4  C   UNL     1       1.362  -1.488  -0.463  1.00  0.00    -0.041 A 
ATOM      5  C   UNL     1       2.291  -0.751  -1.219  1.00  0.00     0.013 A 
ATOM      6  C   UNL     1       2.613   0.573  -0.883  1.00  0.00    -0.015 A 
ATOM      7  C   UNL     1       1.082   0.439   0.996  1.00  0.00     0.011 A 
ATOM      8  C   UNL     1       1.995   1.161   0.228  1.00  0.00     0.009 A 
ATOM      9  C   UNL     1       1.026  -2.889  -0.908  1.00  0.00     0.045 C 
BRANCH   6  10
ATOM     10  C   UNL     1       3.584   1.344  -1.701  1.00  0.00     0.019 A 
ATOM     11  C   UNL     1       4.756   0.733  -2.216  1.00  0.00     0.124 A 
ATOM     12  C   UNL     1       3.367   2.707  -1.994  1.00  0.00     0.125 A 
ATOM     13  N   UNL     1       5.642   1.447  -2.971  1.00  0.00    -0.236 NA
ATOM     14  N   UNL     1       4.287   3.352  -2.749  1.00  0.00    -0.222 N 
ATOM     15  C   UNL     1       5.381   2.751  -3.221  1.00  0.00     0.154 A 
ATOM     16  N   UNL     1       4.259   4.615  -3.135  1.00  0.00    -0.175 NA
ATOM     17  C   UNL     1       6.125   3.642  -3.954  1.00  0.00     0.071 A 
ATOM     18  C   UNL     1       5.378   4.815  -3.874  1.00  0.00     0.138 A 
ENDBRANCH   6  10
ENDBRANCH   1   3
BRANCH   1  19
ATOM     19  N   UNL     1      -1.169  -0.863   2.309  1.00  0.00    -0.646 NA
BRANCH  19  20
ATOM     20  C   UNL     1      -2.179  -1.508   3.135  1.00  0.00    -0.100 C 
ATOM     21  C   UNL     1      -3.465  -0.683   3.281  1.00  0.00    -0.010 C 
ATOM     22  C   UNL     1      -3.415  -1.896   2.361  1.00  0.00    -0.044 C 
ATOM     23  C   UNL     1      -3.784  -1.699   0.919  1.00  0.00     0.006 C 
ATOM     24  C   UNL     1      -4.398  -3.002   2.608  1.00  0.00     0.006 C 
ATOM     25  C   UNL     1      -4.808  -2.835   1.128  1.00  0.00     0.001 C 
ENDBRANCH  19  20
ENDBRANCH   1  19
TORSDOF 4


