MODEL 1
REMARK VINA RESULT:      -8.4      0.000      0.000
REMARK SMILES Nc1c(C(=O)[N-]Cc2ccc[nH]2)cc(-n2[nH+]c3ccccc3[nH+]2)c(O)c1N
REMARK SMILES IDX 4 1 5 2 3 3 2 4 26 5 13 6 24 7 14 8 1 9 27 12 25 15 15 17
REMARK SMILES IDX 16 18 23 19 17 20 22 21 18 22 21 23 19 24 20 25 6 28 7 29
REMARK SMILES IDX 8 30 9 31 12 32 10 33 11 34
REMARK H PARENT 1 10 1 11 27 13 27 14 25 16 16 26 23 27 12 35
ROOT
ATOM      1  C   UNL     1      45.099 131.424  21.451  1.00  0.00     0.084 C 
ATOM      2  O   UNL     1      46.337 131.633  21.579  1.00  0.00    -0.315 OA
ENDROOT
BRANCH   1   3
ATOM      3  C   UNL     1      44.453 131.549  20.123  1.00  0.00     0.027 A 
ATOM      4  C   UNL     1      43.126 132.021  19.971  1.00  0.00     0.068 A 
ATOM      5  C   UNL     1      42.580 132.184  18.671  1.00  0.00     0.101 A 
ATOM      6  C   UNL     1      45.199 131.215  18.987  1.00  0.00     0.055 A 
ATOM      7  C   UNL     1      43.386 131.911  17.538  1.00  0.00     0.176 A 
ATOM      8  C   UNL     1      44.679 131.388  17.702  1.00  0.00     0.212 A 
BRANCH   4   9
ATOM      9  N   UNL     1      42.317 132.271  21.132  1.00  0.00    -0.396 N 
ATOM     10  H   UNL     1      42.186 133.240  21.497  1.00  0.00     0.156 HD
ATOM     11  H   UNL     1      41.794 131.507  21.611  1.00  0.00     0.156 HD
ENDBRANCH   4   9
BRANCH   5  12
ATOM     12  N   UNL     1      41.199 132.544  18.500  1.00  0.00    -0.394 N 
ATOM     13  H   UNL     1      40.808 133.450  18.832  1.00  0.00     0.156 HD
ATOM     14  H   UNL     1      40.493 131.859  18.157  1.00  0.00     0.156 HD
ENDBRANCH   5  12
BRANCH   7  15
ATOM     15  O   UNL     1      42.942 132.187  16.241  1.00  0.00    -0.504 OA
ATOM     16  H   UNL     1      41.993 132.038  15.927  1.00  0.00     0.293 HD
ENDBRANCH   7  15
BRANCH   8  17
ATOM     17  N   UNL     1      45.488 131.052  16.561  1.00  0.00     0.083 N 
ATOM     18  N   UNL     1      46.059 129.863  16.367  1.00  0.00    -0.062 N 
ATOM     19  N   UNL     1      45.808 131.908  15.592  1.00  0.00    -0.062 N 
ATOM     20  C   UNL     1      46.764 129.970  15.229  1.00  0.00     0.306 A 
ATOM     21  C   UNL     1      46.607 131.237  14.748  1.00  0.00     0.306 A 
ATOM     22  C   UNL     1      47.563 129.027  14.590  1.00  0.00     0.089 A 
ATOM     23  C   UNL     1      47.228 131.671  13.582  1.00  0.00     0.089 A 
ATOM     24  C   UNL     1      48.210 129.428  13.403  1.00  0.00     0.007 A 
ATOM     25  C   UNL     1      48.042 130.743  12.901  1.00  0.00     0.007 A 
ATOM     26  H   UNL     1      46.001 129.036  17.002  1.00  0.00     0.495 HD
ATOM     27  H   UNL     1      45.491 132.901  15.515  1.00  0.00     0.495 HD
ENDBRANCH   8  17
ENDBRANCH   1   3
BRANCH   1  28
ATOM     28  N   UNL     1      44.324 131.021  22.586  1.00  0.00    -0.644 NA
BRANCH  28  29
ATOM     29  C   UNL     1      43.591 129.764  22.658  1.00  0.00    -0.062 C 
BRANCH  29  30
ATOM     30  C   UNL     1      44.539 128.624  22.869  1.00  0.00    -0.003 A 
ATOM     31  C   UNL     1      44.731 127.946  24.057  1.00  0.00     0.021 A 
ATOM     32  N   UNL     1      45.300 128.089  21.896  1.00  0.00    -0.366 N 
ATOM     33  C   UNL     1      45.659 126.959  23.789  1.00  0.00     0.019 A 
ATOM     34  C   UNL     1      45.986 127.076  22.452  1.00  0.00     0.082 A 
ATOM     35  H   UNL     1      45.346 128.396  20.899  1.00  0.00     0.166 HD
ENDBRANCH  29  30
ENDBRANCH  28  29
ENDBRANCH   1  28
TORSDOF 8
ENDMDL
MODEL 2
REMARK VINA RESULT:      -8.2      1.109      1.713
REMARK SMILES Nc1c(C(=O)[N-]Cc2ccc[nH]2)cc(-n2[nH+]c3ccccc3[nH+]2)c(O)c1N
REMARK SMILES IDX 4 1 5 2 3 3 2 4 26 5 13 6 24 7 14 8 1 9 27 12 25 15 15 17
REMARK SMILES IDX 16 18 23 19 17 20 22 21 18 22 21 23 19 24 20 25 6 28 7 29
REMARK SMILES IDX 8 30 9 31 12 32 10 33 11 34
REMARK H PARENT 1 10 1 11 27 13 27 14 25 16 16 26 23 27 12 35
ROOT
ATOM      1  C   UNL     1      44.886 130.436  21.706  1.00  0.00     0.084 C 
ATOM      2  O   UNL     1      45.045 131.269  22.640  1.00  0.00    -0.315 OA
ENDROOT
BRANCH   1   3
ATOM      3  C   UNL     1      44.371 130.879  20.389  1.00  0.00     0.027 A 
ATOM      4  C   UNL     1      43.130 131.547  20.249  1.00  0.00     0.068 A 
ATOM      5  C   UNL     1      42.718 132.009  18.971  1.00  0.00     0.101 A 
ATOM      6  C   UNL     1      45.162 130.651  19.256  1.00  0.00     0.055 A 
ATOM      7  C   UNL     1      43.574 131.832  17.857  1.00  0.00     0.176 A 
ATOM      8  C   UNL     1      44.775 131.116  17.997  1.00  0.00     0.212 A 
BRANCH   4   9
ATOM      9  N   UNL     1      42.266 131.697  21.386  1.00  0.00    -0.396 N 
ATOM     10  H   UNL     1      42.238 132.590  21.926  1.00  0.00     0.156 HD
ATOM     11  H   UNL     1      41.603 130.946  21.674  1.00  0.00     0.156 HD
ENDBRANCH   4   9
BRANCH   5  12
ATOM     12  N   UNL     1      41.410 132.579  18.789  1.00  0.00    -0.394 N 
ATOM     13  H   UNL     1      40.640 132.451  19.477  1.00  0.00     0.156 HD
ATOM     14  H   UNL     1      41.132 133.033  17.894  1.00  0.00     0.156 HD
ENDBRANCH   5  12
BRANCH   7  15
ATOM     15  O   UNL     1      43.277 132.389  16.609  1.00  0.00    -0.504 OA
ATOM     16  H   UNL     1      43.827 133.115  16.172  1.00  0.00     0.293 HD
ENDBRANCH   7  15
BRANCH   8  17
ATOM     17  N   UNL     1      45.628 130.879  16.864  1.00  0.00     0.083 N 
ATOM     18  N   UNL     1      45.770 131.720  15.839  1.00  0.00    -0.062 N 
ATOM     19  N   UNL     1      46.333 129.764  16.677  1.00  0.00    -0.062 N 
ATOM     20  C   UNL     1      46.601 131.117  14.974  1.00  0.00     0.306 A 
ATOM     21  C   UNL     1      46.951 129.905  15.494  1.00  0.00     0.306 A 
ATOM     22  C   UNL     1      47.058 131.552  13.734  1.00  0.00     0.089 A 
ATOM     23  C   UNL     1      47.795 129.026  14.825  1.00  0.00     0.089 A 
ATOM     24  C   UNL     1      47.918 130.689  13.024  1.00  0.00     0.007 A 
ATOM     25  C   UNL     1      48.285 129.433  13.568  1.00  0.00     0.007 A 
ATOM     26  H   UNL     1      45.291 132.641  15.722  1.00  0.00     0.495 HD
ATOM     27  H   UNL     1      46.388 128.951  17.331  1.00  0.00     0.495 HD
ENDBRANCH   8  17
ENDBRANCH   1   3
BRANCH   1  28
ATOM     28  N   UNL     1      45.244 129.064  21.906  1.00  0.00    -0.644 NA
BRANCH  28  29
ATOM     29  C   UNL     1      45.073 128.361  23.171  1.00  0.00    -0.062 C 
BRANCH  29  30
ATOM     30  C   UNL     1      45.085 126.881  22.947  1.00  0.00    -0.003 A 
ATOM     31  C   UNL     1      44.036 126.133  22.449  1.00  0.00     0.021 A 
ATOM     32  N   UNL     1      46.156 126.096  23.169  1.00  0.00    -0.366 N 
ATOM     33  C   UNL     1      44.494 124.832  22.376  1.00  0.00     0.019 A 
ATOM     34  C   UNL     1      45.800 124.846  22.825  1.00  0.00     0.082 A 
ATOM     35  H   UNL     1      47.087 126.398  23.533  1.00  0.00     0.166 HD
ENDBRANCH  29  30
ENDBRANCH  28  29
ENDBRANCH   1  28
TORSDOF 8
ENDMDL
MODEL 3
REMARK VINA RESULT:      -8.2      2.404      3.787
REMARK SMILES Nc1c(C(=O)[N-]Cc2ccc[nH]2)cc(-n2[nH+]c3ccccc3[nH+]2)c(O)c1N
REMARK SMILES IDX 4 1 5 2 3 3 2 4 26 5 13 6 24 7 14 8 1 9 27 12 25 15 15 17
REMARK SMILES IDX 16 18 23 19 17 20 22 21 18 22 21 23 19 24 20 25 6 28 7 29
REMARK SMILES IDX 8 30 9 31 12 32 10 33 11 34
REMARK H PARENT 1 10 1 11 27 13 27 14 25 16 16 26 23 27 12 35
ROOT
ATOM      1  C   UNL     1      45.205 131.465  21.730  1.00  0.00     0.084 C 
ATOM      2  O   UNL     1      44.712 130.730  22.630  1.00  0.00    -0.315 OA
ENDROOT
BRANCH   1   3
ATOM      3  C   UNL     1      44.559 131.555  20.400  1.00  0.00     0.027 A 
ATOM      4  C   UNL     1      43.212 131.962  20.241  1.00  0.00     0.068 A 
ATOM      5  C   UNL     1      42.664 132.095  18.938  1.00  0.00     0.101 A 
ATOM      6  C   UNL     1      45.325 131.253  19.268  1.00  0.00     0.055 A 
ATOM      7  C   UNL     1      43.486 131.857  17.810  1.00  0.00     0.176 A 
ATOM      8  C   UNL     1      44.802 131.397  17.980  1.00  0.00     0.212 A 
BRANCH   4   9
ATOM      9  N   UNL     1      42.388 132.177  21.398  1.00  0.00    -0.396 N 
ATOM     10  H   UNL     1      42.791 132.138  22.359  1.00  0.00     0.156 HD
ATOM     11  H   UNL     1      41.380 132.431  21.314  1.00  0.00     0.156 HD
ENDBRANCH   4   9
BRANCH   5  12
ATOM     12  N   UNL     1      41.267 132.388  18.761  1.00  0.00    -0.394 N 
ATOM     13  H   UNL     1      40.577 132.332  19.538  1.00  0.00     0.156 HD
ATOM     14  H   UNL     1      40.856 132.539  17.816  1.00  0.00     0.156 HD
ENDBRANCH   5  12
BRANCH   7  15
ATOM     15  O   UNL     1      43.035 132.107  16.510  1.00  0.00    -0.504 OA
ATOM     16  H   UNL     1      42.624 131.404  15.912  1.00  0.00     0.293 HD
ENDBRANCH   7  15
BRANCH   8  17
ATOM     17  N   UNL     1      45.631 131.097  16.844  1.00  0.00     0.083 N 
ATOM     18  N   UNL     1      45.865 131.941  15.838  1.00  0.00    -0.062 N 
ATOM     19  N   UNL     1      46.216 129.918  16.634  1.00  0.00    -0.062 N 
ATOM     20  C   UNL     1      46.632 131.273  14.962  1.00  0.00     0.306 A 
ATOM     21  C   UNL     1      46.851 130.020  15.456  1.00  0.00     0.306 A 
ATOM     22  C   UNL     1      47.138 131.685  13.733  1.00  0.00     0.089 A 
ATOM     23  C   UNL     1      47.603 129.072  14.769  1.00  0.00     0.089 A 
ATOM     24  C   UNL     1      47.906 130.753  13.006  1.00  0.00     0.007 A 
ATOM     25  C   UNL     1      48.138 129.453  13.523  1.00  0.00     0.007 A 
ATOM     26  H   UNL     1      45.485 132.909  15.741  1.00  0.00     0.495 HD
ATOM     27  H   UNL     1      46.183 129.090  17.270  1.00  0.00     0.495 HD
ENDBRANCH   8  17
ENDBRANCH   1   3
BRANCH   1  28
ATOM     28  N   UNL     1      46.370 132.249  22.011  1.00  0.00    -0.644 NA
BRANCH  28  29
ATOM     29  C   UNL     1      46.580 133.595  21.495  1.00  0.00    -0.062 C 
BRANCH  29  30
ATOM     30  C   UNL     1      47.872 134.151  22.010  1.00  0.00    -0.003 A 
ATOM     31  C   UNL     1      48.468 135.324  21.590  1.00  0.00     0.021 A 
ATOM     32  N   UNL     1      48.597 133.583  22.992  1.00  0.00    -0.366 N 
ATOM     33  C   UNL     1      49.612 135.466  22.350  1.00  0.00     0.019 A 
ATOM     34  C   UNL     1      49.659 134.379  23.201  1.00  0.00     0.082 A 
ATOM     35  H   UNL     1      48.375 132.698  23.499  1.00  0.00     0.166 HD
ENDBRANCH  29  30
ENDBRANCH  28  29
ENDBRANCH   1  28
TORSDOF 8
ENDMDL
MODEL 4
REMARK VINA RESULT:      -8.1      1.074      2.289
REMARK SMILES Nc1c(C(=O)[N-]Cc2ccc[nH]2)cc(-n2[nH+]c3ccccc3[nH+]2)c(O)c1N
REMARK SMILES IDX 4 1 5 2 3 3 2 4 26 5 13 6 24 7 14 8 1 9 27 12 25 15 15 17
REMARK SMILES IDX 16 18 23 19 17 20 22 21 18 22 21 23 19 24 20 25 6 28 7 29
REMARK SMILES IDX 8 30 9 31 12 32 10 33 11 34
REMARK H PARENT 1 10 1 11 27 13 27 14 25 16 16 26 23 27 12 35
ROOT
ATOM      1  C   UNL     1      45.157 131.002  21.181  1.00  0.00     0.084 C 
ATOM      2  O   UNL     1      45.539 131.976  21.886  1.00  0.00    -0.315 OA
ENDROOT
BRANCH   1   3
ATOM      3  C   UNL     1      44.593 131.231  19.830  1.00  0.00     0.027 A 
ATOM      4  C   UNL     1      43.289 131.748  19.635  1.00  0.00     0.068 A 
ATOM      5  C   UNL     1      42.825 132.011  18.319  1.00  0.00     0.101 A 
ATOM      6  C   UNL     1      45.397 130.952  18.719  1.00  0.00     0.055 A 
ATOM      7  C   UNL     1      43.688 131.791  17.219  1.00  0.00     0.176 A 
ATOM      8  C   UNL     1      44.957 131.223  17.421  1.00  0.00     0.212 A 
BRANCH   4   9
ATOM      9  N   UNL     1      42.420 131.943  20.762  1.00  0.00    -0.396 N 
ATOM     10  H   UNL     1      42.431 132.837  21.300  1.00  0.00     0.156 HD
ATOM     11  H   UNL     1      41.717 131.227  21.042  1.00  0.00     0.156 HD
ENDBRANCH   4   9
BRANCH   5  12
ATOM     12  N   UNL     1      41.464 132.419  18.094  1.00  0.00    -0.394 N 
ATOM     13  H   UNL     1      40.945 132.192  17.221  1.00  0.00     0.156 HD
ATOM     14  H   UNL     1      40.977 133.079  18.738  1.00  0.00     0.156 HD
ENDBRANCH   5  12
BRANCH   7  15
ATOM     15  O   UNL     1      43.328 132.164  15.920  1.00  0.00    -0.504 OA
ATOM     16  H   UNL     1      43.993 132.319  15.174  1.00  0.00     0.293 HD
ENDBRANCH   7  15
BRANCH   8  17
ATOM     17  N   UNL     1      45.824 130.941  16.308  1.00  0.00     0.083 N 
ATOM     18  N   UNL     1      45.955 131.726  15.238  1.00  0.00    -0.062 N 
ATOM     19  N   UNL     1      46.555 129.834  16.190  1.00  0.00    -0.062 N 
ATOM     20  C   UNL     1      46.805 131.093  14.414  1.00  0.00     0.306 A 
ATOM     21  C   UNL     1      47.179 129.921  15.004  1.00  0.00     0.306 A 
ATOM     22  C   UNL     1      47.263 131.468  13.154  1.00  0.00     0.089 A 
ATOM     23  C   UNL     1      48.048 129.025  14.392  1.00  0.00     0.089 A 
ATOM     24  C   UNL     1      48.147 130.586  12.500  1.00  0.00     0.007 A 
ATOM     25  C   UNL     1      48.538 129.371  13.117  1.00  0.00     0.007 A 
ATOM     26  H   UNL     1      45.457 132.628  15.066  1.00  0.00     0.495 HD
ATOM     27  H   UNL     1      46.623 129.061  16.889  1.00  0.00     0.495 HD
ENDBRANCH   8  17
ENDBRANCH   1   3
BRANCH   1  28
ATOM     28  N   UNL     1      45.312 129.665  21.671  1.00  0.00    -0.644 NA
BRANCH  28  29
ATOM     29  C   UNL     1      44.640 129.160  22.862  1.00  0.00    -0.062 C 
BRANCH  29  30
ATOM     30  C   UNL     1      43.899 130.266  23.547  1.00  0.00    -0.003 A 
ATOM     31  C   UNL     1      42.538 130.303  23.775  1.00  0.00     0.021 A 
ATOM     32  N   UNL     1      44.492 131.357  24.069  1.00  0.00    -0.366 N 
ATOM     33  C   UNL     1      42.296 131.477  24.460  1.00  0.00     0.019 A 
ATOM     34  C   UNL     1      43.518 132.099  24.624  1.00  0.00     0.082 A 
ATOM     35  H   UNL     1      45.511 131.582  24.053  1.00  0.00     0.166 HD
ENDBRANCH  29  30
ENDBRANCH  28  29
ENDBRANCH   1  28
TORSDOF 8
ENDMDL
MODEL 5
REMARK VINA RESULT:      -8.0      0.939      1.119
REMARK SMILES Nc1c(C(=O)[N-]Cc2ccc[nH]2)cc(-n2[nH+]c3ccccc3[nH+]2)c(O)c1N
REMARK SMILES IDX 4 1 5 2 3 3 2 4 26 5 13 6 24 7 14 8 1 9 27 12 25 15 15 17
REMARK SMILES IDX 16 18 23 19 17 20 22 21 18 22 21 23 19 24 20 25 6 28 7 29
REMARK SMILES IDX 8 30 9 31 12 32 10 33 11 34
REMARK H PARENT 1 10 1 11 27 13 27 14 25 16 16 26 23 27 12 35
ROOT
ATOM      1  C   UNL     1      44.819 131.657  21.728  1.00  0.00     0.084 C 
ATOM      2  O   UNL     1      46.076 131.650  21.832  1.00  0.00    -0.315 OA
ENDROOT
BRANCH   1   3
ATOM      3  C   UNL     1      44.178 131.721  20.393  1.00  0.00     0.027 A 
ATOM      4  C   UNL     1      42.839 132.146  20.217  1.00  0.00     0.068 A 
ATOM      5  C   UNL     1      42.299 132.251  18.909  1.00  0.00     0.101 A 
ATOM      6  C   UNL     1      44.943 131.374  19.273  1.00  0.00     0.055 A 
ATOM      7  C   UNL     1      43.120 131.968  17.791  1.00  0.00     0.176 A 
ATOM      8  C   UNL     1      44.428 131.490  17.980  1.00  0.00     0.212 A 
BRANCH   4   9
ATOM      9  N   UNL     1      42.015 132.408  21.364  1.00  0.00    -0.396 N 
ATOM     10  H   UNL     1      41.089 131.941  21.478  1.00  0.00     0.156 HD
ATOM     11  H   UNL     1      42.336 133.023  22.142  1.00  0.00     0.156 HD
ENDBRANCH   4   9
BRANCH   5  12
ATOM     12  N   UNL     1      40.908 132.563  18.718  1.00  0.00    -0.394 N 
ATOM     13  H   UNL     1      40.533 133.531  18.794  1.00  0.00     0.156 HD
ATOM     14  H   UNL     1      40.187 131.816  18.628  1.00  0.00     0.156 HD
ENDBRANCH   5  12
BRANCH   7  15
ATOM     15  O   UNL     1      42.678 132.189  16.483  1.00  0.00    -0.504 OA
ATOM     16  H   UNL     1      42.062 131.562  15.984  1.00  0.00     0.293 HD
ENDBRANCH   7  15
BRANCH   8  17
ATOM     17  N   UNL     1      45.255 131.144  16.855  1.00  0.00     0.083 N 
ATOM     18  N   UNL     1      45.826 129.952  16.679  1.00  0.00    -0.062 N 
ATOM     19  N   UNL     1      45.594 131.992  15.886  1.00  0.00    -0.062 N 
ATOM     20  C   UNL     1      46.550 130.049  15.553  1.00  0.00     0.306 A 
ATOM     21  C   UNL     1      46.406 131.312  15.060  1.00  0.00     0.306 A 
ATOM     22  C   UNL     1      47.357 129.099  14.934  1.00  0.00     0.089 A 
ATOM     23  C   UNL     1      47.048 131.736  13.902  1.00  0.00     0.089 A 
ATOM     24  C   UNL     1      48.025 129.489  13.756  1.00  0.00     0.007 A 
ATOM     25  C   UNL     1      47.870 130.801  13.242  1.00  0.00     0.007 A 
ATOM     26  H   UNL     1      45.754 129.129  17.319  1.00  0.00     0.495 HD
ATOM     27  H   UNL     1      45.282 132.985  15.797  1.00  0.00     0.495 HD
ENDBRANCH   8  17
ENDBRANCH   1   3
BRANCH   1  28
ATOM     28  N   UNL     1      44.007 131.560  22.904  1.00  0.00    -0.644 NA
BRANCH  28  29
ATOM     29  C   UNL     1      44.331 130.707  24.040  1.00  0.00    -0.062 C 
BRANCH  29  30
ATOM     30  C   UNL     1      43.989 129.283  23.732  1.00  0.00    -0.003 A 
ATOM     31  C   UNL     1      44.878 128.315  23.307  1.00  0.00     0.021 A 
ATOM     32  N   UNL     1      42.758 128.757  23.875  1.00  0.00    -0.366 N 
ATOM     33  C   UNL     1      44.146 127.151  23.180  1.00  0.00     0.019 A 
ATOM     34  C   UNL     1      42.848 127.459  23.538  1.00  0.00     0.082 A 
ATOM     35  H   UNL     1      41.898 129.258  24.193  1.00  0.00     0.166 HD
ENDBRANCH  29  30
ENDBRANCH  28  29
ENDBRANCH   1  28
TORSDOF 8
ENDMDL
MODEL 6
REMARK VINA RESULT:      -7.9      2.525      3.698
REMARK SMILES Nc1c(C(=O)[N-]Cc2ccc[nH]2)cc(-n2[nH+]c3ccccc3[nH+]2)c(O)c1N
REMARK SMILES IDX 4 1 5 2 3 3 2 4 26 5 13 6 24 7 14 8 1 9 27 12 25 15 15 17
REMARK SMILES IDX 16 18 23 19 17 20 22 21 18 22 21 23 19 24 20 25 6 28 7 29
REMARK SMILES IDX 8 30 9 31 12 32 10 33 11 34
REMARK H PARENT 1 10 1 11 27 13 27 14 25 16 16 26 23 27 12 35
ROOT
ATOM      1  C   UNL     1      45.414 131.738  21.451  1.00  0.00     0.084 C 
ATOM      2  O   UNL     1      45.000 131.071  22.438  1.00  0.00    -0.315 OA
ENDROOT
BRANCH   1   3
ATOM      3  C   UNL     1      44.689 131.690  20.159  1.00  0.00     0.027 A 
ATOM      4  C   UNL     1      43.308 131.987  20.057  1.00  0.00     0.068 A 
ATOM      5  C   UNL     1      42.680 131.990  18.784  1.00  0.00     0.101 A 
ATOM      6  C   UNL     1      45.411 131.368  19.004  1.00  0.00     0.055 A 
ATOM      7  C   UNL     1      43.453 131.736  17.625  1.00  0.00     0.176 A 
ATOM      8  C   UNL     1      44.808 131.386  17.744  1.00  0.00     0.212 A 
BRANCH   4   9
ATOM      9  N   UNL     1      42.536 132.219  21.246  1.00  0.00    -0.396 N 
ATOM     10  H   UNL     1      42.991 132.543  22.127  1.00  0.00     0.156 HD
ATOM     11  H   UNL     1      41.498 132.127  21.252  1.00  0.00     0.156 HD
ENDBRANCH   4   9
BRANCH   5  12
ATOM     12  N   UNL     1      41.257 132.168  18.674  1.00  0.00    -0.394 N 
ATOM     13  H   UNL     1      40.826 133.043  18.309  1.00  0.00     0.156 HD
ATOM     14  H   UNL     1      40.586 131.483  19.081  1.00  0.00     0.156 HD
ENDBRANCH   5  12
BRANCH   7  15
ATOM     15  O   UNL     1      42.912 131.864  16.342  1.00  0.00    -0.504 OA
ATOM     16  H   UNL     1      42.190 132.528  16.099  1.00  0.00     0.293 HD
ENDBRANCH   7  15
BRANCH   8  17
ATOM     17  N   UNL     1      45.592 131.070  16.580  1.00  0.00     0.083 N 
ATOM     18  N   UNL     1      46.199 129.900  16.376  1.00  0.00    -0.062 N 
ATOM     19  N   UNL     1      45.850 131.929  15.596  1.00  0.00    -0.062 N 
ATOM     20  C   UNL     1      46.863 130.023  15.216  1.00  0.00     0.306 A 
ATOM     21  C   UNL     1      46.646 131.280  14.731  1.00  0.00     0.306 A 
ATOM     22  C   UNL     1      47.675 129.105  14.558  1.00  0.00     0.089 A 
ATOM     23  C   UNL     1      47.214 131.726  13.542  1.00  0.00     0.089 A 
ATOM     24  C   UNL     1      48.270 129.519  13.348  1.00  0.00     0.007 A 
ATOM     25  C   UNL     1      48.039 130.823  12.843  1.00  0.00     0.007 A 
ATOM     26  H   UNL     1      46.191 129.077  17.019  1.00  0.00     0.495 HD
ATOM     27  H   UNL     1      45.495 132.909  15.522  1.00  0.00     0.495 HD
ENDBRANCH   8  17
ENDBRANCH   1   3
BRANCH   1  28
ATOM     28  N   UNL     1      46.564 132.580  21.591  1.00  0.00    -0.644 NA
BRANCH  28  29
ATOM     29  C   UNL     1      46.610 133.745  22.465  1.00  0.00    -0.062 C 
BRANCH  29  30
ATOM     30  C   UNL     1      48.008 134.275  22.549  1.00  0.00    -0.003 A 
ATOM     31  C   UNL     1      48.546 135.258  21.742  1.00  0.00     0.021 A 
ATOM     32  N   UNL     1      48.909 133.876  23.466  1.00  0.00    -0.366 N 
ATOM     33  C   UNL     1      49.837 135.456  22.189  1.00  0.00     0.019 A 
ATOM     34  C   UNL     1      50.026 134.591  23.249  1.00  0.00     0.082 A 
ATOM     35  H   UNL     1      48.768 133.154  24.207  1.00  0.00     0.166 HD
ENDBRANCH  29  30
ENDBRANCH  28  29
ENDBRANCH   1  28
TORSDOF 8
ENDMDL
MODEL 7
REMARK VINA RESULT:      -7.5      2.123      3.055
REMARK SMILES Nc1c(C(=O)[N-]Cc2ccc[nH]2)cc(-n2[nH+]c3ccccc3[nH+]2)c(O)c1N
REMARK SMILES IDX 4 1 5 2 3 3 2 4 26 5 13 6 24 7 14 8 1 9 27 12 25 15 15 17
REMARK SMILES IDX 16 18 23 19 17 20 22 21 18 22 21 23 19 24 20 25 6 28 7 29
REMARK SMILES IDX 8 30 9 31 12 32 10 33 11 34
REMARK H PARENT 1 10 1 11 27 13 27 14 25 16 16 26 23 27 12 35
ROOT
ATOM      1  C   UNL     1      44.592 129.229  23.190  1.00  0.00     0.084 C 
ATOM      2  O   UNL     1      44.661 129.567  24.403  1.00  0.00    -0.315 OA
ENDROOT
BRANCH   1   3
ATOM      3  C   UNL     1      44.061 130.175  22.179  1.00  0.00     0.027 A 
ATOM      4  C   UNL     1      43.031 131.099  22.478  1.00  0.00     0.068 A 
ATOM      5  C   UNL     1      42.608 132.026  21.490  1.00  0.00     0.101 A 
ATOM      6  C   UNL     1      44.627 130.164  20.899  1.00  0.00     0.055 A 
ATOM      7  C   UNL     1      43.252 132.044  20.229  1.00  0.00     0.176 A 
ATOM      8  C   UNL     1      44.231 131.084  19.925  1.00  0.00     0.212 A 
BRANCH   4   9
ATOM      9  N   UNL     1      42.374 131.051  23.755  1.00  0.00    -0.396 N 
ATOM     10  H   UNL     1      42.908 130.842  24.626  1.00  0.00     0.156 HD
ATOM     11  H   UNL     1      41.362 131.277  23.859  1.00  0.00     0.156 HD
ENDBRANCH   4   9
BRANCH   5  12
ATOM     12  N   UNL     1      41.482 132.889  21.734  1.00  0.00    -0.394 N 
ATOM     13  H   UNL     1      41.533 133.923  21.631  1.00  0.00     0.156 HD
ATOM     14  H   UNL     1      40.600 132.530  22.156  1.00  0.00     0.156 HD
ENDBRANCH   5  12
BRANCH   7  15
ATOM     15  O   UNL     1      42.967 133.025  19.275  1.00  0.00    -0.504 OA
ATOM     16  H   UNL     1      42.535 132.833  18.381  1.00  0.00     0.293 HD
ENDBRANCH   7  15
BRANCH   8  17
ATOM     17  N   UNL     1      44.855 131.053  18.629  1.00  0.00     0.083 N 
ATOM     18  N   UNL     1      44.577 131.901  17.638  1.00  0.00    -0.062 N 
ATOM     19  N   UNL     1      45.742 130.136  18.247  1.00  0.00    -0.062 N 
ATOM     20  C   UNL     1      45.320 131.509  16.592  1.00  0.00     0.306 A 
ATOM     21  C   UNL     1      46.044 130.416  16.969  1.00  0.00     0.306 A 
ATOM     22  C   UNL     1      45.390 132.038  15.307  1.00  0.00     0.089 A 
ATOM     23  C   UNL     1      46.907 129.760  16.098  1.00  0.00     0.089 A 
ATOM     24  C   UNL     1      46.254 131.401  14.393  1.00  0.00     0.007 A 
ATOM     25  C   UNL     1      47.010 130.269  14.787  1.00  0.00     0.007 A 
ATOM     26  H   UNL     1      43.884 132.683  17.668  1.00  0.00     0.495 HD
ATOM     27  H   UNL     1      46.122 129.361  18.835  1.00  0.00     0.495 HD
ENDBRANCH   8  17
ENDBRANCH   1   3
BRANCH   1  28
ATOM     28  N   UNL     1      45.068 127.942  22.781  1.00  0.00    -0.644 NA
BRANCH  28  29
ATOM     29  C   UNL     1      44.997 126.752  23.618  1.00  0.00    -0.062 C 
BRANCH  29  30
ATOM     30  C   UNL     1      43.760 125.969  23.300  1.00  0.00    -0.003 A 
ATOM     31  C   UNL     1      42.548 126.078  23.953  1.00  0.00     0.021 A 
ATOM     32  N   UNL     1      43.672 125.079  22.294  1.00  0.00    -0.366 N 
ATOM     33  C   UNL     1      41.690 125.206  23.315  1.00  0.00     0.019 A 
ATOM     34  C   UNL     1      42.413 124.610  22.300  1.00  0.00     0.082 A 
ATOM     35  H   UNL     1      44.432 124.809  21.630  1.00  0.00     0.166 HD
ENDBRANCH  29  30
ENDBRANCH  28  29
ENDBRANCH   1  28
TORSDOF 8
ENDMDL
MODEL 8
REMARK VINA RESULT:      -7.4      1.008      1.578
REMARK SMILES Nc1c(C(=O)[N-]Cc2ccc[nH]2)cc(-n2[nH+]c3ccccc3[nH+]2)c(O)c1N
REMARK SMILES IDX 4 1 5 2 3 3 2 4 26 5 13 6 24 7 14 8 1 9 27 12 25 15 15 17
REMARK SMILES IDX 16 18 23 19 17 20 22 21 18 22 21 23 19 24 20 25 6 28 7 29
REMARK SMILES IDX 8 30 9 31 12 32 10 33 11 34
REMARK H PARENT 1 10 1 11 27 13 27 14 25 16 16 26 23 27 12 35
ROOT
ATOM      1  C   UNL     1      44.895 131.192  21.250  1.00  0.00     0.084 C 
ATOM      2  O   UNL     1      45.979 130.577  21.450  1.00  0.00    -0.315 OA
ENDROOT
BRANCH   1   3
ATOM      3  C   UNL     1      44.383 131.375  19.871  1.00  0.00     0.027 A 
ATOM      4  C   UNL     1      43.082 131.869  19.608  1.00  0.00     0.068 A 
ATOM      5  C   UNL     1      42.668 132.087  18.269  1.00  0.00     0.101 A 
ATOM      6  C   UNL     1      45.234 131.073  18.801  1.00  0.00     0.055 A 
ATOM      7  C   UNL     1      43.577 131.846  17.210  1.00  0.00     0.176 A 
ATOM      8  C   UNL     1      44.843 131.300  17.479  1.00  0.00     0.212 A 
BRANCH   4   9
ATOM      9  N   UNL     1      42.166 132.086  20.693  1.00  0.00    -0.396 N 
ATOM     10  H   UNL     1      42.510 132.212  21.670  1.00  0.00     0.156 HD
ATOM     11  H   UNL     1      41.140 132.180  20.535  1.00  0.00     0.156 HD
ENDBRANCH   4   9
BRANCH   5  12
ATOM     12  N   UNL     1      41.313 132.472  17.977  1.00  0.00    -0.394 N 
ATOM     13  H   UNL     1      40.857 133.301  18.412  1.00  0.00     0.156 HD
ATOM     14  H   UNL     1      40.678 131.861  17.421  1.00  0.00     0.156 HD
ENDBRANCH   5  12
BRANCH   7  15
ATOM     15  O   UNL     1      43.266 132.175  15.887  1.00  0.00    -0.504 OA
ATOM     16  H   UNL     1      43.945 132.503  15.214  1.00  0.00     0.293 HD
ENDBRANCH   7  15
BRANCH   8  17
ATOM     17  N   UNL     1      45.757 130.996  16.411  1.00  0.00     0.083 N 
ATOM     18  N   UNL     1      46.019 131.812  15.389  1.00  0.00    -0.062 N 
ATOM     19  N   UNL     1      46.407 129.840  16.288  1.00  0.00    -0.062 N 
ATOM     20  C   UNL     1      46.870 131.148  14.591  1.00  0.00     0.306 A 
ATOM     21  C   UNL     1      47.113 129.927  15.148  1.00  0.00     0.306 A 
ATOM     22  C   UNL     1      47.437 131.537  13.381  1.00  0.00     0.089 A 
ATOM     23  C   UNL     1      47.949 128.990  14.551  1.00  0.00     0.089 A 
ATOM     24  C   UNL     1      48.292 130.615  12.743  1.00  0.00     0.007 A 
ATOM     25  C   UNL     1      48.547 129.349  13.326  1.00  0.00     0.007 A 
ATOM     26  H   UNL     1      45.603 132.757  15.228  1.00  0.00     0.495 HD
ATOM     27  H   UNL     1      46.370 129.036  16.954  1.00  0.00     0.495 HD
ENDBRANCH   8  17
ENDBRANCH   1   3
BRANCH   1  28
ATOM     28  N   UNL     1      44.135 131.676  22.363  1.00  0.00    -0.644 NA
BRANCH  28  29
ATOM     29  C   UNL     1      43.010 130.956  22.946  1.00  0.00    -0.062 C 
BRANCH  29  30
ATOM     30  C   UNL     1      43.483 129.689  23.588  1.00  0.00    -0.003 A 
ATOM     31  C   UNL     1      42.802 128.487  23.595  1.00  0.00     0.021 A 
ATOM     32  N   UNL     1      44.669 129.560  24.210  1.00  0.00    -0.366 N 
ATOM     33  C   UNL     1      43.615 127.591  24.261  1.00  0.00     0.019 A 
ATOM     34  C   UNL     1      44.753 128.283  24.624  1.00  0.00     0.082 A 
ATOM     35  H   UNL     1      45.390 130.303  24.342  1.00  0.00     0.166 HD
ENDBRANCH  29  30
ENDBRANCH  28  29
ENDBRANCH   1  28
TORSDOF 8
ENDMDL
MODEL 9
REMARK VINA RESULT:      -7.1      0.927      1.438
REMARK SMILES Nc1c(C(=O)[N-]Cc2ccc[nH]2)cc(-n2[nH+]c3ccccc3[nH+]2)c(O)c1N
REMARK SMILES IDX 4 1 5 2 3 3 2 4 26 5 13 6 24 7 14 8 1 9 27 12 25 15 15 17
REMARK SMILES IDX 16 18 23 19 17 20 22 21 18 22 21 23 19 24 20 25 6 28 7 29
REMARK SMILES IDX 8 30 9 31 12 32 10 33 11 34
REMARK H PARENT 1 10 1 11 27 13 27 14 25 16 16 26 23 27 12 35
ROOT
ATOM      1  C   UNL     1      45.267 131.239  20.791  1.00  0.00     0.084 C 
ATOM      2  O   UNL     1      45.954 132.166  21.302  1.00  0.00    -0.315 OA
ENDROOT
BRANCH   1   3
ATOM      3  C   UNL     1      44.692 131.394  19.434  1.00  0.00     0.027 A 
ATOM      4  C   UNL     1      43.377 131.874  19.221  1.00  0.00     0.068 A 
ATOM      5  C   UNL     1      42.902 132.065  17.898  1.00  0.00     0.101 A 
ATOM      6  C   UNL     1      45.497 131.080  18.333  1.00  0.00     0.055 A 
ATOM      7  C   UNL     1      43.765 131.813  16.804  1.00  0.00     0.176 A 
ATOM      8  C   UNL     1      45.047 131.282  17.026  1.00  0.00     0.212 A 
BRANCH   4   9
ATOM      9  N   UNL     1      42.508 132.103  20.342  1.00  0.00    -0.396 N 
ATOM     10  H   UNL     1      42.303 131.342  21.026  1.00  0.00     0.156 HD
ATOM     11  H   UNL     1      42.103 133.043  20.539  1.00  0.00     0.156 HD
ENDBRANCH   4   9
BRANCH   5  12
ATOM     12  N   UNL     1      41.532 132.435  17.661  1.00  0.00    -0.394 N 
ATOM     13  H   UNL     1      41.139 132.555  16.705  1.00  0.00     0.156 HD
ATOM     14  H   UNL     1      40.903 132.732  18.437  1.00  0.00     0.156 HD
ENDBRANCH   5  12
BRANCH   7  15
ATOM     15  O   UNL     1      43.393 132.117  15.491  1.00  0.00    -0.504 OA
ATOM     16  H   UNL     1      43.041 133.019  15.201  1.00  0.00     0.293 HD
ENDBRANCH   7  15
BRANCH   8  17
ATOM     17  N   UNL     1      45.915 130.967  15.923  1.00  0.00     0.083 N 
ATOM     18  N   UNL     1      45.886 131.584  14.741  1.00  0.00    -0.062 N 
ATOM     19  N   UNL     1      46.812 129.982  15.934  1.00  0.00    -0.062 N 
ATOM     20  C   UNL     1      46.803 130.970  13.977  1.00  0.00     0.306 A 
ATOM     21  C   UNL     1      47.378 129.978  14.716  1.00  0.00     0.306 A 
ATOM     22  C   UNL     1      47.156 131.208  12.653  1.00  0.00     0.089 A 
ATOM     23  C   UNL     1      48.363 129.143  14.200  1.00  0.00     0.089 A 
ATOM     24  C   UNL     1      48.152 130.383  12.092  1.00  0.00     0.007 A 
ATOM     25  C   UNL     1      48.753 129.356  12.862  1.00  0.00     0.007 A 
ATOM     26  H   UNL     1      45.243 132.359  14.463  1.00  0.00     0.495 HD
ATOM     27  H   UNL     1      47.025 129.349  16.737  1.00  0.00     0.495 HD
ENDBRANCH   8  17
ENDBRANCH   1   3
BRANCH   1  28
ATOM     28  N   UNL     1      45.079 130.015  21.509  1.00  0.00    -0.644 NA
BRANCH  28  29
ATOM     29  C   UNL     1      44.757 129.953  22.930  1.00  0.00    -0.062 C 
BRANCH  29  30
ATOM     30  C   UNL     1      44.696 128.528  23.385  1.00  0.00    -0.003 A 
ATOM     31  C   UNL     1      44.246 128.096  24.617  1.00  0.00     0.021 A 
ATOM     32  N   UNL     1      45.041 127.478  22.617  1.00  0.00    -0.366 N 
ATOM     33  C   UNL     1      44.331 126.718  24.594  1.00  0.00     0.019 A 
ATOM     34  C   UNL     1      44.822 126.372  23.350  1.00  0.00     0.082 A 
ATOM     35  H   UNL     1      45.402 127.512  21.638  1.00  0.00     0.166 HD
ENDBRANCH  29  30
ENDBRANCH  28  29
ENDBRANCH   1  28
TORSDOF 8
ENDMDL


