REMARK SMILES C/C=C(\O)[N-]c1cc(F)cnc1Nc1c[n-]c2nccc-2c1
REMARK SMILES IDX 5 1 3 2 4 3 2 5 1 6 6 7 12 8 7 9 11 10 8 11 10 12 9 13 13 14
REMARK SMILES IDX 14 16 15 17 22 18 16 19 21 20 17 21 20 22 18 23 19 24
REMARK H PARENT 4 4 13 15
ROOT
ATOM      1  N   UNL     1      -1.135  -0.242  -0.016  1.00  0.00    -0.625 NA
ENDROOT
BRANCH   1   2
ATOM      2  C   UNL     1      -2.288   0.598  -0.133  1.00  0.00     0.009 C 
BRANCH   2   3
ATOM      3  O   UNL     1      -3.521   0.041  -0.488  1.00  0.00    -0.531 OA
ATOM      4  H   UNL     1      -4.368   0.585  -0.594  1.00  0.00     0.290 HD
ENDBRANCH   2   3
BRANCH   2   5
ATOM      5  C   UNL     1      -2.139   1.914   0.067  1.00  0.00    -0.009 C 
ATOM      6  C   UNL     1      -3.264   2.896  -0.045  1.00  0.00     0.037 C 
ENDBRANCH   2   5
ENDBRANCH   1   2
BRANCH   1   7
ATOM      7  C   UNL     1      -1.123  -1.674   0.088  1.00  0.00    -0.087 A 
ATOM      8  C   UNL     1       0.014  -2.399  -0.329  1.00  0.00     0.115 A 
ATOM      9  C   UNL     1      -2.214  -2.382   0.619  1.00  0.00     0.028 A 
ATOM     10  N   UNL     1      -0.004  -3.760  -0.290  1.00  0.00    -0.237 NA
ATOM     11  C   UNL     1      -2.187  -3.776   0.668  1.00  0.00     0.140 A 
ATOM     12  C   UNL     1      -1.067  -4.455   0.191  1.00  0.00     0.152 A 
ATOM     13  F   UNL     1      -3.240  -4.464   1.174  1.00  0.00    -0.205 F 
BRANCH   8  14
ATOM     14  N   UNL     1       1.171  -1.739  -0.867  1.00  0.00    -0.342 N 
ATOM     15  H   UNL     1       1.622  -2.168  -1.706  1.00  0.00     0.168 HD
BRANCH  14  16
ATOM     16  C   UNL     1       1.808  -0.601  -0.261  1.00  0.00     0.036 A 
ATOM     17  C   UNL     1       1.700  -0.354   1.140  1.00  0.00     0.004 A 
ATOM     18  C   UNL     1       2.586   0.258  -1.067  1.00  0.00     0.033 A 
ATOM     19  N   UNL     1       2.312   0.721   1.724  1.00  0.00    -0.440 NA
ATOM     20  C   UNL     1       3.191   1.339  -0.448  1.00  0.00    -0.025 A 
ATOM     21  C   UNL     1       3.038   1.558   0.950  1.00  0.00    -0.052 A 
ATOM     22  C   UNL     1       3.987   2.358  -0.903  1.00  0.00     0.003 A 
ATOM     23  N   UNL     1       3.702   2.650   1.357  1.00  0.00    -0.442 NA
ATOM     24  C   UNL     1       4.276   3.134   0.223  1.00  0.00    -0.022 A 
ENDBRANCH  14  16
ENDBRANCH   8  14
ENDBRANCH   1   7
TORSDOF 6


