REMARK SMILES Fc1cc(F)c(-c2ccc3cc[nH]c3c2)c(F)c1F
REMARK SMILES IDX 7 1 8 2 9 3 10 4 11 5 12 6 13 7 14 8 15 9 6 11 2 12 3 13
REMARK SMILES IDX 18 14 4 15 16 16 1 17 19 18 5 19 17 20
REMARK H PARENT 13 10
ROOT
ATOM      1  C   UNL     1      -0.716   1.602   0.522  1.00  0.00    -0.010 A 
ATOM      2  C   UNL     1      -0.535   2.960   0.894  1.00  0.00     0.010 A 
ATOM      3  C   UNL     1       0.111   3.863   0.030  1.00  0.00     0.011 A 
ATOM      4  C   UNL     1       0.564   3.380  -1.193  1.00  0.00    -0.001 A 
ATOM      5  C   UNL     1       1.219   4.019  -2.224  1.00  0.00     0.028 A 
ATOM      6  C   UNL     1       1.417   3.038  -3.191  1.00  0.00     0.083 A 
ATOM      7  N   UNL     1       0.913   1.851  -2.782  1.00  0.00    -0.361 N 
ATOM      8  C   UNL     1       0.396   2.073  -1.562  1.00  0.00     0.046 A 
ATOM      9  C   UNL     1      -0.240   1.152  -0.732  1.00  0.00     0.035 A 
ATOM     10  H   UNL     1       0.924   0.950  -3.309  1.00  0.00     0.166 HD
ENDROOT
BRANCH   1  11
ATOM     11  C   UNL     1      -1.399   0.661   1.440  1.00  0.00     0.057 A 
ATOM     12  C   UNL     1      -2.693  -1.126   3.183  1.00  0.00     0.164 A 
ATOM     13  C   UNL     1      -1.448  -1.455   2.643  1.00  0.00     0.082 A 
ATOM     14  C   UNL     1      -3.297   0.092   2.856  1.00  0.00     0.195 A 
ATOM     15  C   UNL     1      -0.800  -0.570   1.776  1.00  0.00     0.137 A 
ATOM     16  C   UNL     1      -2.656   0.984   1.989  1.00  0.00     0.172 A 
ATOM     17  F   UNL     1      -3.316  -1.989   4.023  1.00  0.00    -0.204 F 
ATOM     18  F   UNL     1      -4.510   0.406   3.376  1.00  0.00    -0.200 F 
ATOM     19  F   UNL     1       0.423  -0.902   1.290  1.00  0.00    -0.206 F 
ATOM     20  F   UNL     1      -3.275   2.147   1.663  1.00  0.00    -0.203 F 
ENDBRANCH   1  11
TORSDOF 1


