REMARK SMILES N[NH2+][C@@H]1CCC[C@H]2OC=C[C@@]12c1nc2ccccc2[nH]1
REMARK SMILES IDX 3 1 4 2 5 3 6 4 7 5 8 6 9 7 10 8 11 9 2 10 1 13 12 16 13 17
REMARK SMILES IDX 20 18 14 19 19 20 15 21 18 22 16 23 17 24
REMARK H PARENT 2 11 2 12 1 14 1 15 20 25
ROOT
ATOM      1  C   UNL     1       0.745   0.792  -1.351  1.00  0.00     0.223 C 
ATOM      2  C   UNL     1      -0.531   1.549  -1.799  1.00  0.00     0.068 C 
ATOM      3  C   UNL     1      -1.416   0.780  -2.804  1.00  0.00     0.010 C 
ATOM      4  C   UNL     1      -0.810  -0.550  -3.247  1.00  0.00     0.047 C 
ATOM      5  C   UNL     1      -0.468  -1.424  -2.034  1.00  0.00     0.196 C 
ATOM      6  O   UNL     1       0.314  -2.526  -2.465  1.00  0.00    -0.497 OA
ATOM      7  C   UNL     1       1.535  -2.550  -1.829  1.00  0.00     0.184 C 
ATOM      8  C   UNL     1       1.659  -1.553  -0.982  1.00  0.00     0.036 C 
ATOM      9  C   UNL     1       0.416  -0.698  -0.954  1.00  0.00     0.139 C 
ENDROOT
BRANCH   1  10
ATOM     10  N   UNL     1       1.415   1.566  -0.279  1.00  0.00    -0.268 N 
ATOM     11  H   UNL     1       0.869   1.530   0.613  1.00  0.00     0.370 HD
ATOM     12  H   UNL     1       1.501   2.572  -0.564  1.00  0.00     0.370 HD
BRANCH  10  13
ATOM     13  N   UNL     1       2.712   1.065  -0.045  1.00  0.00    -0.183 NA
ATOM     14  H   UNL     1       3.324   1.332  -0.851  1.00  0.00     0.183 HD
ATOM     15  H   UNL     1       3.101   1.552   0.796  1.00  0.00     0.183 HD
ENDBRANCH  10  13
ENDBRANCH   1  10
BRANCH   9  16
ATOM     16  C   UNL     1      -0.232  -0.787   0.420  1.00  0.00     0.127 A 
ATOM     17  N   UNL     1       0.465  -1.089   1.552  1.00  0.00    -0.232 NA
ATOM     18  N   UNL     1      -1.534  -0.480   0.660  1.00  0.00    -0.341 N 
ATOM     19  C   UNL     1      -0.463  -0.979   2.518  1.00  0.00     0.089 A 
ATOM     20  C   UNL     1      -1.661  -0.613   1.985  1.00  0.00     0.066 A 
ATOM     21  C   UNL     1      -0.297  -1.178   3.886  1.00  0.00     0.030 A 
ATOM     22  C   UNL     1      -2.794  -0.413   2.771  1.00  0.00     0.028 A 
ATOM     23  C   UNL     1      -1.421  -0.990   4.715  1.00  0.00     0.002 A 
ATOM     24  C   UNL     1      -2.664  -0.609   4.159  1.00  0.00     0.002 A 
ATOM     25  H   UNL     1      -2.272  -0.195  -0.021  1.00  0.00     0.168 HD
ENDBRANCH   9  16
TORSDOF 3


