MODEL 1
REMARK VINA RESULT:      -5.7      0.000      0.000
REMARK SMILES CO/C(O)=C\[C](C)Oc1ccc([C@H]2O[C@@H]2C(=O)c2ccc(F)cc2)cc1F
REMARK SMILES IDX 8 1 6 2 7 3 5 4 3 5 4 6 2 8 1 9 9 10 10 11 26 12 11 13 25 14
REMARK SMILES IDX 12 15 27 16 13 17 14 18 15 19 16 20 17 21 18 22 19 23 24 24
REMARK SMILES IDX 20 25 23 26 21 27 22 28
REMARK H PARENT 4 7
ROOT
ATOM      1  O   UNL     1      43.485 131.900  22.522  1.00  0.00    -0.476 OA
ENDROOT
BRANCH   1   2
ATOM      2  C   UNL     1      43.265 130.841  23.451  1.00  0.00     0.174 C 
ATOM      3  C   UNL     1      44.412 130.790  24.450  1.00  0.00     0.066 C 
BRANCH   2   4
ATOM      4  C   UNL     1      43.141 129.531  22.728  1.00  0.00     0.113 C 
BRANCH   4   5
ATOM      5  C   UNL     1      43.378 128.374  23.344  1.00  0.00     0.276 C 
BRANCH   5   6
ATOM      6  O   UNL     1      42.856 128.172  24.624  1.00  0.00    -0.481 OA
ATOM      7  H   UNL     1      43.421 128.238  25.457  1.00  0.00     0.296 HD
ENDBRANCH   5   6
BRANCH   5   8
ATOM      8  O   UNL     1      44.142 127.389  22.703  1.00  0.00    -0.469 OA
ATOM      9  C   UNL     1      45.269 127.674  21.885  1.00  0.00     0.282 C 
ENDBRANCH   5   8
ENDBRANCH   4   5
ENDBRANCH   2   4
ENDBRANCH   1   2
BRANCH   1  10
ATOM     10  C   UNL     1      43.513 131.734  21.130  1.00  0.00     0.156 A 
ATOM     11  C   UNL     1      44.587 131.106  20.469  1.00  0.00     0.050 A 
ATOM     12  C   UNL     1      42.433 132.210  20.377  1.00  0.00     0.165 A 
ATOM     13  C   UNL     1      44.573 130.966  19.078  1.00  0.00     0.010 A 
ATOM     14  C   UNL     1      42.415 132.061  18.987  1.00  0.00     0.049 A 
ATOM     15  C   UNL     1      43.479 131.427  18.330  1.00  0.00    -0.013 A 
ATOM     16  F   UNL     1      41.388 132.813  20.998  1.00  0.00    -0.203 F 
BRANCH  15  17
ATOM     17  C   UNL     1      43.462 131.285  16.835  1.00  0.00     0.186 C 
ATOM     18  O   UNL     1      43.683 132.522  16.195  1.00  0.00    -0.356 OA
ATOM     19  C   UNL     1      44.742 131.593  16.148  1.00  0.00     0.224 C 
BRANCH  19  20
ATOM     20  C   UNL     1      44.901 131.014  14.772  1.00  0.00     0.194 C 
ATOM     21  O   UNL     1      43.893 130.947  14.019  1.00  0.00    -0.291 OA
BRANCH  20  22
ATOM     22  C   UNL     1      46.223 130.555  14.273  1.00  0.00     0.021 A 
ATOM     23  C   UNL     1      46.790 129.364  14.765  1.00  0.00     0.015 A 
ATOM     24  C   UNL     1      46.917 131.274  13.278  1.00  0.00     0.015 A 
ATOM     25  C   UNL     1      48.018 128.904  14.274  1.00  0.00     0.040 A 
ATOM     26  C   UNL     1      48.145 130.813  12.794  1.00  0.00     0.040 A 
ATOM     27  C   UNL     1      48.695 129.629  13.291  1.00  0.00     0.123 A 
ATOM     28  F   UNL     1      49.875 129.173  12.804  1.00  0.00    -0.207 F 
ENDBRANCH  20  22
ENDBRANCH  19  20
ENDBRANCH  15  17
ENDBRANCH   1  10
TORSDOF 9
ENDMDL
MODEL 2
REMARK VINA RESULT:      -4.7      2.555      8.869
REMARK SMILES CO/C(O)=C\[C](C)Oc1ccc([C@H]2O[C@@H]2C(=O)c2ccc(F)cc2)cc1F
REMARK SMILES IDX 8 1 6 2 7 3 5 4 3 5 4 6 2 8 1 9 9 10 10 11 26 12 11 13 25 14
REMARK SMILES IDX 12 15 27 16 13 17 14 18 15 19 16 20 17 21 18 22 19 23 24 24
REMARK SMILES IDX 20 25 23 26 21 27 22 28
REMARK H PARENT 4 7
ROOT
ATOM      1  O   UNL     1      44.359 131.461  15.248  1.00  0.00    -0.476 OA
ENDROOT
BRANCH   1   2
ATOM      2  C   UNL     1      45.191 130.730  14.350  1.00  0.00     0.174 C 
ATOM      3  C   UNL     1      45.551 129.385  14.965  1.00  0.00     0.066 C 
BRANCH   2   4
ATOM      4  C   UNL     1      46.434 131.513  14.038  1.00  0.00     0.113 C 
BRANCH   4   5
ATOM      5  C   UNL     1      47.451 130.963  13.374  1.00  0.00     0.276 C 
BRANCH   5   6
ATOM      6  O   UNL     1      47.912 131.587  12.213  1.00  0.00    -0.481 OA
ATOM      7  H   UNL     1      47.635 131.287  11.290  1.00  0.00     0.296 HD
ENDBRANCH   5   6
BRANCH   5   8
ATOM      8  O   UNL     1      48.033 129.781  13.850  1.00  0.00    -0.469 OA
ATOM      9  C   UNL     1      48.978 129.016  13.112  1.00  0.00     0.282 C 
ENDBRANCH   5   8
ENDBRANCH   4   5
ENDBRANCH   2   4
ENDBRANCH   1   2
BRANCH   1  10
ATOM     10  C   UNL     1      44.385 131.315  16.643  1.00  0.00     0.156 A 
ATOM     11  C   UNL     1      45.479 130.740  17.319  1.00  0.00     0.050 A 
ATOM     12  C   UNL     1      43.284 131.762  17.383  1.00  0.00     0.165 A 
ATOM     13  C   UNL     1      45.460 130.613  18.711  1.00  0.00     0.010 A 
ATOM     14  C   UNL     1      43.269 131.643  18.776  1.00  0.00     0.049 A 
ATOM     15  C   UNL     1      44.362 131.080  19.449  1.00  0.00    -0.013 A 
ATOM     16  F   UNL     1      42.224 132.323  16.749  1.00  0.00    -0.203 F 
BRANCH  15  17
ATOM     17  C   UNL     1      44.333 130.939  20.945  1.00  0.00     0.186 C 
ATOM     18  O   UNL     1      44.905 132.059  21.582  1.00  0.00    -0.356 OA
ATOM     19  C   UNL     1      43.504 131.938  21.666  1.00  0.00     0.224 C 
BRANCH  19  20
ATOM     20  C   UNL     1      43.071 131.549  23.050  1.00  0.00     0.194 C 
ATOM     21  O   UNL     1      42.814 132.458  23.885  1.00  0.00    -0.291 OA
BRANCH  20  22
ATOM     22  C   UNL     1      42.905 130.125  23.439  1.00  0.00     0.021 A 
ATOM     23  C   UNL     1      43.901 129.184  23.117  1.00  0.00     0.015 A 
ATOM     24  C   UNL     1      41.775 129.694  24.164  1.00  0.00     0.015 A 
ATOM     25  C   UNL     1      43.771 127.846  23.512  1.00  0.00     0.040 A 
ATOM     26  C   UNL     1      41.649 128.357  24.552  1.00  0.00     0.040 A 
ATOM     27  C   UNL     1      42.646 127.433  24.227  1.00  0.00     0.123 A 
ATOM     28  F   UNL     1      42.529 126.142  24.623  1.00  0.00    -0.207 F 
ENDBRANCH  20  22
ENDBRANCH  19  20
ENDBRANCH  15  17
ENDBRANCH   1  10
TORSDOF 9
ENDMDL
MODEL 3
REMARK VINA RESULT:      -4.3      4.963      8.243
REMARK SMILES CO/C(O)=C\[C](C)Oc1ccc([C@H]2O[C@@H]2C(=O)c2ccc(F)cc2)cc1F
REMARK SMILES IDX 8 1 6 2 7 3 5 4 3 5 4 6 2 8 1 9 9 10 10 11 26 12 11 13 25 14
REMARK SMILES IDX 12 15 27 16 13 17 14 18 15 19 16 20 17 21 18 22 19 23 24 24
REMARK SMILES IDX 20 25 23 26 21 27 22 28
REMARK H PARENT 4 7
ROOT
ATOM      1  O   UNL     1      46.524 123.288  23.966  1.00  0.00    -0.476 OA
ENDROOT
BRANCH   1   2
ATOM      2  C   UNL     1      47.533 122.697  23.151  1.00  0.00     0.174 C 
ATOM      3  C   UNL     1      48.827 122.578  23.944  1.00  0.00     0.066 C 
BRANCH   2   4
ATOM      4  C   UNL     1      47.750 123.518  21.914  1.00  0.00     0.113 C 
BRANCH   4   5
ATOM      5  C   UNL     1      48.925 124.094  21.661  1.00  0.00     0.276 C 
BRANCH   5   6
ATOM      6  O   UNL     1      49.816 123.456  20.796  1.00  0.00    -0.481 OA
ATOM      7  H   UNL     1      49.582 122.603  20.310  1.00  0.00     0.296 HD
ENDBRANCH   5   6
BRANCH   5   8
ATOM      8  O   UNL     1      49.242 125.319  22.264  1.00  0.00    -0.469 OA
ATOM      9  C   UNL     1      49.642 125.449  23.622  1.00  0.00     0.282 C 
ENDBRANCH   5   8
ENDBRANCH   4   5
ENDBRANCH   2   4
ENDBRANCH   1   2
BRANCH   1  10
ATOM     10  C   UNL     1      46.000 124.573  23.765  1.00  0.00     0.156 A 
ATOM     11  C   UNL     1      46.536 125.712  24.397  1.00  0.00     0.050 A 
ATOM     12  C   UNL     1      44.907 124.722  22.902  1.00  0.00     0.165 A 
ATOM     13  C   UNL     1      45.979 126.974  24.167  1.00  0.00     0.010 A 
ATOM     14  C   UNL     1      44.356 125.986  22.666  1.00  0.00     0.049 A 
ATOM     15  C   UNL     1      44.897 127.121  23.287  1.00  0.00    -0.013 A 
ATOM     16  F   UNL     1      44.381 123.637  22.281  1.00  0.00    -0.203 F 
BRANCH  15  17
ATOM     17  C   UNL     1      44.290 128.472  23.043  1.00  0.00     0.186 C 
ATOM     18  O   UNL     1      43.275 128.762  23.979  1.00  0.00    -0.356 OA
ATOM     19  C   UNL     1      44.486 129.468  24.127  1.00  0.00     0.224 C 
BRANCH  19  20
ATOM     20  C   UNL     1      44.332 130.907  23.729  1.00  0.00     0.194 C 
ATOM     21  O   UNL     1      44.496 131.802  24.602  1.00  0.00    -0.291 OA
BRANCH  20  22
ATOM     22  C   UNL     1      44.028 131.294  22.327  1.00  0.00     0.021 A 
ATOM     23  C   UNL     1      42.694 131.493  21.921  1.00  0.00     0.015 A 
ATOM     24  C   UNL     1      45.060 131.507  21.389  1.00  0.00     0.015 A 
ATOM     25  C   UNL     1      42.401 131.894  20.612  1.00  0.00     0.040 A 
ATOM     26  C   UNL     1      44.761 131.903  20.082  1.00  0.00     0.040 A 
ATOM     27  C   UNL     1      43.433 132.098  19.694  1.00  0.00     0.123 A 
ATOM     28  F   UNL     1      43.148 132.503  18.432  1.00  0.00    -0.207 F 
ENDBRANCH  20  22
ENDBRANCH  19  20
ENDBRANCH  15  17
ENDBRANCH   1  10
TORSDOF 9
ENDMDL
MODEL 4
REMARK VINA RESULT:      -4.1      4.889      8.783
REMARK SMILES CO/C(O)=C\[C](C)Oc1ccc([C@H]2O[C@@H]2C(=O)c2ccc(F)cc2)cc1F
REMARK SMILES IDX 8 1 6 2 7 3 5 4 3 5 4 6 2 8 1 9 9 10 10 11 26 12 11 13 25 14
REMARK SMILES IDX 12 15 27 16 13 17 14 18 15 19 16 20 17 21 18 22 19 23 24 24
REMARK SMILES IDX 20 25 23 26 21 27 22 28
REMARK H PARENT 4 7
ROOT
ATOM      1  O   UNL     1      48.659 123.131  22.296  1.00  0.00    -0.476 OA
ENDROOT
BRANCH   1   2
ATOM      2  C   UNL     1      49.877 122.956  23.015  1.00  0.00     0.174 C 
ATOM      3  C   UNL     1      49.593 122.963  24.511  1.00  0.00     0.066 C 
BRANCH   2   4
ATOM      4  C   UNL     1      50.851 124.042  22.662  1.00  0.00     0.113 C 
BRANCH   4   5
ATOM      5  C   UNL     1      51.402 124.113  21.450  1.00  0.00     0.276 C 
BRANCH   5   6
ATOM      6  O   UNL     1      52.374 125.086  21.209  1.00  0.00    -0.481 OA
ATOM      7  H   UNL     1      52.732 125.277  20.285  1.00  0.00     0.296 HD
ENDBRANCH   5   6
BRANCH   5   8
ATOM      8  O   UNL     1      50.998 123.219  20.449  1.00  0.00    -0.469 OA
ATOM      9  C   UNL     1      50.060 123.547  19.432  1.00  0.00     0.282 C 
ENDBRANCH   5   8
ENDBRANCH   4   5
ENDBRANCH   2   4
ENDBRANCH   1   2
BRANCH   1  10
ATOM     10  C   UNL     1      47.731 124.150  22.552  1.00  0.00     0.156 A 
ATOM     11  C   UNL     1      48.094 125.358  23.178  1.00  0.00     0.050 A 
ATOM     12  C   UNL     1      46.399 123.954  22.166  1.00  0.00     0.165 A 
ATOM     13  C   UNL     1      47.132 126.345  23.416  1.00  0.00     0.010 A 
ATOM     14  C   UNL     1      45.440 124.946  22.395  1.00  0.00     0.049 A 
ATOM     15  C   UNL     1      45.804 126.152  23.010  1.00  0.00    -0.013 A 
ATOM     16  F   UNL     1      46.032 122.799  21.557  1.00  0.00    -0.203 F 
BRANCH  15  17
ATOM     17  C   UNL     1      44.766 127.207  23.269  1.00  0.00     0.186 C 
ATOM     18  O   UNL     1      44.830 127.682  24.595  1.00  0.00    -0.356 OA
ATOM     19  C   UNL     1      45.292 128.558  23.592  1.00  0.00     0.224 C 
BRANCH  19  20
ATOM     20  C   UNL     1      44.338 129.698  23.380  1.00  0.00     0.194 C 
ATOM     21  O   UNL     1      43.683 130.134  24.364  1.00  0.00    -0.291 OA
BRANCH  20  22
ATOM     22  C   UNL     1      44.182 130.339  22.049  1.00  0.00     0.021 A 
ATOM     23  C   UNL     1      45.197 130.215  21.081  1.00  0.00     0.015 A 
ATOM     24  C   UNL     1      43.010 131.048  21.714  1.00  0.00     0.015 A 
ATOM     25  C   UNL     1      45.042 130.784  19.811  1.00  0.00     0.040 A 
ATOM     26  C   UNL     1      42.863 131.618  20.446  1.00  0.00     0.040 A 
ATOM     27  C   UNL     1      43.877 131.486  19.495  1.00  0.00     0.123 A 
ATOM     28  F   UNL     1      43.722 132.022  18.259  1.00  0.00    -0.207 F 
ENDBRANCH  20  22
ENDBRANCH  19  20
ENDBRANCH  15  17
ENDBRANCH   1  10
TORSDOF 9
ENDMDL
MODEL 5
REMARK VINA RESULT:      -3.5      5.159      6.600
REMARK SMILES CO/C(O)=C\[C](C)Oc1ccc([C@H]2O[C@@H]2C(=O)c2ccc(F)cc2)cc1F
REMARK SMILES IDX 8 1 6 2 7 3 5 4 3 5 4 6 2 8 1 9 9 10 10 11 26 12 11 13 25 14
REMARK SMILES IDX 12 15 27 16 13 17 14 18 15 19 16 20 17 21 18 22 19 23 24 24
REMARK SMILES IDX 20 25 23 26 21 27 22 28
REMARK H PARENT 4 7
ROOT
ATOM      1  O   UNL     1      49.149 134.829  23.765  1.00  0.00    -0.476 OA
ENDROOT
BRANCH   1   2
ATOM      2  C   UNL     1      50.504 135.144  23.452  1.00  0.00     0.174 C 
ATOM      3  C   UNL     1      51.401 134.762  24.621  1.00  0.00     0.066 C 
BRANCH   2   4
ATOM      4  C   UNL     1      50.641 136.606  23.142  1.00  0.00     0.113 C 
BRANCH   4   5
ATOM      5  C   UNL     1      50.700 137.047  21.886  1.00  0.00     0.276 C 
BRANCH   5   6
ATOM      6  O   UNL     1      51.945 137.373  21.345  1.00  0.00    -0.481 OA
ATOM      7  H   UNL     1      52.373 136.834  20.607  1.00  0.00     0.296 HD
ENDBRANCH   5   6
BRANCH   5   8
ATOM      8  O   UNL     1      49.522 137.175  21.138  1.00  0.00    -0.469 OA
ATOM      9  C   UNL     1      49.463 137.016  19.726  1.00  0.00     0.282 C 
ENDBRANCH   5   8
ENDBRANCH   4   5
ENDBRANCH   2   4
ENDBRANCH   1   2
BRANCH   1  10
ATOM     10  C   UNL     1      48.313 134.049  22.953  1.00  0.00     0.156 A 
ATOM     11  C   UNL     1      48.791 133.367  21.817  1.00  0.00     0.050 A 
ATOM     12  C   UNL     1      46.958 133.947  23.291  1.00  0.00     0.165 A 
ATOM     13  C   UNL     1      47.919 132.603  21.035  1.00  0.00     0.010 A 
ATOM     14  C   UNL     1      46.089 133.174  22.514  1.00  0.00     0.049 A 
ATOM     15  C   UNL     1      46.567 132.487  21.389  1.00  0.00    -0.013 A 
ATOM     16  F   UNL     1      46.482 134.592  24.385  1.00  0.00    -0.203 F 
BRANCH  15  17
ATOM     17  C   UNL     1      45.625 131.673  20.549  1.00  0.00     0.186 C 
ATOM     18  O   UNL     1      44.280 132.010  20.805  1.00  0.00    -0.356 OA
ATOM     19  C   UNL     1      44.811 132.441  19.573  1.00  0.00     0.224 C 
BRANCH  19  20
ATOM     20  C   UNL     1      44.247 131.650  18.427  1.00  0.00     0.194 C 
ATOM     21  O   UNL     1      43.034 131.310  18.461  1.00  0.00    -0.291 OA
BRANCH  20  22
ATOM     22  C   UNL     1      45.078 131.297  17.248  1.00  0.00     0.021 A 
ATOM     23  C   UNL     1      45.413 129.952  16.997  1.00  0.00     0.015 A 
ATOM     24  C   UNL     1      45.514 132.284  16.341  1.00  0.00     0.015 A 
ATOM     25  C   UNL     1      46.164 129.605  15.867  1.00  0.00     0.040 A 
ATOM     26  C   UNL     1      46.268 131.932  15.216  1.00  0.00     0.040 A 
ATOM     27  C   UNL     1      46.592 130.594  14.979  1.00  0.00     0.123 A 
ATOM     28  F   UNL     1      47.304 130.254  13.877  1.00  0.00    -0.207 F 
ENDBRANCH  20  22
ENDBRANCH  19  20
ENDBRANCH  15  17
ENDBRANCH   1  10
TORSDOF 9
ENDMDL
MODEL 6
REMARK VINA RESULT:      -3.4      5.446      9.050
REMARK SMILES CO/C(O)=C\[C](C)Oc1ccc([C@H]2O[C@@H]2C(=O)c2ccc(F)cc2)cc1F
REMARK SMILES IDX 8 1 6 2 7 3 5 4 3 5 4 6 2 8 1 9 9 10 10 11 26 12 11 13 25 14
REMARK SMILES IDX 12 15 27 16 13 17 14 18 15 19 16 20 17 21 18 22 19 23 24 24
REMARK SMILES IDX 20 25 23 26 21 27 22 28
REMARK H PARENT 4 7
ROOT
ATOM      1  O   UNL     1      48.794 124.273  24.621  1.00  0.00    -0.476 OA
ENDROOT
BRANCH   1   2
ATOM      2  C   UNL     1      49.523 123.471  23.695  1.00  0.00     0.174 C 
ATOM      3  C   UNL     1      50.779 122.931  24.365  1.00  0.00     0.066 C 
BRANCH   2   4
ATOM      4  C   UNL     1      49.882 124.274  22.479  1.00  0.00     0.113 C 
BRANCH   4   5
ATOM      5  C   UNL     1      50.446 123.705  21.414  1.00  0.00     0.276 C 
BRANCH   5   6
ATOM      6  O   UNL     1      50.138 122.376  21.118  1.00  0.00    -0.481 OA
ATOM      7  H   UNL     1      50.837 121.710  20.823  1.00  0.00     0.296 HD
ENDBRANCH   5   6
BRANCH   5   8
ATOM      8  O   UNL     1      51.332 124.445  20.618  1.00  0.00    -0.469 OA
ATOM      9  C   UNL     1      51.557 124.184  19.238  1.00  0.00     0.282 C 
ENDBRANCH   5   8
ENDBRANCH   4   5
ENDBRANCH   2   4
ENDBRANCH   1   2
BRANCH   1  10
ATOM     10  C   UNL     1      47.637 124.996  24.297  1.00  0.00     0.156 A 
ATOM     11  C   UNL     1      47.509 126.373  24.567  1.00  0.00     0.050 A 
ATOM     12  C   UNL     1      46.576 124.320  23.681  1.00  0.00     0.165 A 
ATOM     13  C   UNL     1      46.335 127.052  24.229  1.00  0.00     0.010 A 
ATOM     14  C   UNL     1      45.406 125.002  23.334  1.00  0.00     0.049 A 
ATOM     15  C   UNL     1      45.283 126.374  23.594  1.00  0.00    -0.013 A 
ATOM     16  F   UNL     1      46.684 122.996  23.408  1.00  0.00    -0.203 F 
BRANCH  15  17
ATOM     17  C   UNL     1      44.016 127.098  23.235  1.00  0.00     0.186 C 
ATOM     18  O   UNL     1      42.967 126.776  24.121  1.00  0.00    -0.356 OA
ATOM     19  C   UNL     1      43.522 128.065  24.248  1.00  0.00     0.224 C 
BRANCH  19  20
ATOM     20  C   UNL     1      42.581 129.119  23.740  1.00  0.00     0.194 C 
ATOM     21  O   UNL     1      41.410 129.164  24.204  1.00  0.00    -0.291 OA
BRANCH  20  22
ATOM     22  C   UNL     1      43.013 130.123  22.734  1.00  0.00     0.021 A 
ATOM     23  C   UNL     1      44.255 129.986  22.086  1.00  0.00     0.015 A 
ATOM     24  C   UNL     1      42.181 131.206  22.382  1.00  0.00     0.015 A 
ATOM     25  C   UNL     1      44.654 130.907  21.109  1.00  0.00     0.040 A 
ATOM     26  C   UNL     1      42.587 132.126  21.410  1.00  0.00     0.040 A 
ATOM     27  C   UNL     1      43.821 131.977  20.773  1.00  0.00     0.123 A 
ATOM     28  F   UNL     1      44.202 132.858  19.816  1.00  0.00    -0.207 F 
ENDBRANCH  20  22
ENDBRANCH  19  20
ENDBRANCH  15  17
ENDBRANCH   1  10
TORSDOF 9
ENDMDL
MODEL 7
REMARK VINA RESULT:      -3.0      2.658      8.903
REMARK SMILES CO/C(O)=C\[C](C)Oc1ccc([C@H]2O[C@@H]2C(=O)c2ccc(F)cc2)cc1F
REMARK SMILES IDX 8 1 6 2 7 3 5 4 3 5 4 6 2 8 1 9 9 10 10 11 26 12 11 13 25 14
REMARK SMILES IDX 12 15 27 16 13 17 14 18 15 19 16 20 17 21 18 22 19 23 24 24
REMARK SMILES IDX 20 25 23 26 21 27 22 28
REMARK H PARENT 4 7
ROOT
ATOM      1  O   UNL     1      46.161 131.067  16.726  1.00  0.00    -0.476 OA
ENDROOT
BRANCH   1   2
ATOM      2  C   UNL     1      46.226 130.039  15.741  1.00  0.00     0.174 C 
ATOM      3  C   UNL     1      47.477 130.220  14.894  1.00  0.00     0.066 C 
BRANCH   2   4
ATOM      4  C   UNL     1      44.999 130.069  14.875  1.00  0.00     0.113 C 
BRANCH   4   5
ATOM      5  C   UNL     1      44.429 131.220  14.520  1.00  0.00     0.276 C 
BRANCH   5   6
ATOM      6  O   UNL     1      44.708 132.368  15.264  1.00  0.00    -0.481 OA
ATOM      7  H   UNL     1      45.650 132.648  15.496  1.00  0.00     0.296 HD
ENDBRANCH   5   6
BRANCH   5   8
ATOM      8  O   UNL     1      43.566 131.257  13.416  1.00  0.00    -0.469 OA
ATOM      9  C   UNL     1      42.398 132.065  13.356  1.00  0.00     0.282 C 
ENDBRANCH   5   8
ENDBRANCH   4   5
ENDBRANCH   2   4
ENDBRANCH   1   2
BRANCH   1  10
ATOM     10  C   UNL     1      45.776 130.859  18.058  1.00  0.00     0.156 A 
ATOM     11  C   UNL     1      46.071 129.668  18.750  1.00  0.00     0.050 A 
ATOM     12  C   UNL     1      45.077 131.877  18.719  1.00  0.00     0.165 A 
ATOM     13  C   UNL     1      45.664 129.504  20.077  1.00  0.00     0.010 A 
ATOM     14  C   UNL     1      44.679 131.716  20.050  1.00  0.00     0.049 A 
ATOM     15  C   UNL     1      44.981 130.535  20.741  1.00  0.00    -0.013 A 
ATOM     16  F   UNL     1      44.789 133.033  18.071  1.00  0.00    -0.203 F 
BRANCH  15  17
ATOM     17  C   UNL     1      44.536 130.361  22.165  1.00  0.00     0.186 C 
ATOM     18  O   UNL     1      43.807 131.480  22.620  1.00  0.00    -0.356 OA
ATOM     19  C   UNL     1      43.066 130.306  22.374  1.00  0.00     0.224 C 
BRANCH  19  20
ATOM     20  C   UNL     1      42.612 129.668  23.655  1.00  0.00     0.194 C 
ATOM     21  O   UNL     1      42.285 130.408  24.622  1.00  0.00    -0.291 OA
BRANCH  20  22
ATOM     22  C   UNL     1      42.507 128.192  23.789  1.00  0.00     0.021 A 
ATOM     23  C   UNL     1      43.657 127.388  23.673  1.00  0.00     0.015 A 
ATOM     24  C   UNL     1      41.273 127.572  24.071  1.00  0.00     0.015 A 
ATOM     25  C   UNL     1      43.574 125.999  23.836  1.00  0.00     0.040 A 
ATOM     26  C   UNL     1      41.194 126.185  24.229  1.00  0.00     0.040 A 
ATOM     27  C   UNL     1      42.344 125.399  24.111  1.00  0.00     0.123 A 
ATOM     28  F   UNL     1      42.268 124.057  24.286  1.00  0.00    -0.207 F 
ENDBRANCH  20  22
ENDBRANCH  19  20
ENDBRANCH  15  17
ENDBRANCH   1  10
TORSDOF 9
ENDMDL


