MODEL 1
REMARK VINA RESULT:      -5.8      0.000      0.000
REMARK SMILES C[C@@H](CO)[N-]C(=O)C[N+]1=C(O)c2cc(-c3ccc4[nH]ccc4c3)cnc2C1
REMARK SMILES IDX 5 1 2 2 1 3 3 4 4 5 6 7 7 8 8 9 9 10 27 11 10 12 26 13 12 14
REMARK SMILES IDX 25 15 13 16 24 17 14 18 11 19 15 21 16 22 23 23 17 24 22 25
REMARK SMILES IDX 18 26 21 27 19 28 20 29
REMARK H PARENT 4 6 11 20 19 30
ROOT
ATOM      1  N   UNL     1      43.583 128.476  22.868  1.00  0.00    -0.644 NA
ENDROOT
BRANCH   1   2
ATOM      2  C   UNL     1      44.853 127.838  23.210  1.00  0.00    -0.084 C 
ATOM      3  C   UNL     1      45.280 128.242  24.625  1.00  0.00    -0.011 C 
BRANCH   2   4
ATOM      4  C   UNL     1      44.711 126.314  23.088  1.00  0.00     0.140 C 
BRANCH   4   5
ATOM      5  O   UNL     1      43.575 125.965  22.341  1.00  0.00    -0.398 OA
ATOM      6  H   UNL     1      43.535 124.974  22.326  1.00  0.00     0.210 HD
ENDBRANCH   4   5
ENDBRANCH   2   4
ENDBRANCH   1   2
BRANCH   1   7
ATOM      7  C   UNL     1      43.120 129.740  23.365  1.00  0.00     0.117 C 
ATOM      8  O   UNL     1      42.133 129.760  24.145  1.00  0.00    -0.313 OA
BRANCH   7   9
ATOM      9  C   UNL     1      43.731 131.045  22.927  1.00  0.00     0.410 C 
BRANCH   9  10
ATOM     10  N   UNL     1      43.796 131.164  21.463  1.00  0.00    -0.186 N 
ATOM     11  C   UNL     1      42.748 131.743  20.600  1.00  0.00     0.412 C 
ATOM     12  C   UNL     1      44.818 130.794  20.741  1.00  0.00     0.370 C 
ATOM     13  C   UNL     1      43.356 131.626  19.247  1.00  0.00     0.122 A 
ATOM     14  C   UNL     1      44.589 131.057  19.340  1.00  0.00     0.115 A 
ATOM     15  N   UNL     1      42.834 132.007  18.056  1.00  0.00    -0.253 NA
ATOM     16  C   UNL     1      45.373 130.841  18.213  1.00  0.00     0.031 A 
ATOM     17  C   UNL     1      43.558 131.820  16.912  1.00  0.00     0.120 A 
ATOM     18  C   UNL     1      44.850 131.229  16.959  1.00  0.00     0.001 A 
BRANCH  12  19
ATOM     19  O   UNL     1      45.985 130.224  21.250  1.00  0.00    -0.460 OA
ATOM     20  H   UNL     1      46.121 130.057  22.239  1.00  0.00     0.300 HD
ENDBRANCH  12  19
BRANCH  18  21
ATOM     21  C   UNL     1      45.637 131.027  15.717  1.00  0.00    -0.016 A 
ATOM     22  C   UNL     1      45.322 131.759  14.539  1.00  0.00     0.011 A 
ATOM     23  C   UNL     1      46.708 130.101  15.692  1.00  0.00     0.019 A 
ATOM     24  C   UNL     1      46.061 131.574  13.355  1.00  0.00     0.027 A 
ATOM     25  C   UNL     1      47.416 129.945  14.503  1.00  0.00    -0.000 A 
ATOM     26  C   UNL     1      47.105 130.655  13.376  1.00  0.00     0.045 A 
ATOM     27  C   UNL     1      48.482 129.128  14.195  1.00  0.00     0.028 A 
ATOM     28  N   UNL     1      47.925 130.328  12.365  1.00  0.00    -0.361 N 
ATOM     29  C   UNL     1      48.769 129.395  12.860  1.00  0.00     0.083 A 
ATOM     30  H   UNL     1      47.915 130.712  11.393  1.00  0.00     0.166 HD
ENDBRANCH  18  21
ENDBRANCH   9  10
ENDBRANCH   7   9
ENDBRANCH   1   7
TORSDOF 8
ENDMDL
MODEL 2
REMARK VINA RESULT:      -5.4      1.241      1.754
REMARK SMILES C[C@@H](CO)[N-]C(=O)C[N+]1=C(O)c2cc(-c3ccc4[nH]ccc4c3)cnc2C1
REMARK SMILES IDX 5 1 2 2 1 3 3 4 4 5 6 7 7 8 8 9 9 10 27 11 10 12 26 13 12 14
REMARK SMILES IDX 25 15 13 16 24 17 14 18 11 19 15 21 16 22 23 23 17 24 22 25
REMARK SMILES IDX 18 26 21 27 19 28 20 29
REMARK H PARENT 4 6 11 20 19 30
ROOT
ATOM      1  N   UNL     1      42.605 129.277  23.294  1.00  0.00    -0.644 NA
ENDROOT
BRANCH   1   2
ATOM      2  C   UNL     1      42.853 128.051  24.052  1.00  0.00    -0.084 C 
ATOM      3  C   UNL     1      41.661 127.099  23.916  1.00  0.00    -0.011 C 
BRANCH   2   4
ATOM      4  C   UNL     1      44.148 127.393  23.553  1.00  0.00     0.140 C 
BRANCH   4   5
ATOM      5  O   UNL     1      44.906 126.884  24.619  1.00  0.00    -0.398 OA
ATOM      6  H   UNL     1      44.423 126.086  24.959  1.00  0.00     0.210 HD
ENDBRANCH   4   5
ENDBRANCH   2   4
ENDBRANCH   1   2
BRANCH   1   7
ATOM      7  C   UNL     1      43.387 130.478  23.367  1.00  0.00     0.117 C 
ATOM      8  O   UNL     1      44.395 130.500  24.120  1.00  0.00    -0.313 OA
BRANCH   7   9
ATOM      9  C   UNL     1      42.998 131.733  22.630  1.00  0.00     0.410 C 
BRANCH   9  10
ATOM     10  N   UNL     1      43.289 131.644  21.192  1.00  0.00    -0.186 N 
ATOM     11  C   UNL     1      42.400 132.098  20.104  1.00  0.00     0.412 C 
ATOM     12  C   UNL     1      44.400 131.173  20.696  1.00  0.00     0.370 C 
ATOM     13  C   UNL     1      43.205 131.791  18.892  1.00  0.00     0.122 A 
ATOM     14  C   UNL     1      44.395 131.237  19.253  1.00  0.00     0.115 A 
ATOM     15  N   UNL     1      42.881 132.001  17.593  1.00  0.00    -0.253 NA
ATOM     16  C   UNL     1      45.336 130.862  18.302  1.00  0.00     0.031 A 
ATOM     17  C   UNL     1      43.767 131.653  16.612  1.00  0.00     0.120 A 
ATOM     18  C   UNL     1      45.022 131.071  16.941  1.00  0.00     0.001 A 
BRANCH  12  19
ATOM     19  O   UNL     1      45.461 130.677  21.454  1.00  0.00    -0.460 OA
ATOM     20  H   UNL     1      45.324 130.031  22.220  1.00  0.00     0.300 HD
ENDBRANCH  12  19
BRANCH  18  21
ATOM     21  C   UNL     1      45.984 130.694  15.876  1.00  0.00    -0.016 A 
ATOM     22  C   UNL     1      46.982 129.711  16.124  1.00  0.00     0.011 A 
ATOM     23  C   UNL     1      45.919 131.309  14.602  1.00  0.00     0.019 A 
ATOM     24  C   UNL     1      47.901 129.346  15.122  1.00  0.00     0.027 A 
ATOM     25  C   UNL     1      46.844 130.922  13.636  1.00  0.00    -0.000 A 
ATOM     26  C   UNL     1      47.801 129.976  13.886  1.00  0.00     0.045 A 
ATOM     27  C   UNL     1      47.016 131.348  12.337  1.00  0.00     0.028 A 
ATOM     28  N   UNL     1      48.571 129.779  12.805  1.00  0.00    -0.361 N 
ATOM     29  C   UNL     1      48.095 130.616  11.854  1.00  0.00     0.083 A 
ATOM     30  H   UNL     1      49.375 129.118  12.712  1.00  0.00     0.166 HD
ENDBRANCH  18  21
ENDBRANCH   9  10
ENDBRANCH   7   9
ENDBRANCH   1   7
TORSDOF 8
ENDMDL
MODEL 3
REMARK VINA RESULT:      -5.3      1.251      1.374
REMARK SMILES C[C@@H](CO)[N-]C(=O)C[N+]1=C(O)c2cc(-c3ccc4[nH]ccc4c3)cnc2C1
REMARK SMILES IDX 5 1 2 2 1 3 3 4 4 5 6 7 7 8 8 9 9 10 27 11 10 12 26 13 12 14
REMARK SMILES IDX 25 15 13 16 24 17 14 18 11 19 15 21 16 22 23 23 17 24 22 25
REMARK SMILES IDX 18 26 21 27 19 28 20 29
REMARK H PARENT 4 6 11 20 19 30
ROOT
ATOM      1  N   UNL     1      44.744 130.015  23.840  1.00  0.00    -0.644 NA
ENDROOT
BRANCH   1   2
ATOM      2  C   UNL     1      44.111 128.726  24.118  1.00  0.00    -0.084 C 
ATOM      3  C   UNL     1      42.643 128.934  24.502  1.00  0.00    -0.011 C 
BRANCH   2   4
ATOM      4  C   UNL     1      44.240 127.815  22.888  1.00  0.00     0.140 C 
BRANCH   4   5
ATOM      5  O   UNL     1      45.552 127.815  22.388  1.00  0.00    -0.398 OA
ATOM      6  H   UNL     1      46.156 127.910  23.170  1.00  0.00     0.210 HD
ENDBRANCH   4   5
ENDBRANCH   2   4
ENDBRANCH   1   2
BRANCH   1   7
ATOM      7  C   UNL     1      44.090 131.292  23.868  1.00  0.00     0.117 C 
ATOM      8  O   UNL     1      44.558 132.196  24.607  1.00  0.00    -0.313 OA
BRANCH   7   9
ATOM      9  C   UNL     1      42.824 131.560  23.099  1.00  0.00     0.410 C 
BRANCH   9  10
ATOM     10  N   UNL     1      43.046 131.560  21.645  1.00  0.00    -0.186 N 
ATOM     11  C   UNL     1      42.039 131.899  20.621  1.00  0.00     0.412 C 
ATOM     12  C   UNL     1      44.188 131.285  21.078  1.00  0.00     0.370 C 
ATOM     13  C   UNL     1      42.815 131.759  19.359  1.00  0.00     0.122 A 
ATOM     14  C   UNL     1      44.094 131.390  19.641  1.00  0.00     0.115 A 
ATOM     15  N   UNL     1      42.391 131.953  18.086  1.00  0.00    -0.253 NA
ATOM     16  C   UNL     1      45.030 131.196  18.631  1.00  0.00     0.031 A 
ATOM     17  C   UNL     1      43.266 131.778  17.051  1.00  0.00     0.120 A 
ATOM     18  C   UNL     1      44.613 131.393  17.295  1.00  0.00     0.001 A 
BRANCH  12  19
ATOM     19  O   UNL     1      45.354 130.941  21.763  1.00  0.00    -0.460 OA
ATOM     20  H   UNL     1      45.349 130.669  22.738  1.00  0.00     0.300 HD
ENDBRANCH  12  19
BRANCH  18  21
ATOM     21  C   UNL     1      45.563 131.203  16.171  1.00  0.00    -0.016 A 
ATOM     22  C   UNL     1      45.781 132.248  15.230  1.00  0.00     0.011 A 
ATOM     23  C   UNL     1      46.260 129.980  16.023  1.00  0.00     0.019 A 
ATOM     24  C   UNL     1      46.679 132.079  14.160  1.00  0.00     0.027 A 
ATOM     25  C   UNL     1      47.140 129.850  14.952  1.00  0.00    -0.000 A 
ATOM     26  C   UNL     1      47.343 130.861  14.052  1.00  0.00     0.045 A 
ATOM     27  C   UNL     1      47.934 128.792  14.567  1.00  0.00     0.028 A 
ATOM     28  N   UNL     1      48.230 130.495  13.114  1.00  0.00    -0.361 N 
ATOM     29  C   UNL     1      48.596 129.230  13.424  1.00  0.00     0.083 A 
ATOM     30  H   UNL     1      48.571 131.065  12.308  1.00  0.00     0.166 HD
ENDBRANCH  18  21
ENDBRANCH   9  10
ENDBRANCH   7   9
ENDBRANCH   1   7
TORSDOF 8
ENDMDL
MODEL 4
REMARK VINA RESULT:      -4.9      1.555      2.333
REMARK SMILES C[C@@H](CO)[N-]C(=O)C[N+]1=C(O)c2cc(-c3ccc4[nH]ccc4c3)cnc2C1
REMARK SMILES IDX 5 1 2 2 1 3 3 4 4 5 6 7 7 8 8 9 9 10 27 11 10 12 26 13 12 14
REMARK SMILES IDX 25 15 13 16 24 17 14 18 11 19 15 21 16 22 23 23 17 24 22 25
REMARK SMILES IDX 18 26 21 27 19 28 20 29
REMARK H PARENT 4 6 11 20 19 30
ROOT
ATOM      1  N   UNL     1      43.973 126.266  23.128  1.00  0.00    -0.644 NA
ENDROOT
BRANCH   1   2
ATOM      2  C   UNL     1      44.625 125.023  23.538  1.00  0.00    -0.084 C 
ATOM      3  C   UNL     1      44.510 123.977  22.425  1.00  0.00    -0.011 C 
BRANCH   2   4
ATOM      4  C   UNL     1      46.094 125.305  23.885  1.00  0.00     0.140 C 
BRANCH   4   5
ATOM      5  O   UNL     1      46.870 125.467  22.728  1.00  0.00    -0.398 OA
ATOM      6  H   UNL     1      47.021 126.443  22.618  1.00  0.00     0.210 HD
ENDBRANCH   4   5
ENDBRANCH   2   4
ENDBRANCH   1   2
BRANCH   1   7
ATOM      7  C   UNL     1      43.788 127.426  23.953  1.00  0.00     0.117 C 
ATOM      8  O   UNL     1      42.729 127.529  24.625  1.00  0.00    -0.313 OA
BRANCH   7   9
ATOM      9  C   UNL     1      44.785 128.554  23.983  1.00  0.00     0.410 C 
BRANCH   9  10
ATOM     10  N   UNL     1      44.775 129.338  22.740  1.00  0.00    -0.186 N 
ATOM     11  C   UNL     1      44.402 130.761  22.623  1.00  0.00     0.412 C 
ATOM     12  C   UNL     1      45.129 128.870  21.574  1.00  0.00     0.370 C 
ATOM     13  C   UNL     1      44.599 131.020  21.171  1.00  0.00     0.122 A 
ATOM     14  C   UNL     1      45.029 129.886  20.553  1.00  0.00     0.115 A 
ATOM     15  N   UNL     1      44.407 132.176  20.490  1.00  0.00    -0.253 NA
ATOM     16  C   UNL     1      45.295 129.862  19.189  1.00  0.00     0.031 A 
ATOM     17  C   UNL     1      44.652 132.214  19.146  1.00  0.00     0.120 A 
ATOM     18  C   UNL     1      45.102 131.056  18.457  1.00  0.00     0.001 A 
BRANCH  12  19
ATOM     19  O   UNL     1      45.554 127.562  21.339  1.00  0.00    -0.460 OA
ATOM     20  H   UNL     1      46.516 127.336  21.125  1.00  0.00     0.300 HD
ENDBRANCH  12  19
BRANCH  18  21
ATOM     21  C   UNL     1      45.368 131.098  16.997  1.00  0.00    -0.016 A 
ATOM     22  C   UNL     1      44.402 131.641  16.105  1.00  0.00     0.011 A 
ATOM     23  C   UNL     1      46.587 130.596  16.478  1.00  0.00     0.019 A 
ATOM     24  C   UNL     1      44.644 131.685  14.720  1.00  0.00     0.027 A 
ATOM     25  C   UNL     1      46.790 130.657  15.102  1.00  0.00    -0.000 A 
ATOM     26  C   UNL     1      45.854 131.181  14.253  1.00  0.00     0.045 A 
ATOM     27  C   UNL     1      47.858 130.247  14.334  1.00  0.00     0.028 A 
ATOM     28  N   UNL     1      46.278 131.126  12.981  1.00  0.00    -0.361 N 
ATOM     29  C   UNL     1      47.504 130.555  13.024  1.00  0.00     0.083 A 
ATOM     30  H   UNL     1      45.770 131.453  12.129  1.00  0.00     0.166 HD
ENDBRANCH  18  21
ENDBRANCH   9  10
ENDBRANCH   7   9
ENDBRANCH   1   7
TORSDOF 8
ENDMDL
MODEL 5
REMARK VINA RESULT:      -4.8      0.938      1.489
REMARK SMILES C[C@@H](CO)[N-]C(=O)C[N+]1=C(O)c2cc(-c3ccc4[nH]ccc4c3)cnc2C1
REMARK SMILES IDX 5 1 2 2 1 3 3 4 4 5 6 7 7 8 8 9 9 10 27 11 10 12 26 13 12 14
REMARK SMILES IDX 25 15 13 16 24 17 14 18 11 19 15 21 16 22 23 23 17 24 22 25
REMARK SMILES IDX 18 26 21 27 19 28 20 29
REMARK H PARENT 4 6 11 20 19 30
ROOT
ATOM      1  N   UNL     1      44.350 128.604  23.707  1.00  0.00    -0.644 NA
ENDROOT
BRANCH   1   2
ATOM      2  C   UNL     1      44.182 127.265  23.145  1.00  0.00    -0.084 C 
ATOM      3  C   UNL     1      45.392 126.903  22.279  1.00  0.00    -0.011 C 
BRANCH   2   4
ATOM      4  C   UNL     1      43.990 126.252  24.283  1.00  0.00     0.140 C 
BRANCH   4   5
ATOM      5  O   UNL     1      43.229 125.150  23.864  1.00  0.00    -0.398 OA
ATOM      6  H   UNL     1      43.571 124.360  24.359  1.00  0.00     0.210 HD
ENDBRANCH   4   5
ENDBRANCH   2   4
ENDBRANCH   1   2
BRANCH   1   7
ATOM      7  C   UNL     1      43.402 129.678  23.609  1.00  0.00     0.117 C 
ATOM      8  O   UNL     1      42.192 129.442  23.863  1.00  0.00    -0.313 OA
BRANCH   7   9
ATOM      9  C   UNL     1      43.796 131.054  23.144  1.00  0.00     0.410 C 
BRANCH   9  10
ATOM     10  N   UNL     1      43.981 131.116  21.686  1.00  0.00    -0.186 N 
ATOM     11  C   UNL     1      43.122 131.856  20.741  1.00  0.00     0.412 C 
ATOM     12  C   UNL     1      44.960 130.539  21.046  1.00  0.00     0.370 C 
ATOM     13  C   UNL     1      43.786 131.588  19.437  1.00  0.00     0.122 A 
ATOM     14  C   UNL     1      44.879 130.799  19.628  1.00  0.00     0.115 A 
ATOM     15  N   UNL     1      43.427 132.025  18.206  1.00  0.00    -0.253 NA
ATOM     16  C   UNL     1      45.682 130.406  18.564  1.00  0.00     0.031 A 
ATOM     17  C   UNL     1      44.178 131.671  17.120  1.00  0.00     0.120 A 
ATOM     18  C   UNL     1      45.328 130.849  17.269  1.00  0.00     0.001 A 
BRANCH  12  19
ATOM     19  O   UNL     1      45.960 129.774  21.646  1.00  0.00    -0.460 OA
ATOM     20  H   UNL     1      46.070 128.785  21.463  1.00  0.00     0.300 HD
ENDBRANCH  12  19
BRANCH  18  21
ATOM     21  C   UNL     1      46.144 130.465  16.090  1.00  0.00    -0.016 A 
ATOM     22  C   UNL     1      46.763 129.186  16.029  1.00  0.00     0.011 A 
ATOM     23  C   UNL     1      46.314 131.370  15.014  1.00  0.00     0.019 A 
ATOM     24  C   UNL     1      47.539 128.812  14.916  1.00  0.00     0.027 A 
ATOM     25  C   UNL     1      47.089 130.965  13.930  1.00  0.00    -0.000 A 
ATOM     26  C   UNL     1      47.681 129.732  13.882  1.00  0.00     0.045 A 
ATOM     27  C   UNL     1      47.423 131.627  12.769  1.00  0.00     0.028 A 
ATOM     28  N   UNL     1      48.373 129.579  12.743  1.00  0.00    -0.361 N 
ATOM     29  C   UNL     1      48.219 130.735  12.058  1.00  0.00     0.083 A 
ATOM     30  H   UNL     1      48.922 128.742  12.443  1.00  0.00     0.166 HD
ENDBRANCH  18  21
ENDBRANCH   9  10
ENDBRANCH   7   9
ENDBRANCH   1   7
TORSDOF 8
ENDMDL
MODEL 6
REMARK VINA RESULT:      -4.8      1.743      2.300
REMARK SMILES C[C@@H](CO)[N-]C(=O)C[N+]1=C(O)c2cc(-c3ccc4[nH]ccc4c3)cnc2C1
REMARK SMILES IDX 5 1 2 2 1 3 3 4 4 5 6 7 7 8 8 9 9 10 27 11 10 12 26 13 12 14
REMARK SMILES IDX 25 15 13 16 24 17 14 18 11 19 15 21 16 22 23 23 17 24 22 25
REMARK SMILES IDX 18 26 21 27 19 28 20 29
REMARK H PARENT 4 6 11 20 19 30
ROOT
ATOM      1  N   UNL     1      43.801 126.110  23.135  1.00  0.00    -0.644 NA
ENDROOT
BRANCH   1   2
ATOM      2  C   UNL     1      43.379 124.719  23.298  1.00  0.00    -0.084 C 
ATOM      3  C   UNL     1      42.000 124.663  23.963  1.00  0.00    -0.011 C 
BRANCH   2   4
ATOM      4  C   UNL     1      43.364 124.024  21.929  1.00  0.00     0.140 C 
BRANCH   4   5
ATOM      5  O   UNL     1      42.630 122.828  21.970  1.00  0.00    -0.398 OA
ATOM      6  H   UNL     1      43.289 122.091  22.056  1.00  0.00     0.210 HD
ENDBRANCH   4   5
ENDBRANCH   2   4
ENDBRANCH   1   2
BRANCH   1   7
ATOM      7  C   UNL     1      43.391 127.211  23.960  1.00  0.00     0.117 C 
ATOM      8  O   UNL     1      42.327 127.107  24.623  1.00  0.00    -0.313 OA
BRANCH   7   9
ATOM      9  C   UNL     1      44.154 128.508  24.000  1.00  0.00     0.410 C 
BRANCH   9  10
ATOM     10  N   UNL     1      44.160 129.189  22.696  1.00  0.00    -0.186 N 
ATOM     11  C   UNL     1      43.212 130.235  22.267  1.00  0.00     0.412 C 
ATOM     12  C   UNL     1      45.039 128.967  21.757  1.00  0.00     0.370 C 
ATOM     13  C   UNL     1      43.705 130.566  20.903  1.00  0.00     0.122 A 
ATOM     14  C   UNL     1      44.792 129.803  20.606  1.00  0.00     0.115 A 
ATOM     15  N   UNL     1      43.209 131.474  20.028  1.00  0.00    -0.253 NA
ATOM     16  C   UNL     1      45.448 129.923  19.386  1.00  0.00     0.031 A 
ATOM     17  C   UNL     1      43.812 131.637  18.812  1.00  0.00     0.120 A 
ATOM     18  C   UNL     1      44.950 130.864  18.456  1.00  0.00     0.001 A 
BRANCH  12  19
ATOM     19  O   UNL     1      46.085 128.049  21.848  1.00  0.00    -0.460 OA
ATOM     20  H   UNL     1      45.940 127.052  21.763  1.00  0.00     0.300 HD
ENDBRANCH  12  19
BRANCH  18  21
ATOM     21  C   UNL     1      45.605 131.041  17.137  1.00  0.00    -0.016 A 
ATOM     22  C   UNL     1      45.610 132.315  16.502  1.00  0.00     0.011 A 
ATOM     23  C   UNL     1      46.230 129.945  16.495  1.00  0.00     0.019 A 
ATOM     24  C   UNL     1      46.227 132.494  15.250  1.00  0.00     0.027 A 
ATOM     25  C   UNL     1      46.830 130.160  15.257  1.00  0.00    -0.000 A 
ATOM     26  C   UNL     1      46.829 131.390  14.656  1.00  0.00     0.045 A 
ATOM     27  C   UNL     1      47.494 129.292  14.419  1.00  0.00     0.028 A 
ATOM     28  N   UNL     1      47.464 131.343  13.474  1.00  0.00    -0.361 N 
ATOM     29  C   UNL     1      47.874 130.062  13.324  1.00  0.00     0.083 A 
ATOM     30  H   UNL     1      47.613 132.130  12.804  1.00  0.00     0.166 HD
ENDBRANCH  18  21
ENDBRANCH   9  10
ENDBRANCH   7   9
ENDBRANCH   1   7
TORSDOF 8
ENDMDL
MODEL 7
REMARK VINA RESULT:      -3.9      1.389      1.838
REMARK SMILES C[C@@H](CO)[N-]C(=O)C[N+]1=C(O)c2cc(-c3ccc4[nH]ccc4c3)cnc2C1
REMARK SMILES IDX 5 1 2 2 1 3 3 4 4 5 6 7 7 8 8 9 9 10 27 11 10 12 26 13 12 14
REMARK SMILES IDX 25 15 13 16 24 17 14 18 11 19 15 21 16 22 23 23 17 24 22 25
REMARK SMILES IDX 18 26 21 27 19 28 20 29
REMARK H PARENT 4 6 11 20 19 30
ROOT
ATOM      1  N   UNL     1      42.685 130.654  23.990  1.00  0.00    -0.644 NA
ENDROOT
BRANCH   1   2
ATOM      2  C   UNL     1      43.000 129.496  23.154  1.00  0.00    -0.084 C 
ATOM      3  C   UNL     1      44.357 128.911  23.557  1.00  0.00    -0.011 C 
BRANCH   2   4
ATOM      4  C   UNL     1      41.884 128.450  23.285  1.00  0.00     0.140 C 
BRANCH   4   5
ATOM      5  O   UNL     1      42.383 127.225  23.755  1.00  0.00    -0.398 OA
ATOM      6  H   UNL     1      42.436 127.298  24.743  1.00  0.00     0.210 HD
ENDBRANCH   4   5
ENDBRANCH   2   4
ENDBRANCH   1   2
BRANCH   1   7
ATOM      7  C   UNL     1      42.383 131.973  23.514  1.00  0.00     0.117 C 
ATOM      8  O   UNL     1      41.207 132.405  23.633  1.00  0.00    -0.313 OA
BRANCH   7   9
ATOM      9  C   UNL     1      43.407 132.825  22.812  1.00  0.00     0.410 C 
BRANCH   9  10
ATOM     10  N   UNL     1      43.526 132.490  21.385  1.00  0.00    -0.186 N 
ATOM     11  C   UNL     1      42.520 132.783  20.346  1.00  0.00     0.412 C 
ATOM     12  C   UNL     1      44.565 131.909  20.852  1.00  0.00     0.370 C 
ATOM     13  C   UNL     1      43.173 132.254  19.119  1.00  0.00     0.122 A 
ATOM     14  C   UNL     1      44.390 131.732  19.430  1.00  0.00     0.115 A 
ATOM     15  N   UNL     1      42.700 132.255  17.848  1.00  0.00    -0.253 NA
ATOM     16  C   UNL     1      45.209 131.175  18.455  1.00  0.00     0.031 A 
ATOM     17  C   UNL     1      43.460 131.721  16.846  1.00  0.00     0.120 A 
ATOM     18  C   UNL     1      44.739 131.164  17.122  1.00  0.00     0.001 A 
BRANCH  12  19
ATOM     19  O   UNL     1      45.703 131.514  21.557  1.00  0.00    -0.460 OA
ATOM     20  H   UNL     1      46.370 130.853  21.181  1.00  0.00     0.300 HD
ENDBRANCH  12  19
BRANCH  18  21
ATOM     21  C   UNL     1      45.564 130.586  16.034  1.00  0.00    -0.016 A 
ATOM     22  C   UNL     1      45.593 129.179  15.823  1.00  0.00     0.011 A 
ATOM     23  C   UNL     1      46.334 131.428  15.195  1.00  0.00     0.019 A 
ATOM     24  C   UNL     1      46.373 128.619  14.794  1.00  0.00     0.027 A 
ATOM     25  C   UNL     1      47.094 130.838  14.188  1.00  0.00    -0.000 A 
ATOM     26  C   UNL     1      47.113 129.483  13.994  1.00  0.00     0.045 A 
ATOM     27  C   UNL     1      47.925 131.401  13.245  1.00  0.00     0.028 A 
ATOM     28  N   UNL     1      47.918 129.160  12.970  1.00  0.00    -0.361 N 
ATOM     29  C   UNL     1      48.417 130.329  12.508  1.00  0.00     0.083 A 
ATOM     30  H   UNL     1      48.122 128.204  12.602  1.00  0.00     0.166 HD
ENDBRANCH  18  21
ENDBRANCH   9  10
ENDBRANCH   7   9
ENDBRANCH   1   7
TORSDOF 8
ENDMDL
MODEL 8
REMARK VINA RESULT:      -3.5      1.031      1.107
REMARK SMILES C[C@@H](CO)[N-]C(=O)C[N+]1=C(O)c2cc(-c3ccc4[nH]ccc4c3)cnc2C1
REMARK SMILES IDX 5 1 2 2 1 3 3 4 4 5 6 7 7 8 8 9 9 10 27 11 10 12 26 13 12 14
REMARK SMILES IDX 25 15 13 16 24 17 14 18 11 19 15 21 16 22 23 23 17 24 22 25
REMARK SMILES IDX 18 26 21 27 19 28 20 29
REMARK H PARENT 4 6 11 20 19 30
ROOT
ATOM      1  N   UNL     1      44.687 128.431  24.129  1.00  0.00    -0.644 NA
ENDROOT
BRANCH   1   2
ATOM      2  C   UNL     1      45.351 127.836  22.970  1.00  0.00    -0.084 C 
ATOM      3  C   UNL     1      46.579 127.039  23.420  1.00  0.00    -0.011 C 
BRANCH   2   4
ATOM      4  C   UNL     1      44.357 126.943  22.213  1.00  0.00     0.140 C 
BRANCH   4   5
ATOM      5  O   UNL     1      43.396 126.399  23.079  1.00  0.00    -0.398 OA
ATOM      6  H   UNL     1      42.679 127.079  23.175  1.00  0.00     0.210 HD
ENDBRANCH   4   5
ENDBRANCH   2   4
ENDBRANCH   1   2
BRANCH   1   7
ATOM      7  C   UNL     1      44.025 129.704  24.153  1.00  0.00     0.117 C 
ATOM      8  O   UNL     1      42.857 129.771  24.616  1.00  0.00    -0.313 OA
BRANCH   7   9
ATOM      9  C   UNL     1      44.655 130.944  23.575  1.00  0.00     0.410 C 
BRANCH   9  10
ATOM     10  N   UNL     1      44.401 131.076  22.133  1.00  0.00    -0.186 N 
ATOM     11  C   UNL     1      43.139 131.535  21.520  1.00  0.00     0.412 C 
ATOM     12  C   UNL     1      45.285 130.826  21.207  1.00  0.00     0.370 C 
ATOM     13  C   UNL     1      43.462 131.494  20.068  1.00  0.00     0.122 A 
ATOM     14  C   UNL     1      44.742 131.067  19.890  1.00  0.00     0.115 A 
ATOM     15  N   UNL     1      42.665 131.818  19.021  1.00  0.00    -0.253 NA
ATOM     16  C   UNL     1      45.294 130.945  18.621  1.00  0.00     0.031 A 
ATOM     17  C   UNL     1      43.153 131.718  17.748  1.00  0.00     0.120 A 
ATOM     18  C   UNL     1      44.483 131.277  17.512  1.00  0.00     0.001 A 
BRANCH  12  19
ATOM     19  O   UNL     1      46.588 130.389  21.449  1.00  0.00    -0.460 OA
ATOM     20  H   UNL     1      47.393 130.989  21.321  1.00  0.00     0.300 HD
ENDBRANCH  12  19
BRANCH  18  21
ATOM     21  C   UNL     1      45.012 131.170  16.130  1.00  0.00    -0.016 A 
ATOM     22  C   UNL     1      44.153 131.369  15.013  1.00  0.00     0.011 A 
ATOM     23  C   UNL     1      46.377 130.866  15.908  1.00  0.00     0.019 A 
ATOM     24  C   UNL     1      44.644 131.269  13.698  1.00  0.00     0.027 A 
ATOM     25  C   UNL     1      46.827 130.775  14.593  1.00  0.00    -0.000 A 
ATOM     26  C   UNL     1      45.991 130.969  13.527  1.00  0.00     0.045 A 
ATOM     27  C   UNL     1      48.078 130.494  14.091  1.00  0.00     0.028 A 
ATOM     28  N   UNL     1      46.655 130.826  12.369  1.00  0.00    -0.361 N 
ATOM     29  C   UNL     1      47.932 130.536  12.707  1.00  0.00     0.083 A 
ATOM     30  H   UNL     1      46.269 130.917  11.402  1.00  0.00     0.166 HD
ENDBRANCH  18  21
ENDBRANCH   9  10
ENDBRANCH   7   9
ENDBRANCH   1   7
TORSDOF 8
ENDMDL


