MODEL 1
REMARK VINA RESULT:      -8.2      0.000      0.000
REMARK SMILES [H]/N=c1/c([NH2+]c2ccc3c(c2)[nH+]nn3C)cccn1C(=O)OCc1ccccc1
REMARK SMILES IDX 3 1 4 2 16 3 17 4 18 5 19 6 2 7 1 8 5 9 6 12 7 13 11 14 8 15
REMARK SMILES IDX 10 16 9 17 12 18 14 19 13 20 15 22 20 23 21 24 22 25 23 26
REMARK SMILES IDX 24 27 25 28 29 29 26 30 28 31 27 32
REMARK H PARENT 5 10 5 11 12 21
ROOT
ATOM      1  C   UNL     1      44.649 130.034  21.704  1.00  0.00     0.197 A 
ATOM      2  C   UNL     1      43.912 130.022  22.913  1.00  0.00     0.178 A 
ATOM      3  C   UNL     1      42.942 131.012  23.123  1.00  0.00     0.074 A 
ATOM      4  C   UNL     1      42.714 131.984  22.158  1.00  0.00     0.025 A 
ATOM      5  C   UNL     1      43.439 131.956  20.972  1.00  0.00     0.100 A 
ATOM      6  N   UNL     1      44.376 130.987  20.741  1.00  0.00    -0.232 N 
ENDROOT
BRANCH   1   7
ATOM      7  N   UNL     1      45.605 129.166  21.548  1.00  0.00    -0.279 NA
ATOM      8  H   UNL     1      46.617 129.394  21.454  1.00  0.00     0.190 HD
ENDBRANCH   1   7
BRANCH   2   9
ATOM      9  N   UNL     1      44.173 129.047  23.951  1.00  0.00    -0.278 N 
ATOM     10  H   UNL     1      45.166 128.721  23.899  1.00  0.00     0.358 HD
ATOM     11  H   UNL     1      44.060 129.482  24.897  1.00  0.00     0.358 HD
BRANCH   9  12
ATOM     12  C   UNL     1      43.292 127.916  23.800  1.00  0.00     0.139 A 
ATOM     13  C   UNL     1      41.894 128.051  24.047  1.00  0.00     0.073 A 
ATOM     14  C   UNL     1      43.809 126.663  23.383  1.00  0.00     0.126 A 
ATOM     15  C   UNL     1      41.021 126.959  23.880  1.00  0.00     0.065 A 
ATOM     16  C   UNL     1      42.911 125.614  23.230  1.00  0.00     0.201 A 
ATOM     17  C   UNL     1      41.579 125.754  23.466  1.00  0.00     0.198 A 
ATOM     18  N   UNL     1      43.136 124.343  22.854  1.00  0.00    -0.143 N 
ATOM     19  N   UNL     1      41.000 124.563  23.229  1.00  0.00    -0.133 N 
ATOM     20  N   UNL     1      41.961 123.721  22.861  1.00  0.00     0.088 NA
ATOM     21  H   UNL     1      44.050 123.905  22.601  1.00  0.00     0.342 HD
ATOM     22  C   UNL     1      39.591 124.215  23.359  1.00  0.00     0.327 C 
ENDBRANCH   9  12
ENDBRANCH   2   9
BRANCH   6  23
ATOM     23  C   UNL     1      45.020 130.985  19.453  1.00  0.00     0.420 C 
ATOM     24  O   UNL     1      45.997 130.214  19.240  1.00  0.00    -0.223 OA
BRANCH  23  25
ATOM     25  O   UNL     1      44.595 131.874  18.461  1.00  0.00    -0.444 OA
BRANCH  25  26
ATOM     26  C   UNL     1      43.934 131.446  17.275  1.00  0.00     0.270 C 
BRANCH  26  27
ATOM     27  C   UNL     1      44.961 131.072  16.248  1.00  0.00    -0.011 A 
ATOM     28  C   UNL     1      45.087 129.738  15.829  1.00  0.00     0.007 A 
ATOM     29  C   UNL     1      45.757 132.061  15.645  1.00  0.00     0.007 A 
ATOM     30  C   UNL     1      46.016 129.394  14.843  1.00  0.00     0.000 A 
ATOM     31  C   UNL     1      46.685 131.713  14.659  1.00  0.00     0.000 A 
ATOM     32  C   UNL     1      46.817 130.380  14.260  1.00  0.00     0.000 A 
ENDBRANCH  26  27
ENDBRANCH  25  26
ENDBRANCH  23  25
ENDBRANCH   6  23
TORSDOF 7
ENDMDL
MODEL 2
REMARK VINA RESULT:      -7.4      1.539      2.431
REMARK SMILES [H]/N=c1/c([NH2+]c2ccc3c(c2)[nH+]nn3C)cccn1C(=O)OCc1ccccc1
REMARK SMILES IDX 3 1 4 2 16 3 17 4 18 5 19 6 2 7 1 8 5 9 6 12 7 13 11 14 8 15
REMARK SMILES IDX 10 16 9 17 12 18 14 19 13 20 15 22 20 23 21 24 22 25 23 26
REMARK SMILES IDX 24 27 25 28 29 29 26 30 28 31 27 32
REMARK H PARENT 5 10 5 11 12 21
ROOT
ATOM      1  C   UNL     1      43.576 131.488  21.250  1.00  0.00     0.197 A 
ATOM      2  C   UNL     1      42.942 131.753  22.489  1.00  0.00     0.178 A 
ATOM      3  C   UNL     1      41.800 132.566  22.502  1.00  0.00     0.074 A 
ATOM      4  C   UNL     1      41.305 133.097  21.318  1.00  0.00     0.025 A 
ATOM      5  C   UNL     1      41.938 132.801  20.116  1.00  0.00     0.100 A 
ATOM      6  N   UNL     1      43.042 131.994  20.081  1.00  0.00    -0.232 N 
ENDROOT
BRANCH   1   7
ATOM      7  N   UNL     1      44.682 130.803  21.251  1.00  0.00    -0.279 NA
ATOM      8  H   UNL     1      44.851 129.931  20.705  1.00  0.00     0.190 HD
ENDBRANCH   1   7
BRANCH   2   9
ATOM      9  N   UNL     1      43.475 131.250  23.737  1.00  0.00    -0.278 N 
ATOM     10  H   UNL     1      44.509 131.404  23.777  1.00  0.00     0.358 HD
ATOM     11  H   UNL     1      43.071 131.779  24.546  1.00  0.00     0.358 HD
BRANCH   9  12
ATOM     12  C   UNL     1      43.198 129.840  23.860  1.00  0.00     0.139 A 
ATOM     13  C   UNL     1      44.235 128.882  23.667  1.00  0.00     0.073 A 
ATOM     14  C   UNL     1      41.892 129.399  24.194  1.00  0.00     0.126 A 
ATOM     15  C   UNL     1      43.981 127.503  23.806  1.00  0.00     0.065 A 
ATOM     16  C   UNL     1      41.688 128.030  24.322  1.00  0.00     0.201 A 
ATOM     17  C   UNL     1      42.685 127.124  24.138  1.00  0.00     0.198 A 
ATOM     18  N   UNL     1      40.564 127.358  24.625  1.00  0.00    -0.143 N 
ATOM     19  N   UNL     1      42.160 125.901  24.333  1.00  0.00    -0.133 N 
ATOM     20  N   UNL     1      40.873 126.065  24.625  1.00  0.00     0.088 NA
ATOM     21  H   UNL     1      39.618 127.753  24.824  1.00  0.00     0.342 HD
ATOM     22  C   UNL     1      42.835 124.614  24.232  1.00  0.00     0.327 C 
ENDBRANCH   9  12
ENDBRANCH   2   9
BRANCH   6  23
ATOM     23  C   UNL     1      43.583 131.672  18.786  1.00  0.00     0.420 C 
ATOM     24  O   UNL     1      42.807 131.369  17.838  1.00  0.00    -0.223 OA
BRANCH  23  25
ATOM     25  O   UNL     1      44.969 131.647  18.597  1.00  0.00    -0.444 OA
BRANCH  25  26
ATOM     26  C   UNL     1      45.666 130.485  18.158  1.00  0.00     0.270 C 
BRANCH  26  27
ATOM     27  C   UNL     1      45.966 130.616  16.695  1.00  0.00    -0.011 A 
ATOM     28  C   UNL     1      45.856 131.864  16.061  1.00  0.00     0.007 A 
ATOM     29  C   UNL     1      46.427 129.510  15.962  1.00  0.00     0.007 A 
ATOM     30  C   UNL     1      46.174 131.997  14.706  1.00  0.00     0.000 A 
ATOM     31  C   UNL     1      46.744 129.646  14.607  1.00  0.00     0.000 A 
ATOM     32  C   UNL     1      46.616 130.888  13.979  1.00  0.00     0.000 A 
ENDBRANCH  26  27
ENDBRANCH  25  26
ENDBRANCH  23  25
ENDBRANCH   6  23
TORSDOF 7
ENDMDL
MODEL 3
REMARK VINA RESULT:      -7.1      2.776      8.011
REMARK SMILES [H]/N=c1/c([NH2+]c2ccc3c(c2)[nH+]nn3C)cccn1C(=O)OCc1ccccc1
REMARK SMILES IDX 3 1 4 2 16 3 17 4 18 5 19 6 2 7 1 8 5 9 6 12 7 13 11 14 8 15
REMARK SMILES IDX 10 16 9 17 12 18 14 19 13 20 15 22 20 23 21 24 22 25 23 26
REMARK SMILES IDX 24 27 25 28 29 29 26 30 28 31 27 32
REMARK H PARENT 5 10 5 11 12 21
ROOT
ATOM      1  C   UNL     1      44.703 129.373  22.110  1.00  0.00     0.197 A 
ATOM      2  C   UNL     1      44.871 130.663  21.550  1.00  0.00     0.178 A 
ATOM      3  C   UNL     1      43.893 131.638  21.794  1.00  0.00     0.074 A 
ATOM      4  C   UNL     1      42.784 131.337  22.573  1.00  0.00     0.025 A 
ATOM      5  C   UNL     1      42.658 130.067  23.126  1.00  0.00     0.100 A 
ATOM      6  N   UNL     1      43.611 129.109  22.915  1.00  0.00    -0.232 N 
ENDROOT
BRANCH   1   7
ATOM      7  N   UNL     1      45.567 128.448  21.814  1.00  0.00    -0.279 NA
ATOM      8  H   UNL     1      46.273 128.505  21.049  1.00  0.00     0.190 HD
ENDBRANCH   1   7
BRANCH   2   9
ATOM      9  N   UNL     1      45.994 130.979  20.694  1.00  0.00    -0.278 N 
ATOM     10  H   UNL     1      46.365 131.931  20.920  1.00  0.00     0.358 HD
ATOM     11  H   UNL     1      46.782 130.311  20.865  1.00  0.00     0.358 HD
BRANCH   9  12
ATOM     12  C   UNL     1      45.586 130.943  19.311  1.00  0.00     0.139 A 
ATOM     13  C   UNL     1      44.667 131.909  18.805  1.00  0.00     0.073 A 
ATOM     14  C   UNL     1      46.113 129.957  18.439  1.00  0.00     0.126 A 
ATOM     15  C   UNL     1      44.279 131.897  17.451  1.00  0.00     0.065 A 
ATOM     16  C   UNL     1      45.703 129.985  17.111  1.00  0.00     0.201 A 
ATOM     17  C   UNL     1      44.828 130.911  16.638  1.00  0.00     0.198 A 
ATOM     18  N   UNL     1      46.045 129.175  16.094  1.00  0.00    -0.143 N 
ATOM     19  N   UNL     1      44.644 130.661  15.329  1.00  0.00    -0.133 N 
ATOM     20  N   UNL     1      45.388 129.603  15.020  1.00  0.00     0.088 NA
ATOM     21  H   UNL     1      46.697 128.360  16.118  1.00  0.00     0.342 HD
ATOM     22  C   UNL     1      43.783 131.376  14.397  1.00  0.00     0.327 C 
ENDBRANCH   9  12
ENDBRANCH   2   9
BRANCH   6  23
ATOM     23  C   UNL     1      43.443 127.850  23.594  1.00  0.00     0.420 C 
ATOM     24  O   UNL     1      42.707 127.781  24.617  1.00  0.00    -0.223 OA
BRANCH  23  25
ATOM     25  O   UNL     1      44.136 126.720  23.147  1.00  0.00    -0.444 OA
BRANCH  25  26
ATOM     26  C   UNL     1      44.063 125.461  23.806  1.00  0.00     0.270 C 
BRANCH  26  27
ATOM     27  C   UNL     1      42.805 124.760  23.387  1.00  0.00    -0.011 A 
ATOM     28  C   UNL     1      41.828 124.432  24.342  1.00  0.00     0.007 A 
ATOM     29  C   UNL     1      42.560 124.488  22.030  1.00  0.00     0.007 A 
ATOM     30  C   UNL     1      40.637 123.815  23.948  1.00  0.00     0.000 A 
ATOM     31  C   UNL     1      41.368 123.870  21.641  1.00  0.00     0.000 A 
ATOM     32  C   UNL     1      40.408 123.531  22.599  1.00  0.00     0.000 A 
ENDBRANCH  26  27
ENDBRANCH  25  26
ENDBRANCH  23  25
ENDBRANCH   6  23
TORSDOF 7
ENDMDL
MODEL 4
REMARK VINA RESULT:      -5.9      3.023      7.871
REMARK SMILES [H]/N=c1/c([NH2+]c2ccc3c(c2)[nH+]nn3C)cccn1C(=O)OCc1ccccc1
REMARK SMILES IDX 3 1 4 2 16 3 17 4 18 5 19 6 2 7 1 8 5 9 6 12 7 13 11 14 8 15
REMARK SMILES IDX 10 16 9 17 12 18 14 19 13 20 15 22 20 23 21 24 22 25 23 26
REMARK SMILES IDX 24 27 25 28 29 29 26 30 28 31 27 32
REMARK H PARENT 5 10 5 11 12 21
ROOT
ATOM      1  C   UNL     1      43.927 129.650  22.805  1.00  0.00     0.197 A 
ATOM      2  C   UNL     1      44.374 130.994  22.778  1.00  0.00     0.178 A 
ATOM      3  C   UNL     1      43.634 131.965  23.465  1.00  0.00     0.074 A 
ATOM      4  C   UNL     1      42.485 131.609  24.159  1.00  0.00     0.025 A 
ATOM      5  C   UNL     1      42.084 130.277  24.184  1.00  0.00     0.100 A 
ATOM      6  N   UNL     1      42.804 129.313  23.535  1.00  0.00    -0.232 N 
ENDROOT
BRANCH   1   7
ATOM      7  N   UNL     1      44.568 128.766  22.099  1.00  0.00    -0.279 NA
ATOM      8  H   UNL     1      44.998 127.892  22.472  1.00  0.00     0.190 HD
ENDBRANCH   1   7
BRANCH   2   9
ATOM      9  N   UNL     1      45.540 131.391  22.017  1.00  0.00    -0.278 N 
ATOM     10  H   UNL     1      45.830 132.361  22.280  1.00  0.00     0.358 HD
ATOM     11  H   UNL     1      46.353 130.772  22.245  1.00  0.00     0.358 HD
BRANCH   9  12
ATOM     12  C   UNL     1      45.246 131.348  20.606  1.00  0.00     0.139 A 
ATOM     13  C   UNL     1      44.097 132.013  20.087  1.00  0.00     0.073 A 
ATOM     14  C   UNL     1      46.113 130.659  19.720  1.00  0.00     0.126 A 
ATOM     15  C   UNL     1      43.812 131.997  18.708  1.00  0.00     0.065 A 
ATOM     16  C   UNL     1      45.794 130.670  18.367  1.00  0.00     0.201 A 
ATOM     17  C   UNL     1      44.697 131.310  17.882  1.00  0.00     0.198 A 
ATOM     18  N   UNL     1      46.437 130.102  17.332  1.00  0.00    -0.143 N 
ATOM     19  N   UNL     1      44.679 131.129  16.550  1.00  0.00    -0.133 N 
ATOM     20  N   UNL     1      45.741 130.392  16.237  1.00  0.00     0.088 NA
ATOM     21  H   UNL     1      47.314 129.536  17.359  1.00  0.00     0.342 HD
ATOM     22  C   UNL     1      43.689 131.613  15.596  1.00  0.00     0.327 C 
ENDBRANCH   9  12
ENDBRANCH   2   9
BRANCH   6  23
ATOM     23  C   UNL     1      42.364 127.950  23.684  1.00  0.00     0.420 C 
ATOM     24  O   UNL     1      41.168 127.707  24.009  1.00  0.00    -0.223 OA
BRANCH  23  25
ATOM     25  O   UNL     1      43.275 126.901  23.517  1.00  0.00    -0.444 OA
BRANCH  25  26
ATOM     26  C   UNL     1      43.067 125.604  24.065  1.00  0.00     0.270 C 
BRANCH  26  27
ATOM     27  C   UNL     1      44.382 124.888  24.146  1.00  0.00    -0.011 A 
ATOM     28  C   UNL     1      45.580 125.586  23.927  1.00  0.00     0.007 A 
ATOM     29  C   UNL     1      44.432 123.531  24.510  1.00  0.00     0.007 A 
ATOM     30  C   UNL     1      46.809 124.929  24.041  1.00  0.00     0.000 A 
ATOM     31  C   UNL     1      45.662 122.878  24.622  1.00  0.00     0.000 A 
ATOM     32  C   UNL     1      46.850 123.575  24.386  1.00  0.00     0.000 A 
ENDBRANCH  26  27
ENDBRANCH  25  26
ENDBRANCH  23  25
ENDBRANCH   6  23
TORSDOF 7
ENDMDL


