MODEL 1
REMARK VINA RESULT:      -9.8      0.000      0.000
REMARK SMILES Cc1cc2cc3ccccc3cc2cc1[NH2+]N
REMARK SMILES IDX 16 1 15 4 2 5 3 6 4 7 14 8 5 9 13 10 6 11 12 12 7 13 11 14
REMARK SMILES IDX 8 15 10 16 9 17 1 18 17 19
REMARK H PARENT 16 2 16 3 17 20 17 21
ROOT
ATOM      1  N   UNL     1      41.865 132.483  21.292  1.00  0.00    -0.239 N 
ATOM      2  H   UNL     1      41.213 131.723  21.599  1.00  0.00     0.376 HD
ATOM      3  H   UNL     1      42.253 132.938  22.150  1.00  0.00     0.376 HD
ENDROOT
BRANCH   1   4
ATOM      4  C   UNL     1      42.929 131.955  20.470  1.00  0.00     0.152 A 
ATOM      5  C   UNL     1      44.086 131.370  21.043  1.00  0.00     0.012 A 
ATOM      6  C   UNL     1      45.101 130.875  20.205  1.00  0.00     0.018 A 
ATOM      7  C   UNL     1      44.996 130.981  18.812  1.00  0.00    -0.017 A 
ATOM      8  C   UNL     1      42.838 132.073  19.071  1.00  0.00     0.078 A 
ATOM      9  C   UNL     1      46.017 130.491  17.982  1.00  0.00     0.017 A 
ATOM     10  C   UNL     1      43.857 131.589  18.240  1.00  0.00    -0.012 A 
ATOM     11  C   UNL     1      45.912 130.604  16.588  1.00  0.00    -0.018 A 
ATOM     12  C   UNL     1      43.751 131.704  16.846  1.00  0.00     0.017 A 
ATOM     13  C   UNL     1      46.930 130.116  15.753  1.00  0.00     0.009 A 
ATOM     14  C   UNL     1      44.771 131.215  16.016  1.00  0.00    -0.018 A 
ATOM     15  C   UNL     1      46.818 130.233  14.366  1.00  0.00     0.001 A 
ATOM     16  C   UNL     1      44.670 131.327  14.620  1.00  0.00     0.009 A 
ATOM     17  C   UNL     1      45.691 130.836  13.801  1.00  0.00     0.001 A 
ATOM     18  C   UNL     1      44.240 131.232  22.536  1.00  0.00     0.051 C 
ENDBRANCH   1   4
BRANCH   1  19
ATOM     19  N   UNL     1      41.149 133.439  20.544  1.00  0.00    -0.178 NA
ATOM     20  H   UNL     1      40.893 134.233  21.178  1.00  0.00     0.183 HD
ATOM     21  H   UNL     1      41.795 133.834  19.822  1.00  0.00     0.183 HD
ENDBRANCH   1  19
TORSDOF 2
ENDMDL
MODEL 2
REMARK VINA RESULT:      -9.3      1.554      2.612
REMARK SMILES Cc1cc2cc3ccccc3cc2cc1[NH2+]N
REMARK SMILES IDX 16 1 15 4 2 5 3 6 4 7 14 8 5 9 13 10 6 11 12 12 7 13 11 14
REMARK SMILES IDX 8 15 10 16 9 17 1 18 17 19
REMARK H PARENT 16 2 16 3 17 20 17 21
ROOT
ATOM      1  N   UNL     1      44.823 130.880  22.636  1.00  0.00    -0.239 N 
ATOM      2  H   UNL     1      45.808 131.153  22.869  1.00  0.00     0.376 HD
ATOM      3  H   UNL     1      44.183 131.441  23.243  1.00  0.00     0.376 HD
ENDROOT
BRANCH   1   4
ATOM      4  C   UNL     1      44.535 131.114  21.240  1.00  0.00     0.152 A 
ATOM      5  C   UNL     1      43.329 131.736  20.827  1.00  0.00     0.012 A 
ATOM      6  C   UNL     1      43.086 131.939  19.458  1.00  0.00     0.018 A 
ATOM      7  C   UNL     1      44.007 131.504  18.494  1.00  0.00    -0.017 A 
ATOM      8  C   UNL     1      45.447 130.667  20.267  1.00  0.00     0.078 A 
ATOM      9  C   UNL     1      43.753 131.702  17.128  1.00  0.00     0.017 A 
ATOM     10  C   UNL     1      45.195 130.860  18.902  1.00  0.00    -0.012 A 
ATOM     11  C   UNL     1      44.674 131.262  16.165  1.00  0.00    -0.018 A 
ATOM     12  C   UNL     1      46.116 130.416  17.940  1.00  0.00     0.017 A 
ATOM     13  C   UNL     1      44.425 131.458  14.797  1.00  0.00     0.009 A 
ATOM     14  C   UNL     1      45.863 130.614  16.575  1.00  0.00    -0.018 A 
ATOM     15  C   UNL     1      45.347 131.015  13.845  1.00  0.00     0.001 A 
ATOM     16  C   UNL     1      46.782 130.174  15.608  1.00  0.00     0.009 A 
ATOM     17  C   UNL     1      46.522 130.376  14.250  1.00  0.00     0.001 A 
ATOM     18  C   UNL     1      42.313 132.222  21.828  1.00  0.00     0.051 C 
ENDBRANCH   1   4
BRANCH   1  19
ATOM     19  N   UNL     1      44.641 129.510  22.910  1.00  0.00    -0.178 NA
ATOM     20  H   UNL     1      45.255 128.958  22.265  1.00  0.00     0.183 HD
ATOM     21  H   UNL     1      44.992 129.326  23.880  1.00  0.00     0.183 HD
ENDBRANCH   1  19
TORSDOF 2
ENDMDL
MODEL 3
REMARK VINA RESULT:      -9.0      2.644      5.702
REMARK SMILES Cc1cc2cc3ccccc3cc2cc1[NH2+]N
REMARK SMILES IDX 16 1 15 4 2 5 3 6 4 7 14 8 5 9 13 10 6 11 12 12 7 13 11 14
REMARK SMILES IDX 8 15 10 16 9 17 1 18 17 19
REMARK H PARENT 16 2 16 3 17 20 17 21
ROOT
ATOM      1  N   UNL     1      44.167 131.373  13.844  1.00  0.00    -0.239 N 
ATOM      2  H   UNL     1      44.779 132.072  13.360  1.00  0.00     0.376 HD
ATOM      3  H   UNL     1      44.253 130.465  13.333  1.00  0.00     0.376 HD
ENDROOT
BRANCH   1   4
ATOM      4  C   UNL     1      44.547 131.217  15.228  1.00  0.00     0.152 A 
ATOM      5  C   UNL     1      45.783 130.626  15.594  1.00  0.00     0.012 A 
ATOM      6  C   UNL     1      46.110 130.488  16.954  1.00  0.00     0.018 A 
ATOM      7  C   UNL     1      45.216 130.899  17.952  1.00  0.00    -0.017 A 
ATOM      8  C   UNL     1      43.648 131.612  16.235  1.00  0.00     0.078 A 
ATOM      9  C   UNL     1      45.547 130.750  19.309  1.00  0.00     0.017 A 
ATOM     10  C   UNL     1      43.973 131.462  17.590  1.00  0.00    -0.012 A 
ATOM     11  C   UNL     1      44.648 131.157  20.305  1.00  0.00    -0.018 A 
ATOM     12  C   UNL     1      43.072 131.867  18.586  1.00  0.00     0.017 A 
ATOM     13  C   UNL     1      44.973 131.010  21.663  1.00  0.00     0.009 A 
ATOM     14  C   UNL     1      43.401 131.719  19.941  1.00  0.00    -0.018 A 
ATOM     15  C   UNL     1      44.071 131.417  22.650  1.00  0.00     0.001 A 
ATOM     16  C   UNL     1      42.503 132.124  20.942  1.00  0.00     0.009 A 
ATOM     17  C   UNL     1      42.841 131.973  22.290  1.00  0.00     0.001 A 
ATOM     18  C   UNL     1      46.776 130.173  14.555  1.00  0.00     0.051 C 
ENDBRANCH   1   4
BRANCH   1  19
ATOM     19  N   UNL     1      42.828 131.810  13.790  1.00  0.00    -0.178 NA
ATOM     20  H   UNL     1      42.211 131.030  14.120  1.00  0.00     0.183 HD
ATOM     21  H   UNL     1      42.715 132.588  14.481  1.00  0.00     0.183 HD
ENDBRANCH   1  19
TORSDOF 2
ENDMDL
MODEL 4
REMARK VINA RESULT:      -8.9      3.014      6.290
REMARK SMILES Cc1cc2cc3ccccc3cc2cc1[NH2+]N
REMARK SMILES IDX 16 1 15 4 2 5 3 6 4 7 14 8 5 9 13 10 6 11 12 12 7 13 11 14
REMARK SMILES IDX 8 15 10 16 9 17 1 18 17 19
REMARK H PARENT 16 2 16 3 17 20 17 21
ROOT
ATOM      1  N   UNL     1      46.782 130.310  15.003  1.00  0.00    -0.239 N 
ATOM      2  H   UNL     1      46.652 130.847  14.112  1.00  0.00     0.376 HD
ATOM      3  H   UNL     1      47.751 130.493  15.347  1.00  0.00     0.376 HD
ENDROOT
BRANCH   1   4
ATOM      4  C   UNL     1      45.807 130.703  15.994  1.00  0.00     0.152 A 
ATOM      5  C   UNL     1      44.566 131.281  15.623  1.00  0.00     0.012 A 
ATOM      6  C   UNL     1      43.649 131.655  16.620  1.00  0.00     0.018 A 
ATOM      7  C   UNL     1      43.960 131.492  17.977  1.00  0.00    -0.017 A 
ATOM      8  C   UNL     1      46.118 130.557  17.357  1.00  0.00     0.078 A 
ATOM      9  C   UNL     1      43.042 131.876  18.968  1.00  0.00     0.017 A 
ATOM     10  C   UNL     1      45.206 130.942  18.349  1.00  0.00    -0.012 A 
ATOM     11  C   UNL     1      43.357 131.716  20.325  1.00  0.00    -0.018 A 
ATOM     12  C   UNL     1      45.524 130.784  19.707  1.00  0.00     0.017 A 
ATOM     13  C   UNL     1      42.443 132.098  21.321  1.00  0.00     0.009 A 
ATOM     14  C   UNL     1      44.607 131.167  20.697  1.00  0.00    -0.018 A 
ATOM     15  C   UNL     1      42.766 131.937  22.670  1.00  0.00     0.001 A 
ATOM     16  C   UNL     1      44.920 131.010  22.057  1.00  0.00     0.009 A 
ATOM     17  C   UNL     1      44.000 131.394  23.037  1.00  0.00     0.001 A 
ATOM     18  C   UNL     1      44.189 131.472  14.177  1.00  0.00     0.051 C 
ENDBRANCH   1   4
BRANCH   1  19
ATOM     19  N   UNL     1      46.632 128.933  14.744  1.00  0.00    -0.178 NA
ATOM     20  H   UNL     1      46.475 128.804  13.716  1.00  0.00     0.183 HD
ATOM     21  H   UNL     1      47.541 128.463  14.965  1.00  0.00     0.183 HD
ENDBRANCH   1  19
TORSDOF 2
ENDMDL
MODEL 5
REMARK VINA RESULT:      -8.9      1.034      1.426
REMARK SMILES Cc1cc2cc3ccccc3cc2cc1[NH2+]N
REMARK SMILES IDX 16 1 15 4 2 5 3 6 4 7 14 8 5 9 13 10 6 11 12 12 7 13 11 14
REMARK SMILES IDX 8 15 10 16 9 17 1 18 17 19
REMARK H PARENT 16 2 16 3 17 20 17 21
ROOT
ATOM      1  N   UNL     1      42.498 132.485  19.951  1.00  0.00    -0.239 N 
ATOM      2  H   UNL     1      42.055 131.828  20.636  1.00  0.00     0.376 HD
ATOM      3  H   UNL     1      42.864 133.306  20.485  1.00  0.00     0.376 HD
ENDROOT
BRANCH   1   4
ATOM      4  C   UNL     1      43.563 131.836  19.222  1.00  0.00     0.152 A 
ATOM      5  C   UNL     1      44.531 131.036  19.881  1.00  0.00     0.012 A 
ATOM      6  C   UNL     1      45.554 130.429  19.134  1.00  0.00     0.018 A 
ATOM      7  C   UNL     1      45.648 130.629  17.750  1.00  0.00    -0.017 A 
ATOM      8  C   UNL     1      43.672 132.045  17.836  1.00  0.00     0.078 A 
ATOM      9  C   UNL     1      46.678 130.025  17.012  1.00  0.00     0.017 A 
ATOM     10  C   UNL     1      44.702 131.447  17.096  1.00  0.00    -0.012 A 
ATOM     11  C   UNL     1      46.772 130.231  15.628  1.00  0.00    -0.018 A 
ATOM     12  C   UNL     1      44.796 131.656  15.712  1.00  0.00     0.017 A 
ATOM     13  C   UNL     1      47.801 129.630  14.884  1.00  0.00     0.009 A 
ATOM     14  C   UNL     1      45.824 131.053  14.973  1.00  0.00    -0.018 A 
ATOM     15  C   UNL     1      47.888 129.842  13.506  1.00  0.00     0.001 A 
ATOM     16  C   UNL     1      45.923 131.258  13.587  1.00  0.00     0.009 A 
ATOM     17  C   UNL     1      46.951 130.653  12.860  1.00  0.00     0.001 A 
ATOM     18  C   UNL     1      44.468 130.792  21.367  1.00  0.00     0.051 C 
ENDBRANCH   1   4
BRANCH   1  19
ATOM     19  N   UNL     1      41.525 132.925  19.031  1.00  0.00    -0.178 NA
ATOM     20  H   UNL     1      42.013 133.391  18.230  1.00  0.00     0.183 HD
ATOM     21  H   UNL     1      41.050 132.081  18.635  1.00  0.00     0.183 HD
ENDBRANCH   1  19
TORSDOF 2
ENDMDL
MODEL 6
REMARK VINA RESULT:      -8.7      1.397      2.627
REMARK SMILES Cc1cc2cc3ccccc3cc2cc1[NH2+]N
REMARK SMILES IDX 16 1 15 4 2 5 3 6 4 7 14 8 5 9 13 10 6 11 12 12 7 13 11 14
REMARK SMILES IDX 8 15 10 16 9 17 1 18 17 19
REMARK H PARENT 16 2 16 3 17 20 17 21
ROOT
ATOM      1  N   UNL     1      43.847 131.217  21.561  1.00  0.00    -0.239 N 
ATOM      2  H   UNL     1      43.244 131.965  21.978  1.00  0.00     0.376 HD
ATOM      3  H   UNL     1      43.431 130.292  21.814  1.00  0.00     0.376 HD
ENDROOT
BRANCH   1   4
ATOM      4  C   UNL     1      43.936 131.359  20.126  1.00  0.00     0.152 A 
ATOM      5  C   UNL     1      42.923 132.018  19.384  1.00  0.00     0.012 A 
ATOM      6  C   UNL     1      43.046 132.128  17.988  1.00  0.00     0.018 A 
ATOM      7  C   UNL     1      44.142 131.567  17.318  1.00  0.00    -0.017 A 
ATOM      8  C   UNL     1      45.024 130.785  19.446  1.00  0.00     0.078 A 
ATOM      9  C   UNL     1      44.254 131.674  15.923  1.00  0.00     0.017 A 
ATOM     10  C   UNL     1      45.137 130.887  18.052  1.00  0.00    -0.012 A 
ATOM     11  C   UNL     1      45.349 131.108  15.255  1.00  0.00    -0.018 A 
ATOM     12  C   UNL     1      46.232 130.317  17.385  1.00  0.00     0.017 A 
ATOM     13  C   UNL     1      45.466 131.212  13.859  1.00  0.00     0.009 A 
ATOM     14  C   UNL     1      46.345 130.424  15.991  1.00  0.00    -0.018 A 
ATOM     15  C   UNL     1      46.560 130.643  13.201  1.00  0.00     0.001 A 
ATOM     16  C   UNL     1      47.439 129.856  15.318  1.00  0.00     0.009 A 
ATOM     17  C   UNL     1      47.543 129.968  13.929  1.00  0.00     0.001 A 
ATOM     18  C   UNL     1      41.729 132.639  20.062  1.00  0.00     0.051 C 
ENDBRANCH   1   4
BRANCH   1  19
ATOM     19  N   UNL     1      45.144 131.307  22.104  1.00  0.00    -0.178 NA
ATOM     20  H   UNL     1      45.267 130.532  22.799  1.00  0.00     0.183 HD
ATOM     21  H   UNL     1      45.830 131.124  21.334  1.00  0.00     0.183 HD
ENDBRANCH   1  19
TORSDOF 2
ENDMDL


