MODEL 1
REMARK VINA RESULT:      -8.3      0.000      0.000
REMARK SMILES C=C1CC[C@@H]2CC(c3[nH+]c[nH+]c4c3COC4)=N[C@@H]2C1
REMARK SMILES IDX 1 1 2 2 3 3 4 4 5 5 6 6 7 7 17 8 18 9 19 10 8 11 9 12 13 13
REMARK SMILES IDX 10 14 12 15 14 16 11 17 16 18 15 19
REMARK H PARENT 9 20 11 21
ROOT
ATOM      1  C   UNL     1      43.413 131.505  13.811  1.00  0.00     0.008 C 
ATOM      2  C   UNL     1      44.474 131.043  14.487  1.00  0.00    -0.075 C 
ATOM      3  C   UNL     1      44.509 129.603  14.939  1.00  0.00     0.031 C 
ATOM      4  C   UNL     1      45.869 129.239  15.553  1.00  0.00     0.010 C 
ATOM      5  C   UNL     1      46.323 130.246  16.635  1.00  0.00     0.020 C 
ATOM      6  C   UNL     1      45.517 130.112  17.938  1.00  0.00     0.068 C 
ATOM      7  C   UNL     1      44.843 131.432  18.070  1.00  0.00     0.108 C 
ATOM      8  N   UNL     1      45.183 132.279  17.159  1.00  0.00    -0.279 NA
ATOM      9  C   UNL     1      46.147 131.732  16.222  1.00  0.00     0.113 C 
ATOM     10  C   UNL     1      45.654 131.940  14.780  1.00  0.00     0.058 C 
ENDROOT
BRANCH   7  11
ATOM     11  C   UNL     1      43.862 131.759  19.135  1.00  0.00     0.241 A 
ATOM     12  N   UNL     1      42.747 132.506  18.849  1.00  0.00    -0.153 N 
ATOM     13  C   UNL     1      44.033 131.337  20.463  1.00  0.00     0.121 A 
ATOM     14  C   UNL     1      41.839 132.828  19.820  1.00  0.00     0.630 A 
ATOM     15  C   UNL     1      43.127 131.671  21.396  1.00  0.00     0.222 A 
ATOM     16  C   UNL     1      45.103 130.559  21.122  1.00  0.00     0.210 C 
ATOM     17  N   UNL     1      42.029 132.410  21.104  1.00  0.00    -0.156 N 
ATOM     18  C   UNL     1      43.534 131.140  22.704  1.00  0.00     0.269 C 
ATOM     19  O   UNL     1      44.767 130.461  22.502  1.00  0.00    -0.365 OA
ATOM     20  H   UNL     1      42.566 132.845  17.878  1.00  0.00     0.460 HD
ATOM     21  H   UNL     1      41.341 132.659  21.849  1.00  0.00     0.460 HD
ENDBRANCH   7  11
TORSDOF 1
ENDMDL
MODEL 2
REMARK VINA RESULT:      -6.9      1.681      2.248
REMARK SMILES C=C1CC[C@@H]2CC(c3[nH+]c[nH+]c4c3COC4)=N[C@@H]2C1
REMARK SMILES IDX 1 1 2 2 3 3 4 4 5 5 6 6 7 7 17 8 18 9 19 10 8 11 9 12 13 13
REMARK SMILES IDX 10 14 12 15 14 16 11 17 16 18 15 19
REMARK H PARENT 9 20 11 21
ROOT
ATOM      1  C   UNL     1      43.172 131.672  14.125  1.00  0.00     0.008 C 
ATOM      2  C   UNL     1      44.326 131.086  14.476  1.00  0.00    -0.075 C 
ATOM      3  C   UNL     1      44.358 129.605  14.764  1.00  0.00     0.031 C 
ATOM      4  C   UNL     1      45.793 129.107  14.992  1.00  0.00     0.010 C 
ATOM      5  C   UNL     1      46.564 129.963  16.025  1.00  0.00     0.020 C 
ATOM      6  C   UNL     1      46.079 129.724  17.465  1.00  0.00     0.068 C 
ATOM      7  C   UNL     1      45.556 131.051  17.883  1.00  0.00     0.108 C 
ATOM      8  N   UNL     1      45.733 131.977  17.004  1.00  0.00    -0.279 NA
ATOM      9  C   UNL     1      46.407 131.493  15.813  1.00  0.00     0.113 C 
ATOM     10  C   UNL     1      45.605 131.886  14.561  1.00  0.00     0.058 C 
ENDROOT
BRANCH   7  11
ATOM     11  C   UNL     1      44.880 131.305  19.180  1.00  0.00     0.241 A 
ATOM     12  N   UNL     1      45.512 131.019  20.363  1.00  0.00    -0.153 N 
ATOM     13  C   UNL     1      43.580 131.830  19.254  1.00  0.00     0.121 A 
ATOM     14  C   UNL     1      44.900 131.235  21.567  1.00  0.00     0.630 A 
ATOM     15  C   UNL     1      43.001 132.029  20.450  1.00  0.00     0.222 A 
ATOM     16  C   UNL     1      42.611 132.222  18.208  1.00  0.00     0.210 C 
ATOM     17  N   UNL     1      43.634 131.742  21.614  1.00  0.00    -0.156 N 
ATOM     18  C   UNL     1      41.642 132.557  20.270  1.00  0.00     0.269 C 
ATOM     19  O   UNL     1      41.428 132.659  18.868  1.00  0.00    -0.365 OA
ATOM     20  H   UNL     1      46.481 130.630  20.371  1.00  0.00     0.460 HD
ATOM     21  H   UNL     1      43.162 131.902  22.530  1.00  0.00     0.460 HD
ENDBRANCH   7  11
TORSDOF 1
ENDMDL
MODEL 3
REMARK VINA RESULT:      -6.1      1.940      3.148
REMARK SMILES C=C1CC[C@@H]2CC(c3[nH+]c[nH+]c4c3COC4)=N[C@@H]2C1
REMARK SMILES IDX 1 1 2 2 3 3 4 4 5 5 6 6 7 7 17 8 18 9 19 10 8 11 9 12 13 13
REMARK SMILES IDX 10 14 12 15 14 16 11 17 16 18 15 19
REMARK H PARENT 9 20 11 21
ROOT
ATOM      1  C   UNL     1      48.475 129.571  14.782  1.00  0.00     0.008 C 
ATOM      2  C   UNL     1      47.217 129.950  14.518  1.00  0.00    -0.075 C 
ATOM      3  C   UNL     1      46.914 131.400  14.232  1.00  0.00     0.031 C 
ATOM      4  C   UNL     1      45.452 131.595  13.802  1.00  0.00     0.010 C 
ATOM      5  C   UNL     1      44.451 130.926  14.773  1.00  0.00     0.020 C 
ATOM      6  C   UNL     1      44.330 131.683  16.106  1.00  0.00     0.068 C 
ATOM      7  C   UNL     1      44.803 130.696  17.113  1.00  0.00     0.108 C 
ATOM      8  N   UNL     1      45.073 129.538  16.616  1.00  0.00    -0.279 NA
ATOM      9  C   UNL     1      44.846 129.482  15.183  1.00  0.00     0.113 C 
ATOM     10  C   UNL     1      46.098 128.936  14.475  1.00  0.00     0.058 C 
ENDROOT
BRANCH   7  11
ATOM     11  C   UNL     1      44.967 130.999  18.558  1.00  0.00     0.241 A 
ATOM     12  N   UNL     1      46.146 130.717  19.199  1.00  0.00    -0.153 N 
ATOM     13  C   UNL     1      43.935 131.566  19.323  1.00  0.00     0.121 A 
ATOM     14  C   UNL     1      46.310 130.978  20.532  1.00  0.00     0.630 A 
ATOM     15  C   UNL     1      44.122 131.808  20.631  1.00  0.00     0.222 A 
ATOM     16  C   UNL     1      42.554 131.966  18.978  1.00  0.00     0.210 C 
ATOM     17  N   UNL     1      45.292 131.526  21.256  1.00  0.00    -0.156 N 
ATOM     18  C   UNL     1      42.901 132.375  21.218  1.00  0.00     0.269 C 
ATOM     19  O   UNL     1      41.945 132.454  20.168  1.00  0.00    -0.365 OA
ATOM     20  H   UNL     1      46.949 130.298  18.681  1.00  0.00     0.460 HD
ATOM     21  H   UNL     1      45.411 131.720  22.275  1.00  0.00     0.460 HD
ENDBRANCH   7  11
TORSDOF 1
ENDMDL
MODEL 4
REMARK VINA RESULT:      -5.7      2.146      6.318
REMARK SMILES C=C1CC[C@@H]2CC(c3[nH+]c[nH+]c4c3COC4)=N[C@@H]2C1
REMARK SMILES IDX 1 1 2 2 3 3 4 4 5 5 6 6 7 7 17 8 18 9 19 10 8 11 9 12 13 13
REMARK SMILES IDX 10 14 12 15 14 16 11 17 16 18 15 19
REMARK H PARENT 9 20 11 21
ROOT
ATOM      1  C   UNL     1      44.170 127.582  23.186  1.00  0.00     0.008 C 
ATOM      2  C   UNL     1      43.722 128.756  23.653  1.00  0.00    -0.075 C 
ATOM      3  C   UNL     1      42.237 128.994  23.786  1.00  0.00     0.031 C 
ATOM      4  C   UNL     1      41.943 130.330  24.482  1.00  0.00     0.010 C 
ATOM      5  C   UNL     1      42.712 131.514  23.850  1.00  0.00     0.020 C 
ATOM      6  C   UNL     1      42.146 131.918  22.479  1.00  0.00     0.068 C 
ATOM      7  C   UNL     1      43.278 131.669  21.546  1.00  0.00     0.108 C 
ATOM      8  N   UNL     1      44.362 131.297  22.136  1.00  0.00    -0.279 NA
ATOM      9  C   UNL     1      44.210 131.213  23.577  1.00  0.00     0.113 C 
ATOM     10  C   UNL     1      44.687 129.838  24.076  1.00  0.00     0.058 C 
ENDROOT
BRANCH   7  11
ATOM     11  C   UNL     1      43.186 131.817  20.072  1.00  0.00     0.241 A 
ATOM     12  N   UNL     1      42.065 132.359  19.494  1.00  0.00    -0.153 N 
ATOM     13  C   UNL     1      44.219 131.406  19.215  1.00  0.00     0.121 A 
ATOM     14  C   UNL     1      41.959 132.491  18.137  1.00  0.00     0.630 A 
ATOM     15  C   UNL     1      44.086 131.545  17.885  1.00  0.00     0.222 A 
ATOM     16  C   UNL     1      45.528 130.772  19.478  1.00  0.00     0.210 C 
ATOM     17  N   UNL     1      42.974 132.081  17.324  1.00  0.00    -0.156 N 
ATOM     18  C   UNL     1      45.278 131.024  17.203  1.00  0.00     0.269 C 
ATOM     19  O   UNL     1      46.151 130.546  18.218  1.00  0.00    -0.365 OA
ATOM     20  H   UNL     1      41.266 132.685  20.082  1.00  0.00     0.460 HD
ATOM     21  H   UNL     1      42.894 132.175  16.288  1.00  0.00     0.460 HD
ENDBRANCH   7  11
TORSDOF 1
ENDMDL
MODEL 5
REMARK VINA RESULT:      -5.5      1.123      1.880
REMARK SMILES C=C1CC[C@@H]2CC(c3[nH+]c[nH+]c4c3COC4)=N[C@@H]2C1
REMARK SMILES IDX 1 1 2 2 3 3 4 4 5 5 6 6 7 7 17 8 18 9 19 10 8 11 9 12 13 13
REMARK SMILES IDX 10 14 12 15 14 16 11 17 16 18 15 19
REMARK H PARENT 9 20 11 21
ROOT
ATOM      1  C   UNL     1      44.962 128.022  15.414  1.00  0.00     0.008 C 
ATOM      2  C   UNL     1      45.283 129.308  15.214  1.00  0.00    -0.075 C 
ATOM      3  C   UNL     1      46.597 129.843  15.728  1.00  0.00     0.031 C 
ATOM      4  C   UNL     1      46.838 131.286  15.260  1.00  0.00     0.010 C 
ATOM      5  C   UNL     1      45.631 132.213  15.540  1.00  0.00     0.020 C 
ATOM      6  C   UNL     1      45.483 132.550  17.033  1.00  0.00     0.068 C 
ATOM      7  C   UNL     1      44.159 131.975  17.392  1.00  0.00     0.108 C 
ATOM      8  N   UNL     1      43.524 131.474  16.388  1.00  0.00    -0.279 NA
ATOM      9  C   UNL     1      44.263 131.596  15.144  1.00  0.00     0.113 C 
ATOM     10  C   UNL     1      44.355 130.226  14.453  1.00  0.00     0.058 C 
ENDROOT
BRANCH   7  11
ATOM     11  C   UNL     1      43.608 131.959  18.770  1.00  0.00     0.241 A 
ATOM     12  N   UNL     1      42.452 132.637  19.066  1.00  0.00    -0.153 N 
ATOM     13  C   UNL     1      44.240 131.271  19.818  1.00  0.00     0.121 A 
ATOM     14  C   UNL     1      41.937 132.643  20.333  1.00  0.00     0.630 A 
ATOM     15  C   UNL     1      43.713 131.298  21.054  1.00  0.00     0.222 A 
ATOM     16  C   UNL     1      45.484 130.476  19.870  1.00  0.00     0.210 C 
ATOM     17  N   UNL     1      42.570 131.971  21.336  1.00  0.00    -0.156 N 
ATOM     18  C   UNL     1      44.560 130.532  21.978  1.00  0.00     0.269 C 
ATOM     19  O   UNL     1      45.654 130.040  21.215  1.00  0.00    -0.365 OA
ATOM     20  H   UNL     1      41.937 133.163  18.326  1.00  0.00     0.460 HD
ATOM     21  H   UNL     1      42.183 131.979  22.306  1.00  0.00     0.460 HD
ENDBRANCH   7  11
TORSDOF 1
ENDMDL
MODEL 6
REMARK VINA RESULT:      -5.5      1.687      2.701
REMARK SMILES C=C1CC[C@@H]2CC(c3[nH+]c[nH+]c4c3COC4)=N[C@@H]2C1
REMARK SMILES IDX 1 1 2 2 3 3 4 4 5 5 6 6 7 7 17 8 18 9 19 10 8 11 9 12 13 13
REMARK SMILES IDX 10 14 12 15 14 16 11 17 16 18 15 19
REMARK H PARENT 9 20 11 21
ROOT
ATOM      1  C   UNL     1      45.419 128.137  15.101  1.00  0.00     0.008 C 
ATOM      2  C   UNL     1      45.445 129.474  15.015  1.00  0.00    -0.075 C 
ATOM      3  C   UNL     1      46.750 130.213  15.186  1.00  0.00     0.031 C 
ATOM      4  C   UNL     1      46.590 131.712  14.896  1.00  0.00     0.010 C 
ATOM      5  C   UNL     1      45.406 132.345  15.665  1.00  0.00     0.020 C 
ATOM      6  C   UNL     1      45.698 132.502  17.167  1.00  0.00     0.068 C 
ATOM      7  C   UNL     1      44.673 131.640  17.814  1.00  0.00     0.108 C 
ATOM      8  N   UNL     1      43.836 131.119  16.983  1.00  0.00    -0.279 NA
ATOM      9  C   UNL     1      44.102 131.505  15.609  1.00  0.00     0.113 C 
ATOM     10  C   UNL     1      44.185 130.254  14.719  1.00  0.00     0.058 C 
ENDROOT
BRANCH   7  11
ATOM     11  C   UNL     1      44.609 131.382  19.275  1.00  0.00     0.241 A 
ATOM     12  N   UNL     1      45.574 130.628  19.892  1.00  0.00    -0.153 N 
ATOM     13  C   UNL     1      43.567 131.880  20.075  1.00  0.00     0.121 A 
ATOM     14  C   UNL     1      45.523 130.370  21.234  1.00  0.00     0.630 A 
ATOM     15  C   UNL     1      43.542 131.607  21.390  1.00  0.00     0.222 A 
ATOM     16  C   UNL     1      42.373 132.688  19.752  1.00  0.00     0.210 C 
ATOM     17  N   UNL     1      44.500 130.861  21.991  1.00  0.00    -0.156 N 
ATOM     18  C   UNL     1      42.352 132.211  22.005  1.00  0.00     0.269 C 
ATOM     19  O   UNL     1      41.644 132.869  20.962  1.00  0.00    -0.365 OA
ATOM     20  H   UNL     1      46.373 130.234  19.348  1.00  0.00     0.460 HD
ATOM     21  H   UNL     1      44.455 130.660  23.015  1.00  0.00     0.460 HD
ENDBRANCH   7  11
TORSDOF 1
ENDMDL
MODEL 7
REMARK VINA RESULT:      -5.4      2.204      6.349
REMARK SMILES C=C1CC[C@@H]2CC(c3[nH+]c[nH+]c4c3COC4)=N[C@@H]2C1
REMARK SMILES IDX 1 1 2 2 3 3 4 4 5 5 6 6 7 7 17 8 18 9 19 10 8 11 9 12 13 13
REMARK SMILES IDX 10 14 12 15 14 16 11 17 16 18 15 19
REMARK H PARENT 9 20 11 21
ROOT
ATOM      1  C   UNL     1      41.327 128.394  23.553  1.00  0.00     0.008 C 
ATOM      2  C   UNL     1      42.318 129.260  23.804  1.00  0.00    -0.075 C 
ATOM      3  C   UNL     1      41.994 130.669  24.238  1.00  0.00     0.031 C 
ATOM      4  C   UNL     1      43.262 131.445  24.623  1.00  0.00     0.010 C 
ATOM      5  C   UNL     1      44.364 131.361  23.541  1.00  0.00     0.020 C 
ATOM      6  C   UNL     1      44.032 132.203  22.298  1.00  0.00     0.068 C 
ATOM      7  C   UNL     1      43.942 131.195  21.207  1.00  0.00     0.108 C 
ATOM      8  N   UNL     1      44.240 129.998  21.583  1.00  0.00    -0.279 NA
ATOM      9  C   UNL     1      44.593 129.928  22.989  1.00  0.00     0.113 C 
ATOM     10  C   UNL     1      43.763 128.836  23.685  1.00  0.00     0.058 C 
ENDROOT
BRANCH   7  11
ATOM     11  C   UNL     1      43.539 131.514  19.814  1.00  0.00     0.241 A 
ATOM     12  N   UNL     1      42.313 132.071  19.554  1.00  0.00    -0.153 N 
ATOM     13  C   UNL     1      44.376 131.253  18.717  1.00  0.00     0.121 A 
ATOM     14  C   UNL     1      41.920 132.359  18.276  1.00  0.00     0.630 A 
ATOM     15  C   UNL     1      43.963 131.544  17.473  1.00  0.00     0.222 A 
ATOM     16  C   UNL     1      45.722 130.650  18.622  1.00  0.00     0.210 C 
ATOM     17  N   UNL     1      42.749 132.094  17.225  1.00  0.00    -0.156 N 
ATOM     18  C   UNL     1      44.993 131.160  16.498  1.00  0.00     0.269 C 
ATOM     19  O   UNL     1      46.069 130.603  17.243  1.00  0.00    -0.365 OA
ATOM     20  H   UNL     1      41.650 132.289  20.330  1.00  0.00     0.460 HD
ATOM     21  H   UNL     1      42.450 132.307  16.248  1.00  0.00     0.460 HD
ENDBRANCH   7  11
TORSDOF 1
ENDMDL


