MODEL 1
REMARK VINA RESULT:      -6.2      0.000      0.000
REMARK SMILES Cc1ccc(NC(=O)[N-]c2c(F)cc(F)cc2F)c(-c2ccc3c(c2)[N-]C(=O)C3)c1
REMARK SMILES IDX 6 1 7 2 8 3 5 5 2 6 3 7 30 8 4 9 19 10 1 11 20 12 21 13
REMARK SMILES IDX 25 14 22 15 24 16 23 17 26 18 29 19 27 20 28 21 9 22 10 23
REMARK SMILES IDX 11 24 17 25 13 26 16 27 14 28 12 29 18 30 15 31
REMARK H PARENT 6 4
ROOT
ATOM      1  N   UNL     1      46.289 132.743  21.531  1.00  0.00    -0.423 N 
ATOM      2  C   UNL     1      47.171 133.668  22.191  1.00  0.00     0.160 C 
ATOM      3  O   UNL     1      46.899 134.110  23.338  1.00  0.00    -0.298 OA
ATOM      4  H   UNL     1      46.513 132.484  20.546  1.00  0.00     0.029 HD
ENDROOT
BRANCH   1   5
ATOM      5  C   UNL     1      45.209 132.055  22.188  1.00  0.00    -0.033 A 
ATOM      6  C   UNL     1      43.109 130.691  23.486  1.00  0.00    -0.051 A 
ATOM      7  C   UNL     1      44.068 131.389  24.232  1.00  0.00     0.004 A 
ATOM      8  C   UNL     1      43.204 130.671  22.087  1.00  0.00     0.012 A 
ATOM      9  C   UNL     1      45.102 132.071  23.589  1.00  0.00     0.004 A 
ATOM     10  C   UNL     1      44.232 131.367  21.431  1.00  0.00    -0.015 A 
ATOM     11  C   UNL     1      42.025 129.920  24.179  1.00  0.00     0.044 C 
BRANCH  10  12
ATOM     12  C   UNL     1      44.289 131.326  19.956  1.00  0.00    -0.019 A 
ATOM     13  C   UNL     1      43.254 131.908  19.188  1.00  0.00     0.009 A 
ATOM     14  C   UNL     1      45.374 130.701  19.311  1.00  0.00    -0.007 A 
ATOM     15  C   UNL     1      43.316 131.896  17.786  1.00  0.00     0.003 A 
ATOM     16  C   UNL     1      45.411 130.704  17.917  1.00  0.00    -0.130 A 
ATOM     17  C   UNL     1      44.410 131.288  17.173  1.00  0.00    -0.057 A 
ATOM     18  N   UNL     1      46.442 130.152  17.116  1.00  0.00    -0.626 NA
ATOM     19  C   UNL     1      44.701 131.167  15.719  1.00  0.00     0.089 C 
ATOM     20  C   UNL     1      46.008 130.437  15.788  1.00  0.00     0.059 C 
ATOM     21  O   UNL     1      46.673 130.100  14.774  1.00  0.00    -0.320 OA
ENDBRANCH  10  12
ENDBRANCH   1   5
BRANCH   2  22
ATOM     22  N   UNL     1      48.365 134.117  21.540  1.00  0.00    -0.396 NA
BRANCH  22  23
ATOM     23  C   UNL     1      49.308 135.026  22.120  1.00  0.00     0.034 A 
ATOM     24  C   UNL     1      49.587 136.270  21.522  1.00  0.00     0.132 A 
ATOM     25  C   UNL     1      50.004 134.649  23.277  1.00  0.00     0.132 A 
ATOM     26  C   UNL     1      50.514 137.139  22.109  1.00  0.00     0.079 A 
ATOM     27  C   UNL     1      50.927 135.522  23.862  1.00  0.00     0.079 A 
ATOM     28  C   UNL     1      51.176 136.770  23.282  1.00  0.00     0.129 A 
ATOM     29  F   UNL     1      49.002 136.623  20.350  1.00  0.00    -0.207 F 
ATOM     30  F   UNL     1      49.770 133.441  23.851  1.00  0.00    -0.207 F 
ATOM     31  F   UNL     1      52.072 137.615  23.848  1.00  0.00    -0.207 F 
ENDBRANCH  22  23
ENDBRANCH   2  22
TORSDOF 4
ENDMDL
MODEL 2
REMARK VINA RESULT:      -6.0      1.117      1.500
REMARK SMILES Cc1ccc(NC(=O)[N-]c2c(F)cc(F)cc2F)c(-c2ccc3c(c2)[N-]C(=O)C3)c1
REMARK SMILES IDX 6 1 7 2 8 3 5 5 2 6 3 7 30 8 4 9 19 10 1 11 20 12 21 13
REMARK SMILES IDX 25 14 22 15 24 16 23 17 26 18 29 19 27 20 28 21 9 22 10 23
REMARK SMILES IDX 11 24 17 25 13 26 16 27 14 28 12 29 18 30 15 31
REMARK H PARENT 6 4
ROOT
ATOM      1  N   UNL     1      46.531 133.224  21.651  1.00  0.00    -0.423 N 
ATOM      2  C   UNL     1      47.555 133.984  22.316  1.00  0.00     0.160 C 
ATOM      3  O   UNL     1      47.448 134.281  23.535  1.00  0.00    -0.298 OA
ATOM      4  H   UNL     1      46.625 133.090  20.621  1.00  0.00     0.029 HD
ENDROOT
BRANCH   1   5
ATOM      5  C   UNL     1      45.474 132.529  22.336  1.00  0.00    -0.033 A 
ATOM      6  C   UNL     1      43.419 131.156  23.694  1.00  0.00    -0.051 A 
ATOM      7  C   UNL     1      44.196 132.109  24.365  1.00  0.00     0.004 A 
ATOM      8  C   UNL     1      43.673 130.886  22.342  1.00  0.00     0.012 A 
ATOM      9  C   UNL     1      45.208 132.795  23.691  1.00  0.00     0.004 A 
ATOM     10  C   UNL     1      44.677 131.582  21.652  1.00  0.00    -0.015 A 
ATOM     11  C   UNL     1      42.363 130.387  24.432  1.00  0.00     0.044 C 
BRANCH  10  12
ATOM     12  C   UNL     1      44.905 131.271  20.226  1.00  0.00    -0.019 A 
ATOM     13  C   UNL     1      45.915 130.355  19.850  1.00  0.00     0.009 A 
ATOM     14  C   UNL     1      44.119 131.893  19.236  1.00  0.00    -0.007 A 
ATOM     15  C   UNL     1      46.119 130.035  18.499  1.00  0.00     0.003 A 
ATOM     16  C   UNL     1      44.342 131.556  17.901  1.00  0.00    -0.130 A 
ATOM     17  C   UNL     1      45.314 130.650  17.541  1.00  0.00    -0.057 A 
ATOM     18  N   UNL     1      43.620 132.061  16.790  1.00  0.00    -0.626 NA
ATOM     19  C   UNL     1      45.332 130.459  16.066  1.00  0.00     0.089 C 
ATOM     20  C   UNL     1      44.222 131.392  15.683  1.00  0.00     0.059 C 
ATOM     21  O   UNL     1      43.845 131.578  14.497  1.00  0.00    -0.320 OA
ENDBRANCH  10  12
ENDBRANCH   1   5
BRANCH   2  22
ATOM     22  N   UNL     1      48.706 134.434  21.592  1.00  0.00    -0.396 NA
BRANCH  22  23
ATOM     23  C   UNL     1      49.507 135.561  21.968  1.00  0.00     0.034 A 
ATOM     24  C   UNL     1      49.517 136.741  21.200  1.00  0.00     0.132 A 
ATOM     25  C   UNL     1      50.337 135.468  23.095  1.00  0.00     0.132 A 
ATOM     26  C   UNL     1      50.310 137.826  21.590  1.00  0.00     0.079 A 
ATOM     27  C   UNL     1      51.125 136.556  23.482  1.00  0.00     0.079 A 
ATOM     28  C   UNL     1      51.106 137.737  22.734  1.00  0.00     0.129 A 
ATOM     29  F   UNL     1      48.799 136.827  20.052  1.00  0.00    -0.207 F 
ATOM     30  F   UNL     1      50.363 134.328  23.830  1.00  0.00    -0.207 F 
ATOM     31  F   UNL     1      51.872 138.791  23.109  1.00  0.00    -0.207 F 
ENDBRANCH  22  23
ENDBRANCH   2  22
TORSDOF 4
ENDMDL
MODEL 3
REMARK VINA RESULT:      -5.9      0.381      1.561
REMARK SMILES Cc1ccc(NC(=O)[N-]c2c(F)cc(F)cc2F)c(-c2ccc3c(c2)[N-]C(=O)C3)c1
REMARK SMILES IDX 6 1 7 2 8 3 5 5 2 6 3 7 30 8 4 9 19 10 1 11 20 12 21 13
REMARK SMILES IDX 25 14 22 15 24 16 23 17 26 18 29 19 27 20 28 21 9 22 10 23
REMARK SMILES IDX 11 24 17 25 13 26 16 27 14 28 12 29 18 30 15 31
REMARK H PARENT 6 4
ROOT
ATOM      1  N   UNL     1      46.333 132.695  21.600  1.00  0.00    -0.423 N 
ATOM      2  C   UNL     1      47.142 133.670  22.283  1.00  0.00     0.160 C 
ATOM      3  O   UNL     1      46.776 134.148  23.388  1.00  0.00    -0.298 OA
ATOM      4  H   UNL     1      46.635 132.405  20.644  1.00  0.00     0.029 HD
ENDROOT
BRANCH   1   5
ATOM      5  C   UNL     1      45.226 132.004  22.205  1.00  0.00    -0.033 A 
ATOM      6  C   UNL     1      43.072 130.632  23.402  1.00  0.00    -0.051 A 
ATOM      7  C   UNL     1      43.998 131.324  24.194  1.00  0.00     0.004 A 
ATOM      8  C   UNL     1      43.227 130.622  22.009  1.00  0.00     0.012 A 
ATOM      9  C   UNL     1      45.060 132.010  23.600  1.00  0.00     0.004 A 
ATOM     10  C   UNL     1      44.281 131.322  21.402  1.00  0.00    -0.015 A 
ATOM     11  C   UNL     1      41.959 129.857  24.044  1.00  0.00     0.044 C 
BRANCH  10  12
ATOM     12  C   UNL     1      44.401 131.292  19.931  1.00  0.00    -0.019 A 
ATOM     13  C   UNL     1      43.438 131.943  19.125  1.00  0.00     0.009 A 
ATOM     14  C   UNL     1      45.474 130.608  19.326  1.00  0.00    -0.007 A 
ATOM     15  C   UNL     1      43.561 131.941  17.727  1.00  0.00     0.003 A 
ATOM     16  C   UNL     1      45.572 130.622  17.935  1.00  0.00    -0.130 A 
ATOM     17  C   UNL     1      44.643 131.273  17.155  1.00  0.00    -0.057 A 
ATOM     18  N   UNL     1      46.603 130.016  17.173  1.00  0.00    -0.626 NA
ATOM     19  C   UNL     1      44.989 131.149  15.714  1.00  0.00     0.089 C 
ATOM     20  C   UNL     1      46.246 130.339  15.831  1.00  0.00     0.059 C 
ATOM     21  O   UNL     1      46.933 129.973  14.843  1.00  0.00    -0.320 OA
ENDBRANCH  10  12
ENDBRANCH   1   5
BRANCH   2  22
ATOM     22  N   UNL     1      48.368 134.126  21.701  1.00  0.00    -0.396 NA
BRANCH  22  23
ATOM     23  C   UNL     1      49.392 134.826  22.419  1.00  0.00     0.034 A 
ATOM     24  C   UNL     1      49.970 134.284  23.583  1.00  0.00     0.132 A 
ATOM     25  C   UNL     1      49.789 136.098  21.983  1.00  0.00     0.132 A 
ATOM     26  C   UNL     1      50.966 134.989  24.266  1.00  0.00     0.079 A 
ATOM     27  C   UNL     1      50.788 136.798  22.667  1.00  0.00     0.079 A 
ATOM     28  C   UNL     1      51.382 136.240  23.804  1.00  0.00     0.129 A 
ATOM     29  F   UNL     1      49.539 133.099  24.084  1.00  0.00    -0.207 F 
ATOM     30  F   UNL     1      49.222 136.649  20.880  1.00  0.00    -0.207 F 
ATOM     31  F   UNL     1      52.349 136.920  24.468  1.00  0.00    -0.207 F 
ENDBRANCH  22  23
ENDBRANCH   2  22
TORSDOF 4
ENDMDL
MODEL 4
REMARK VINA RESULT:      -5.7      1.168      2.153
REMARK SMILES Cc1ccc(NC(=O)[N-]c2c(F)cc(F)cc2F)c(-c2ccc3c(c2)[N-]C(=O)C3)c1
REMARK SMILES IDX 6 1 7 2 8 3 5 5 2 6 3 7 30 8 4 9 19 10 1 11 20 12 21 13
REMARK SMILES IDX 25 14 22 15 24 16 23 17 26 18 29 19 27 20 28 21 9 22 10 23
REMARK SMILES IDX 11 24 17 25 13 26 16 27 14 28 12 29 18 30 15 31
REMARK H PARENT 6 4
ROOT
ATOM      1  N   UNL     1      46.368 133.045  21.877  1.00  0.00    -0.423 N 
ATOM      2  C   UNL     1      47.263 133.910  22.598  1.00  0.00     0.160 C 
ATOM      3  O   UNL     1      47.028 134.226  23.794  1.00  0.00    -0.298 OA
ATOM      4  H   UNL     1      46.559 132.893  20.863  1.00  0.00     0.029 HD
ENDROOT
BRANCH   1   5
ATOM      5  C   UNL     1      45.322 132.275  22.496  1.00  0.00    -0.033 A 
ATOM      6  C   UNL     1      43.290 130.755  23.724  1.00  0.00    -0.051 A 
ATOM      7  C   UNL     1      44.035 131.674  24.473  1.00  0.00     0.004 A 
ATOM      8  C   UNL     1      43.565 130.591  22.360  1.00  0.00     0.012 A 
ATOM      9  C   UNL     1      45.036 132.433  23.863  1.00  0.00     0.004 A 
ATOM     10  C   UNL     1      44.558 131.361  21.734  1.00  0.00    -0.015 A 
ATOM     11  C   UNL     1      42.247 129.906  24.391  1.00  0.00     0.044 C 
BRANCH  10  12
ATOM     12  C   UNL     1      44.808 131.162  20.293  1.00  0.00    -0.019 A 
ATOM     13  C   UNL     1      45.928 130.413  19.862  1.00  0.00     0.009 A 
ATOM     14  C   UNL     1      43.933 131.724  19.342  1.00  0.00    -0.007 A 
ATOM     15  C   UNL     1      46.157 130.198  18.494  1.00  0.00     0.003 A 
ATOM     16  C   UNL     1      44.183 131.494  17.990  1.00  0.00    -0.130 A 
ATOM     17  C   UNL     1      45.265 130.749  17.575  1.00  0.00    -0.057 A 
ATOM     18  N   UNL     1      43.387 131.956  16.912  1.00  0.00    -0.626 NA
ATOM     19  C   UNL     1      45.290 130.643  16.091  1.00  0.00     0.089 C 
ATOM     20  C   UNL     1      44.060 131.437  15.766  1.00  0.00     0.059 C 
ATOM     21  O   UNL     1      43.647 131.634  14.594  1.00  0.00    -0.320 OA
ENDBRANCH  10  12
ENDBRANCH   1   5
BRANCH   2  22
ATOM     22  N   UNL     1      48.426 134.444  21.955  1.00  0.00    -0.396 NA
BRANCH  22  23
ATOM     23  C   UNL     1      49.607 134.870  22.646  1.00  0.00     0.034 A 
ATOM     24  C   UNL     1      50.182 134.086  23.665  1.00  0.00     0.132 A 
ATOM     25  C   UNL     1      50.171 136.117  22.337  1.00  0.00     0.132 A 
ATOM     26  C   UNL     1      51.334 134.527  24.324  1.00  0.00     0.079 A 
ATOM     27  C   UNL     1      51.325 136.551  22.997  1.00  0.00     0.079 A 
ATOM     28  C   UNL     1      51.910 135.754  23.985  1.00  0.00     0.129 A 
ATOM     29  F   UNL     1      49.605 132.922  24.053  1.00  0.00    -0.207 F 
ATOM     30  F   UNL     1      49.613 136.899  21.378  1.00  0.00    -0.207 F 
ATOM     31  F   UNL     1      53.028 136.177  24.625  1.00  0.00    -0.207 F 
ENDBRANCH  22  23
ENDBRANCH   2  22
TORSDOF 4
ENDMDL
MODEL 5
REMARK VINA RESULT:      -5.6      5.326      7.502
REMARK SMILES Cc1ccc(NC(=O)[N-]c2c(F)cc(F)cc2F)c(-c2ccc3c(c2)[N-]C(=O)C3)c1
REMARK SMILES IDX 6 1 7 2 8 3 5 5 2 6 3 7 30 8 4 9 19 10 1 11 20 12 21 13
REMARK SMILES IDX 25 14 22 15 24 16 23 17 26 18 29 19 27 20 28 21 9 22 10 23
REMARK SMILES IDX 11 24 17 25 13 26 16 27 14 28 12 29 18 30 15 31
REMARK H PARENT 6 4
ROOT
ATOM      1  N   UNL     1      45.021 128.181  21.914  1.00  0.00    -0.423 N 
ATOM      2  C   UNL     1      45.243 126.912  22.554  1.00  0.00     0.160 C 
ATOM      3  O   UNL     1      45.233 126.814  23.810  1.00  0.00    -0.298 OA
ATOM      4  H   UNL     1      45.135 128.223  20.879  1.00  0.00     0.029 HD
ENDROOT
BRANCH   1   5
ATOM      5  C   UNL     1      44.519 129.346  22.594  1.00  0.00    -0.033 A 
ATOM      6  C   UNL     1      43.514 131.618  23.928  1.00  0.00    -0.051 A 
ATOM      7  C   UNL     1      43.673 130.408  24.614  1.00  0.00     0.004 A 
ATOM      8  C   UNL     1      43.854 131.692  22.570  1.00  0.00     0.012 A 
ATOM      9  C   UNL     1      44.179 129.285  23.956  1.00  0.00     0.004 A 
ATOM     10  C   UNL     1      44.377 130.573  21.903  1.00  0.00    -0.015 A 
ATOM     11  C   UNL     1      42.928 132.811  24.624  1.00  0.00     0.044 C 
BRANCH  10  12
ATOM     12  C   UNL     1      44.730 130.697  20.475  1.00  0.00    -0.019 A 
ATOM     13  C   UNL     1      46.002 130.283  20.017  1.00  0.00     0.009 A 
ATOM     14  C   UNL     1      43.798 131.234  19.564  1.00  0.00    -0.007 A 
ATOM     15  C   UNL     1      46.333 130.373  18.656  1.00  0.00     0.003 A 
ATOM     16  C   UNL     1      44.152 131.312  18.218  1.00  0.00    -0.130 A 
ATOM     17  C   UNL     1      45.386 130.891  17.774  1.00  0.00    -0.057 A 
ATOM     18  N   UNL     1      43.325 131.791  17.172  1.00  0.00    -0.626 NA
ATOM     19  C   UNL     1      45.500 131.066  16.301  1.00  0.00     0.089 C 
ATOM     20  C   UNL     1      44.145 131.639  16.014  1.00  0.00     0.059 C 
ATOM     21  O   UNL     1      43.753 131.959  14.863  1.00  0.00    -0.320 OA
ENDBRANCH  10  12
ENDBRANCH   1   5
BRANCH   2  22
ATOM     22  N   UNL     1      45.502 125.743  21.769  1.00  0.00    -0.396 NA
BRANCH  22  23
ATOM     23  C   UNL     1      46.639 124.888  21.943  1.00  0.00     0.034 A 
ATOM     24  C   UNL     1      46.547 123.498  21.739  1.00  0.00     0.132 A 
ATOM     25  C   UNL     1      47.854 125.441  22.374  1.00  0.00     0.132 A 
ATOM     26  C   UNL     1      47.673 122.687  21.917  1.00  0.00     0.079 A 
ATOM     27  C   UNL     1      48.977 124.626  22.547  1.00  0.00     0.079 A 
ATOM     28  C   UNL     1      48.888 123.251  22.312  1.00  0.00     0.129 A 
ATOM     29  F   UNL     1      45.363 122.921  21.416  1.00  0.00    -0.207 F 
ATOM     30  F   UNL     1      47.953 126.775  22.604  1.00  0.00    -0.207 F 
ATOM     31  F   UNL     1      49.978 122.461  22.481  1.00  0.00    -0.207 F 
ENDBRANCH  22  23
ENDBRANCH   2  22
TORSDOF 4
ENDMDL
MODEL 6
REMARK VINA RESULT:      -4.2      3.830      7.372
REMARK SMILES Cc1ccc(NC(=O)[N-]c2c(F)cc(F)cc2F)c(-c2ccc3c(c2)[N-]C(=O)C3)c1
REMARK SMILES IDX 6 1 7 2 8 3 5 5 2 6 3 7 30 8 4 9 19 10 1 11 20 12 21 13
REMARK SMILES IDX 25 14 22 15 24 16 23 17 26 18 29 19 27 20 28 21 9 22 10 23
REMARK SMILES IDX 11 24 17 25 13 26 16 27 14 28 12 29 18 30 15 31
REMARK H PARENT 6 4
ROOT
ATOM      1  N   UNL     1      45.126 131.353  20.374  1.00  0.00    -0.423 N 
ATOM      2  C   UNL     1      44.073 131.780  19.491  1.00  0.00     0.160 C 
ATOM      3  O   UNL     1      43.394 132.808  19.749  1.00  0.00    -0.298 OA
ATOM      4  H   UNL     1      45.591 130.444  20.162  1.00  0.00     0.029 HD
ENDROOT
BRANCH   1   5
ATOM      5  C   UNL     1      45.661 132.164  21.435  1.00  0.00    -0.033 A 
ATOM      6  C   UNL     1      46.734 133.741  23.512  1.00  0.00    -0.051 A 
ATOM      7  C   UNL     1      47.186 133.902  22.196  1.00  0.00     0.004 A 
ATOM      8  C   UNL     1      45.748 132.785  23.791  1.00  0.00     0.012 A 
ATOM      9  C   UNL     1      46.649 133.127  21.166  1.00  0.00     0.004 A 
ATOM     10  C   UNL     1      45.190 132.013  22.760  1.00  0.00    -0.015 A 
ATOM     11  C   UNL     1      47.345 134.542  24.624  1.00  0.00     0.044 C 
BRANCH  10  12
ATOM     12  C   UNL     1      44.147 131.023  23.098  1.00  0.00    -0.019 A 
ATOM     13  C   UNL     1      42.845 131.453  23.447  1.00  0.00     0.009 A 
ATOM     14  C   UNL     1      44.449 129.647  23.078  1.00  0.00    -0.007 A 
ATOM     15  C   UNL     1      41.842 130.518  23.742  1.00  0.00     0.003 A 
ATOM     16  C   UNL     1      43.434 128.739  23.375  1.00  0.00    -0.130 A 
ATOM     17  C   UNL     1      42.163 129.161  23.697  1.00  0.00    -0.057 A 
ATOM     18  N   UNL     1      43.559 127.327  23.367  1.00  0.00    -0.626 NA
ATOM     19  C   UNL     1      41.273 127.997  23.951  1.00  0.00     0.089 C 
ATOM     20  C   UNL     1      42.249 126.884  23.714  1.00  0.00     0.059 C 
ATOM     21  O   UNL     1      41.952 125.665  23.809  1.00  0.00    -0.320 OA
ENDBRANCH  10  12
ENDBRANCH   1   5
BRANCH   2  22
ATOM     22  N   UNL     1      43.768 131.025  18.312  1.00  0.00    -0.396 NA
BRANCH  22  23
ATOM     23  C   UNL     1      44.531 131.078  17.100  1.00  0.00     0.034 A 
ATOM     24  C   UNL     1      43.994 131.633  15.922  1.00  0.00     0.132 A 
ATOM     25  C   UNL     1      45.817 130.519  17.073  1.00  0.00     0.132 A 
ATOM     26  C   UNL     1      44.760 131.670  14.752  1.00  0.00     0.079 A 
ATOM     27  C   UNL     1      46.580 130.562  15.901  1.00  0.00     0.079 A 
ATOM     28  C   UNL     1      46.054 131.144  14.744  1.00  0.00     0.129 A 
ATOM     29  F   UNL     1      42.719 132.094  15.891  1.00  0.00    -0.207 F 
ATOM     30  F   UNL     1      46.339 129.953  18.190  1.00  0.00    -0.207 F 
ATOM     31  F   UNL     1      46.794 131.184  13.608  1.00  0.00    -0.207 F 
ENDBRANCH  22  23
ENDBRANCH   2  22
TORSDOF 4
ENDMDL
MODEL 7
REMARK VINA RESULT:      -4.2      3.862      7.542
REMARK SMILES Cc1ccc(NC(=O)[N-]c2c(F)cc(F)cc2F)c(-c2ccc3c(c2)[N-]C(=O)C3)c1
REMARK SMILES IDX 6 1 7 2 8 3 5 5 2 6 3 7 30 8 4 9 19 10 1 11 20 12 21 13
REMARK SMILES IDX 25 14 22 15 24 16 23 17 26 18 29 19 27 20 28 21 9 22 10 23
REMARK SMILES IDX 11 24 17 25 13 26 16 27 14 28 12 29 18 30 15 31
REMARK H PARENT 6 4
ROOT
ATOM      1  N   UNL     1      45.219 131.125  20.416  1.00  0.00    -0.423 N 
ATOM      2  C   UNL     1      44.346 131.541  19.350  1.00  0.00     0.160 C 
ATOM      3  O   UNL     1      43.752 132.650  19.401  1.00  0.00    -0.298 OA
ATOM      4  H   UNL     1      45.609 130.159  20.368  1.00  0.00     0.029 HD
ENDROOT
BRANCH   1   5
ATOM      5  C   UNL     1      45.690 132.000  21.456  1.00  0.00    -0.033 A 
ATOM      6  C   UNL     1      46.637 133.705  23.493  1.00  0.00    -0.051 A 
ATOM      7  C   UNL     1      47.137 133.814  22.190  1.00  0.00     0.004 A 
ATOM      8  C   UNL     1      45.664 132.737  23.780  1.00  0.00     0.012 A 
ATOM      9  C   UNL     1      46.663 132.976  21.179  1.00  0.00     0.004 A 
ATOM     10  C   UNL     1      45.169 131.901  22.767  1.00  0.00    -0.015 A 
ATOM     11  C   UNL     1      47.181 134.575  24.588  1.00  0.00     0.044 C 
BRANCH  10  12
ATOM     12  C   UNL     1      44.138 130.901  23.112  1.00  0.00    -0.019 A 
ATOM     13  C   UNL     1      42.844 131.318  23.499  1.00  0.00     0.009 A 
ATOM     14  C   UNL     1      44.446 129.527  23.060  1.00  0.00    -0.007 A 
ATOM     15  C   UNL     1      41.852 130.373  23.802  1.00  0.00     0.003 A 
ATOM     16  C   UNL     1      43.441 128.609  23.365  1.00  0.00    -0.130 A 
ATOM     17  C   UNL     1      42.176 129.019  23.724  1.00  0.00    -0.057 A 
ATOM     18  N   UNL     1      43.573 127.198  23.329  1.00  0.00    -0.626 NA
ATOM     19  C   UNL     1      41.298 127.846  23.979  1.00  0.00     0.089 C 
ATOM     20  C   UNL     1      42.272 126.742  23.699  1.00  0.00     0.059 C 
ATOM     21  O   UNL     1      41.983 125.520  23.779  1.00  0.00    -0.320 OA
ENDBRANCH  10  12
ENDBRANCH   1   5
BRANCH   2  22
ATOM     22  N   UNL     1      44.125 130.687  18.223  1.00  0.00    -0.396 NA
BRANCH  22  23
ATOM     23  C   UNL     1      44.770 130.841  16.953  1.00  0.00     0.034 A 
ATOM     24  C   UNL     1      46.077 130.365  16.733  1.00  0.00     0.132 A 
ATOM     25  C   UNL     1      44.106 131.525  15.924  1.00  0.00     0.132 A 
ATOM     26  C   UNL     1      46.683 130.530  15.483  1.00  0.00     0.079 A 
ATOM     27  C   UNL     1      44.716 131.685  14.675  1.00  0.00     0.079 A 
ATOM     28  C   UNL     1      46.001 131.181  14.453  1.00  0.00     0.129 A 
ATOM     29  F   UNL     1      46.781 129.784  17.737  1.00  0.00    -0.207 F 
ATOM     30  F   UNL     1      42.858 132.017  16.127  1.00  0.00    -0.207 F 
ATOM     31  F   UNL     1      46.592 131.338  13.243  1.00  0.00    -0.207 F 
ENDBRANCH  22  23
ENDBRANCH   2  22
TORSDOF 4
ENDMDL
MODEL 8
REMARK VINA RESULT:      -3.5      5.094      7.811
REMARK SMILES Cc1ccc(NC(=O)[N-]c2c(F)cc(F)cc2F)c(-c2ccc3c(c2)[N-]C(=O)C3)c1
REMARK SMILES IDX 6 1 7 2 8 3 5 5 2 6 3 7 30 8 4 9 19 10 1 11 20 12 21 13
REMARK SMILES IDX 25 14 22 15 24 16 23 17 26 18 29 19 27 20 28 21 9 22 10 23
REMARK SMILES IDX 11 24 17 25 13 26 16 27 14 28 12 29 18 30 15 31
REMARK H PARENT 6 4
ROOT
ATOM      1  N   UNL     1      44.832 129.860  19.829  1.00  0.00    -0.423 N 
ATOM      2  C   UNL     1      45.392 130.522  18.681  1.00  0.00     0.160 C 
ATOM      3  O   UNL     1      45.333 131.774  18.568  1.00  0.00    -0.298 OA
ATOM      4  H   UNL     1      44.823 128.817  19.825  1.00  0.00     0.029 HD
ENDROOT
BRANCH   1   5
ATOM      5  C   UNL     1      44.417 130.542  21.026  1.00  0.00    -0.033 A 
ATOM      6  C   UNL     1      43.623 131.894  23.370  1.00  0.00    -0.051 A 
ATOM      7  C   UNL     1      43.587 132.545  22.131  1.00  0.00     0.004 A 
ATOM      8  C   UNL     1      44.063 130.565  23.438  1.00  0.00     0.012 A 
ATOM      9  C   UNL     1      43.972 131.874  20.969  1.00  0.00     0.004 A 
ATOM     10  C   UNL     1      44.437 129.876  22.274  1.00  0.00    -0.015 A 
ATOM     11  C   UNL     1      43.254 132.631  24.623  1.00  0.00     0.044 C 
BRANCH  10  12
ATOM     12  C   UNL     1      44.885 128.474  22.390  1.00  0.00    -0.019 A 
ATOM     13  C   UNL     1      45.944 127.996  21.584  1.00  0.00     0.009 A 
ATOM     14  C   UNL     1      44.254 127.607  23.304  1.00  0.00    -0.007 A 
ATOM     15  C   UNL     1      46.394 126.673  21.709  1.00  0.00     0.003 A 
ATOM     16  C   UNL     1      44.721 126.297  23.409  1.00  0.00    -0.130 A 
ATOM     17  C   UNL     1      45.765 125.841  22.634  1.00  0.00    -0.057 A 
ATOM     18  N   UNL     1      44.223 125.311  24.298  1.00  0.00    -0.626 NA
ATOM     19  C   UNL     1      46.073 124.421  22.954  1.00  0.00     0.089 C 
ATOM     20  C   UNL     1      45.046 124.179  24.019  1.00  0.00     0.059 C 
ATOM     21  O   UNL     1      44.911 123.083  24.621  1.00  0.00    -0.320 OA
ENDBRANCH  10  12
ENDBRANCH   1   5
BRANCH   2  22
ATOM     22  N   UNL     1      46.008 129.759  17.637  1.00  0.00    -0.396 NA
BRANCH  22  23
ATOM     23  C   UNL     1      46.080 130.176  16.267  1.00  0.00     0.034 A 
ATOM     24  C   UNL     1      44.964 130.733  15.613  1.00  0.00     0.132 A 
ATOM     25  C   UNL     1      47.269 129.978  15.551  1.00  0.00     0.132 A 
ATOM     26  C   UNL     1      45.061 131.130  14.275  1.00  0.00     0.079 A 
ATOM     27  C   UNL     1      47.362 130.379  14.214  1.00  0.00     0.079 A 
ATOM     28  C   UNL     1      46.261 130.961  13.579  1.00  0.00     0.129 A 
ATOM     29  F   UNL     1      43.772 130.848  16.250  1.00  0.00    -0.207 F 
ATOM     30  F   UNL     1      48.345 129.415  16.157  1.00  0.00    -0.207 F 
ATOM     31  F   UNL     1      46.351 131.349  12.283  1.00  0.00    -0.207 F 
ENDBRANCH  22  23
ENDBRANCH   2  22
TORSDOF 4
ENDMDL
MODEL 9
REMARK VINA RESULT:      -3.2      4.960      7.327
REMARK SMILES Cc1ccc(NC(=O)[N-]c2c(F)cc(F)cc2F)c(-c2ccc3c(c2)[N-]C(=O)C3)c1
REMARK SMILES IDX 6 1 7 2 8 3 5 5 2 6 3 7 30 8 4 9 19 10 1 11 20 12 21 13
REMARK SMILES IDX 25 14 22 15 24 16 23 17 26 18 29 19 27 20 28 21 9 22 10 23
REMARK SMILES IDX 11 24 17 25 13 26 16 27 14 28 12 29 18 30 15 31
REMARK H PARENT 6 4
ROOT
ATOM      1  N   UNL     1      44.898 130.085  20.383  1.00  0.00    -0.423 N 
ATOM      2  C   UNL     1      44.972 130.650  19.062  1.00  0.00     0.160 C 
ATOM      3  O   UNL     1      44.126 131.500  18.678  1.00  0.00    -0.298 OA
ATOM      4  H   UNL     1      45.564 129.317  20.614  1.00  0.00     0.029 HD
ENDROOT
BRANCH   1   5
ATOM      5  C   UNL     1      44.064 130.605  21.434  1.00  0.00    -0.033 A 
ATOM      6  C   UNL     1      42.449 131.642  23.500  1.00  0.00    -0.051 A 
ATOM      7  C   UNL     1      42.789 132.439  22.400  1.00  0.00     0.004 A 
ATOM      8  C   UNL     1      42.922 130.324  23.569  1.00  0.00     0.012 A 
ATOM      9  C   UNL     1      43.581 131.924  21.373  1.00  0.00     0.004 A 
ATOM     10  C   UNL     1      43.706 129.792  22.534  1.00  0.00    -0.015 A 
ATOM     11  C   UNL     1      41.636 132.211  24.625  1.00  0.00     0.044 C 
BRANCH  10  12
ATOM     12  C   UNL     1      44.176 128.396  22.645  1.00  0.00    -0.019 A 
ATOM     13  C   UNL     1      43.327 127.399  23.178  1.00  0.00     0.009 A 
ATOM     14  C   UNL     1      45.477 128.056  22.222  1.00  0.00    -0.007 A 
ATOM     15  C   UNL     1      43.758 126.066  23.261  1.00  0.00     0.003 A 
ATOM     16  C   UNL     1      45.879 126.724  22.314  1.00  0.00    -0.130 A 
ATOM     17  C   UNL     1      45.042 125.753  22.818  1.00  0.00    -0.057 A 
ATOM     18  N   UNL     1      47.134 126.209  21.903  1.00  0.00    -0.626 NA
ATOM     19  C   UNL     1      45.706 124.422  22.790  1.00  0.00     0.089 C 
ATOM     20  C   UNL     1      47.023 124.817  22.192  1.00  0.00     0.059 C 
ATOM     21  O   UNL     1      47.955 124.003  21.959  1.00  0.00    -0.320 OA
ENDBRANCH  10  12
ENDBRANCH   1   5
BRANCH   2  22
ATOM     22  N   UNL     1      46.000 130.236  18.156  1.00  0.00    -0.396 NA
BRANCH  22  23
ATOM     23  C   UNL     1      45.997 130.512  16.750  1.00  0.00     0.034 A 
ATOM     24  C   UNL     1      45.991 131.834  16.264  1.00  0.00     0.132 A 
ATOM     25  C   UNL     1      45.947 129.446  15.840  1.00  0.00     0.132 A 
ATOM     26  C   UNL     1      45.987 132.076  14.886  1.00  0.00     0.079 A 
ATOM     27  C   UNL     1      45.946 129.693  14.463  1.00  0.00     0.079 A 
ATOM     28  C   UNL     1      45.974 131.007  13.987  1.00  0.00     0.129 A 
ATOM     29  F   UNL     1      45.943 132.887  17.118  1.00  0.00    -0.207 F 
ATOM     30  F   UNL     1      45.922 128.166  16.291  1.00  0.00    -0.207 F 
ATOM     31  F   UNL     1      45.971 131.245  12.652  1.00  0.00    -0.207 F 
ENDBRANCH  22  23
ENDBRANCH   2  22
TORSDOF 4
ENDMDL


