REMARK SMILES C=C1CC[C@@H]([NH2+]c2cccc(N=C=O)c2[O-])C[C@H]1F
REMARK SMILES IDX 7 1 8 2 9 3 10 4 11 5 15 6 16 7 6 8 5 11 2 12 3 13 18 14
REMARK SMILES IDX 4 15 17 16 1 17 19 18 12 19 13 20 14 21
REMARK H PARENT 6 9 6 10
ROOT
ATOM      1  C   UNL     1       2.216   0.311  -0.618  1.00  0.00     0.124 A 
ATOM      2  C   UNL     1       2.359   1.313  -1.594  1.00  0.00     0.067 A 
ATOM      3  C   UNL     1       3.424   2.210  -1.536  1.00  0.00     0.008 A 
ATOM      4  C   UNL     1       4.360   2.122  -0.507  1.00  0.00     0.029 A 
ATOM      5  C   UNL     1       4.249   1.135   0.480  1.00  0.00     0.074 A 
ATOM      6  C   UNL     1       3.167   0.220   0.422  1.00  0.00    -0.018 A 
ATOM      7  O   UNL     1       3.027  -0.779   1.381  1.00  0.00    -0.867 OA
ENDROOT
BRANCH   1   8
ATOM      8  N   UNL     1       1.098  -0.605  -0.682  1.00  0.00    -0.312 N 
ATOM      9  H   UNL     1       0.715  -0.646  -1.657  1.00  0.00     0.352 HD
ATOM     10  H   UNL     1       1.448  -1.566  -0.460  1.00  0.00     0.352 HD
BRANCH   8  11
ATOM     11  C   UNL     1       0.023  -0.231   0.265  1.00  0.00     0.191 C 
ATOM     12  C   UNL     1      -2.744   0.289   1.049  1.00  0.00    -0.043 C 
ATOM     13  C   UNL     1      -2.123  -1.051   1.364  1.00  0.00     0.039 C 
ATOM     14  C   UNL     1      -1.817   1.459   0.793  1.00  0.00     0.198 C 
ATOM     15  C   UNL     1      -1.004  -1.380   0.370  1.00  0.00     0.070 C 
ATOM     16  C   UNL     1      -0.697   1.065  -0.179  1.00  0.00     0.107 C 
ATOM     17  C   UNL     1      -4.067   0.466   1.194  1.00  0.00     0.011 C 
ATOM     18  F   UNL     1      -2.501   2.543   0.266  1.00  0.00    -0.242 F 
ENDBRANCH   8  11
ENDBRANCH   1   8
BRANCH   5  19
ATOM     19  N   UNL     1       5.255   1.109   1.509  1.00  0.00    -0.169 NA
BRANCH  19  20
ATOM     20  C   UNL     1       5.294   0.287   2.480  1.00  0.00     0.240 C 
ATOM     21  O   UNL     1       5.335  -0.512   3.425  1.00  0.00    -0.211 OA
ENDBRANCH  19  20
ENDBRANCH   5  19
TORSDOF 4


