REMARK SMILES c1cc2c(c([NH2+]c3ccc4[nH]ccc4c3)c1)CCC2
REMARK SMILES IDX 7 1 8 2 9 3 10 4 11 5 12 6 13 7 14 8 15 9 6 11 5 14 1 15
REMARK SMILES IDX 2 16 16 17 3 18 4 19 19 20 17 21 18 22
REMARK H PARENT 11 10 6 12 6 13
ROOT
ATOM      1  C   UNL     1      -0.888   1.586  -0.638  1.00  0.00     0.135 A 
ATOM      2  C   UNL     1       0.419   1.515  -1.190  1.00  0.00     0.070 A 
ATOM      3  C   UNL     1       0.615   1.151  -2.535  1.00  0.00     0.033 A 
ATOM      4  C   UNL     1      -0.510   0.863  -3.302  1.00  0.00     0.046 A 
ATOM      5  N   UNL     1      -0.546   0.496  -4.593  1.00  0.00    -0.361 N 
ATOM      6  C   UNL     1      -1.854   0.325  -4.892  1.00  0.00     0.083 A 
ATOM      7  C   UNL     1      -2.653   0.585  -3.783  1.00  0.00     0.028 A 
ATOM      8  C   UNL     1      -1.773   0.927  -2.779  1.00  0.00     0.005 A 
ATOM      9  C   UNL     1      -2.005   1.283  -1.453  1.00  0.00     0.078 A 
ATOM     10  H   UNL     1       0.266   0.368  -5.237  1.00  0.00     0.166 HD
ENDROOT
BRANCH   1  11
ATOM     11  N   UNL     1      -1.074   1.934   0.750  1.00  0.00    -0.281 N 
ATOM     12  H   UNL     1      -0.424   2.714   0.999  1.00  0.00     0.358 HD
ATOM     13  H   UNL     1      -2.045   2.291   0.909  1.00  0.00     0.358 HD
BRANCH  11  14
ATOM     14  C   UNL     1      -0.860   0.775   1.585  1.00  0.00     0.138 A 
ATOM     15  C   UNL     1      -1.592  -1.417   2.388  1.00  0.00     0.006 A 
ATOM     16  C   UNL     1      -0.460  -1.507   3.208  1.00  0.00     0.004 A 
ATOM     17  C   UNL     1      -1.794  -0.283   1.586  1.00  0.00     0.068 A 
ATOM     18  C   UNL     1       0.454  -0.454   3.211  1.00  0.00    -0.039 A 
ATOM     19  C   UNL     1       0.268   0.659   2.426  1.00  0.00     0.017 A 
ATOM     20  C   UNL     1       1.683  -0.370   4.034  1.00  0.00     0.036 C 
ATOM     21  C   UNL     1       1.352   1.655   2.637  1.00  0.00     0.042 C 
ATOM     22  C   UNL     1       2.298   0.987   3.651  1.00  0.00     0.010 C 
ENDBRANCH  11  14
ENDBRANCH   1  11
TORSDOF 2


