REMARK SMILES C=C/C=C(\O)N1Cc2[nH+]cc(-c3ccc4[nH]ccc4c3)cc2C1=O
REMARK SMILES IDX 4 1 5 2 3 4 2 5 1 6 6 7 23 8 7 9 22 10 8 11 21 12 9 13 11 14
REMARK SMILES IDX 10 15 24 16 12 18 13 19 20 20 14 21 19 22 15 23 18 24 16 25
REMARK SMILES IDX 17 26
REMARK H PARENT 5 3 9 17 16 27
ROOT
ATOM      1  C   UNL     1       0.034  -0.238   4.937  1.00  0.00     0.194 C 
ENDROOT
BRANCH   1   2
ATOM      2  O   UNL     1      -0.181   1.077   5.353  1.00  0.00    -0.494 OA
ATOM      3  H   UNL     1      -0.140   1.859   4.713  1.00  0.00     0.295 HD
ENDBRANCH   1   2
BRANCH   1   4
ATOM      4  C   UNL     1       0.113  -1.215   5.851  1.00  0.00     0.066 C 
BRANCH   4   5
ATOM      5  C   UNL     1      -0.021  -0.954   7.297  1.00  0.00    -0.002 C 
ATOM      6  C   UNL     1       0.056  -1.942   8.183  1.00  0.00     0.009 C 
ENDBRANCH   4   5
ENDBRANCH   1   4
BRANCH   1   7
ATOM      7  N   UNL     1       0.182  -0.538   3.535  1.00  0.00    -0.268 N 
ATOM      8  C   UNL     1      -0.347   0.225   2.449  1.00  0.00     0.267 C 
ATOM      9  C   UNL     1       1.022  -1.611   2.977  1.00  0.00     0.238 C 
ATOM     10  C   UNL     1       0.145  -0.300   1.201  1.00  0.00     0.110 A 
ATOM     11  C   UNL     1       0.950  -1.368   1.499  1.00  0.00     0.212 A 
ATOM     12  C   UNL     1      -0.075   0.097  -0.113  1.00  0.00     0.035 A 
ATOM     13  N   UNL     1       1.565  -2.080   0.521  1.00  0.00    -0.212 N 
ATOM     14  C   UNL     1       0.560  -0.632  -1.141  1.00  0.00     0.046 A 
ATOM     15  C   UNL     1       1.386  -1.731  -0.789  1.00  0.00     0.315 A 
ATOM     16  O   UNL     1      -1.171   1.170   2.568  1.00  0.00    -0.268 OA
ATOM     17  H   UNL     1       2.170  -2.895   0.767  1.00  0.00     0.453 HD
BRANCH  14  18
ATOM     18  C   UNL     1       0.367  -0.255  -2.564  1.00  0.00    -0.012 A 
ATOM     19  C   UNL     1      -0.910   0.163  -3.031  1.00  0.00     0.011 A 
ATOM     20  C   UNL     1       1.453  -0.307  -3.471  1.00  0.00     0.019 A 
ATOM     21  C   UNL     1      -1.104   0.523  -4.376  1.00  0.00     0.027 A 
ATOM     22  C   UNL     1       1.223   0.057  -4.795  1.00  0.00    -0.000 A 
ATOM     23  C   UNL     1      -0.009   0.458  -5.233  1.00  0.00     0.045 A 
ATOM     24  C   UNL     1       2.079   0.105  -5.874  1.00  0.00     0.028 A 
ATOM     25  N   UNL     1       0.023   0.757  -6.542  1.00  0.00    -0.361 N 
ATOM     26  C   UNL     1       1.298   0.543  -6.938  1.00  0.00     0.083 A 
ATOM     27  H   UNL     1      -0.770   1.089  -7.134  1.00  0.00     0.166 HD
ENDBRANCH  14  18
ENDBRANCH   1   7
TORSDOF 5


