REMARK SMILES CCNC(=O)CCOc1ccc(C(=O)[N-][C@H]2CC23CCC3)c(C)c1
REMARK SMILES IDX 7 1 6 2 4 3 3 4 5 6 2 7 1 8 8 9 9 10 10 11 24 12 11 13 22 14
REMARK SMILES IDX 12 15 23 16 13 17 14 18 15 19 16 20 17 21 18 22 19 23 21 24
REMARK SMILES IDX 20 25
REMARK H PARENT 3 5
ROOT
ATOM      1  C   UNL     1      -2.469  -0.042   2.358  1.00  0.00     0.239 C 
ENDROOT
BRANCH   1   2
ATOM      2  C   UNL     1      -3.609   0.507   3.210  1.00  0.00     0.141 C 
BRANCH   2   3
ATOM      3  C   UNL     1      -4.704  -0.508   3.340  1.00  0.00     0.223 C 
ATOM      4  N   UNL     1      -5.667  -0.664   2.288  1.00  0.00    -0.356 N 
ATOM      5  H   UNL     1      -5.649  -0.000   1.481  1.00  0.00     0.163 HD
ATOM      6  O   UNL     1      -4.750  -1.244   4.362  1.00  0.00    -0.275 OA
BRANCH   4   7
ATOM      7  C   UNL     1      -6.709  -1.688   2.321  1.00  0.00     0.112 C 
ATOM      8  C   UNL     1      -6.122  -3.061   2.009  1.00  0.00     0.027 C 
ENDBRANCH   4   7
ENDBRANCH   2   3
ENDBRANCH   1   2
BRANCH   1   9
ATOM      9  O   UNL     1      -1.438   0.937   2.259  1.00  0.00    -0.493 OA
BRANCH   9  10
ATOM     10  C   UNL     1      -0.246   0.764   1.540  1.00  0.00     0.119 A 
ATOM     11  C   UNL     1       0.045  -0.416   0.839  1.00  0.00     0.047 A 
ATOM     12  C   UNL     1       0.681   1.809   1.530  1.00  0.00     0.050 A 
ATOM     13  C   UNL     1       1.240  -0.537   0.130  1.00  0.00     0.014 A 
ATOM     14  C   UNL     1       1.897   1.699   0.833  1.00  0.00    -0.038 A 
ATOM     15  C   UNL     1       2.176   0.513   0.100  1.00  0.00     0.002 A 
ATOM     16  C   UNL     1       2.867   2.852   0.898  1.00  0.00     0.045 C 
BRANCH  15  17
ATOM     17  C   UNL     1       3.413   0.333  -0.705  1.00  0.00     0.082 C 
ATOM     18  O   UNL     1       4.026   1.328  -1.176  1.00  0.00    -0.315 OA
BRANCH  17  19
ATOM     19  N   UNL     1       3.889  -0.986  -0.991  1.00  0.00    -0.646 NA
BRANCH  19  20
ATOM     20  C   UNL     1       5.069  -1.232  -1.809  1.00  0.00    -0.100 C 
ATOM     21  C   UNL     1       5.014  -2.569  -2.559  1.00  0.00    -0.010 C 
ATOM     22  C   UNL     1       4.777  -1.253  -3.288  1.00  0.00    -0.044 C 
ATOM     23  C   UNL     1       3.494  -1.100  -4.054  1.00  0.00     0.006 C 
ATOM     24  C   UNL     1       5.671  -0.931  -4.448  1.00  0.00     0.006 C 
ATOM     25  C   UNL     1       4.378  -0.765  -5.274  1.00  0.00     0.001 C 
ENDBRANCH  19  20
ENDBRANCH  17  19
ENDBRANCH  15  17
ENDBRANCH   9  10
ENDBRANCH   1   9
TORSDOF 8


