REMARK SMILES Cc1c(F)cc(-c2ccc3cc[nH]c3c2)cc1[S-]
REMARK SMILES IDX 7 1 8 2 9 3 10 4 11 5 12 6 13 7 14 8 15 9 6 11 2 12 3 13
REMARK SMILES IDX 17 14 5 15 16 16 1 17 4 18 18 19
REMARK H PARENT 13 10
ROOT
ATOM      1  C   UNL     1      -0.371   0.579  -1.248  1.00  0.00    -0.016 A 
ATOM      2  C   UNL     1      -0.387   1.514  -2.319  1.00  0.00     0.009 A 
ATOM      3  C   UNL     1      -0.658   1.099  -3.635  1.00  0.00     0.011 A 
ATOM      4  C   UNL     1      -0.910  -0.252  -3.852  1.00  0.00    -0.001 A 
ATOM      5  C   UNL     1      -1.203  -0.936  -5.012  1.00  0.00     0.028 A 
ATOM      6  C   UNL     1      -1.358  -2.262  -4.622  1.00  0.00     0.083 A 
ATOM      7  N   UNL     1      -1.171  -2.395  -3.288  1.00  0.00    -0.361 N 
ATOM      8  C   UNL     1      -0.898  -1.162  -2.831  1.00  0.00     0.046 A 
ATOM      9  C   UNL     1      -0.632  -0.787  -1.516  1.00  0.00     0.035 A 
ATOM     10  H   UNL     1      -1.228  -3.277  -2.733  1.00  0.00     0.166 HD
ENDROOT
BRANCH   1  11
ATOM     11  C   UNL     1      -0.084   1.029   0.138  1.00  0.00    -0.017 A 
ATOM     12  C   UNL     1       0.464   1.884   2.775  1.00  0.00    -0.034 A 
ATOM     13  C   UNL     1       1.003   0.679   2.288  1.00  0.00     0.125 A 
ATOM     14  C   UNL     1      -0.356   2.660   1.929  1.00  0.00    -0.169 A 
ATOM     15  C   UNL     1       0.730   0.258   0.984  1.00  0.00     0.048 A 
ATOM     16  C   UNL     1      -0.623   2.231   0.624  1.00  0.00    -0.012 A 
ATOM     17  C   UNL     1       0.757   2.337   4.181  1.00  0.00     0.046 C 
ATOM     18  F   UNL     1       1.799  -0.094   3.070  1.00  0.00    -0.207 F 
ATOM     19  S   UNL     1      -1.089   4.217   2.490  1.00  0.00    -0.779 S 
ENDBRANCH   1  11
TORSDOF 1


