REMARK SMILES NNc1ccccc1-c1nc2ccccc2[n-]1
REMARK SMILES IDX 2 1 1 3 3 6 4 7 8 8 5 9 7 10 6 11 9 12 10 13 17 14 11 15
REMARK SMILES IDX 16 16 12 17 15 18 13 19 14 20
REMARK H PARENT 2 2 1 4 1 5
ROOT
ATOM      1  N   UNL     1      -1.235  -2.321  -0.071  1.00  0.00    -0.324 N 
ATOM      2  H   UNL     1      -1.803  -1.821   0.650  1.00  0.00     0.181 HD
ENDROOT
BRANCH   1   3
ATOM      3  N   UNL     1      -1.146  -3.721  -0.001  1.00  0.00    -0.250 NA
ATOM      4  H   UNL     1      -1.855  -4.107  -0.666  1.00  0.00     0.143 HD
ATOM      5  H   UNL     1      -1.456  -4.011   0.955  1.00  0.00     0.143 HD
ENDBRANCH   1   3
BRANCH   1   6
ATOM      6  C   UNL     1      -0.616  -1.582  -1.141  1.00  0.00     0.056 A 
ATOM      7  C   UNL     1      -0.275  -2.242  -2.338  1.00  0.00     0.028 A 
ATOM      8  C   UNL     1      -0.401  -0.181  -1.042  1.00  0.00    -0.002 A 
ATOM      9  C   UNL     1       0.233  -1.530  -3.426  1.00  0.00     0.002 A 
ATOM     10  C   UNL     1       0.091   0.520  -2.158  1.00  0.00     0.010 A 
ATOM     11  C   UNL     1       0.406  -0.151  -3.340  1.00  0.00     0.001 A 
BRANCH   8  12
ATOM     12  C   UNL     1      -0.627   0.572   0.213  1.00  0.00    -0.049 A 
ATOM     13  N   UNL     1      -1.022   1.875   0.224  1.00  0.00    -0.435 NA
ATOM     14  N   UNL     1      -0.386   0.052   1.447  1.00  0.00    -0.435 NA
ATOM     15  C   UNL     1      -1.046   2.164   1.533  1.00  0.00    -0.038 A 
ATOM     16  C   UNL     1      -0.668   1.079   2.260  1.00  0.00    -0.038 A 
ATOM     17  C   UNL     1      -1.387   3.374   2.133  1.00  0.00     0.004 A 
ATOM     18  C   UNL     1      -0.598   1.110   3.651  1.00  0.00     0.004 A 
ATOM     19  C   UNL     1      -1.330   3.444   3.538  1.00  0.00     0.000 A 
ATOM     20  C   UNL     1      -0.937   2.316   4.295  1.00  0.00     0.000 A 
ENDBRANCH   8  12
ENDBRANCH   1   6
TORSDOF 3


