REMARK SMILES O/C(=C\Cc1c(F)cc2[nH+]cccc2c1F)c1ccccc1
REMARK SMILES IDX 3 1 2 2 1 3 17 5 18 6 22 7 19 8 21 9 20 10 4 11 5 12 6 13
REMARK SMILES IDX 15 14 8 15 14 16 9 17 13 18 10 19 12 20 11 21 7 22 16 23
REMARK H PARENT 1 4 10 24
ROOT
ATOM      1  C   UNL     1      -0.107   0.963   0.213  1.00  0.00     0.025 C 
ENDROOT
BRANCH   1   2
ATOM      2  C   UNL     1      -0.645   2.046   0.808  1.00  0.00     0.119 C 
BRANCH   2   3
ATOM      3  O   UNL     1      -1.643   1.919   1.782  1.00  0.00    -0.508 OA
ATOM      4  H   UNL     1      -2.009   1.030   2.098  1.00  0.00     0.293 HD
ENDBRANCH   2   3
BRANCH   2   5
ATOM      5  C   UNL     1      -0.215   3.419   0.438  1.00  0.00     0.016 A 
ATOM      6  C   UNL     1      -1.139   4.476   0.516  1.00  0.00     0.012 A 
ATOM      7  C   UNL     1       1.110   3.702   0.046  1.00  0.00     0.012 A 
ATOM      8  C   UNL     1      -0.756   5.780   0.185  1.00  0.00     0.001 A 
ATOM      9  C   UNL     1       1.487   5.008  -0.282  1.00  0.00     0.001 A 
ATOM     10  C   UNL     1       0.555   6.045  -0.216  1.00  0.00     0.000 A 
ENDBRANCH   2   5
ENDBRANCH   1   2
BRANCH   1  11
ATOM     11  C   UNL     1      -0.504  -0.445   0.563  1.00  0.00     0.073 C 
BRANCH  11  12
ATOM     12  C   UNL     1       0.281  -1.442  -0.255  1.00  0.00     0.029 A 
ATOM     13  C   UNL     1       1.522  -1.916   0.207  1.00  0.00     0.136 A 
ATOM     14  C   UNL     1      -0.192  -1.854  -1.516  1.00  0.00     0.143 A 
ATOM     15  C   UNL     1       2.268  -2.813  -0.561  1.00  0.00     0.119 A 
ATOM     16  C   UNL     1       0.557  -2.756  -2.291  1.00  0.00     0.082 A 
ATOM     17  C   UNL     1       1.795  -3.242  -1.809  1.00  0.00     0.216 A 
ATOM     18  C   UNL     1       0.105  -3.191  -3.546  1.00  0.00     0.024 A 
ATOM     19  N   UNL     1       2.524  -4.118  -2.561  1.00  0.00    -0.211 N 
ATOM     20  C   UNL     1       0.873  -4.086  -4.290  1.00  0.00     0.071 A 
ATOM     21  C   UNL     1       2.088  -4.543  -3.778  1.00  0.00     0.306 A 
ATOM     22  F   UNL     1       2.016  -1.505   1.403  1.00  0.00    -0.206 F 
ATOM     23  F   UNL     1      -1.373  -1.372  -1.986  1.00  0.00    -0.206 F 
ATOM     24  H   UNL     1       3.440  -4.478  -2.208  1.00  0.00     0.453 HD
ENDBRANCH  11  12
ENDBRANCH   1  11
TORSDOF 5


