REMARK SMILES Cc1c([NH2+]c2c3o[n-]cc-3cc(-n3nc4ccccc4[nH+]3)c2=O)cc(-c2ccc(O)cc2)c2cc[nH]c12
REMARK SMILES IDX 1 1 2 2 3 3 24 4 25 5 33 6 34 7 35 8 36 9 37 10 4 12 5 15
REMARK SMILES IDX 6 16 22 17 7 18 10 19 12 20 8 21 9 22 11 23 23 24 13 25
REMARK SMILES IDX 14 26 21 27 15 28 20 29 16 30 19 31 17 32 18 33 26 35 27 36
REMARK SMILES IDX 32 37 28 38 31 39 29 40 30 41
REMARK H PARENT 36 11 4 13 4 14 21 34 30 42
ROOT
ATOM      1  C   UNL     1      -0.857  -0.872  -5.199  1.00  0.00     0.053 C 
ATOM      2  C   UNL     1       0.011  -0.772  -3.967  1.00  0.00     0.034 A 
ATOM      3  C   UNL     1      -0.348   0.063  -2.862  1.00  0.00     0.140 A 
ATOM      4  C   UNL     1       0.549   0.194  -1.769  1.00  0.00     0.078 A 
ATOM      5  C   UNL     1       1.758  -0.522  -1.711  1.00  0.00    -0.003 A 
ATOM      6  C   UNL     1       2.048  -1.375  -2.779  1.00  0.00     0.008 A 
ATOM      7  C   UNL     1       3.104  -2.246  -2.970  1.00  0.00     0.028 A 
ATOM      8  C   UNL     1       2.861  -2.861  -4.187  1.00  0.00     0.083 A 
ATOM      9  N   UNL     1       1.712  -2.407  -4.730  1.00  0.00    -0.361 N 
ATOM     10  C   UNL     1       1.214  -1.500  -3.865  1.00  0.00     0.055 A 
ATOM     11  H   UNL     1       1.304  -2.740  -5.630  1.00  0.00     0.166 HD
ENDROOT
BRANCH   3  12
ATOM     12  N   UNL     1      -1.600   0.794  -2.822  1.00  0.00    -0.275 N 
ATOM     13  H   UNL     1      -2.167   0.675  -3.690  1.00  0.00     0.358 HD
ATOM     14  H   UNL     1      -1.385   1.814  -2.751  1.00  0.00     0.358 HD
BRANCH  12  15
ATOM     15  C   UNL     1      -2.406   0.349  -1.707  1.00  0.00     0.227 A 
ATOM     16  C   UNL     1      -3.037  -0.892  -1.733  1.00  0.00     0.179 A 
ATOM     17  C   UNL     1      -2.566   1.127  -0.524  1.00  0.00     0.274 A 
ATOM     18  O   UNL     1      -3.058  -1.806  -2.669  1.00  0.00    -0.553 OA
ATOM     19  C   UNL     1      -3.805  -1.365  -0.635  1.00  0.00     0.005 A 
ATOM     20  C   UNL     1      -3.342   0.648   0.583  1.00  0.00     0.182 A 
ATOM     21  N   UNL     1      -3.772  -2.836  -2.288  1.00  0.00    -0.512 NA
ATOM     22  C   UNL     1      -4.249  -2.600  -1.040  1.00  0.00    -0.098 A 
ATOM     23  C   UNL     1      -3.969  -0.620   0.518  1.00  0.00     0.049 A 
ATOM     24  O   UNL     1      -1.998   2.250  -0.444  1.00  0.00    -0.280 OA
BRANCH  20  25
ATOM     25  N   UNL     1      -3.497   1.452   1.770  1.00  0.00    -0.008 N 
ATOM     26  N   UNL     1      -3.479   2.786   1.769  1.00  0.00     0.054 NA
ATOM     27  N   UNL     1      -3.682   0.958   2.993  1.00  0.00    -0.161 N 
ATOM     28  C   UNL     1      -3.660   3.140   3.053  1.00  0.00     0.249 A 
ATOM     29  C   UNL     1      -3.784   2.014   3.808  1.00  0.00     0.198 A 
ATOM     30  C   UNL     1      -3.716   4.414   3.610  1.00  0.00     0.064 A 
ATOM     31  C   UNL     1      -3.972   2.057   5.186  1.00  0.00     0.058 A 
ATOM     32  C   UNL     1      -3.909   4.502   5.003  1.00  0.00     0.005 A 
ATOM     33  C   UNL     1      -4.036   3.329   5.788  1.00  0.00     0.005 A 
ATOM     34  H   UNL     1      -3.709  -0.052   3.259  1.00  0.00     0.340 HD
ENDBRANCH  20  25
ENDBRANCH  12  15
ENDBRANCH   3  12
BRANCH   5  35
ATOM     35  C   UNL     1       2.661  -0.374  -0.546  1.00  0.00    -0.017 A 
ATOM     36  C   UNL     1       4.027  -0.100  -0.729  1.00  0.00     0.012 A 
ATOM     37  C   UNL     1       2.152  -0.474   0.760  1.00  0.00     0.012 A 
ATOM     38  C   UNL     1       4.871   0.052   0.375  1.00  0.00     0.047 A 
ATOM     39  C   UNL     1       2.998  -0.322   1.863  1.00  0.00     0.047 A 
ATOM     40  C   UNL     1       4.359  -0.060   1.674  1.00  0.00     0.115 A 
BRANCH  40  41
ATOM     41  O   UNL     1       5.191   0.090   2.781  1.00  0.00    -0.508 OA
ATOM     42  H   UNL     1       6.181   0.281   2.678  1.00  0.00     0.293 HD
ENDBRANCH  40  41
ENDBRANCH   5  35
TORSDOF 5


