REMARK SMILES NN(/C(O)=C\Cc1ccco1)c1ccc2cc3ccccc3cc2c1
REMARK SMILES IDX 3 1 4 2 5 4 6 5 7 6 11 7 8 8 10 9 9 10 2 11 12 12 13 13
REMARK SMILES IDX 25 14 14 15 24 16 15 17 23 18 16 19 22 20 17 21 21 22 18 23
REMARK SMILES IDX 20 24 19 25 1 26
REMARK H PARENT 4 3 1 27 1 28
ROOT
ATOM      1  C   UNL     1       2.730   0.269  -3.126  1.00  0.00     0.202 C 
ENDROOT
BRANCH   1   2
ATOM      2  O   UNL     1       3.675   1.150  -2.608  1.00  0.00    -0.494 OA
ATOM      3  H   UNL     1       4.085   0.992  -1.695  1.00  0.00     0.295 HD
ENDBRANCH   1   2
BRANCH   1   4
ATOM      4  C   UNL     1       2.205   0.514  -4.334  1.00  0.00     0.049 C 
BRANCH   4   5
ATOM      5  C   UNL     1       1.115  -0.320  -4.950  1.00  0.00     0.108 C 
BRANCH   5   6
ATOM      6  C   UNL     1      -0.159  -0.185  -4.172  1.00  0.00     0.107 A 
ATOM      7  O   UNL     1      -0.795   0.950  -3.994  1.00  0.00    -0.469 OA
ATOM      8  C   UNL     1      -0.823  -1.207  -3.523  1.00  0.00     0.046 A 
ATOM      9  C   UNL     1      -1.851   0.724  -3.247  1.00  0.00     0.195 A 
ATOM     10  C   UNL     1      -1.914  -0.617  -2.922  1.00  0.00     0.042 A 
ENDBRANCH   5   6
ENDBRANCH   4   5
ENDBRANCH   1   4
BRANCH   1  11
ATOM     11  N   UNL     1       2.324  -0.867  -2.349  1.00  0.00    -0.249 N 
BRANCH  11  12
ATOM     12  C   UNL     1       1.602  -0.693  -1.104  1.00  0.00     0.061 A 
ATOM     13  C   UNL     1       1.568  -1.717  -0.139  1.00  0.00     0.028 A 
ATOM     14  C   UNL     1       0.878   0.492  -0.857  1.00  0.00     0.036 A 
ATOM     15  C   UNL     1       0.831  -1.568   1.038  1.00  0.00     0.011 A 
ATOM     16  C   UNL     1       0.125   0.644   0.316  1.00  0.00    -0.016 A 
ATOM     17  C   UNL     1       0.102  -0.395   1.273  1.00  0.00    -0.018 A 
ATOM     18  C   UNL     1      -0.612   1.816   0.540  1.00  0.00     0.017 A 
ATOM     19  C   UNL     1      -0.652  -0.248   2.447  1.00  0.00     0.017 A 
ATOM     20  C   UNL     1      -1.369   1.964   1.711  1.00  0.00    -0.018 A 
ATOM     21  C   UNL     1      -1.388   0.924   2.672  1.00  0.00    -0.018 A 
ATOM     22  C   UNL     1      -2.110   3.134   1.940  1.00  0.00     0.009 A 
ATOM     23  C   UNL     1      -2.147   1.076   3.844  1.00  0.00     0.009 A 
ATOM     24  C   UNL     1      -2.862   3.272   3.110  1.00  0.00     0.001 A 
ATOM     25  C   UNL     1      -2.880   2.247   4.059  1.00  0.00     0.001 A 
ENDBRANCH  11  12
BRANCH  11  26
ATOM     26  N   UNL     1       2.744  -2.138  -2.783  1.00  0.00    -0.240 NA
ATOM     27  H   UNL     1       3.515  -2.455  -2.152  1.00  0.00     0.144 HD
ATOM     28  H   UNL     1       1.940  -2.800  -2.694  1.00  0.00     0.144 HD
ENDBRANCH  11  26
ENDBRANCH   1  11
TORSDOF 7


