REMARK SMILES Cc1ccc([NH2+][C@@H]2CCC[C@H](NN)[C@@]2(O)c2nc3ccccc3[n-]2)cc1F
REMARK SMILES IDX 7 1 8 2 9 3 10 4 11 5 14 6 6 7 5 10 2 11 3 12 26 13 4 14
REMARK SMILES IDX 25 15 1 16 27 17 15 18 16 20 17 21 24 22 18 23 23 24 19 25
REMARK SMILES IDX 22 26 20 27 21 28 12 29 13 31
REMARK H PARENT 6 8 6 9 15 19 12 30 13 32 13 33
ROOT
ATOM      1  C   UNL     1       1.548   0.451   0.567  1.00  0.00     0.225 C 
ATOM      2  C   UNL     1       2.690   0.422  -0.484  1.00  0.00     0.069 C 
ATOM      3  C   UNL     1       2.269   1.069  -1.805  1.00  0.00     0.008 C 
ATOM      4  C   UNL     1       1.821   2.514  -1.591  1.00  0.00     0.024 C 
ATOM      5  C   UNL     1       0.648   2.579  -0.593  1.00  0.00     0.111 C 
ATOM      6  C   UNL     1       0.986   1.903   0.786  1.00  0.00     0.150 C 
ENDROOT
BRANCH   1   7
ATOM      7  N   UNL     1       2.002  -0.144   1.849  1.00  0.00    -0.309 N 
ATOM      8  H   UNL     1       1.310   0.048   2.610  1.00  0.00     0.352 HD
ATOM      9  H   UNL     1       2.905   0.294   2.149  1.00  0.00     0.352 HD
BRANCH   7  10
ATOM     10  C   UNL     1       2.150  -1.578   1.749  1.00  0.00     0.132 A 
ATOM     11  C   UNL     1       2.427  -4.374   1.526  1.00  0.00    -0.015 A 
ATOM     12  C   UNL     1       1.156  -3.797   1.679  1.00  0.00     0.012 A 
ATOM     13  C   UNL     1       3.561  -3.546   1.497  1.00  0.00     0.132 A 
ATOM     14  C   UNL     1       1.019  -2.411   1.787  1.00  0.00     0.068 A 
ATOM     15  C   UNL     1       3.422  -2.158   1.605  1.00  0.00     0.107 A 
ATOM     16  C   UNL     1       2.579  -5.864   1.429  1.00  0.00     0.047 C 
ATOM     17  F   UNL     1       4.801  -4.081   1.363  1.00  0.00    -0.206 F 
ENDBRANCH   7  10
ENDBRANCH   1   7
BRANCH   6  18
ATOM     18  O   UNL     1       1.911   2.674   1.523  1.00  0.00    -0.378 OA
ATOM     19  H   UNL     1       2.759   2.729   1.016  1.00  0.00     0.212 HD
ENDBRANCH   6  18
BRANCH   6  20
ATOM     20  C   UNL     1      -0.291   1.810   1.598  1.00  0.00    -0.042 A 
ATOM     21  N   UNL     1      -0.461   2.453   2.786  1.00  0.00    -0.437 NA
ATOM     22  N   UNL     1      -1.367   1.076   1.200  1.00  0.00    -0.437 NA
ATOM     23  C   UNL     1      -1.703   2.093   3.139  1.00  0.00    -0.038 A 
ATOM     24  C   UNL     1      -2.242   1.274   2.195  1.00  0.00    -0.038 A 
ATOM     25  C   UNL     1      -2.405   2.461   4.285  1.00  0.00     0.004 A 
ATOM     26  C   UNL     1      -3.528   0.753   2.317  1.00  0.00     0.004 A 
ATOM     27  C   UNL     1      -3.708   1.954   4.443  1.00  0.00     0.000 A 
ATOM     28  C   UNL     1      -4.268   1.103   3.462  1.00  0.00     0.000 A 
ENDBRANCH   6  20
BRANCH   5  29
ATOM     29  N   UNL     1       0.131   3.959  -0.477  1.00  0.00    -0.254 NA
ATOM     30  H   UNL     1      -0.713   3.955   0.144  1.00  0.00     0.141 HD
BRANCH  29  31
ATOM     31  N   UNL     1       1.105   4.807   0.086  1.00  0.00    -0.271 NA
ATOM     32  H   UNL     1       0.613   5.605   0.553  1.00  0.00     0.137 HD
ATOM     33  H   UNL     1       1.633   5.234  -0.708  1.00  0.00     0.137 HD
ENDBRANCH  29  31
ENDBRANCH   5  29
TORSDOF 6


