REMARK SMILES C=c1ccc(=C(N=[N+]=[N-])C(=O)c2ccc(C)cc2)cc1
REMARK SMILES IDX 6 1 5 2 2 3 3 4 20 5 4 6 19 7 1 8 7 9 8 10 9 11 10 12 11 13
REMARK SMILES IDX 12 14 13 15 18 16 14 17 17 18 15 19 16 20
REMARK H PARENT
ROOT
ATOM      1  C   UNL     1       0.983  -0.612  -0.940  1.00  0.00     0.093 C 
ENDROOT
BRANCH   1   2
ATOM      2  C   UNL     1       1.828  -1.650  -0.662  1.00  0.00    -0.012 A 
ATOM      3  C   UNL     1       3.585  -3.811  -0.092  1.00  0.00    -0.033 A 
ATOM      4  C   UNL     1       2.865  -3.191   0.938  1.00  0.00     0.008 A 
ATOM      5  C   UNL     1       3.427  -3.351  -1.406  1.00  0.00     0.008 A 
ATOM      6  C   UNL     1       2.002  -2.127   0.660  1.00  0.00     0.009 A 
ATOM      7  C   UNL     1       2.563  -2.289  -1.688  1.00  0.00     0.009 A 
ATOM      8  C   UNL     1       4.411  -4.828   0.175  1.00  0.00     0.017 C 
ENDBRANCH   1   2
BRANCH   1   9
ATOM      9  N   UNL     1       0.548  -0.339  -2.282  1.00  0.00    -0.056 NA
BRANCH   9  10
ATOM     10  N   UNL     1       0.153  -1.230  -3.036  1.00  0.00     0.006 N 
ATOM     11  N   UNL     1      -0.243  -2.119  -3.789  1.00  0.00    -0.003 NA
ENDBRANCH   9  10
ENDBRANCH   1   9
BRANCH   1  12
ATOM     12  C   UNL     1       0.499   0.313   0.120  1.00  0.00     0.195 C 
ATOM     13  O   UNL     1       1.286   0.686   1.033  1.00  0.00    -0.289 OA
BRANCH  12  14
ATOM     14  C   UNL     1      -0.894   0.800   0.151  1.00  0.00     0.022 A 
ATOM     15  C   UNL     1      -1.451   1.501  -0.932  1.00  0.00     0.012 A 
ATOM     16  C   UNL     1      -1.668   0.593   1.303  1.00  0.00     0.012 A 
ATOM     17  C   UNL     1      -2.770   1.961  -0.872  1.00  0.00     0.004 A 
ATOM     18  C   UNL     1      -2.987   1.052   1.363  1.00  0.00     0.004 A 
ATOM     19  C   UNL     1      -3.542   1.750   0.280  1.00  0.00    -0.051 A 
ATOM     20  C   UNL     1      -4.970   2.209   0.329  1.00  0.00     0.044 C 
ENDBRANCH  12  14
ENDBRANCH   1  12
TORSDOF 5


