MODEL 1
REMARK VINA RESULT:      -5.8      0.000      0.000
REMARK SMILES CO[C@H]1CCC[C@H](c2cc3cc(F)ccc3[nH]2)N1C(=O)C(C)(F)F
REMARK SMILES IDX 3 1 4 2 5 3 6 4 7 5 18 6 2 7 1 8 19 9 20 10 21 11 22 12
REMARK SMILES IDX 23 13 24 14 8 15 9 16 17 17 10 18 16 19 11 20 15 21 12 22
REMARK SMILES IDX 14 23 13 25
REMARK H PARENT 17 24
ROOT
ATOM      1  C   UNL     1      42.889 129.549  22.575  1.00  0.00     0.217 C 
ATOM      2  C   UNL     1      42.439 130.820  23.312  1.00  0.00     0.055 C 
ATOM      3  C   UNL     1      43.010 132.071  22.652  1.00  0.00     0.007 C 
ATOM      4  C   UNL     1      44.534 132.009  22.662  1.00  0.00     0.032 C 
ATOM      5  C   UNL     1      45.055 130.760  21.927  1.00  0.00     0.135 C 
ATOM      6  N   UNL     1      44.360 129.539  22.398  1.00  0.00    -0.303 N 
ENDROOT
BRANCH   1   7
ATOM      7  O   UNL     1      42.495 128.426  23.352  1.00  0.00    -0.362 OA
ATOM      8  C   UNL     1      41.877 128.837  24.552  1.00  0.00     0.197 C 
ENDBRANCH   1   7
BRANCH   6   9
ATOM      9  C   UNL     1      45.034 128.265  22.278  1.00  0.00     0.295 C 
ATOM     10  O   UNL     1      45.443 127.882  21.147  1.00  0.00    -0.268 OA
BRANCH   9  11
ATOM     11  C   UNL     1      45.261 127.369  23.467  1.00  0.00     0.322 C 
ATOM     12  C   UNL     1      46.492 126.488  23.254  1.00  0.00     0.098 C 
ATOM     13  F   UNL     1      44.155 126.553  23.632  1.00  0.00    -0.196 F 
ATOM     14  F   UNL     1      45.414 128.120  24.619  1.00  0.00    -0.196 F 
ENDBRANCH   9  11
ENDBRANCH   6   9
BRANCH   5  15
ATOM     15  C   UNL     1      44.969 130.921  20.422  1.00  0.00     0.039 A 
ATOM     16  C   UNL     1      43.945 131.544  19.703  1.00  0.00     0.034 A 
ATOM     17  N   UNL     1      45.882 130.383  19.573  1.00  0.00    -0.357 N 
ATOM     18  C   UNL     1      44.280 131.380  18.378  1.00  0.00     0.003 A 
ATOM     19  C   UNL     1      45.453 130.677  18.335  1.00  0.00     0.046 A 
ATOM     20  C   UNL     1      43.623 131.788  17.220  1.00  0.00     0.049 A 
ATOM     21  C   UNL     1      46.055 130.329  17.126  1.00  0.00     0.029 A 
ATOM     22  C   UNL     1      44.208 131.457  15.983  1.00  0.00     0.123 A 
ATOM     23  C   UNL     1      45.419 130.731  15.937  1.00  0.00     0.041 A 
ATOM     24  H   UNL     1      46.732 129.832  19.825  1.00  0.00     0.166 HD
ATOM     25  F   UNL     1      43.603 131.835  14.829  1.00  0.00    -0.207 F 
ENDBRANCH   5  15
TORSDOF 4
ENDMDL
MODEL 2
REMARK VINA RESULT:      -5.7      1.496      1.854
REMARK SMILES CO[C@H]1CCC[C@H](c2cc3cc(F)ccc3[nH]2)N1C(=O)C(C)(F)F
REMARK SMILES IDX 3 1 4 2 5 3 6 4 7 5 18 6 2 7 1 8 19 9 20 10 21 11 22 12
REMARK SMILES IDX 23 13 24 14 8 15 9 16 17 17 10 18 16 19 11 20 15 21 12 22
REMARK SMILES IDX 14 23 13 25
REMARK H PARENT 17 24
ROOT
ATOM      1  C   UNL     1      42.507 129.032  23.861  1.00  0.00     0.217 C 
ATOM      2  C   UNL     1      41.778 130.148  24.625  1.00  0.00     0.055 C 
ATOM      3  C   UNL     1      42.164 131.524  24.092  1.00  0.00     0.007 C 
ATOM      4  C   UNL     1      43.668 131.729  24.236  1.00  0.00     0.032 C 
ATOM      5  C   UNL     1      44.462 130.646  23.481  1.00  0.00     0.135 C 
ATOM      6  N   UNL     1      43.965 129.293  23.817  1.00  0.00    -0.303 N 
ENDROOT
BRANCH   1   7
ATOM      7  O   UNL     1      42.261 127.804  24.533  1.00  0.00    -0.362 OA
ATOM      8  C   UNL     1      40.989 127.294  24.199  1.00  0.00     0.197 C 
ENDBRANCH   1   7
BRANCH   6   9
ATOM      9  C   UNL     1      44.865 128.168  23.687  1.00  0.00     0.295 C 
ATOM     10  O   UNL     1      45.668 127.903  24.623  1.00  0.00    -0.268 OA
BRANCH   9  11
ATOM     11  C   UNL     1      44.879 127.298  22.457  1.00  0.00     0.322 C 
ATOM     12  C   UNL     1      46.077 126.349  22.480  1.00  0.00     0.098 C 
ATOM     13  F   UNL     1      44.974 128.105  21.337  1.00  0.00    -0.196 F 
ATOM     14  F   UNL     1      43.705 126.571  22.363  1.00  0.00    -0.196 F 
ENDBRANCH   9  11
ENDBRANCH   6   9
BRANCH   5  15
ATOM     15  C   UNL     1      44.469 130.898  21.986  1.00  0.00     0.039 A 
ATOM     16  C   UNL     1      43.400 131.356  21.210  1.00  0.00     0.034 A 
ATOM     17  N   UNL     1      45.538 130.618  21.200  1.00  0.00    -0.357 N 
ATOM     18  C   UNL     1      43.869 131.361  19.915  1.00  0.00     0.003 A 
ATOM     19  C   UNL     1      45.161 130.910  19.945  1.00  0.00     0.046 A 
ATOM     20  C   UNL     1      43.239 131.715  18.725  1.00  0.00     0.049 A 
ATOM     21  C   UNL     1      45.918 130.780  18.781  1.00  0.00     0.029 A 
ATOM     22  C   UNL     1      43.978 131.598  17.532  1.00  0.00     0.123 A 
ATOM     23  C   UNL     1      45.313 131.134  17.561  1.00  0.00     0.041 A 
ATOM     24  H   UNL     1      46.460 130.230  21.499  1.00  0.00     0.166 HD
ATOM     25  F   UNL     1      43.405 131.933  16.349  1.00  0.00    -0.207 F 
ENDBRANCH   5  15
TORSDOF 4
ENDMDL
MODEL 3
REMARK VINA RESULT:      -5.1      1.671      2.154
REMARK SMILES CO[C@H]1CCC[C@H](c2cc3cc(F)ccc3[nH]2)N1C(=O)C(C)(F)F
REMARK SMILES IDX 3 1 4 2 5 3 6 4 7 5 18 6 2 7 1 8 19 9 20 10 21 11 22 12
REMARK SMILES IDX 23 13 24 14 8 15 9 16 17 17 10 18 16 19 11 20 15 21 12 22
REMARK SMILES IDX 14 23 13 25
REMARK H PARENT 17 24
ROOT
ATOM      1  C   UNL     1      42.524 129.260  23.728  1.00  0.00     0.217 C 
ATOM      2  C   UNL     1      41.859 130.475  24.393  1.00  0.00     0.055 C 
ATOM      3  C   UNL     1      42.322 131.778  23.749  1.00  0.00     0.007 C 
ATOM      4  C   UNL     1      43.836 131.909  23.882  1.00  0.00     0.032 C 
ATOM      5  C   UNL     1      44.568 130.725  23.224  1.00  0.00     0.135 C 
ATOM      6  N   UNL     1      43.995 129.434  23.669  1.00  0.00    -0.303 N 
ENDROOT
BRANCH   1   7
ATOM      7  O   UNL     1      42.211 128.108  24.499  1.00  0.00    -0.362 OA
ATOM      8  C   UNL     1      41.137 127.396  23.925  1.00  0.00     0.197 C 
ENDBRANCH   1   7
BRANCH   6   9
ATOM      9  C   UNL     1      44.830 128.253  23.637  1.00  0.00     0.295 C 
ATOM     10  O   UNL     1      45.595 128.007  24.609  1.00  0.00    -0.268 OA
BRANCH   9  11
ATOM     11  C   UNL     1      44.821 127.303  22.469  1.00  0.00     0.322 C 
ATOM     12  C   UNL     1      44.327 125.921  22.899  1.00  0.00     0.098 C 
ATOM     13  F   UNL     1      46.109 127.181  21.979  1.00  0.00    -0.196 F 
ATOM     14  F   UNL     1      44.021 127.792  21.451  1.00  0.00    -0.196 F 
ENDBRANCH   9  11
ENDBRANCH   6   9
BRANCH   5  15
ATOM     15  C   UNL     1      44.588 130.850  21.713  1.00  0.00     0.039 A 
ATOM     16  C   UNL     1      45.661 130.565  20.864  1.00  0.00     0.034 A 
ATOM     17  N   UNL     1      43.545 131.350  21.005  1.00  0.00    -0.357 N 
ATOM     18  C   UNL     1      45.221 130.895  19.602  1.00  0.00     0.003 A 
ATOM     19  C   UNL     1      43.941 131.364  19.722  1.00  0.00     0.046 A 
ATOM     20  C   UNL     1      45.868 130.826  18.370  1.00  0.00     0.049 A 
ATOM     21  C   UNL     1      43.215 131.802  18.615  1.00  0.00     0.029 A 
ATOM     22  C   UNL     1      45.159 131.256  17.232  1.00  0.00     0.123 A 
ATOM     23  C   UNL     1      43.837 131.741  17.355  1.00  0.00     0.041 A 
ATOM     24  H   UNL     1      42.627 131.680  21.377  1.00  0.00     0.166 HD
ATOM     25  F   UNL     1      45.749 131.206  16.012  1.00  0.00    -0.207 F 
ENDBRANCH   5  15
TORSDOF 4
ENDMDL
MODEL 4
REMARK VINA RESULT:      -5.0      1.694      2.435
REMARK SMILES CO[C@H]1CCC[C@H](c2cc3cc(F)ccc3[nH]2)N1C(=O)C(C)(F)F
REMARK SMILES IDX 3 1 4 2 5 3 6 4 7 5 18 6 2 7 1 8 19 9 20 10 21 11 22 12
REMARK SMILES IDX 23 13 24 14 8 15 9 16 17 17 10 18 16 19 11 20 15 21 12 22
REMARK SMILES IDX 14 23 13 25
REMARK H PARENT 17 24
ROOT
ATOM      1  C   UNL     1      42.401 127.929  23.457  1.00  0.00     0.217 C 
ATOM      2  C   UNL     1      41.818 128.905  24.491  1.00  0.00     0.055 C 
ATOM      3  C   UNL     1      42.322 130.325  24.255  1.00  0.00     0.007 C 
ATOM      4  C   UNL     1      43.843 130.354  24.353  1.00  0.00     0.032 C 
ATOM      5  C   UNL     1      44.496 129.403  23.332  1.00  0.00     0.135 C 
ATOM      6  N   UNL     1      43.876 128.059  23.388  1.00  0.00    -0.303 N 
ENDROOT
BRANCH   1   7
ATOM      7  O   UNL     1      42.058 126.608  23.853  1.00  0.00    -0.362 OA
ATOM      8  C   UNL     1      40.789 126.248  23.353  1.00  0.00     0.197 C 
ENDBRANCH   1   7
BRANCH   6   9
ATOM      9  C   UNL     1      44.651 126.917  22.958  1.00  0.00     0.295 C 
ATOM     10  O   UNL     1      44.275 126.251  21.955  1.00  0.00    -0.268 OA
BRANCH   9  11
ATOM     11  C   UNL     1      45.902 126.487  23.679  1.00  0.00     0.322 C 
ATOM     12  C   UNL     1      45.673 125.172  24.424  1.00  0.00     0.098 C 
ATOM     13  F   UNL     1      46.250 127.463  24.597  1.00  0.00    -0.196 F 
ATOM     14  F   UNL     1      46.952 126.345  22.787  1.00  0.00    -0.196 F 
ENDBRANCH   9  11
ENDBRANCH   6   9
BRANCH   5  15
ATOM     15  C   UNL     1      44.473 129.986  21.932  1.00  0.00     0.039 A 
ATOM     16  C   UNL     1      45.497 129.922  20.982  1.00  0.00     0.034 A 
ATOM     17  N   UNL     1      43.440 130.730  21.464  1.00  0.00    -0.357 N 
ATOM     18  C   UNL     1      45.037 130.645  19.905  1.00  0.00     0.003 A 
ATOM     19  C   UNL     1      43.794 131.118  20.229  1.00  0.00     0.046 A 
ATOM     20  C   UNL     1      45.636 130.926  18.680  1.00  0.00     0.049 A 
ATOM     21  C   UNL     1      43.060 131.910  19.347  1.00  0.00     0.029 A 
ATOM     22  C   UNL     1      44.918 131.719  17.765  1.00  0.00     0.123 A 
ATOM     23  C   UNL     1      43.634 132.209  18.098  1.00  0.00     0.041 A 
ATOM     24  H   UNL     1      42.559 130.976  21.966  1.00  0.00     0.166 HD
ATOM     25  F   UNL     1      45.462 132.017  16.559  1.00  0.00    -0.207 F 
ENDBRANCH   5  15
TORSDOF 4
ENDMDL
MODEL 5
REMARK VINA RESULT:      -4.7      0.916      1.493
REMARK SMILES CO[C@H]1CCC[C@H](c2cc3cc(F)ccc3[nH]2)N1C(=O)C(C)(F)F
REMARK SMILES IDX 3 1 4 2 5 3 6 4 7 5 18 6 2 7 1 8 19 9 20 10 21 11 22 12
REMARK SMILES IDX 23 13 24 14 8 15 9 16 17 17 10 18 16 19 11 20 15 21 12 22
REMARK SMILES IDX 14 23 13 25
REMARK H PARENT 17 24
ROOT
ATOM      1  C   UNL     1      42.815 129.510  22.510  1.00  0.00     0.217 C 
ATOM      2  C   UNL     1      42.385 130.815  23.197  1.00  0.00     0.055 C 
ATOM      3  C   UNL     1      42.991 132.030  22.501  1.00  0.00     0.007 C 
ATOM      4  C   UNL     1      44.512 131.935  22.530  1.00  0.00     0.032 C 
ATOM      5  C   UNL     1      45.013 130.649  21.845  1.00  0.00     0.135 C 
ATOM      6  N   UNL     1      44.287 129.462  22.350  1.00  0.00    -0.303 N 
ENDROOT
BRANCH   1   7
ATOM      7  O   UNL     1      42.388 128.423  23.321  1.00  0.00    -0.362 OA
ATOM      8  C   UNL     1      41.766 128.889  24.498  1.00  0.00     0.197 C 
ENDBRANCH   1   7
BRANCH   6   9
ATOM      9  C   UNL     1      44.934 128.170  22.282  1.00  0.00     0.295 C 
ATOM     10  O   UNL     1      45.188 127.660  21.156  1.00  0.00    -0.268 OA
BRANCH   9  11
ATOM     11  C   UNL     1      45.312 127.402  23.522  1.00  0.00     0.322 C 
ATOM     12  C   UNL     1      44.415 126.176  23.694  1.00  0.00     0.098 C 
ATOM     13  F   UNL     1      45.157 128.224  24.624  1.00  0.00    -0.196 F 
ATOM     14  F   UNL     1      46.638 127.009  23.464  1.00  0.00    -0.196 F 
ENDBRANCH   9  11
ENDBRANCH   6   9
BRANCH   5  15
ATOM     15  C   UNL     1      44.948 130.759  20.334  1.00  0.00     0.039 A 
ATOM     16  C   UNL     1      45.937 130.379  19.423  1.00  0.00     0.034 A 
ATOM     17  N   UNL     1      43.906 131.337  19.685  1.00  0.00    -0.357 N 
ATOM     18  C   UNL     1      45.447 130.733  18.186  1.00  0.00     0.003 A 
ATOM     19  C   UNL     1      44.220 131.308  18.380  1.00  0.00     0.046 A 
ATOM     20  C   UNL     1      46.006 130.600  16.918  1.00  0.00     0.049 A 
ATOM     21  C   UNL     1      43.463 131.794  17.316  1.00  0.00     0.029 A 
ATOM     22  C   UNL     1      45.264 131.078  15.821  1.00  0.00     0.123 A 
ATOM     23  C   UNL     1      43.997 131.671  16.020  1.00  0.00     0.041 A 
ATOM     24  H   UNL     1      43.044 131.746  20.110  1.00  0.00     0.166 HD
ATOM     25  F   UNL     1      45.769 130.968  14.567  1.00  0.00    -0.207 F 
ENDBRANCH   5  15
TORSDOF 4
ENDMDL
MODEL 6
REMARK VINA RESULT:      -4.7      2.636      4.179
REMARK SMILES CO[C@H]1CCC[C@H](c2cc3cc(F)ccc3[nH]2)N1C(=O)C(C)(F)F
REMARK SMILES IDX 3 1 4 2 5 3 6 4 7 5 18 6 2 7 1 8 19 9 20 10 21 11 22 12
REMARK SMILES IDX 23 13 24 14 8 15 9 16 17 17 10 18 16 19 11 20 15 21 12 22
REMARK SMILES IDX 14 23 13 25
REMARK H PARENT 17 24
ROOT
ATOM      1  C   UNL     1      43.433 125.395  22.416  1.00  0.00     0.217 C 
ATOM      2  C   UNL     1      42.146 125.343  23.254  1.00  0.00     0.055 C 
ATOM      3  C   UNL     1      41.747 126.733  23.739  1.00  0.00     0.007 C 
ATOM      4  C   UNL     1      42.867 127.322  24.590  1.00  0.00     0.032 C 
ATOM      5  C   UNL     1      44.188 127.414  23.804  1.00  0.00     0.135 C 
ATOM      6  N   UNL     1      44.499 126.129  23.137  1.00  0.00    -0.303 N 
ENDROOT
BRANCH   1   7
ATOM      7  O   UNL     1      43.855 124.060  22.171  1.00  0.00    -0.362 OA
ATOM      8  C   UNL     1      42.899 123.136  22.646  1.00  0.00     0.197 C 
ENDBRANCH   1   7
BRANCH   6   9
ATOM      9  C   UNL     1      45.879 125.816  22.837  1.00  0.00     0.295 C 
ATOM     10  O   UNL     1      46.408 126.280  21.790  1.00  0.00    -0.268 OA
BRANCH   9  11
ATOM     11  C   UNL     1      46.712 124.942  23.737  1.00  0.00     0.322 C 
ATOM     12  C   UNL     1      47.593 124.002  22.915  1.00  0.00     0.098 C 
ATOM     13  F   UNL     1      45.870 124.182  24.530  1.00  0.00    -0.196 F 
ATOM     14  F   UNL     1      47.501 125.716  24.571  1.00  0.00    -0.196 F 
ENDBRANCH   9  11
ENDBRANCH   6   9
BRANCH   5  15
ATOM     15  C   UNL     1      44.180 128.575  22.830  1.00  0.00     0.039 A 
ATOM     16  C   UNL     1      45.200 128.932  21.943  1.00  0.00     0.034 A 
ATOM     17  N   UNL     1      43.167 129.476  22.770  1.00  0.00    -0.357 N 
ATOM     18  C   UNL     1      44.758 130.081  21.325  1.00  0.00     0.003 A 
ATOM     19  C   UNL     1      43.529 130.381  21.847  1.00  0.00     0.046 A 
ATOM     20  C   UNL     1      45.364 130.879  20.358  1.00  0.00     0.049 A 
ATOM     21  C   UNL     1      42.816 131.507  21.438  1.00  0.00     0.029 A 
ATOM     22  C   UNL     1      44.666 132.022  19.921  1.00  0.00     0.123 A 
ATOM     23  C   UNL     1      43.396 132.333  20.459  1.00  0.00     0.041 A 
ATOM     24  H   UNL     1      42.293 129.484  23.341  1.00  0.00     0.166 HD
ATOM     25  F   UNL     1      45.217 132.828  18.980  1.00  0.00    -0.207 F 
ENDBRANCH   5  15
TORSDOF 4
ENDMDL
MODEL 7
REMARK VINA RESULT:      -4.2      2.996      4.144
REMARK SMILES CO[C@H]1CCC[C@H](c2cc3cc(F)ccc3[nH]2)N1C(=O)C(C)(F)F
REMARK SMILES IDX 3 1 4 2 5 3 6 4 7 5 18 6 2 7 1 8 19 9 20 10 21 11 22 12
REMARK SMILES IDX 23 13 24 14 8 15 9 16 17 17 10 18 16 19 11 20 15 21 12 22
REMARK SMILES IDX 14 23 13 25
REMARK H PARENT 17 24
ROOT
ATOM      1  C   UNL     1      44.577 130.767  21.285  1.00  0.00     0.217 C 
ATOM      2  C   UNL     1      43.050 130.911  21.373  1.00  0.00     0.055 C 
ATOM      3  C   UNL     1      42.461 131.362  20.041  1.00  0.00     0.007 C 
ATOM      4  C   UNL     1      43.061 132.705  19.641  1.00  0.00     0.032 C 
ATOM      5  C   UNL     1      44.595 132.629  19.522  1.00  0.00     0.135 C 
ATOM      6  N   UNL     1      45.188 131.993  20.721  1.00  0.00    -0.303 N 
ENDROOT
BRANCH   1   7
ATOM      7  O   UNL     1      45.076 130.545  22.597  1.00  0.00    -0.362 OA
ATOM      8  C   UNL     1      44.021 130.485  23.532  1.00  0.00     0.197 C 
ENDBRANCH   1   7
BRANCH   6   9
ATOM      9  C   UNL     1      46.555 132.310  21.072  1.00  0.00     0.295 C 
ATOM     10  O   UNL     1      47.484 131.537  20.710  1.00  0.00    -0.268 OA
BRANCH   9  11
ATOM     11  C   UNL     1      46.909 133.539  21.868  1.00  0.00     0.322 C 
ATOM     12  C   UNL     1      48.406 133.572  22.174  1.00  0.00     0.098 C 
ATOM     13  F   UNL     1      46.213 133.517  23.064  1.00  0.00    -0.196 F 
ATOM     14  F   UNL     1      46.543 134.683  21.181  1.00  0.00    -0.196 F 
ENDBRANCH   9  11
ENDBRANCH   6   9
BRANCH   5  15
ATOM     15  C   UNL     1      45.023 131.941  18.241  1.00  0.00     0.039 A 
ATOM     16  C   UNL     1      45.697 130.722  18.130  1.00  0.00     0.034 A 
ATOM     17  N   UNL     1      44.857 132.502  17.017  1.00  0.00    -0.357 N 
ATOM     18  C   UNL     1      45.921 130.553  16.782  1.00  0.00     0.003 A 
ATOM     19  C   UNL     1      45.401 131.644  16.139  1.00  0.00     0.046 A 
ATOM     20  C   UNL     1      46.556 129.524  16.091  1.00  0.00     0.049 A 
ATOM     21  C   UNL     1      45.483 131.786  14.755  1.00  0.00     0.029 A 
ATOM     22  C   UNL     1      46.650 129.635  14.690  1.00  0.00     0.123 A 
ATOM     23  C   UNL     1      46.115 130.762  14.026  1.00  0.00     0.041 A 
ATOM     24  H   UNL     1      44.420 133.425  16.797  1.00  0.00     0.166 HD
ATOM     25  F   UNL     1      47.260 128.657  13.976  1.00  0.00    -0.207 F 
ENDBRANCH   5  15
TORSDOF 4
ENDMDL
MODEL 8
REMARK VINA RESULT:      -3.9      1.063      1.136
REMARK SMILES CO[C@H]1CCC[C@H](c2cc3cc(F)ccc3[nH]2)N1C(=O)C(C)(F)F
REMARK SMILES IDX 3 1 4 2 5 3 6 4 7 5 18 6 2 7 1 8 19 9 20 10 21 11 22 12
REMARK SMILES IDX 23 13 24 14 8 15 9 16 17 17 10 18 16 19 11 20 15 21 12 22
REMARK SMILES IDX 14 23 13 25
REMARK H PARENT 17 24
ROOT
ATOM      1  C   UNL     1      42.540 129.124  23.149  1.00  0.00     0.217 C 
ATOM      2  C   UNL     1      42.060 130.337  23.961  1.00  0.00     0.055 C 
ATOM      3  C   UNL     1      42.687 131.629  23.445  1.00  0.00     0.007 C 
ATOM      4  C   UNL     1      44.206 131.539  23.543  1.00  0.00     0.032 C 
ATOM      5  C   UNL     1      44.756 130.346  22.738  1.00  0.00     0.135 C 
ATOM      6  N   UNL     1      44.019 129.103  23.062  1.00  0.00    -0.303 N 
ENDROOT
BRANCH   1   7
ATOM      7  O   UNL     1      42.084 127.947  23.803  1.00  0.00    -0.362 OA
ATOM      8  C   UNL     1      40.801 128.145  24.356  1.00  0.00     0.197 C 
ENDBRANCH   1   7
BRANCH   6   9
ATOM      9  C   UNL     1      44.683 127.832  22.876  1.00  0.00     0.295 C 
ATOM     10  O   UNL     1      45.820 127.798  22.331  1.00  0.00    -0.268 OA
BRANCH   9  11
ATOM     11  C   UNL     1      44.054 126.534  23.311  1.00  0.00     0.322 C 
ATOM     12  C   UNL     1      45.052 125.382  23.191  1.00  0.00     0.098 C 
ATOM     13  F   UNL     1      42.967 126.266  22.497  1.00  0.00    -0.196 F 
ATOM     14  F   UNL     1      43.598 126.628  24.614  1.00  0.00    -0.196 F 
ENDBRANCH   9  11
ENDBRANCH   6   9
BRANCH   5  15
ATOM     15  C   UNL     1      44.767 130.633  21.250  1.00  0.00     0.039 A 
ATOM     16  C   UNL     1      43.820 131.371  20.532  1.00  0.00     0.034 A 
ATOM     17  N   UNL     1      45.697 130.114  20.409  1.00  0.00    -0.357 N 
ATOM     18  C   UNL     1      44.223 131.296  19.218  1.00  0.00     0.003 A 
ATOM     19  C   UNL     1      45.357 130.531  19.179  1.00  0.00     0.046 A 
ATOM     20  C   UNL     1      43.657 131.835  18.065  1.00  0.00     0.049 A 
ATOM     21  C   UNL     1      46.008 130.248  17.979  1.00  0.00     0.029 A 
ATOM     22  C   UNL     1      44.293 131.571  16.838  1.00  0.00     0.123 A 
ATOM     23  C   UNL     1      45.465 130.781  16.796  1.00  0.00     0.041 A 
ATOM     24  H   UNL     1      46.500 129.496  20.658  1.00  0.00     0.166 HD
ATOM     25  F   UNL     1      43.778 132.076  15.689  1.00  0.00    -0.207 F 
ENDBRANCH   5  15
TORSDOF 4
ENDMDL
MODEL 9
REMARK VINA RESULT:      -3.3      2.143      3.212
REMARK SMILES CO[C@H]1CCC[C@H](c2cc3cc(F)ccc3[nH]2)N1C(=O)C(C)(F)F
REMARK SMILES IDX 3 1 4 2 5 3 6 4 7 5 18 6 2 7 1 8 19 9 20 10 21 11 22 12
REMARK SMILES IDX 23 13 24 14 8 15 9 16 17 17 10 18 16 19 11 20 15 21 12 22
REMARK SMILES IDX 14 23 13 25
REMARK H PARENT 17 24
ROOT
ATOM      1  C   UNL     1      42.550 126.611  22.988  1.00  0.00     0.217 C 
ATOM      2  C   UNL     1      41.564 127.135  24.044  1.00  0.00     0.055 C 
ATOM      3  C   UNL     1      41.670 128.650  24.193  1.00  0.00     0.007 C 
ATOM      4  C   UNL     1      43.088 129.028  24.609  1.00  0.00     0.032 C 
ATOM      5  C   UNL     1      44.129 128.540  23.585  1.00  0.00     0.135 C 
ATOM      6  N   UNL     1      43.918 127.113  23.253  1.00  0.00    -0.303 N 
ENDROOT
BRANCH   1   7
ATOM      7  O   UNL     1      42.543 125.191  23.045  1.00  0.00    -0.362 OA
ATOM      8  C   UNL     1      41.321 124.715  23.565  1.00  0.00     0.197 C 
ENDBRANCH   1   7
BRANCH   6   9
ATOM      9  C   UNL     1      45.043 126.333  22.785  1.00  0.00     0.295 C 
ATOM     10  O   UNL     1      45.735 126.757  21.819  1.00  0.00    -0.268 OA
BRANCH   9  11
ATOM     11  C   UNL     1      45.418 125.017  23.415  1.00  0.00     0.322 C 
ATOM     12  C   UNL     1      45.071 123.854  22.486  1.00  0.00     0.098 C 
ATOM     13  F   UNL     1      44.712 124.867  24.596  1.00  0.00    -0.196 F 
ATOM     14  F   UNL     1      46.768 124.990  23.718  1.00  0.00    -0.196 F 
ENDBRANCH   9  11
ENDBRANCH   6   9
BRANCH   5  15
ATOM     15  C   UNL     1      44.150 129.417  22.348  1.00  0.00     0.039 A 
ATOM     16  C   UNL     1      45.206 129.567  21.445  1.00  0.00     0.034 A 
ATOM     17  N   UNL     1      43.127 130.245  22.019  1.00  0.00    -0.357 N 
ATOM     18  C   UNL     1      44.777 130.509  20.538  1.00  0.00     0.003 A 
ATOM     19  C   UNL     1      43.520 130.897  20.913  1.00  0.00     0.046 A 
ATOM     20  C   UNL     1      45.416 131.054  19.427  1.00  0.00     0.049 A 
ATOM     21  C   UNL     1      42.809 131.863  20.201  1.00  0.00     0.029 A 
ATOM     22  C   UNL     1      44.723 132.029  18.685  1.00  0.00     0.123 A 
ATOM     23  C   UNL     1      43.424 132.431  19.071  1.00  0.00     0.041 A 
ATOM     24  H   UNL     1      42.226 130.373  22.531  1.00  0.00     0.166 HD
ATOM     25  F   UNL     1      45.306 132.587  17.595  1.00  0.00    -0.207 F 
ENDBRANCH   5  15
TORSDOF 4
ENDMDL


