REMARK SMILES NN(Cc1ccncc1)c1cccc2cc3ccccc3cc12
REMARK SMILES IDX 2 1 1 2 3 5 4 6 5 7 9 8 6 9 8 10 7 11 10 12 11 13 23 14
REMARK SMILES IDX 12 15 22 16 14 17 13 18 21 19 15 20 20 21 16 22 19 23 17 24
REMARK SMILES IDX 18 25
REMARK H PARENT 1 3 1 4
ROOT
ATOM      1  N   UNL     1       2.156  -0.800   0.251  1.00  0.00    -0.306 N 
ENDROOT
BRANCH   1   2
ATOM      2  N   UNL     1       3.352  -0.437  -0.390  1.00  0.00    -0.247 NA
ATOM      3  H   UNL     1       3.098   0.083  -1.261  1.00  0.00     0.144 HD
ATOM      4  H   UNL     1       3.862   0.225   0.238  1.00  0.00     0.144 HD
ENDBRANCH   1   2
BRANCH   1   5
ATOM      5  C   UNL     1       1.905  -2.207   0.565  1.00  0.00     0.172 C 
BRANCH   5   6
ATOM      6  C   UNL     1       2.000  -2.431   2.049  1.00  0.00    -0.024 A 
ATOM      7  C   UNL     1       0.845  -2.422   2.845  1.00  0.00     0.026 A 
ATOM      8  C   UNL     1       3.252  -2.575   2.663  1.00  0.00     0.026 A 
ATOM      9  C   UNL     1       0.962  -2.580   4.228  1.00  0.00     0.111 A 
ATOM     10  C   UNL     1       3.324  -2.732   4.049  1.00  0.00     0.111 A 
ATOM     11  N   UNL     1       2.188  -2.731   4.796  1.00  0.00    -0.265 NA
ENDBRANCH   5   6
ENDBRANCH   1   5
BRANCH   1  12
ATOM     12  C   UNL     1       1.214   0.211   0.647  1.00  0.00     0.060 A 
ATOM     13  C   UNL     1       1.446   0.925   1.830  1.00  0.00     0.028 A 
ATOM     14  C   UNL     1       0.058   0.480  -0.121  1.00  0.00     0.007 A 
ATOM     15  C   UNL     1       0.536   1.888   2.266  1.00  0.00     0.003 A 
ATOM     16  C   UNL     1      -0.194  -0.194  -1.331  1.00  0.00     0.019 A 
ATOM     17  C   UNL     1      -0.864   1.459   0.332  1.00  0.00    -0.016 A 
ATOM     18  C   UNL     1      -0.615   2.154   1.525  1.00  0.00     0.009 A 
ATOM     19  C   UNL     1      -1.350   0.083  -2.075  1.00  0.00    -0.018 A 
ATOM     20  C   UNL     1      -2.020   1.735  -0.414  1.00  0.00     0.017 A 
ATOM     21  C   UNL     1      -1.602  -0.595  -3.279  1.00  0.00     0.009 A 
ATOM     22  C   UNL     1      -2.270   1.053  -1.612  1.00  0.00    -0.018 A 
ATOM     23  C   UNL     1      -2.757  -0.313  -4.014  1.00  0.00     0.001 A 
ATOM     24  C   UNL     1      -3.426   1.326  -2.361  1.00  0.00     0.009 A 
ATOM     25  C   UNL     1      -3.666   0.644  -3.557  1.00  0.00     0.001 A 
ENDBRANCH   1  12
TORSDOF 4


