MODEL 1
REMARK VINA RESULT:      -9.9      0.000      0.000
REMARK SMILES Cc1cccc(Cc2cc3cc(F)ccc3[nH]2)n1
REMARK SMILES IDX 7 1 6 2 2 3 3 4 18 5 4 6 5 7 1 8 8 9 9 10 17 11 10 12 16 13
REMARK SMILES IDX 11 14 15 15 12 16 14 17 13 19
REMARK H PARENT 17 18
ROOT
ATOM      1  C   UNL     1      43.553 131.597  17.341  1.00  0.00     0.110 C 
ENDROOT
BRANCH   1   2
ATOM      2  C   UNL     1      44.101 131.456  18.729  1.00  0.00     0.047 A 
ATOM      3  C   UNL     1      43.728 131.548  21.080  1.00  0.00     0.038 A 
ATOM      4  C   UNL     1      45.038 131.119  21.323  1.00  0.00     0.023 A 
ATOM      5  N   UNL     1      43.293 131.695  19.799  1.00  0.00    -0.258 NA
ATOM      6  C   UNL     1      45.884 130.855  20.244  1.00  0.00     0.004 A 
ATOM      7  C   UNL     1      45.417 131.019  18.938  1.00  0.00     0.024 A 
ATOM      8  C   UNL     1      42.796 131.814  22.217  1.00  0.00     0.067 C 
ENDBRANCH   1   2
BRANCH   1   9
ATOM      9  C   UNL     1      44.601 131.228  16.338  1.00  0.00     0.022 A 
ATOM     10  C   UNL     1      45.137 129.952  16.174  1.00  0.00     0.032 A 
ATOM     11  N   UNL     1      45.217 132.125  15.533  1.00  0.00    -0.358 N 
ATOM     12  C   UNL     1      46.110 130.100  15.210  1.00  0.00     0.003 A 
ATOM     13  C   UNL     1      46.133 131.421  14.846  1.00  0.00     0.046 A 
ATOM     14  C   UNL     1      46.979 129.167  14.648  1.00  0.00     0.049 A 
ATOM     15  C   UNL     1      47.027 131.902  13.890  1.00  0.00     0.029 A 
ATOM     16  C   UNL     1      47.891 129.620  13.678  1.00  0.00     0.123 A 
ATOM     17  C   UNL     1      47.915 130.982  13.300  1.00  0.00     0.041 A 
ATOM     18  H   UNL     1      45.031 133.150  15.470  1.00  0.00     0.166 HD
ATOM     19  F   UNL     1      48.753 128.747  13.103  1.00  0.00    -0.207 F 
ENDBRANCH   1   9
TORSDOF 2
ENDMDL
MODEL 2
REMARK VINA RESULT:      -9.6      2.752      6.628
REMARK SMILES Cc1cccc(Cc2cc3cc(F)ccc3[nH]2)n1
REMARK SMILES IDX 7 1 6 2 2 3 3 4 18 5 4 6 5 7 1 8 8 9 9 10 17 11 10 12 16 13
REMARK SMILES IDX 11 14 15 15 12 16 14 17 13 19
REMARK H PARENT 17 18
ROOT
ATOM      1  C   UNL     1      43.878 131.636  15.457  1.00  0.00     0.110 C 
ENDROOT
BRANCH   1   2
ATOM      2  C   UNL     1      45.043 130.813  14.996  1.00  0.00     0.047 A 
ATOM      3  C   UNL     1      47.014 130.645  13.669  1.00  0.00     0.038 A 
ATOM      4  C   UNL     1      47.270 129.366  14.178  1.00  0.00     0.023 A 
ATOM      5  N   UNL     1      45.921 131.335  14.095  1.00  0.00    -0.258 NA
ATOM      6  C   UNL     1      46.393 128.813  15.112  1.00  0.00     0.004 A 
ATOM      7  C   UNL     1      45.274 129.537  15.530  1.00  0.00     0.024 A 
ATOM      8  C   UNL     1      47.951 131.269  12.685  1.00  0.00     0.067 C 
ENDBRANCH   1   2
BRANCH   1   9
ATOM      9  C   UNL     1      43.860 131.702  16.952  1.00  0.00     0.022 A 
ATOM     10  C   UNL     1      44.942 131.408  17.779  1.00  0.00     0.032 A 
ATOM     11  N   UNL     1      42.748 131.968  17.677  1.00  0.00    -0.358 N 
ATOM     12  C   UNL     1      44.447 131.522  19.061  1.00  0.00     0.003 A 
ATOM     13  C   UNL     1      43.122 131.859  18.963  1.00  0.00     0.046 A 
ATOM     14  C   UNL     1      45.070 131.336  20.292  1.00  0.00     0.049 A 
ATOM     15  C   UNL     1      42.326 132.037  20.094  1.00  0.00     0.029 A 
ATOM     16  C   UNL     1      44.294 131.512  21.453  1.00  0.00     0.123 A 
ATOM     17  C   UNL     1      42.928 131.861  21.354  1.00  0.00     0.041 A 
ATOM     18  H   UNL     1      41.795 132.194  17.313  1.00  0.00     0.166 HD
ATOM     19  F   UNL     1      44.859 131.343  22.674  1.00  0.00    -0.207 F 
ENDBRANCH   1   9
TORSDOF 2
ENDMDL
MODEL 3
REMARK VINA RESULT:      -9.4      3.000      6.758
REMARK SMILES Cc1cccc(Cc2cc3cc(F)ccc3[nH]2)n1
REMARK SMILES IDX 7 1 6 2 2 3 3 4 18 5 4 6 5 7 1 8 8 9 9 10 17 11 10 12 16 13
REMARK SMILES IDX 11 14 15 15 12 16 14 17 13 19
REMARK H PARENT 17 18
ROOT
ATOM      1  C   UNL     1      43.951 131.705  15.708  1.00  0.00     0.110 C 
ENDROOT
BRANCH   1   2
ATOM      2  C   UNL     1      45.062 130.858  15.163  1.00  0.00     0.047 A 
ATOM      3  C   UNL     1      46.962 130.670  13.740  1.00  0.00     0.038 A 
ATOM      4  C   UNL     1      47.192 129.364  14.188  1.00  0.00     0.023 A 
ATOM      5  N   UNL     1      45.917 131.382  14.242  1.00  0.00    -0.258 NA
ATOM      6  C   UNL     1      46.337 128.807  15.141  1.00  0.00     0.004 A 
ATOM      7  C   UNL     1      45.267 129.555  15.638  1.00  0.00     0.024 A 
ATOM      8  C   UNL     1      47.877 131.298  12.738  1.00  0.00     0.067 C 
ENDBRANCH   1   2
BRANCH   1   9
ATOM      9  C   UNL     1      43.941 131.632  17.203  1.00  0.00     0.022 A 
ATOM     10  C   UNL     1      42.819 131.827  18.006  1.00  0.00     0.032 A 
ATOM     11  N   UNL     1      45.055 131.456  17.953  1.00  0.00    -0.358 N 
ATOM     12  C   UNL     1      43.292 131.747  19.298  1.00  0.00     0.003 A 
ATOM     13  C   UNL     1      44.643 131.524  19.230  1.00  0.00     0.046 A 
ATOM     14  C   UNL     1      42.627 131.872  20.516  1.00  0.00     0.049 A 
ATOM     15  C   UNL     1      45.424 131.407  20.379  1.00  0.00     0.029 A 
ATOM     16  C   UNL     1      43.388 131.755  21.694  1.00  0.00     0.123 A 
ATOM     17  C   UNL     1      44.780 131.524  21.626  1.00  0.00     0.041 A 
ATOM     18  H   UNL     1      46.031 131.314  17.611  1.00  0.00     0.166 HD
ATOM     19  F   UNL     1      42.782 131.867  22.901  1.00  0.00    -0.207 F 
ENDBRANCH   1   9
TORSDOF 2
ENDMDL
MODEL 4
REMARK VINA RESULT:      -9.2      0.907      1.530
REMARK SMILES Cc1cccc(Cc2cc3cc(F)ccc3[nH]2)n1
REMARK SMILES IDX 7 1 6 2 2 3 3 4 18 5 4 6 5 7 1 8 8 9 9 10 17 11 10 12 16 13
REMARK SMILES IDX 11 14 15 15 12 16 14 17 13 19
REMARK H PARENT 17 18
ROOT
ATOM      1  C   UNL     1      43.528 131.650  17.691  1.00  0.00     0.110 C 
ENDROOT
BRANCH   1   2
ATOM      2  C   UNL     1      44.046 131.513  19.091  1.00  0.00     0.047 A 
ATOM      3  C   UNL     1      43.613 131.568  21.433  1.00  0.00     0.038 A 
ATOM      4  C   UNL     1      44.931 131.181  21.705  1.00  0.00     0.023 A 
ATOM      5  N   UNL     1      43.205 131.714  20.143  1.00  0.00    -0.258 NA
ATOM      6  C   UNL     1      45.811 130.957  20.644  1.00  0.00     0.004 A 
ATOM      7  C   UNL     1      45.371 131.118  19.328  1.00  0.00     0.024 A 
ATOM      8  C   UNL     1      42.645 131.791  22.550  1.00  0.00     0.067 C 
ENDBRANCH   1   2
BRANCH   1   9
ATOM      9  C   UNL     1      44.604 131.300  16.712  1.00  0.00     0.022 A 
ATOM     10  C   UNL     1      45.247 132.207  15.873  1.00  0.00     0.032 A 
ATOM     11  N   UNL     1      45.012 130.033  16.467  1.00  0.00    -0.358 N 
ATOM     12  C   UNL     1      46.090 131.437  15.101  1.00  0.00     0.003 A 
ATOM     13  C   UNL     1      45.922 130.132  15.484  1.00  0.00     0.046 A 
ATOM     14  C   UNL     1      46.972 131.799  14.085  1.00  0.00     0.049 A 
ATOM     15  C   UNL     1      46.630 129.094  14.878  1.00  0.00     0.029 A 
ATOM     16  C   UNL     1      47.704 130.774  13.456  1.00  0.00     0.123 A 
ATOM     17  C   UNL     1      47.534 129.428  13.851  1.00  0.00     0.041 A 
ATOM     18  H   UNL     1      44.677 129.160  16.932  1.00  0.00     0.166 HD
ATOM     19  F   UNL     1      48.576 131.080  12.465  1.00  0.00    -0.207 F 
ENDBRANCH   1   9
TORSDOF 2
ENDMDL
MODEL 5
REMARK VINA RESULT:      -9.0      0.849      1.672
REMARK SMILES Cc1cccc(Cc2cc3cc(F)ccc3[nH]2)n1
REMARK SMILES IDX 7 1 6 2 2 3 3 4 18 5 4 6 5 7 1 8 8 9 9 10 17 11 10 12 16 13
REMARK SMILES IDX 11 14 15 15 12 16 14 17 13 19
REMARK H PARENT 17 18
ROOT
ATOM      1  C   UNL     1      43.013 131.782  16.678  1.00  0.00     0.110 C 
ENDROOT
BRANCH   1   2
ATOM      2  C   UNL     1      43.338 131.726  18.140  1.00  0.00     0.047 A 
ATOM      3  C   UNL     1      44.965 131.404  19.849  1.00  0.00     0.038 A 
ATOM      4  C   UNL     1      44.016 131.701  20.835  1.00  0.00     0.023 A 
ATOM      5  N   UNL     1      44.607 131.433  18.537  1.00  0.00    -0.258 NA
ATOM      6  C   UNL     1      42.711 132.017  20.455  1.00  0.00     0.004 A 
ATOM      7  C   UNL     1      42.365 132.035  19.102  1.00  0.00     0.024 A 
ATOM      8  C   UNL     1      46.376 131.086  20.229  1.00  0.00     0.067 C 
ENDBRANCH   1   2
BRANCH   1   9
ATOM      9  C   UNL     1      44.197 131.343  15.875  1.00  0.00     0.022 A 
ATOM     10  C   UNL     1      44.699 130.044  15.832  1.00  0.00     0.032 A 
ATOM     11  N   UNL     1      44.977 132.192  15.164  1.00  0.00    -0.358 N 
ATOM     12  C   UNL     1      45.825 130.126  15.043  1.00  0.00     0.003 A 
ATOM     13  C   UNL     1      45.964 131.435  14.657  1.00  0.00     0.046 A 
ATOM     14  C   UNL     1      46.735 129.145  14.656  1.00  0.00     0.049 A 
ATOM     15  C   UNL     1      47.025 131.853  13.855  1.00  0.00     0.029 A 
ATOM     16  C   UNL     1      47.815 129.535  13.843  1.00  0.00     0.123 A 
ATOM     17  C   UNL     1      47.959 130.883  13.443  1.00  0.00     0.041 A 
ATOM     18  H   UNL     1      44.847 133.222  15.047  1.00  0.00     0.166 HD
ATOM     19  F   UNL     1      48.724 128.613  13.441  1.00  0.00    -0.207 F 
ENDBRANCH   1   9
TORSDOF 2
ENDMDL
MODEL 6
REMARK VINA RESULT:      -8.9      1.155      2.181
REMARK SMILES Cc1cccc(Cc2cc3cc(F)ccc3[nH]2)n1
REMARK SMILES IDX 7 1 6 2 2 3 3 4 18 5 4 6 5 7 1 8 8 9 9 10 17 11 10 12 16 13
REMARK SMILES IDX 11 14 15 15 12 16 14 17 13 19
REMARK H PARENT 17 18
ROOT
ATOM      1  C   UNL     1      43.017 131.792  16.925  1.00  0.00     0.110 C 
ENDROOT
BRANCH   1   2
ATOM      2  C   UNL     1      43.292 131.743  18.398  1.00  0.00     0.047 A 
ATOM      3  C   UNL     1      44.865 131.446  20.162  1.00  0.00     0.038 A 
ATOM      4  C   UNL     1      43.878 131.731  21.114  1.00  0.00     0.023 A 
ATOM      5  N   UNL     1      44.551 131.468  18.838  1.00  0.00    -0.258 NA
ATOM      6  C   UNL     1      42.582 132.027  20.689  1.00  0.00     0.004 A 
ATOM      7  C   UNL     1      42.282 132.039  19.325  1.00  0.00     0.024 A 
ATOM      8  C   UNL     1      46.266 131.148  20.590  1.00  0.00     0.067 C 
ENDBRANCH   1   2
BRANCH   1   9
ATOM      9  C   UNL     1      44.224 131.343  16.164  1.00  0.00     0.022 A 
ATOM     10  C   UNL     1      44.872 132.087  15.180  1.00  0.00     0.032 A 
ATOM     11  N   UNL     1      44.772 130.110  16.286  1.00  0.00    -0.358 N 
ATOM     12  C   UNL     1      45.865 131.256  14.706  1.00  0.00     0.003 A 
ATOM     13  C   UNL     1      45.775 130.072  15.393  1.00  0.00     0.046 A 
ATOM     14  C   UNL     1      46.820 131.459  13.713  1.00  0.00     0.049 A 
ATOM     15  C   UNL     1      46.639 129.009  15.135  1.00  0.00     0.029 A 
ATOM     16  C   UNL     1      47.709 130.405  13.431  1.00  0.00     0.123 A 
ATOM     17  C   UNL     1      47.619 129.185  14.140  1.00  0.00     0.041 A 
ATOM     18  H   UNL     1      44.468 129.344  16.928  1.00  0.00     0.166 HD
ATOM     19  F   UNL     1      48.656 130.560  12.474  1.00  0.00    -0.207 F 
ENDBRANCH   1   9
TORSDOF 2
ENDMDL
MODEL 7
REMARK VINA RESULT:      -8.5      2.374      3.812
REMARK SMILES Cc1cccc(Cc2cc3cc(F)ccc3[nH]2)n1
REMARK SMILES IDX 7 1 6 2 2 3 3 4 18 5 4 6 5 7 1 8 8 9 9 10 17 11 10 12 16 13
REMARK SMILES IDX 11 14 15 15 12 16 14 17 13 19
REMARK H PARENT 17 18
ROOT
ATOM      1  C   UNL     1      45.634 131.671  20.912  1.00  0.00     0.110 C 
ENDROOT
BRANCH   1   2
ATOM      2  C   UNL     1      44.696 130.819  21.712  1.00  0.00     0.047 A 
ATOM      3  C   UNL     1      44.249 128.735  22.777  1.00  0.00     0.038 A 
ATOM      4  C   UNL     1      43.035 129.227  23.272  1.00  0.00     0.023 A 
ATOM      5  N   UNL     1      45.047 129.540  22.023  1.00  0.00    -0.258 NA
ATOM      6  C   UNL     1      42.657 130.539  22.977  1.00  0.00     0.004 A 
ATOM      7  C   UNL     1      43.489 131.345  22.197  1.00  0.00     0.024 A 
ATOM      8  C   UNL     1      44.687 127.343  23.097  1.00  0.00     0.067 C 
ENDBRANCH   1   2
BRANCH   1   9
ATOM      9  C   UNL     1      45.448 131.402  19.452  1.00  0.00     0.022 A 
ATOM     10  C   UNL     1      44.539 132.060  18.626  1.00  0.00     0.032 A 
ATOM     11  N   UNL     1      46.088 130.413  18.784  1.00  0.00    -0.358 N 
ATOM     12  C   UNL     1      44.658 131.437  17.402  1.00  0.00     0.003 A 
ATOM     13  C   UNL     1      45.599 130.449  17.533  1.00  0.00     0.046 A 
ATOM     14  C   UNL     1      43.993 131.666  16.200  1.00  0.00     0.049 A 
ATOM     15  C   UNL     1      45.943 129.620  16.466  1.00  0.00     0.029 A 
ATOM     16  C   UNL     1      44.321 130.848  15.103  1.00  0.00     0.123 A 
ATOM     17  C   UNL     1      45.292 129.829  15.235  1.00  0.00     0.041 A 
ATOM     18  H   UNL     1      46.800 129.750  19.165  1.00  0.00     0.166 HD
ATOM     19  F   UNL     1      43.700 131.037  13.913  1.00  0.00    -0.207 F 
ENDBRANCH   1   9
TORSDOF 2
ENDMDL
MODEL 8
REMARK VINA RESULT:      -8.3      1.328      2.204
REMARK SMILES Cc1cccc(Cc2cc3cc(F)ccc3[nH]2)n1
REMARK SMILES IDX 7 1 6 2 2 3 3 4 18 5 4 6 5 7 1 8 8 9 9 10 17 11 10 12 16 13
REMARK SMILES IDX 11 14 15 15 12 16 14 17 13 19
REMARK H PARENT 17 18
ROOT
ATOM      1  C   UNL     1      43.009 131.822  18.003  1.00  0.00     0.110 C 
ENDROOT
BRANCH   1   2
ATOM      2  C   UNL     1      43.545 131.723  19.399  1.00  0.00     0.047 A 
ATOM      3  C   UNL     1      45.383 131.974  20.892  1.00  0.00     0.038 A 
ATOM      4  C   UNL     1      44.567 131.646  21.982  1.00  0.00     0.023 A 
ATOM      5  N   UNL     1      44.853 132.014  19.640  1.00  0.00    -0.258 NA
ATOM      6  C   UNL     1      43.219 131.356  21.764  1.00  0.00     0.004 A 
ATOM      7  C   UNL     1      42.698 131.397  20.469  1.00  0.00     0.024 A 
ATOM      8  C   UNL     1      46.824 132.312  21.102  1.00  0.00     0.067 C 
ENDBRANCH   1   2
BRANCH   1   9
ATOM      9  C   UNL     1      44.084 131.486  17.018  1.00  0.00     0.022 A 
ATOM     10  C   UNL     1      44.105 131.894  15.686  1.00  0.00     0.032 A 
ATOM     11  N   UNL     1      45.120 130.659  17.293  1.00  0.00    -0.358 N 
ATOM     12  C   UNL     1      45.222 131.290  15.150  1.00  0.00     0.003 A 
ATOM     13  C   UNL     1      45.810 130.552  16.145  1.00  0.00     0.046 A 
ATOM     14  C   UNL     1      45.742 131.330  13.858  1.00  0.00     0.049 A 
ATOM     15  C   UNL     1      46.964 129.803  15.917  1.00  0.00     0.029 A 
ATOM     16  C   UNL     1      46.909 130.588  13.597  1.00  0.00     0.123 A 
ATOM     17  C   UNL     1      47.517 129.828  14.622  1.00  0.00     0.041 A 
ATOM     18  H   UNL     1      45.331 130.190  18.202  1.00  0.00     0.166 HD
ATOM     19  F   UNL     1      47.451 130.599  12.355  1.00  0.00    -0.207 F 
ENDBRANCH   1   9
TORSDOF 2
ENDMDL
MODEL 9
REMARK VINA RESULT:      -8.2      1.766      3.128
REMARK SMILES Cc1cccc(Cc2cc3cc(F)ccc3[nH]2)n1
REMARK SMILES IDX 7 1 6 2 2 3 3 4 18 5 4 6 5 7 1 8 8 9 9 10 17 11 10 12 16 13
REMARK SMILES IDX 11 14 15 15 12 16 14 17 13 19
REMARK H PARENT 17 18
ROOT
ATOM      1  C   UNL     1      44.485 132.286  20.417  1.00  0.00     0.110 C 
ENDROOT
BRANCH   1   2
ATOM      2  C   UNL     1      44.107 131.205  21.384  1.00  0.00     0.047 A 
ATOM      3  C   UNL     1      44.585 129.076  22.340  1.00  0.00     0.038 A 
ATOM      4  C   UNL     1      43.507 129.210  23.224  1.00  0.00     0.023 A 
ATOM      5  N   UNL     1      44.861 130.073  21.456  1.00  0.00    -0.258 NA
ATOM      6  C   UNL     1      42.725 130.366  23.179  1.00  0.00     0.004 A 
ATOM      7  C   UNL     1      43.025 131.374  22.260  1.00  0.00     0.024 A 
ATOM      8  C   UNL     1      45.451 127.858  22.383  1.00  0.00     0.067 C 
ENDBRANCH   1   2
BRANCH   1   9
ATOM      9  C   UNL     1      44.701 131.702  19.057  1.00  0.00     0.022 A 
ATOM     10  C   UNL     1      45.716 130.808  18.721  1.00  0.00     0.032 A 
ATOM     11  N   UNL     1      43.980 132.054  17.966  1.00  0.00    -0.358 N 
ATOM     12  C   UNL     1      45.578 130.610  17.364  1.00  0.00     0.003 A 
ATOM     13  C   UNL     1      44.523 131.376  16.941  1.00  0.00     0.046 A 
ATOM     14  C   UNL     1      46.316 129.824  16.483  1.00  0.00     0.049 A 
ATOM     15  C   UNL     1      44.131 131.408  15.603  1.00  0.00     0.029 A 
ATOM     16  C   UNL     1      45.943 129.831  15.126  1.00  0.00     0.123 A 
ATOM     17  C   UNL     1      44.855 130.620  14.688  1.00  0.00     0.041 A 
ATOM     18  H   UNL     1      43.179 132.725  17.927  1.00  0.00     0.166 HD
ATOM     19  F   UNL     1      46.632 129.080  14.234  1.00  0.00    -0.207 F 
ENDBRANCH   1   9
TORSDOF 2
ENDMDL


