REMARK SMILES O=C([N-]CCc1ccc(-c2cnc3ccnn3c2)cc1)[C@H]1CCCSC1
REMARK SMILES IDX 4 1 3 2 2 3 1 4 21 5 22 6 26 7 23 8 25 9 24 10 5 11 6 12
REMARK SMILES IDX 7 13 20 14 8 15 19 16 9 17 10 18 11 19 18 20 12 21 17 22
REMARK SMILES IDX 13 23 16 24 14 25 15 26
REMARK H PARENT
ROOT
ATOM      1  C   UNL     1      -3.245  -2.799   0.952  1.00  0.00    -0.113 C 
ENDROOT
BRANCH   1   2
ATOM      2  N   UNL     1      -1.815  -3.047   1.123  1.00  0.00    -0.653 NA
BRANCH   2   3
ATOM      3  C   UNL     1      -0.894  -2.075   1.627  1.00  0.00     0.055 C 
ATOM      4  O   UNL     1      -1.310  -0.943   1.996  1.00  0.00    -0.320 OA
BRANCH   3   5
ATOM      5  C   UNL     1       0.577  -2.410   1.685  1.00  0.00     0.047 C 
ATOM      6  C   UNL     1       1.351  -1.815   0.493  1.00  0.00     0.011 C 
ATOM      7  C   UNL     1       1.222  -2.049   3.037  1.00  0.00     0.079 C 
ATOM      8  C   UNL     1       1.540  -0.295   0.579  1.00  0.00     0.012 C 
ATOM      9  S   UNL     1       1.318  -0.246   3.331  1.00  0.00    -0.161 SA
ATOM     10  C   UNL     1       2.302   0.110   1.839  1.00  0.00     0.069 C 
ENDBRANCH   3   5
ENDBRANCH   2   3
ENDBRANCH   1   2
BRANCH   1  11
ATOM     11  C   UNL     1      -3.554  -2.298  -0.464  1.00  0.00     0.016 C 
BRANCH  11  12
ATOM     12  C   UNL     1      -2.880  -0.984  -0.764  1.00  0.00    -0.049 A 
ATOM     13  C   UNL     1      -3.358   0.203  -0.189  1.00  0.00     0.004 A 
ATOM     14  C   UNL     1      -1.752  -0.939  -1.596  1.00  0.00     0.004 A 
ATOM     15  C   UNL     1      -2.714   1.418  -0.439  1.00  0.00     0.009 A 
ATOM     16  C   UNL     1      -1.113   0.277  -1.854  1.00  0.00     0.009 A 
ATOM     17  C   UNL     1      -1.583   1.470  -1.275  1.00  0.00    -0.015 A 
BRANCH  17  18
ATOM     18  C   UNL     1      -0.893   2.761  -1.534  1.00  0.00     0.018 A 
ATOM     19  C   UNL     1      -1.624   3.970  -1.667  1.00  0.00     0.124 A 
ATOM     20  C   UNL     1       0.512   2.825  -1.654  1.00  0.00     0.125 A 
ATOM     21  N   UNL     1      -0.984   5.152  -1.903  1.00  0.00    -0.236 NA
ATOM     22  N   UNL     1       1.079   4.032  -1.887  1.00  0.00    -0.222 N 
ATOM     23  C   UNL     1       0.365   5.152  -2.008  1.00  0.00     0.154 A 
ATOM     24  N   UNL     1       2.367   4.295  -2.024  1.00  0.00    -0.175 NA
ATOM     25  C   UNL     1       1.201   6.218  -2.235  1.00  0.00     0.071 A 
ATOM     26  C   UNL     1       2.464   5.630  -2.238  1.00  0.00     0.138 A 
ENDBRANCH  17  18
ENDBRANCH  11  12
ENDBRANCH   1  11
TORSDOF 6


