REMARK SMILES C[NH2+]/C=C(/O)N1CCC[C@@H](Cc2cc3ccccc3[nH]2)C1
REMARK SMILES IDX 6 1 7 2 8 3 9 4 10 5 21 6 4 7 5 8 3 10 2 11 1 14 11 15 12 16
REMARK SMILES IDX 13 17 20 18 14 19 19 20 15 21 18 22 16 23 17 24
REMARK H PARENT 5 9 2 12 2 13 20 25
ROOT
ATOM      1  N   UNL     1      -0.201   1.899  -0.470  1.00  0.00    -0.338 N 
ATOM      2  C   UNL     1       0.844   2.926  -0.424  1.00  0.00     0.120 C 
ATOM      3  C   UNL     1       2.223   2.282  -0.575  1.00  0.00     0.022 C 
ATOM      4  C   UNL     1       2.408   1.148   0.440  1.00  0.00     0.007 C 
ATOM      5  C   UNL     1       1.298   0.091   0.291  1.00  0.00     0.014 C 
ATOM      6  C   UNL     1      -0.087   0.755   0.439  1.00  0.00     0.123 C 
ENDROOT
BRANCH   1   7
ATOM      7  C   UNL     1      -1.504   2.268  -0.940  1.00  0.00     0.242 C 
BRANCH   7   8
ATOM      8  O   UNL     1      -2.474   2.638  -0.008  1.00  0.00    -0.491 OA
ATOM      9  H   UNL     1      -3.412   2.904  -0.286  1.00  0.00     0.295 HD
ENDBRANCH   7   8
BRANCH   7  10
ATOM     10  C   UNL     1      -1.799   2.256  -2.251  1.00  0.00     0.286 C 
BRANCH  10  11
ATOM     11  N   UNL     1      -0.865   1.825  -3.259  1.00  0.00    -0.318 N 
ATOM     12  H   UNL     1       0.094   2.193  -3.068  1.00  0.00     0.351 HD
ATOM     13  H   UNL     1      -1.180   2.201  -4.183  1.00  0.00     0.351 HD
ATOM     14  C   UNL     1      -0.838   0.363  -3.342  1.00  0.00     0.336 C 
ENDBRANCH  10  11
ENDBRANCH   7  10
ENDBRANCH   1   7
BRANCH   5  15
ATOM     15  C   UNL     1       1.496  -1.042   1.317  1.00  0.00     0.059 C 
BRANCH  15  16
ATOM     16  C   UNL     1       0.546  -2.178   1.077  1.00  0.00     0.016 A 
ATOM     17  C   UNL     1       0.680  -3.133   0.072  1.00  0.00     0.031 A 
ATOM     18  N   UNL     1      -0.608  -2.350   1.764  1.00  0.00    -0.358 N 
ATOM     19  C   UNL     1      -0.449  -3.916   0.176  1.00  0.00    -0.000 A 
ATOM     20  C   UNL     1      -1.204  -3.416   1.206  1.00  0.00     0.046 A 
ATOM     21  C   UNL     1      -0.862  -5.015  -0.574  1.00  0.00     0.010 A 
ATOM     22  C   UNL     1      -2.428  -3.983   1.557  1.00  0.00     0.026 A 
ATOM     23  C   UNL     1      -2.092  -5.611  -0.239  1.00  0.00     0.001 A 
ATOM     24  C   UNL     1      -2.872  -5.097   0.821  1.00  0.00     0.002 A 
ATOM     25  H   UNL     1      -0.970  -1.764   2.549  1.00  0.00     0.166 HD
ENDBRANCH  15  16
ENDBRANCH   5  15
TORSDOF 6


