REMARK SMILES CC1=N[C@]2(F)C[C@@H]([C@H]3O[C@@H]3C(=O)c3ccc(F)cc3)CC[C@@H]2C1
REMARK SMILES IDX 8 1 9 2 10 3 7 4 2 5 23 6 3 7 22 8 4 9 21 10 6 11 20 12 1 13
REMARK SMILES IDX 5 14 11 15 12 16 13 17 14 18 19 19 15 20 18 21 16 22 17 23
REMARK H PARENT
ROOT
ATOM      1  C   UNL     1      -1.144   1.999   0.667  1.00  0.00     0.159 C 
ATOM      2  O   UNL     1      -1.559   3.227   1.218  1.00  0.00    -0.361 OA
ATOM      3  C   UNL     1      -0.269   3.198   0.649  1.00  0.00     0.219 C 
ENDROOT
BRANCH   1   4
ATOM      4  C   UNL     1      -0.883   0.953   1.769  1.00  0.00     0.026 C 
ATOM      5  C   UNL     1      -0.051  -3.210   0.063  1.00  0.00     0.014 C 
ATOM      6  C   UNL     1      -1.526  -3.042   0.139  1.00  0.00     0.059 C 
ATOM      7  N   UNL     1       0.600  -2.113   0.101  1.00  0.00    -0.255 NA
ATOM      8  C   UNL     1      -1.682  -1.535   0.405  1.00  0.00     0.055 C 
ATOM      9  C   UNL     1      -0.256  -0.962   0.192  1.00  0.00     0.203 C 
ATOM     10  C   UNL     1      -2.219  -1.268   1.825  1.00  0.00     0.010 C 
ATOM     11  C   UNL     1       0.217  -0.035   1.331  1.00  0.00     0.072 C 
ATOM     12  C   UNL     1      -2.207   0.233   2.156  1.00  0.00     0.007 C 
ATOM     13  C   UNL     1       0.634  -4.534  -0.065  1.00  0.00     0.061 C 
ATOM     14  F   UNL     1      -0.205  -0.281  -1.015  1.00  0.00    -0.218 F 
ENDBRANCH   1   4
BRANCH   3  15
ATOM     15  C   UNL     1      -0.232   3.951  -0.648  1.00  0.00     0.194 C 
ATOM     16  O   UNL     1      -0.856   5.044  -0.730  1.00  0.00    -0.291 OA
BRANCH  15  17
ATOM     17  C   UNL     1       0.528   3.446  -1.818  1.00  0.00     0.021 A 
ATOM     18  C   UNL     1       1.489   2.427  -1.675  1.00  0.00     0.015 A 
ATOM     19  C   UNL     1       0.297   3.986  -3.097  1.00  0.00     0.015 A 
ATOM     20  C   UNL     1       2.189   1.951  -2.788  1.00  0.00     0.040 A 
ATOM     21  C   UNL     1       1.001   3.507  -4.207  1.00  0.00     0.040 A 
ATOM     22  C   UNL     1       1.945   2.489  -4.053  1.00  0.00     0.123 A 
ATOM     23  F   UNL     1       2.626   2.026  -5.130  1.00  0.00    -0.207 F 
ENDBRANCH  15  17
ENDBRANCH   3  15
TORSDOF 3


