REMARK SMILES CC(=O)c1ccc([NH2+]c2ccc3[nH]ccc3c2)c2c1CCC2
REMARK SMILES IDX 4 1 5 2 6 3 7 4 18 5 19 6 20 7 21 8 22 9 2 10 1 11 3 12 8 13
REMARK SMILES IDX 9 16 10 17 17 18 11 19 16 20 12 21 15 22 13 23 14 24
REMARK H PARENT 8 14 8 15 13 25
ROOT
ATOM      1  C   UNL     1      -2.128   0.202  -1.412  1.00  0.00     0.021 A 
ATOM      2  C   UNL     1      -1.873  -1.049  -0.811  1.00  0.00     0.018 A 
ATOM      3  C   UNL     1      -1.432  -1.135   0.516  1.00  0.00     0.069 A 
ATOM      4  C   UNL     1      -1.234   0.026   1.287  1.00  0.00     0.138 A 
ATOM      5  C   UNL     1      -1.493   1.271   0.681  1.00  0.00     0.017 A 
ATOM      6  C   UNL     1      -1.926   1.357  -0.626  1.00  0.00    -0.028 A 
ATOM      7  C   UNL     1      -2.142   2.774  -1.028  1.00  0.00     0.037 C 
ATOM      8  C   UNL     1      -1.933   3.577   0.263  1.00  0.00     0.010 C 
ATOM      9  C   UNL     1      -1.344   2.614   1.301  1.00  0.00     0.042 C 
ENDROOT
BRANCH   1  10
ATOM     10  C   UNL     1      -2.589   0.278  -2.827  1.00  0.00     0.160 C 
ATOM     11  C   UNL     1      -3.174  -0.912  -3.527  1.00  0.00     0.093 C 
ATOM     12  O   UNL     1      -2.461   1.348  -3.479  1.00  0.00    -0.295 OA
ENDBRANCH   1  10
BRANCH   4  13
ATOM     13  N   UNL     1      -0.763  -0.075   2.649  1.00  0.00    -0.281 N 
ATOM     14  H   UNL     1      -0.979  -1.022   3.039  1.00  0.00     0.358 HD
ATOM     15  H   UNL     1      -1.269   0.615   3.251  1.00  0.00     0.358 HD
BRANCH  13  16
ATOM     16  C   UNL     1       0.663   0.136   2.704  1.00  0.00     0.135 A 
ATOM     17  C   UNL     1       1.553  -0.842   2.180  1.00  0.00     0.070 A 
ATOM     18  C   UNL     1       1.191   1.309   3.295  1.00  0.00     0.078 A 
ATOM     19  C   UNL     1       2.945  -0.648   2.224  1.00  0.00     0.033 A 
ATOM     20  C   UNL     1       2.574   1.467   3.320  1.00  0.00     0.005 A 
ATOM     21  C   UNL     1       3.421   0.526   2.802  1.00  0.00     0.046 A 
ATOM     22  C   UNL     1       3.350   2.493   3.815  1.00  0.00     0.028 A 
ATOM     23  N   UNL     1       4.701   0.905   2.946  1.00  0.00    -0.361 N 
ATOM     24  C   UNL     1       4.663   2.107   3.564  1.00  0.00     0.083 A 
ATOM     25  H   UNL     1       5.553   0.381   2.644  1.00  0.00     0.166 HD
ENDBRANCH  13  16
ENDBRANCH   4  13
TORSDOF 3


