MODEL 1
REMARK VINA RESULT:      -5.6      0.000      0.000
REMARK SMILES CC(=O)c1ccc([C@@H]2CC[C@@H]3CC(=O)N[C@]3([NH2+]c3ccc(C)c(F)c3)C2)cn1
REMARK SMILES IDX 8 1 9 2 10 3 11 4 12 5 13 6 14 7 15 8 16 9 26 10 7 12 4 13
REMARK SMILES IDX 5 14 28 15 6 16 27 17 2 18 1 19 3 20 17 21 18 24 19 25 25 26
REMARK SMILES IDX 20 27 23 28 21 29 24 30 22 31
REMARK H PARENT 15 11 17 22 17 23
ROOT
ATOM      1  C   UNL     1      47.770 124.270  22.712  1.00  0.00     0.029 C 
ATOM      2  C   UNL     1      47.354 122.870  23.182  1.00  0.00     0.009 C 
ATOM      3  C   UNL     1      46.313 122.967  24.297  1.00  0.00     0.013 C 
ATOM      4  C   UNL     1      45.084 123.817  23.914  1.00  0.00     0.083 C 
ATOM      5  C   UNL     1      44.061 123.097  23.019  1.00  0.00     0.112 C 
ATOM      6  C   UNL     1      43.449 124.233  22.291  1.00  0.00     0.225 C 
ATOM      7  O   UNL     1      42.418 124.137  21.575  1.00  0.00    -0.275 OA
ATOM      8  N   UNL     1      44.174 125.440  22.431  1.00  0.00    -0.304 N 
ATOM      9  C   UNL     1      45.393 125.173  23.187  1.00  0.00     0.179 C 
ATOM     10  C   UNL     1      46.549 125.018  22.152  1.00  0.00     0.102 C 
ATOM     11  H   UNL     1      44.018 126.284  21.835  1.00  0.00     0.169 HD
ENDROOT
BRANCH   1  12
ATOM     12  C   UNL     1      48.882 124.195  21.682  1.00  0.00    -0.026 A 
ATOM     13  C   UNL     1      50.930 124.065  19.779  1.00  0.00     0.106 A 
ATOM     14  C   UNL     1      51.193 124.594  21.051  1.00  0.00     0.032 A 
ATOM     15  N   UNL     1      49.675 123.624  19.490  1.00  0.00    -0.253 NA
ATOM     16  C   UNL     1      50.170 124.658  21.998  1.00  0.00     0.008 A 
ATOM     17  C   UNL     1      48.661 123.675  20.394  1.00  0.00     0.115 A 
BRANCH  13  18
ATOM     18  C   UNL     1      51.990 123.981  18.751  1.00  0.00     0.178 C 
ATOM     19  C   UNL     1      53.318 124.636  18.971  1.00  0.00     0.095 C 
ATOM     20  O   UNL     1      51.783 123.357  17.676  1.00  0.00    -0.293 OA
ENDBRANCH  13  18
ENDBRANCH   1  12
BRANCH   9  21
ATOM     21  N   UNL     1      45.694 126.285  24.132  1.00  0.00    -0.292 N 
ATOM     22  H   UNL     1      46.731 126.390  24.230  1.00  0.00     0.354 HD
ATOM     23  H   UNL     1      45.332 126.038  25.082  1.00  0.00     0.354 HD
BRANCH  21  24
ATOM     24  C   UNL     1      45.153 127.569  23.735  1.00  0.00     0.134 A 
ATOM     25  C   UNL     1      44.307 128.288  24.600  1.00  0.00     0.068 A 
ATOM     26  C   UNL     1      45.420 128.096  22.457  1.00  0.00     0.107 A 
ATOM     27  C   UNL     1      43.777 129.521  24.214  1.00  0.00     0.012 A 
ATOM     28  C   UNL     1      44.890 129.329  22.070  1.00  0.00     0.132 A 
ATOM     29  C   UNL     1      44.065 130.051  22.946  1.00  0.00    -0.015 A 
ATOM     30  F   UNL     1      45.181 129.820  20.839  1.00  0.00    -0.206 F 
ATOM     31  C   UNL     1      43.507 131.382  22.531  1.00  0.00     0.047 C 
ENDBRANCH  21  24
ENDBRANCH   9  21
TORSDOF 4
ENDMDL
MODEL 2
REMARK VINA RESULT:      -5.5      2.911      6.833
REMARK SMILES CC(=O)c1ccc([C@@H]2CC[C@@H]3CC(=O)N[C@]3([NH2+]c3ccc(C)c(F)c3)C2)cn1
REMARK SMILES IDX 8 1 9 2 10 3 11 4 12 5 13 6 14 7 15 8 16 9 26 10 7 12 4 13
REMARK SMILES IDX 5 14 28 15 6 16 27 17 2 18 1 19 3 20 17 21 18 24 19 25 25 26
REMARK SMILES IDX 20 27 23 28 21 29 24 30 22 31
REMARK H PARENT 15 11 17 22 17 23
ROOT
ATOM      1  C   UNL     1      45.607 126.048  23.673  1.00  0.00     0.029 C 
ATOM      2  C   UNL     1      47.080 126.250  24.057  1.00  0.00     0.009 C 
ATOM      3  C   UNL     1      47.706 124.925  24.490  1.00  0.00     0.013 C 
ATOM      4  C   UNL     1      47.549 123.803  23.444  1.00  0.00     0.083 C 
ATOM      5  C   UNL     1      48.534 123.885  22.265  1.00  0.00     0.112 C 
ATOM      6  C   UNL     1      47.766 123.218  21.187  1.00  0.00     0.225 C 
ATOM      7  O   UNL     1      48.256 122.886  20.076  1.00  0.00    -0.275 OA
ATOM      8  N   UNL     1      46.399 123.039  21.506  1.00  0.00    -0.304 N 
ATOM      9  C   UNL     1      46.128 123.673  22.792  1.00  0.00     0.179 C 
ATOM     10  C   UNL     1      45.505 125.070  22.492  1.00  0.00     0.102 C 
ATOM     11  H   UNL     1      45.668 122.781  20.805  1.00  0.00     0.169 HD
ENDROOT
BRANCH   1  12
ATOM     12  C   UNL     1      44.939 127.371  23.345  1.00  0.00    -0.026 A 
ATOM     13  C   UNL     1      43.713 129.814  22.749  1.00  0.00     0.106 A 
ATOM     14  C   UNL     1      44.915 129.465  22.116  1.00  0.00     0.032 A 
ATOM     15  N   UNL     1      43.163 128.954  23.649  1.00  0.00    -0.253 NA
ATOM     16  C   UNL     1      45.524 128.246  22.416  1.00  0.00     0.008 A 
ATOM     17  C   UNL     1      43.736 127.761  23.959  1.00  0.00     0.115 A 
BRANCH  13  18
ATOM     18  C   UNL     1      43.039 131.097  22.455  1.00  0.00     0.178 C 
ATOM     19  C   UNL     1      42.734 131.493  21.044  1.00  0.00     0.095 C 
ATOM     20  O   UNL     1      42.714 131.873  23.394  1.00  0.00    -0.293 OA
ENDBRANCH  13  18
ENDBRANCH   1  12
BRANCH   9  21
ATOM     21  N   UNL     1      45.187 122.853  23.607  1.00  0.00    -0.292 N 
ATOM     22  H   UNL     1      45.448 122.923  24.618  1.00  0.00     0.354 HD
ATOM     23  H   UNL     1      45.289 121.846  23.344  1.00  0.00     0.354 HD
BRANCH  21  24
ATOM     24  C   UNL     1      43.796 123.239  23.480  1.00  0.00     0.134 A 
ATOM     25  C   UNL     1      42.957 123.274  24.610  1.00  0.00     0.068 A 
ATOM     26  C   UNL     1      43.246 123.536  22.219  1.00  0.00     0.107 A 
ATOM     27  C   UNL     1      41.613 123.635  24.486  1.00  0.00     0.012 A 
ATOM     28  C   UNL     1      41.902 123.898  22.094  1.00  0.00     0.132 A 
ATOM     29  C   UNL     1      41.076 123.951  23.228  1.00  0.00    -0.015 A 
ATOM     30  F   UNL     1      41.405 124.196  20.867  1.00  0.00    -0.206 F 
ATOM     31  C   UNL     1      39.636 124.352  23.092  1.00  0.00     0.047 C 
ENDBRANCH  21  24
ENDBRANCH   9  21
TORSDOF 4
ENDMDL
MODEL 3
REMARK VINA RESULT:      -5.3      1.671      1.994
REMARK SMILES CC(=O)c1ccc([C@@H]2CC[C@@H]3CC(=O)N[C@]3([NH2+]c3ccc(C)c(F)c3)C2)cn1
REMARK SMILES IDX 8 1 9 2 10 3 11 4 12 5 13 6 14 7 15 8 16 9 26 10 7 12 4 13
REMARK SMILES IDX 5 14 28 15 6 16 27 17 2 18 1 19 3 20 17 21 18 24 19 25 25 26
REMARK SMILES IDX 20 27 23 28 21 29 24 30 22 31
REMARK H PARENT 15 11 17 22 17 23
ROOT
ATOM      1  C   UNL     1      46.872 124.334  23.749  1.00  0.00     0.029 C 
ATOM      2  C   UNL     1      46.526 122.843  23.848  1.00  0.00     0.009 C 
ATOM      3  C   UNL     1      45.174 122.652  24.534  1.00  0.00     0.013 C 
ATOM      4  C   UNL     1      44.033 123.448  23.869  1.00  0.00     0.083 C 
ATOM      5  C   UNL     1      43.473 122.814  22.585  1.00  0.00     0.112 C 
ATOM      6  C   UNL     1      42.981 124.004  21.852  1.00  0.00     0.225 C 
ATOM      7  O   UNL     1      42.268 123.949  20.817  1.00  0.00    -0.275 OA
ATOM      8  N   UNL     1      43.443 125.225  22.400  1.00  0.00    -0.304 N 
ATOM      9  C   UNL     1      44.370 124.933  23.489  1.00  0.00     0.179 C 
ATOM     10  C   UNL     1      45.811 125.062  22.908  1.00  0.00     0.102 C 
ATOM     11  H   UNL     1      43.374 126.144  21.909  1.00  0.00     0.169 HD
ENDROOT
BRANCH   1  12
ATOM     12  C   UNL     1      48.261 124.538  23.170  1.00  0.00    -0.026 A 
ATOM     13  C   UNL     1      50.824 124.909  22.110  1.00  0.00     0.106 A 
ATOM     14  C   UNL     1      50.099 123.752  21.791  1.00  0.00     0.032 A 
ATOM     15  N   UNL     1      50.265 125.836  22.937  1.00  0.00    -0.253 NA
ATOM     16  C   UNL     1      48.821 123.569  22.322  1.00  0.00     0.008 A 
ATOM     17  C   UNL     1      49.023 125.682  23.467  1.00  0.00     0.115 A 
BRANCH  13  18
ATOM     18  C   UNL     1      52.180 125.137  21.567  1.00  0.00     0.178 C 
ATOM     19  C   UNL     1      53.035 126.248  22.090  1.00  0.00     0.095 C 
ATOM     20  O   UNL     1      52.629 124.395  20.652  1.00  0.00    -0.293 OA
ENDBRANCH  13  18
ENDBRANCH   1  12
BRANCH   9  21
ATOM     21  N   UNL     1      44.183 125.881  24.623  1.00  0.00    -0.292 N 
ATOM     22  H   UNL     1      45.091 126.004  25.129  1.00  0.00     0.354 HD
ATOM     23  H   UNL     1      43.514 125.467  25.313  1.00  0.00     0.354 HD
BRANCH  21  24
ATOM     24  C   UNL     1      43.712 127.194  24.231  1.00  0.00     0.134 A 
ATOM     25  C   UNL     1      42.389 127.589  24.503  1.00  0.00     0.068 A 
ATOM     26  C   UNL     1      44.552 128.077  23.528  1.00  0.00     0.107 A 
ATOM     27  C   UNL     1      41.931 128.852  24.116  1.00  0.00     0.012 A 
ATOM     28  C   UNL     1      44.095 129.340  23.141  1.00  0.00     0.132 A 
ATOM     29  C   UNL     1      42.781 129.736  23.434  1.00  0.00    -0.015 A 
ATOM     30  F   UNL     1      44.934 130.177  22.480  1.00  0.00    -0.206 F 
ATOM     31  C   UNL     1      42.296 131.098  23.027  1.00  0.00     0.047 C 
ENDBRANCH  21  24
ENDBRANCH   9  21
TORSDOF 4
ENDMDL
MODEL 4
REMARK VINA RESULT:      -4.1      2.620      6.751
REMARK SMILES CC(=O)c1ccc([C@@H]2CC[C@@H]3CC(=O)N[C@]3([NH2+]c3ccc(C)c(F)c3)C2)cn1
REMARK SMILES IDX 8 1 9 2 10 3 11 4 12 5 13 6 14 7 15 8 16 9 26 10 7 12 4 13
REMARK SMILES IDX 5 14 28 15 6 16 27 17 2 18 1 19 3 20 17 21 18 24 19 25 25 26
REMARK SMILES IDX 20 27 23 28 21 29 24 30 22 31
REMARK H PARENT 15 11 17 22 17 23
ROOT
ATOM      1  C   UNL     1      46.685 125.919  22.910  1.00  0.00     0.029 C 
ATOM      2  C   UNL     1      48.139 126.289  23.233  1.00  0.00     0.009 C 
ATOM      3  C   UNL     1      48.929 125.045  23.640  1.00  0.00     0.013 C 
ATOM      4  C   UNL     1      48.857 123.908  22.601  1.00  0.00     0.083 C 
ATOM      5  C   UNL     1      49.777 124.094  21.382  1.00  0.00     0.112 C 
ATOM      6  C   UNL     1      49.047 123.340  20.338  1.00  0.00     0.225 C 
ATOM      7  O   UNL     1      49.525 123.060  19.208  1.00  0.00    -0.275 OA
ATOM      8  N   UNL     1      47.723 123.009  20.713  1.00  0.00    -0.304 N 
ATOM      9  C   UNL     1      47.435 123.614  22.009  1.00  0.00     0.179 C 
ATOM     10  C   UNL     1      46.646 124.930  21.734  1.00  0.00     0.102 C 
ATOM     11  H   UNL     1      46.998 122.666  20.043  1.00  0.00     0.169 HD
ENDROOT
BRANCH   1  12
ATOM     12  C   UNL     1      45.858 127.157  22.610  1.00  0.00    -0.026 A 
ATOM     13  C   UNL     1      44.341 129.442  22.062  1.00  0.00     0.106 A 
ATOM     14  C   UNL     1      45.413 129.101  21.225  1.00  0.00     0.032 A 
ATOM     15  N   UNL     1      44.057 128.652  23.133  1.00  0.00    -0.253 NA
ATOM     16  C   UNL     1      46.169 127.961  21.501  1.00  0.00     0.008 A 
ATOM     17  C   UNL     1      44.777 127.537  23.425  1.00  0.00     0.115 A 
BRANCH  13  18
ATOM     18  C   UNL     1      43.518 130.643  21.800  1.00  0.00     0.178 C 
ATOM     19  C   UNL     1      43.561 131.320  20.465  1.00  0.00     0.095 C 
ATOM     20  O   UNL     1      42.772 131.110  22.702  1.00  0.00    -0.293 OA
ENDBRANCH  13  18
ENDBRANCH   1  12
BRANCH   9  21
ATOM     21  N   UNL     1      46.627 122.698  22.862  1.00  0.00    -0.292 N 
ATOM     22  H   UNL     1      46.920 122.801  23.862  1.00  0.00     0.354 HD
ATOM     23  H   UNL     1      46.832 121.706  22.596  1.00  0.00     0.354 HD
BRANCH  21  24
ATOM     24  C   UNL     1      45.197 122.922  22.793  1.00  0.00     0.134 A 
ATOM     25  C   UNL     1      44.437 122.376  21.742  1.00  0.00     0.068 A 
ATOM     26  C   UNL     1      44.552 123.733  23.745  1.00  0.00     0.107 A 
ATOM     27  C   UNL     1      43.060 122.601  21.669  1.00  0.00     0.012 A 
ATOM     28  C   UNL     1      43.174 123.958  23.673  1.00  0.00     0.132 A 
ATOM     29  C   UNL     1      42.419 123.393  22.634  1.00  0.00    -0.015 A 
ATOM     30  F   UNL     1      42.577 124.730  24.616  1.00  0.00    -0.206 F 
ATOM     31  C   UNL     1      40.937 123.627  22.566  1.00  0.00     0.047 C 
ENDBRANCH  21  24
ENDBRANCH   9  21
TORSDOF 4
ENDMDL
MODEL 5
REMARK VINA RESULT:      -3.9      5.960      8.863
REMARK SMILES CC(=O)c1ccc([C@@H]2CC[C@@H]3CC(=O)N[C@]3([NH2+]c3ccc(C)c(F)c3)C2)cn1
REMARK SMILES IDX 8 1 9 2 10 3 11 4 12 5 13 6 14 7 15 8 16 9 26 10 7 12 4 13
REMARK SMILES IDX 5 14 28 15 6 16 27 17 2 18 1 19 3 20 17 21 18 24 19 25 25 26
REMARK SMILES IDX 20 27 23 28 21 29 24 30 22 31
REMARK H PARENT 15 11 17 22 17 23
ROOT
ATOM      1  C   UNL     1      46.128 133.286  22.289  1.00  0.00     0.029 C 
ATOM      2  C   UNL     1      45.465 132.948  23.631  1.00  0.00     0.009 C 
ATOM      3  C   UNL     1      44.073 132.358  23.407  1.00  0.00     0.013 C 
ATOM      4  C   UNL     1      44.070 131.142  22.458  1.00  0.00     0.083 C 
ATOM      5  C   UNL     1      44.526 129.823  23.105  1.00  0.00     0.112 C 
ATOM      6  C   UNL     1      45.071 129.090  21.939  1.00  0.00     0.225 C 
ATOM      7  O   UNL     1      45.393 127.873  21.960  1.00  0.00    -0.275 OA
ATOM      8  N   UNL     1      45.253 129.911  20.801  1.00  0.00    -0.304 N 
ATOM      9  C   UNL     1      44.936 131.290  21.158  1.00  0.00     0.179 C 
ATOM     10  C   UNL     1      46.288 132.010  21.449  1.00  0.00     0.102 C 
ATOM     11  H   UNL     1      45.810 129.627  19.964  1.00  0.00     0.169 HD
ENDROOT
BRANCH   1  12
ATOM     12  C   UNL     1      47.466 133.974  22.496  1.00  0.00    -0.026 A 
ATOM     13  C   UNL     1      49.936 135.233  22.874  1.00  0.00     0.106 A 
ATOM     14  C   UNL     1      49.205 135.471  21.700  1.00  0.00     0.032 A 
ATOM     15  N   UNL     1      49.428 134.387  23.812  1.00  0.00    -0.253 NA
ATOM     16  C   UNL     1      47.973 134.841  21.515  1.00  0.00     0.008 A 
ATOM     17  C   UNL     1      48.232 133.761  23.656  1.00  0.00     0.115 A 
BRANCH  13  18
ATOM     18  C   UNL     1      51.243 135.883  23.104  1.00  0.00     0.178 C 
ATOM     19  C   UNL     1      51.321 137.336  23.459  1.00  0.00     0.095 C 
ATOM     20  O   UNL     1      52.309 135.219  23.002  1.00  0.00    -0.293 OA
ENDBRANCH  13  18
ENDBRANCH   1  12
BRANCH   9  21
ATOM     21  N   UNL     1      44.212 131.978  20.052  1.00  0.00    -0.292 N 
ATOM     22  H   UNL     1      44.420 133.004  20.084  1.00  0.00     0.354 HD
ATOM     23  H   UNL     1      43.181 131.882  20.201  1.00  0.00     0.354 HD
BRANCH  21  24
ATOM     24  C   UNL     1      44.549 131.497  18.728  1.00  0.00     0.134 A 
ATOM     25  C   UNL     1      45.700 130.714  18.522  1.00  0.00     0.068 A 
ATOM     26  C   UNL     1      43.761 131.848  17.616  1.00  0.00     0.107 A 
ATOM     27  C   UNL     1      46.030 130.259  17.243  1.00  0.00     0.012 A 
ATOM     28  C   UNL     1      44.090 131.393  16.336  1.00  0.00     0.132 A 
ATOM     29  C   UNL     1      45.227 130.594  16.141  1.00  0.00    -0.015 A 
ATOM     30  F   UNL     1      43.300 131.732  15.286  1.00  0.00    -0.206 F 
ATOM     31  C   UNL     1      45.572 130.097  14.767  1.00  0.00     0.047 C 
ENDBRANCH  21  24
ENDBRANCH   9  21
TORSDOF 4
ENDMDL
MODEL 6
REMARK VINA RESULT:      -3.8      6.128      8.857
REMARK SMILES CC(=O)c1ccc([C@@H]2CC[C@@H]3CC(=O)N[C@]3([NH2+]c3ccc(C)c(F)c3)C2)cn1
REMARK SMILES IDX 8 1 9 2 10 3 11 4 12 5 13 6 14 7 15 8 16 9 26 10 7 12 4 13
REMARK SMILES IDX 5 14 28 15 6 16 27 17 2 18 1 19 3 20 17 21 18 24 19 25 25 26
REMARK SMILES IDX 20 27 23 28 21 29 24 30 22 31
REMARK H PARENT 15 11 17 22 17 23
ROOT
ATOM      1  C   UNL     1      46.157 133.283  22.150  1.00  0.00     0.029 C 
ATOM      2  C   UNL     1      45.508 132.950  23.500  1.00  0.00     0.009 C 
ATOM      3  C   UNL     1      44.119 132.345  23.291  1.00  0.00     0.013 C 
ATOM      4  C   UNL     1      44.120 131.122  22.353  1.00  0.00     0.083 C 
ATOM      5  C   UNL     1      44.593 129.812  23.007  1.00  0.00     0.112 C 
ATOM      6  C   UNL     1      45.136 129.075  21.843  1.00  0.00     0.225 C 
ATOM      7  O   UNL     1      45.469 127.861  21.872  1.00  0.00    -0.275 OA
ATOM      8  N   UNL     1      45.301 129.888  20.697  1.00  0.00    -0.304 N 
ATOM      9  C   UNL     1      44.974 131.267  21.045  1.00  0.00     0.179 C 
ATOM     10  C   UNL     1      46.322 132.001  21.319  1.00  0.00     0.102 C 
ATOM     11  H   UNL     1      45.854 129.602  19.857  1.00  0.00     0.169 HD
ENDROOT
BRANCH   1  12
ATOM     12  C   UNL     1      47.490 133.985  22.341  1.00  0.00    -0.026 A 
ATOM     13  C   UNL     1      49.942 135.285  22.697  1.00  0.00     0.106 A 
ATOM     14  C   UNL     1      49.528 134.313  23.619  1.00  0.00     0.032 A 
ATOM     15  N   UNL     1      49.137 135.582  21.640  1.00  0.00    -0.253 NA
ATOM     16  C   UNL     1      48.304 133.667  23.439  1.00  0.00     0.008 A 
ATOM     17  C   UNL     1      47.941 134.967  21.441  1.00  0.00     0.115 A 
BRANCH  13  18
ATOM     18  C   UNL     1      51.232 135.989  22.855  1.00  0.00     0.178 C 
ATOM     19  C   UNL     1      51.984 135.922  24.148  1.00  0.00     0.095 C 
ATOM     20  O   UNL     1      51.711 136.658  21.900  1.00  0.00    -0.293 OA
ENDBRANCH  13  18
ENDBRANCH   1  12
BRANCH   9  21
ATOM     21  N   UNL     1      44.236 131.939  19.939  1.00  0.00    -0.292 N 
ATOM     22  H   UNL     1      44.421 132.969  19.971  1.00  0.00     0.354 HD
ATOM     23  H   UNL     1      43.207 131.820  20.087  1.00  0.00     0.354 HD
BRANCH  21  24
ATOM     24  C   UNL     1      44.584 131.466  18.614  1.00  0.00     0.134 A 
ATOM     25  C   UNL     1      45.734 130.682  18.414  1.00  0.00     0.068 A 
ATOM     26  C   UNL     1      43.806 131.826  17.497  1.00  0.00     0.107 A 
ATOM     27  C   UNL     1      46.076 130.234  17.135  1.00  0.00     0.012 A 
ATOM     28  C   UNL     1      44.146 131.378  16.218  1.00  0.00     0.132 A 
ATOM     29  C   UNL     1      45.284 130.578  16.028  1.00  0.00    -0.015 A 
ATOM     30  F   UNL     1      43.367 131.726  15.163  1.00  0.00    -0.206 F 
ATOM     31  C   UNL     1      45.640 130.090  14.654  1.00  0.00     0.047 C 
ENDBRANCH  21  24
ENDBRANCH   9  21
TORSDOF 4
ENDMDL
MODEL 7
REMARK VINA RESULT:      -3.6      5.831      8.760
REMARK SMILES CC(=O)c1ccc([C@@H]2CC[C@@H]3CC(=O)N[C@]3([NH2+]c3ccc(C)c(F)c3)C2)cn1
REMARK SMILES IDX 8 1 9 2 10 3 11 4 12 5 13 6 14 7 15 8 16 9 26 10 7 12 4 13
REMARK SMILES IDX 5 14 28 15 6 16 27 17 2 18 1 19 3 20 17 21 18 24 19 25 25 26
REMARK SMILES IDX 20 27 23 28 21 29 24 30 22 31
REMARK H PARENT 15 11 17 22 17 23
ROOT
ATOM      1  C   UNL     1      46.077 133.285  22.542  1.00  0.00     0.029 C 
ATOM      2  C   UNL     1      45.495 132.887  23.905  1.00  0.00     0.009 C 
ATOM      3  C   UNL     1      44.088 132.315  23.739  1.00  0.00     0.013 C 
ATOM      4  C   UNL     1      44.017 131.145  22.736  1.00  0.00     0.083 C 
ATOM      5  C   UNL     1      44.502 129.795  23.293  1.00  0.00     0.112 C 
ATOM      6  C   UNL     1      44.969 129.115  22.063  1.00  0.00     0.225 C 
ATOM      7  O   UNL     1      45.282 127.897  22.008  1.00  0.00    -0.275 OA
ATOM      8  N   UNL     1      45.088 129.987  20.955  1.00  0.00    -0.304 N 
ATOM      9  C   UNL     1      44.803 131.349  21.394  1.00  0.00     0.179 C 
ATOM     10  C   UNL     1      46.176 132.048  21.634  1.00  0.00     0.102 C 
ATOM     11  H   UNL     1      45.590 129.740  20.073  1.00  0.00     0.169 HD
ENDROOT
BRANCH   1  12
ATOM     12  C   UNL     1      47.431 133.956  22.698  1.00  0.00    -0.026 A 
ATOM     13  C   UNL     1      49.929 135.183  22.982  1.00  0.00     0.106 A 
ATOM     14  C   UNL     1      49.197 135.359  21.799  1.00  0.00     0.032 A 
ATOM     15  N   UNL     1      49.408 134.412  23.976  1.00  0.00    -0.253 NA
ATOM     16  C   UNL     1      47.952 134.745  21.660  1.00  0.00     0.008 A 
ATOM     17  C   UNL     1      48.198 133.803  23.866  1.00  0.00     0.115 A 
BRANCH  13  18
ATOM     18  C   UNL     1      51.251 135.819  23.165  1.00  0.00     0.178 C 
ATOM     19  C   UNL     1      51.358 137.276  23.489  1.00  0.00     0.095 C 
ATOM     20  O   UNL     1      52.305 135.137  23.047  1.00  0.00    -0.293 OA
ENDBRANCH  13  18
ENDBRANCH   1  12
BRANCH   9  21
ATOM     21  N   UNL     1      44.019 132.092  20.368  1.00  0.00    -0.292 N 
ATOM     22  H   UNL     1      44.238 133.114  20.432  1.00  0.00     0.354 HD
ATOM     23  H   UNL     1      42.998 131.996  20.576  1.00  0.00     0.354 HD
BRANCH  21  24
ATOM     24  C   UNL     1      44.269 131.670  19.004  1.00  0.00     0.134 A 
ATOM     25  C   UNL     1      43.316 131.905  17.996  1.00  0.00     0.068 A 
ATOM     26  C   UNL     1      45.446 130.972  18.674  1.00  0.00     0.107 A 
ATOM     27  C   UNL     1      43.552 131.489  16.684  1.00  0.00     0.012 A 
ATOM     28  C   UNL     1      45.683 130.555  17.362  1.00  0.00     0.132 A 
ATOM     29  C   UNL     1      44.737 130.812  16.357  1.00  0.00    -0.015 A 
ATOM     30  F   UNL     1      46.835 129.900  17.070  1.00  0.00    -0.206 F 
ATOM     31  C   UNL     1      45.001 130.373  14.945  1.00  0.00     0.047 C 
ENDBRANCH  21  24
ENDBRANCH   9  21
TORSDOF 4
ENDMDL
MODEL 8
REMARK VINA RESULT:      -3.5      4.357      7.685
REMARK SMILES CC(=O)c1ccc([C@@H]2CC[C@@H]3CC(=O)N[C@]3([NH2+]c3ccc(C)c(F)c3)C2)cn1
REMARK SMILES IDX 8 1 9 2 10 3 11 4 12 5 13 6 14 7 15 8 16 9 26 10 7 12 4 13
REMARK SMILES IDX 5 14 28 15 6 16 27 17 2 18 1 19 3 20 17 21 18 24 19 25 25 26
REMARK SMILES IDX 20 27 23 28 21 29 24 30 22 31
REMARK H PARENT 15 11 17 22 17 23
ROOT
ATOM      1  C   UNL     1      44.925 129.337  22.039  1.00  0.00     0.029 C 
ATOM      2  C   UNL     1      44.360 130.320  23.073  1.00  0.00     0.009 C 
ATOM      3  C   UNL     1      44.636 131.762  22.647  1.00  0.00     0.013 C 
ATOM      4  C   UNL     1      44.128 132.088  21.228  1.00  0.00     0.083 C 
ATOM      5  C   UNL     1      42.615 132.349  21.133  1.00  0.00     0.112 C 
ATOM      6  C   UNL     1      42.329 131.946  19.736  1.00  0.00     0.225 C 
ATOM      7  O   UNL     1      41.237 132.166  19.150  1.00  0.00    -0.275 OA
ATOM      8  N   UNL     1      43.392 131.231  19.135  1.00  0.00    -0.304 N 
ATOM      9  C   UNL     1      44.436 131.012  20.130  1.00  0.00     0.179 C 
ATOM     10  C   UNL     1      44.248 129.564  20.678  1.00  0.00     0.102 C 
ATOM     11  H   UNL     1      43.298 130.695  18.243  1.00  0.00     0.169 HD
ENDROOT
BRANCH   1  12
ATOM     12  C   UNL     1      44.757 127.900  22.498  1.00  0.00    -0.026 A 
ATOM     13  C   UNL     1      44.451 125.254  23.354  1.00  0.00     0.106 A 
ATOM     14  C   UNL     1      43.406 126.171  23.538  1.00  0.00     0.032 A 
ATOM     15  N   UNL     1      45.603 125.671  22.761  1.00  0.00    -0.253 NA
ATOM     16  C   UNL     1      43.562 127.490  23.111  1.00  0.00     0.008 A 
ATOM     17  C   UNL     1      45.780 126.949  22.336  1.00  0.00     0.115 A 
BRANCH  13  18
ATOM     18  C   UNL     1      44.321 123.848  23.794  1.00  0.00     0.178 C 
ATOM     19  C   UNL     1      45.239 122.794  23.259  1.00  0.00     0.095 C 
ATOM     20  O   UNL     1      43.431 123.522  24.625  1.00  0.00    -0.293 OA
ENDBRANCH  13  18
ENDBRANCH   1  12
BRANCH   9  21
ATOM     21  N   UNL     1      45.791 131.164  19.529  1.00  0.00    -0.292 N 
ATOM     22  H   UNL     1      46.442 130.462  19.952  1.00  0.00     0.354 HD
ATOM     23  H   UNL     1      46.174 132.106  19.773  1.00  0.00     0.354 HD
BRANCH  21  24
ATOM     24  C   UNL     1      45.829 130.993  18.091  1.00  0.00     0.134 A 
ATOM     25  C   UNL     1      46.495 129.894  17.518  1.00  0.00     0.068 A 
ATOM     26  C   UNL     1      45.246 131.951  17.239  1.00  0.00     0.107 A 
ATOM     27  C   UNL     1      46.541 129.736  16.130  1.00  0.00     0.012 A 
ATOM     28  C   UNL     1      45.291 131.793  15.852  1.00  0.00     0.132 A 
ATOM     29  C   UNL     1      45.939 130.683  15.287  1.00  0.00    -0.015 A 
ATOM     30  F   UNL     1      44.704 132.723  15.058  1.00  0.00    -0.206 F 
ATOM     31  C   UNL     1      45.975 130.510  13.796  1.00  0.00     0.047 C 
ENDBRANCH  21  24
ENDBRANCH   9  21
TORSDOF 4
ENDMDL
MODEL 9
REMARK VINA RESULT:      -3.5      3.666      7.217
REMARK SMILES CC(=O)c1ccc([C@@H]2CC[C@@H]3CC(=O)N[C@]3([NH2+]c3ccc(C)c(F)c3)C2)cn1
REMARK SMILES IDX 8 1 9 2 10 3 11 4 12 5 13 6 14 7 15 8 16 9 26 10 7 12 4 13
REMARK SMILES IDX 5 14 28 15 6 16 27 17 2 18 1 19 3 20 17 21 18 24 19 25 25 26
REMARK SMILES IDX 20 27 23 28 21 29 24 30 22 31
REMARK H PARENT 15 11 17 22 17 23
ROOT
ATOM      1  C   UNL     1      43.616 125.538  23.084  1.00  0.00     0.029 C 
ATOM      2  C   UNL     1      44.171 124.969  24.397  1.00  0.00     0.009 C 
ATOM      3  C   UNL     1      44.051 123.445  24.413  1.00  0.00     0.013 C 
ATOM      4  C   UNL     1      44.701 122.768  23.189  1.00  0.00     0.083 C 
ATOM      5  C   UNL     1      46.233 122.649  23.261  1.00  0.00     0.112 C 
ATOM      6  C   UNL     1      46.601 122.648  21.826  1.00  0.00     0.225 C 
ATOM      7  O   UNL     1      47.752 122.378  21.395  1.00  0.00    -0.275 OA
ATOM      8  N   UNL     1      45.538 123.039  20.978  1.00  0.00    -0.304 N 
ATOM      9  C   UNL     1      44.399 123.434  21.801  1.00  0.00     0.179 C 
ATOM     10  C   UNL     1      44.421 124.990  21.895  1.00  0.00     0.102 C 
ATOM     11  H   UNL     1      45.661 123.294  19.973  1.00  0.00     0.169 HD
ENDROOT
BRANCH   1  12
ATOM     12  C   UNL     1      43.627 127.056  23.097  1.00  0.00    -0.026 A 
ATOM     13  C   UNL     1      43.651 129.854  23.128  1.00  0.00     0.106 A 
ATOM     14  C   UNL     1      44.712 129.155  22.534  1.00  0.00     0.032 A 
ATOM     15  N   UNL     1      42.624 129.155  23.685  1.00  0.00    -0.253 NA
ATOM     16  C   UNL     1      44.697 127.759  22.520  1.00  0.00     0.008 A 
ATOM     17  C   UNL     1      42.585 127.796  23.685  1.00  0.00     0.115 A 
BRANCH  13  18
ATOM     18  C   UNL     1      43.633 131.332  23.161  1.00  0.00     0.178 C 
ATOM     19  C   UNL     1      42.750 132.062  24.124  1.00  0.00     0.095 C 
ATOM     20  O   UNL     1      44.361 131.993  22.373  1.00  0.00    -0.293 OA
ENDBRANCH  13  18
ENDBRANCH   1  12
BRANCH   9  21
ATOM     21  N   UNL     1      43.116 122.972  21.200  1.00  0.00    -0.292 N 
ATOM     22  H   UNL     1      43.176 121.948  20.991  1.00  0.00     0.354 HD
ATOM     23  H   UNL     1      42.971 123.452  20.282  1.00  0.00     0.354 HD
BRANCH  21  24
ATOM     24  C   UNL     1      41.953 123.186  22.038  1.00  0.00     0.134 A 
ATOM     25  C   UNL     1      41.742 122.398  23.184  1.00  0.00     0.068 A 
ATOM     26  C   UNL     1      40.989 124.151  21.692  1.00  0.00     0.107 A 
ATOM     27  C   UNL     1      40.615 122.598  23.986  1.00  0.00     0.012 A 
ATOM     28  C   UNL     1      39.862 124.352  22.493  1.00  0.00     0.132 A 
ATOM     29  C   UNL     1      39.667 123.577  23.647  1.00  0.00    -0.015 A 
ATOM     30  F   UNL     1      38.958 125.302  22.143  1.00  0.00    -0.206 F 
ATOM     31  C   UNL     1      38.461 123.803  24.512  1.00  0.00     0.047 C 
ENDBRANCH  21  24
ENDBRANCH   9  21
TORSDOF 4
ENDMDL


