MODEL 1
REMARK VINA RESULT:      -5.6      0.000      0.000
REMARK SMILES CC(=O)c1c(-c2c[nH+]c3c(c2)C(=O)[N-]C3)cc(/C(O)=N/[C@@H]2C=CCC2)c(F)c1[O-]
REMARK SMILES IDX 17 1 16 2 5 3 4 4 28 5 29 6 26 7 27 8 18 9 19 10 20 12 21 13
REMARK SMILES IDX 22 14 25 15 23 16 24 17 6 18 11 19 7 20 10 21 8 22 9 23
REMARK SMILES IDX 12 24 15 25 14 26 13 28 2 29 3 30 1 31
REMARK H PARENT 19 11 8 27
ROOT
ATOM      1  C   UNL     1      44.299 128.036  23.413  1.00  0.00     0.072 A 
ATOM      2  C   UNL     1      45.483 127.380  23.029  1.00  0.00     0.026 A 
ATOM      3  C   UNL     1      45.530 125.985  22.878  1.00  0.00    -0.001 A 
ATOM      4  C   UNL     1      44.369 125.215  23.135  1.00  0.00     0.020 A 
ATOM      5  C   UNL     1      43.184 125.870  23.525  1.00  0.00    -0.059 A 
ATOM      6  O   UNL     1      42.034 125.141  23.815  1.00  0.00    -0.870 OA
ATOM      7  C   UNL     1      43.148 127.262  23.654  1.00  0.00     0.128 A 
ATOM      8  F   UNL     1      41.981 127.844  24.034  1.00  0.00    -0.207 F 
ENDROOT
BRANCH   1   9
ATOM      9  C   UNL     1      44.277 129.518  23.558  1.00  0.00     0.217 C 
BRANCH   9  10
ATOM     10  O   UNL     1      44.963 130.116  24.621  1.00  0.00    -0.493 OA
ATOM     11  H   UNL     1      45.430 129.591  25.349  1.00  0.00     0.295 HD
ENDBRANCH   9  10
BRANCH   9  12
ATOM     12  N   UNL     1      43.619 130.238  22.693  1.00  0.00    -0.244 NA
BRANCH  12  13
ATOM     13  C   UNL     1      43.879 130.310  21.257  1.00  0.00     0.132 C 
ATOM     14  C   UNL     1      45.314 130.626  21.035  1.00  0.00    -0.005 C 
ATOM     15  C   UNL     1      43.131 131.487  20.603  1.00  0.00     0.036 C 
ATOM     16  C   UNL     1      45.490 131.776  20.409  1.00  0.00    -0.029 C 
ATOM     17  C   UNL     1      44.207 132.452  20.096  1.00  0.00     0.029 C 
ENDBRANCH  12  13
ENDBRANCH   9  12
ENDBRANCH   1   9
BRANCH   3  18
ATOM     18  C   UNL     1      46.795 125.371  22.408  1.00  0.00     0.047 A 
ATOM     19  C   UNL     1      48.036 125.804  22.920  1.00  0.00     0.031 A 
ATOM     20  C   UNL     1      46.772 124.316  21.461  1.00  0.00     0.315 A 
ATOM     21  C   UNL     1      49.185 125.182  22.447  1.00  0.00     0.065 A 
ATOM     22  N   UNL     1      47.934 123.738  21.035  1.00  0.00    -0.215 N 
ATOM     23  C   UNL     1      49.123 124.173  21.525  1.00  0.00     0.171 A 
ATOM     24  C   UNL     1      50.575 125.382  22.757  1.00  0.00     0.089 C 
ATOM     25  C   UNL     1      50.490 123.662  21.183  1.00  0.00    -0.006 C 
ATOM     26  N   UNL     1      51.386 124.481  22.008  1.00  0.00    -0.641 NA
ATOM     27  H   UNL     1      47.908 122.965  20.333  1.00  0.00     0.453 HD
ATOM     28  O   UNL     1      51.034 126.228  23.568  1.00  0.00    -0.315 OA
ENDBRANCH   3  18
BRANCH   4  29
ATOM     29  C   UNL     1      44.404 123.732  23.058  1.00  0.00     0.159 C 
ATOM     30  O   UNL     1      44.905 123.071  24.007  1.00  0.00    -0.295 OA
ATOM     31  C   UNL     1      43.836 122.996  21.885  1.00  0.00     0.093 C 
ENDBRANCH   4  29
TORSDOF 6
ENDMDL
MODEL 2
REMARK VINA RESULT:      -4.6      3.540      5.565
REMARK SMILES CC(=O)c1c(-c2c[nH+]c3c(c2)C(=O)[N-]C3)cc(/C(O)=N/[C@@H]2C=CCC2)c(F)c1[O-]
REMARK SMILES IDX 17 1 16 2 5 3 4 4 28 5 29 6 26 7 27 8 18 9 19 10 20 12 21 13
REMARK SMILES IDX 22 14 25 15 23 16 24 17 6 18 11 19 7 20 10 21 8 22 9 23
REMARK SMILES IDX 12 24 15 25 14 26 13 28 2 29 3 30 1 31
REMARK H PARENT 19 11 8 27
ROOT
ATOM      1  C   UNL     1      44.476 131.239  19.863  1.00  0.00     0.072 A 
ATOM      2  C   UNL     1      44.914 130.147  20.634  1.00  0.00     0.026 A 
ATOM      3  C   UNL     1      44.291 129.813  21.847  1.00  0.00    -0.001 A 
ATOM      4  C   UNL     1      43.212 130.599  22.319  1.00  0.00     0.020 A 
ATOM      5  C   UNL     1      42.776 131.696  21.550  1.00  0.00    -0.059 A 
ATOM      6  O   UNL     1      41.738 132.508  21.998  1.00  0.00    -0.870 OA
ATOM      7  C   UNL     1      43.395 132.006  20.334  1.00  0.00     0.128 A 
ATOM      8  F   UNL     1      42.937 133.075  19.632  1.00  0.00    -0.207 F 
ENDROOT
BRANCH   1   9
ATOM      9  C   UNL     1      45.151 131.565  18.576  1.00  0.00     0.217 C 
BRANCH   9  10
ATOM     10  O   UNL     1      45.341 132.905  18.219  1.00  0.00    -0.493 OA
ATOM     11  H   UNL     1      45.249 133.249  17.272  1.00  0.00     0.295 HD
ENDBRANCH   9  10
BRANCH   9  12
ATOM     12  N   UNL     1      45.554 130.599  17.799  1.00  0.00    -0.244 NA
BRANCH  12  13
ATOM     13  C   UNL     1      44.916 130.169  16.557  1.00  0.00     0.132 C 
ATOM     14  C   UNL     1      45.791 129.181  15.873  1.00  0.00    -0.005 C 
ATOM     15  C   UNL     1      44.797 131.326  15.549  1.00  0.00     0.036 C 
ATOM     16  C   UNL     1      46.201 129.601  14.690  1.00  0.00    -0.029 C 
ATOM     17  C   UNL     1      45.682 130.950  14.356  1.00  0.00     0.029 C 
ENDBRANCH  12  13
ENDBRANCH   9  12
ENDBRANCH   1   9
BRANCH   3  18
ATOM     18  C   UNL     1      44.766 128.609  22.573  1.00  0.00     0.047 A 
ATOM     19  C   UNL     1      45.578 127.656  21.924  1.00  0.00     0.031 A 
ATOM     20  C   UNL     1      44.437 128.418  23.938  1.00  0.00     0.315 A 
ATOM     21  C   UNL     1      46.000 126.556  22.661  1.00  0.00     0.065 A 
ATOM     22  N   UNL     1      44.883 127.318  24.614  1.00  0.00    -0.215 N 
ATOM     23  C   UNL     1      45.653 126.401  23.976  1.00  0.00     0.171 A 
ATOM     24  C   UNL     1      46.818 125.426  22.308  1.00  0.00     0.089 C 
ATOM     25  C   UNL     1      46.235 125.144  24.550  1.00  0.00    -0.006 C 
ATOM     26  N   UNL     1      46.976 124.557  23.426  1.00  0.00    -0.641 NA
ATOM     27  H   UNL     1      44.631 127.183  25.619  1.00  0.00     0.453 HD
ATOM     28  O   UNL     1      47.331 125.214  21.178  1.00  0.00    -0.315 OA
ENDBRANCH   3  18
BRANCH   4  29
ATOM     29  C   UNL     1      42.579 130.319  23.633  1.00  0.00     0.159 C 
ATOM     30  O   UNL     1      42.854 131.048  24.624  1.00  0.00    -0.295 OA
ATOM     31  C   UNL     1      41.602 129.199  23.808  1.00  0.00     0.093 C 
ENDBRANCH   4  29
TORSDOF 6
ENDMDL
MODEL 3
REMARK VINA RESULT:      -4.0      4.006      6.071
REMARK SMILES CC(=O)c1c(-c2c[nH+]c3c(c2)C(=O)[N-]C3)cc(/C(O)=N/[C@@H]2C=CCC2)c(F)c1[O-]
REMARK SMILES IDX 17 1 16 2 5 3 4 4 28 5 29 6 26 7 27 8 18 9 19 10 20 12 21 13
REMARK SMILES IDX 22 14 25 15 23 16 24 17 6 18 11 19 7 20 10 21 8 22 9 23
REMARK SMILES IDX 12 24 15 25 14 26 13 28 2 29 3 30 1 31
REMARK H PARENT 19 11 8 27
ROOT
ATOM      1  C   UNL     1      45.235 130.403  18.658  1.00  0.00     0.072 A 
ATOM      2  C   UNL     1      45.506 129.436  19.643  1.00  0.00     0.026 A 
ATOM      3  C   UNL     1      45.066 129.598  20.966  1.00  0.00    -0.001 A 
ATOM      4  C   UNL     1      44.350 130.766  21.327  1.00  0.00     0.020 A 
ATOM      5  C   UNL     1      44.083 131.737  20.342  1.00  0.00    -0.059 A 
ATOM      6  O   UNL     1      43.409 132.911  20.669  1.00  0.00    -0.870 OA
ATOM      7  C   UNL     1      44.512 131.554  19.024  1.00  0.00     0.128 A 
ATOM      8  F   UNL     1      44.230 132.521  18.113  1.00  0.00    -0.207 F 
ENDROOT
BRANCH   1   9
ATOM      9  C   UNL     1      45.707 130.201  17.259  1.00  0.00     0.217 C 
BRANCH   9  10
ATOM     10  O   UNL     1      47.050 129.881  17.027  1.00  0.00    -0.493 OA
ATOM     11  H   UNL     1      47.379 129.439  16.178  1.00  0.00     0.295 HD
ENDBRANCH   9  10
BRANCH   9  12
ATOM     12  N   UNL     1      44.865 130.325  16.272  1.00  0.00    -0.244 NA
BRANCH  12  13
ATOM     13  C   UNL     1      45.014 131.208  15.118  1.00  0.00     0.132 C 
ATOM     14  C   UNL     1      45.417 130.404  13.935  1.00  0.00    -0.005 C 
ATOM     15  C   UNL     1      46.176 132.201  15.310  1.00  0.00     0.036 C 
ATOM     16  C   UNL     1      46.602 130.751  13.464  1.00  0.00    -0.029 C 
ATOM     17  C   UNL     1      47.220 131.852  14.244  1.00  0.00     0.029 C 
ENDBRANCH  12  13
ENDBRANCH   9  12
ENDBRANCH   1   9
BRANCH   3  18
ATOM     18  C   UNL     1      45.333 128.507  21.934  1.00  0.00     0.047 A 
ATOM     19  C   UNL     1      46.097 127.384  21.555  1.00  0.00     0.031 A 
ATOM     20  C   UNL     1      44.851 128.594  23.264  1.00  0.00     0.315 A 
ATOM     21  C   UNL     1      46.322 126.400  22.511  1.00  0.00     0.065 A 
ATOM     22  N   UNL     1      45.106 127.597  24.164  1.00  0.00    -0.215 N 
ATOM     23  C   UNL     1      45.832 126.515  23.783  1.00  0.00     0.171 A 
ATOM     24  C   UNL     1      47.043 125.157  22.450  1.00  0.00     0.089 C 
ATOM     25  C   UNL     1      46.214 125.334  24.624  1.00  0.00    -0.006 C 
ATOM     26  N   UNL     1      46.994 124.492  23.709  1.00  0.00    -0.641 NA
ATOM     27  H   UNL     1      44.743 127.668  25.140  1.00  0.00     0.453 HD
ATOM     28  O   UNL     1      47.639 124.701  21.440  1.00  0.00    -0.315 OA
ENDBRANCH   3  18
BRANCH   4  29
ATOM     29  C   UNL     1      43.936 131.005  22.733  1.00  0.00     0.159 C 
ATOM     30  O   UNL     1      44.752 131.518  23.544  1.00  0.00    -0.295 OA
ATOM     31  C   UNL     1      42.557 130.668  23.209  1.00  0.00     0.093 C 
ENDBRANCH   4  29
TORSDOF 6
ENDMDL
MODEL 4
REMARK VINA RESULT:      -3.4      6.322      8.119
REMARK SMILES CC(=O)c1c(-c2c[nH+]c3c(c2)C(=O)[N-]C3)cc(/C(O)=N/[C@@H]2C=CCC2)c(F)c1[O-]
REMARK SMILES IDX 17 1 16 2 5 3 4 4 28 5 29 6 26 7 27 8 18 9 19 10 20 12 21 13
REMARK SMILES IDX 22 14 25 15 23 16 24 17 6 18 11 19 7 20 10 21 8 22 9 23
REMARK SMILES IDX 12 24 15 25 14 26 13 28 2 29 3 30 1 31
REMARK H PARENT 19 11 8 27
ROOT
ATOM      1  C   UNL     1      47.192 133.669  22.235  1.00  0.00     0.072 A 
ATOM      2  C   UNL     1      46.701 133.192  21.006  1.00  0.00     0.026 A 
ATOM      3  C   UNL     1      45.531 132.418  20.937  1.00  0.00    -0.001 A 
ATOM      4  C   UNL     1      44.839 132.091  22.128  1.00  0.00     0.020 A 
ATOM      5  C   UNL     1      45.333 132.563  23.360  1.00  0.00    -0.059 A 
ATOM      6  O   UNL     1      44.694 132.235  24.553  1.00  0.00    -0.870 OA
ATOM      7  C   UNL     1      46.489 133.348  23.411  1.00  0.00     0.128 A 
ATOM      8  F   UNL     1      46.924 133.777  24.624  1.00  0.00    -0.207 F 
ENDROOT
BRANCH   1   9
ATOM      9  C   UNL     1      48.431 134.495  22.276  1.00  0.00     0.217 C 
BRANCH   9  10
ATOM     10  O   UNL     1      49.596 133.960  22.836  1.00  0.00    -0.493 OA
ATOM     11  H   UNL     1      50.076 134.371  23.626  1.00  0.00     0.295 HD
ENDBRANCH   9  10
BRANCH   9  12
ATOM     12  N   UNL     1      48.412 135.705  21.792  1.00  0.00    -0.244 NA
BRANCH  12  13
ATOM     13  C   UNL     1      49.416 136.295  20.909  1.00  0.00     0.132 C 
ATOM     14  C   UNL     1      50.464 136.955  21.730  1.00  0.00    -0.005 C 
ATOM     15  C   UNL     1      48.826 137.440  20.064  1.00  0.00     0.036 C 
ATOM     16  C   UNL     1      50.533 138.257  21.515  1.00  0.00    -0.029 C 
ATOM     17  C   UNL     1      49.542 138.718  20.511  1.00  0.00     0.029 C 
ENDBRANCH  12  13
ENDBRANCH   9  12
ENDBRANCH   1   9
BRANCH   3  18
ATOM     18  C   UNL     1      45.038 132.006  19.600  1.00  0.00     0.047 A 
ATOM     19  C   UNL     1      45.861 131.257  18.733  1.00  0.00     0.031 A 
ATOM     20  C   UNL     1      43.722 132.331  19.190  1.00  0.00     0.315 A 
ATOM     21  C   UNL     1      45.338 130.892  17.498  1.00  0.00     0.065 A 
ATOM     22  N   UNL     1      43.258 131.942  17.964  1.00  0.00    -0.215 N 
ATOM     23  C   UNL     1      44.064 131.233  17.133  1.00  0.00     0.171 A 
ATOM     24  C   UNL     1      45.901 130.145  16.406  1.00  0.00     0.089 C 
ATOM     25  C   UNL     1      43.732 130.719  15.764  1.00  0.00    -0.006 C 
ATOM     26  N   UNL     1      44.957 130.026  15.346  1.00  0.00    -0.641 NA
ATOM     27  H   UNL     1      42.288 132.191  17.669  1.00  0.00     0.453 HD
ATOM     28  O   UNL     1      47.061 129.658  16.368  1.00  0.00    -0.315 OA
ENDBRANCH   3  18
BRANCH   4  29
ATOM     29  C   UNL     1      43.642 131.211  22.099  1.00  0.00     0.159 C 
ATOM     30  O   UNL     1      43.789 129.963  22.007  1.00  0.00    -0.295 OA
ATOM     31  C   UNL     1      42.258 131.771  22.199  1.00  0.00     0.093 C 
ENDBRANCH   4  29
TORSDOF 6
ENDMDL
MODEL 5
REMARK VINA RESULT:      -3.2      3.851      7.785
REMARK SMILES CC(=O)c1c(-c2c[nH+]c3c(c2)C(=O)[N-]C3)cc(/C(O)=N/[C@@H]2C=CCC2)c(F)c1[O-]
REMARK SMILES IDX 17 1 16 2 5 3 4 4 28 5 29 6 26 7 27 8 18 9 19 10 20 12 21 13
REMARK SMILES IDX 22 14 25 15 23 16 24 17 6 18 11 19 7 20 10 21 8 22 9 23
REMARK SMILES IDX 12 24 15 25 14 26 13 28 2 29 3 30 1 31
REMARK H PARENT 19 11 8 27
ROOT
ATOM      1  C   UNL     1      44.255 129.708  22.409  1.00  0.00     0.072 A 
ATOM      2  C   UNL     1      44.712 129.741  21.079  1.00  0.00     0.026 A 
ATOM      3  C   UNL     1      44.250 130.708  20.172  1.00  0.00    -0.001 A 
ATOM      4  C   UNL     1      43.291 131.661  20.594  1.00  0.00     0.020 A 
ATOM      5  C   UNL     1      42.829 131.625  21.924  1.00  0.00    -0.059 A 
ATOM      6  O   UNL     1      41.864 132.527  22.364  1.00  0.00    -0.870 OA
ATOM      7  C   UNL     1      43.311 130.667  22.822  1.00  0.00     0.128 A 
ATOM      8  F   UNL     1      42.832 130.675  24.093  1.00  0.00    -0.207 F 
ENDROOT
BRANCH   1   9
ATOM      9  C   UNL     1      44.768 128.675  23.352  1.00  0.00     0.217 C 
BRANCH   9  10
ATOM     10  O   UNL     1      45.215 129.063  24.620  1.00  0.00    -0.493 OA
ATOM     11  H   UNL     1      44.708 128.871  25.474  1.00  0.00     0.295 HD
ENDBRANCH   9  10
BRANCH   9  12
ATOM     12  N   UNL     1      44.794 127.425  22.983  1.00  0.00    -0.244 NA
BRANCH  12  13
ATOM     13  C   UNL     1      44.586 126.266  23.849  1.00  0.00     0.132 C 
ATOM     14  C   UNL     1      45.563 125.205  23.492  1.00  0.00    -0.005 C 
ATOM     15  C   UNL     1      43.214 125.612  23.600  1.00  0.00     0.036 C 
ATOM     16  C   UNL     1      44.979 124.102  23.061  1.00  0.00    -0.029 C 
ATOM     17  C   UNL     1      43.499 124.214  23.044  1.00  0.00     0.029 C 
ENDBRANCH  12  13
ENDBRANCH   9  12
ENDBRANCH   1   9
BRANCH   3  18
ATOM     18  C   UNL     1      44.826 130.721  18.805  1.00  0.00     0.047 A 
ATOM     19  C   UNL     1      44.045 131.127  17.703  1.00  0.00     0.031 A 
ATOM     20  C   UNL     1      46.179 130.358  18.593  1.00  0.00     0.315 A 
ATOM     21  C   UNL     1      44.645 131.128  16.449  1.00  0.00     0.065 A 
ATOM     22  N   UNL     1      46.718 130.381  17.337  1.00  0.00    -0.215 N 
ATOM     23  C   UNL     1      45.952 130.761  16.283  1.00  0.00     0.171 A 
ATOM     24  C   UNL     1      44.138 131.478  15.149  1.00  0.00     0.089 C 
ATOM     25  C   UNL     1      46.366 130.853  14.844  1.00  0.00    -0.006 C 
ATOM     26  N   UNL     1      45.153 131.320  14.161  1.00  0.00    -0.641 NA
ATOM     27  H   UNL     1      47.714 130.107  17.190  1.00  0.00     0.453 HD
ATOM     28  O   UNL     1      42.969 131.868  14.895  1.00  0.00    -0.315 OA
ENDBRANCH   3  18
BRANCH   4  29
ATOM     29  C   UNL     1      42.726 132.650  19.641  1.00  0.00     0.159 C 
ATOM     30  O   UNL     1      43.335 133.734  19.434  1.00  0.00    -0.295 OA
ATOM     31  C   UNL     1      41.454 132.383  18.899  1.00  0.00     0.093 C 
ENDBRANCH   4  29
TORSDOF 6
ENDMDL
MODEL 6
REMARK VINA RESULT:      -2.7      3.316      7.404
REMARK SMILES CC(=O)c1c(-c2c[nH+]c3c(c2)C(=O)[N-]C3)cc(/C(O)=N/[C@@H]2C=CCC2)c(F)c1[O-]
REMARK SMILES IDX 17 1 16 2 5 3 4 4 28 5 29 6 26 7 27 8 18 9 19 10 20 12 21 13
REMARK SMILES IDX 22 14 25 15 23 16 24 17 6 18 11 19 7 20 10 21 8 22 9 23
REMARK SMILES IDX 12 24 15 25 14 26 13 28 2 29 3 30 1 31
REMARK H PARENT 19 11 8 27
ROOT
ATOM      1  C   UNL     1      45.469 127.420  22.233  1.00  0.00     0.072 A 
ATOM      2  C   UNL     1      45.491 128.202  21.064  1.00  0.00     0.026 A 
ATOM      3  C   UNL     1      45.041 129.533  21.068  1.00  0.00    -0.001 A 
ATOM      4  C   UNL     1      44.536 130.097  22.264  1.00  0.00     0.020 A 
ATOM      5  C   UNL     1      44.509 129.312  23.434  1.00  0.00    -0.059 A 
ATOM      6  O   UNL     1      43.991 129.826  24.620  1.00  0.00    -0.870 OA
ATOM      7  C   UNL     1      44.977 127.994  23.420  1.00  0.00     0.128 A 
ATOM      8  F   UNL     1      44.928 127.280  24.574  1.00  0.00    -0.207 F 
ENDROOT
BRANCH   1   9
ATOM      9  C   UNL     1      45.961 126.014  22.202  1.00  0.00     0.217 C 
BRANCH   9  10
ATOM     10  O   UNL     1      47.298 125.760  21.878  1.00  0.00    -0.493 OA
ATOM     11  H   UNL     1      47.694 125.937  20.964  1.00  0.00     0.295 HD
ENDBRANCH   9  10
BRANCH   9  12
ATOM     12  N   UNL     1      45.139 125.040  22.477  1.00  0.00    -0.244 NA
BRANCH  12  13
ATOM     13  C   UNL     1      45.378 123.950  23.420  1.00  0.00     0.132 C 
ATOM     14  C   UNL     1      46.217 124.448  24.541  1.00  0.00    -0.005 C 
ATOM     15  C   UNL     1      46.224 122.829  22.788  1.00  0.00     0.036 C 
ATOM     16  C   UNL     1      47.381 123.829  24.618  1.00  0.00    -0.029 C 
ATOM     17  C   UNL     1      47.546 122.800  23.562  1.00  0.00     0.029 C 
ENDBRANCH  12  13
ENDBRANCH   9  12
ENDBRANCH   1   9
BRANCH   3  18
ATOM     18  C   UNL     1      45.155 130.316  19.813  1.00  0.00     0.047 A 
ATOM     19  C   UNL     1      45.777 129.760  18.676  1.00  0.00     0.031 A 
ATOM     20  C   UNL     1      44.612 131.622  19.731  1.00  0.00     0.315 A 
ATOM     21  C   UNL     1      45.842 130.540  17.527  1.00  0.00     0.065 A 
ATOM     22  N   UNL     1      44.702 132.343  18.574  1.00  0.00    -0.215 N 
ATOM     23  C   UNL     1      45.314 131.802  17.489  1.00  0.00     0.171 A 
ATOM     24  C   UNL     1      46.396 130.279  16.226  1.00  0.00     0.089 C 
ATOM     25  C   UNL     1      45.503 132.433  16.142  1.00  0.00    -0.006 C 
ATOM     26  N   UNL     1      46.208 131.402  15.370  1.00  0.00    -0.641 NA
ATOM     27  H   UNL     1      44.303 133.306  18.524  1.00  0.00     0.453 HD
ATOM     28  O   UNL     1      46.972 129.217  15.871  1.00  0.00    -0.315 OA
ENDBRANCH   3  18
BRANCH   4  29
ATOM     29  C   UNL     1      43.983 131.475  22.285  1.00  0.00     0.159 C 
ATOM     30  O   UNL     1      44.736 132.444  22.573  1.00  0.00    -0.295 OA
ATOM     31  C   UNL     1      42.550 131.748  21.951  1.00  0.00     0.093 C 
ENDBRANCH   4  29
TORSDOF 6
ENDMDL


