REMARK SMILES Cc1cc(F)ncc1-c1ccc2cc[nH]c2c1[N-]C(=O)c1cc(F)c[nH]1
REMARK SMILES IDX 18 1 17 2 9 3 10 4 11 5 16 6 12 7 15 8 13 9 14 10 8 12 2 13
REMARK SMILES IDX 3 14 4 15 7 16 6 17 1 18 5 19 19 20 20 21 21 22 22 23 26 24
REMARK SMILES IDX 23 25 25 26 24 28
REMARK H PARENT 15 11 26 27
ROOT
ATOM      1  N   UNL     1       1.210   1.812   0.110  1.00  0.00    -0.619 NA
ENDROOT
BRANCH   1   2
ATOM      2  C   UNL     1       1.111   0.475  -0.406  1.00  0.00    -0.101 A 
ATOM      3  C   UNL     1      -0.002  -0.381  -0.150  1.00  0.00    -0.029 A 
ATOM      4  C   UNL     1      -0.039  -1.673  -0.733  1.00  0.00     0.008 A 
ATOM      5  C   UNL     1       1.021  -2.138  -1.529  1.00  0.00     0.011 A 
ATOM      6  C   UNL     1       2.156  -0.038  -1.178  1.00  0.00     0.031 A 
ATOM      7  C   UNL     1       2.107  -1.293  -1.722  1.00  0.00    -0.002 A 
ATOM      8  N   UNL     1       3.298   0.583  -1.524  1.00  0.00    -0.362 N 
ATOM      9  C   UNL     1       3.268  -1.480  -2.440  1.00  0.00     0.028 A 
ATOM     10  C   UNL     1       3.981  -0.296  -2.293  1.00  0.00     0.083 A 
ATOM     11  H   UNL     1       3.600   1.547  -1.262  1.00  0.00     0.166 HD
BRANCH   3  12
ATOM     12  C   UNL     1      -1.113   0.017   0.744  1.00  0.00     0.002 A 
ATOM     13  C   UNL     1      -0.923   0.269   2.124  1.00  0.00    -0.037 A 
ATOM     14  C   UNL     1      -2.014   0.699   2.894  1.00  0.00     0.064 A 
ATOM     15  C   UNL     1      -3.273   0.822   2.306  1.00  0.00     0.213 A 
ATOM     16  C   UNL     1      -2.408   0.126   0.211  1.00  0.00     0.123 A 
ATOM     17  N   UNL     1      -3.443   0.528   0.992  1.00  0.00    -0.228 NA
ATOM     18  C   UNL     1       0.419   0.113   2.790  1.00  0.00     0.045 C 
ATOM     19  F   UNL     1      -4.332   1.228   3.048  1.00  0.00    -0.185 F 
ENDBRANCH   3  12
ENDBRANCH   1   2
BRANCH   1  20
ATOM     20  C   UNL     1       0.154   2.779   0.164  1.00  0.00     0.102 C 
ATOM     21  O   UNL     1       0.159   3.630   1.091  1.00  0.00    -0.313 OA
BRANCH  20  22
ATOM     22  C   UNL     1      -0.911   2.834  -0.856  1.00  0.00     0.066 A 
ATOM     23  C   UNL     1      -0.866   2.268  -2.120  1.00  0.00     0.069 A 
ATOM     24  N   UNL     1      -2.081   3.481  -0.676  1.00  0.00    -0.357 N 
ATOM     25  C   UNL     1      -2.071   2.584  -2.709  1.00  0.00     0.141 A 
ATOM     26  C   UNL     1      -2.797   3.326  -1.804  1.00  0.00     0.122 A 
ATOM     27  H   UNL     1      -2.386   3.996   0.180  1.00  0.00     0.166 HD
ATOM     28  F   UNL     1      -2.467   2.235  -3.957  1.00  0.00    -0.205 F 
ENDBRANCH  20  22
ENDBRANCH   1  20
TORSDOF 4


