MODEL 1
REMARK VINA RESULT:     -10.3      0.000      0.000
REMARK SMILES Cc1n[nH+]c(-c2cc3c(N)cc(F)c(F)c3[nH]2)o1
REMARK SMILES IDX 6 1 7 2 8 3 9 4 11 5 12 6 13 7 14 8 15 9 16 10 17 11 5 13
REMARK SMILES IDX 2 14 3 15 18 16 4 17 1 18 10 20
REMARK H PARENT 17 12 4 19 10 21 10 22
ROOT
ATOM      1  C   UNL     1      45.472 130.945  17.172  1.00  0.00     0.156 A 
ATOM      2  C   UNL     1      44.234 131.576  17.103  1.00  0.00     0.049 A 
ATOM      3  C   UNL     1      43.816 131.694  18.414  1.00  0.00     0.027 A 
ATOM      4  C   UNL     1      42.652 132.243  18.966  1.00  0.00     0.044 A 
ATOM      5  C   UNL     1      42.516 132.212  20.370  1.00  0.00     0.068 A 
ATOM      6  C   UNL     1      43.526 131.644  21.177  1.00  0.00     0.163 A 
ATOM      7  F   UNL     1      43.377 131.625  22.525  1.00  0.00    -0.204 F 
ATOM      8  C   UNL     1      44.684 131.101  20.592  1.00  0.00     0.182 A 
ATOM      9  F   UNL     1      45.660 130.553  21.357  1.00  0.00    -0.201 F 
ATOM     10  C   UNL     1      44.796 131.142  19.203  1.00  0.00     0.088 A 
ATOM     11  N   UNL     1      45.813 130.681  18.455  1.00  0.00    -0.344 N 
ATOM     12  H   UNL     1      46.683 130.217  18.801  1.00  0.00     0.167 HD
ENDROOT
BRANCH   1  13
ATOM     13  C   UNL     1      46.304 130.606  16.009  1.00  0.00     0.422 A 
ATOM     14  C   UNL     1      47.221 130.686  14.139  1.00  0.00     0.262 A 
ATOM     15  N   UNL     1      47.676 129.559  14.724  1.00  0.00     0.035 NA
ATOM     16  O   UNL     1      46.378 131.328  14.916  1.00  0.00    -0.381 OA
ATOM     17  N   UNL     1      47.091 129.520  15.909  1.00  0.00    -0.061 N 
ATOM     18  C   UNL     1      47.600 131.125  12.766  1.00  0.00     0.118 C 
ATOM     19  H   UNL     1      47.235 128.766  16.615  1.00  0.00     0.495 HD
ENDBRANCH   1  13
BRANCH   4  20
ATOM     20  N   UNL     1      41.629 132.818  18.147  1.00  0.00    -0.398 N 
ATOM     21  H   UNL     1      41.415 132.417  17.207  1.00  0.00     0.156 HD
ATOM     22  H   UNL     1      41.079 133.645  18.466  1.00  0.00     0.156 HD
ENDBRANCH   4  20
TORSDOF 2
ENDMDL
MODEL 2
REMARK VINA RESULT:     -10.1      1.107      1.124
REMARK SMILES Cc1n[nH+]c(-c2cc3c(N)cc(F)c(F)c3[nH]2)o1
REMARK SMILES IDX 6 1 7 2 8 3 9 4 11 5 12 6 13 7 14 8 15 9 16 10 17 11 5 13
REMARK SMILES IDX 2 14 3 15 18 16 4 17 1 18 10 20
REMARK H PARENT 17 12 4 19 10 21 10 22
ROOT
ATOM      1  C   UNL     1      45.367 131.076  16.852  1.00  0.00     0.156 A 
ATOM      2  C   UNL     1      44.110 131.649  17.021  1.00  0.00     0.049 A 
ATOM      3  C   UNL     1      43.895 131.652  18.385  1.00  0.00     0.027 A 
ATOM      4  C   UNL     1      42.811 132.102  19.148  1.00  0.00     0.044 A 
ATOM      5  C   UNL     1      42.895 131.964  20.549  1.00  0.00     0.068 A 
ATOM      6  C   UNL     1      44.037 131.389  21.148  1.00  0.00     0.163 A 
ATOM      7  F   UNL     1      44.099 131.265  22.496  1.00  0.00    -0.204 F 
ATOM      8  C   UNL     1      45.110 130.947  20.353  1.00  0.00     0.182 A 
ATOM      9  F   UNL     1      46.213 130.394  20.916  1.00  0.00    -0.201 F 
ATOM     10  C   UNL     1      45.005 131.093  18.971  1.00  0.00     0.088 A 
ATOM     11  N   UNL     1      45.911 130.737  18.044  1.00  0.00    -0.344 N 
ATOM     12  H   UNL     1      46.841 130.293  18.217  1.00  0.00     0.167 HD
ENDROOT
BRANCH   1  13
ATOM     13  C   UNL     1      46.021 130.863  15.553  1.00  0.00     0.422 A 
ATOM     14  C   UNL     1      47.317 130.160  14.080  1.00  0.00     0.262 A 
ATOM     15  N   UNL     1      46.481 131.016  13.457  1.00  0.00     0.035 NA
ATOM     16  O   UNL     1      47.045 130.066  15.363  1.00  0.00    -0.381 OA
ATOM     17  N   UNL     1      45.662 131.452  14.399  1.00  0.00    -0.061 N 
ATOM     18  C   UNL     1      48.432 129.441  13.402  1.00  0.00     0.118 C 
ATOM     19  H   UNL     1      44.889 132.135  14.241  1.00  0.00     0.495 HD
ENDBRANCH   1  13
BRANCH   4  20
ATOM     20  N   UNL     1      41.653 132.684  18.540  1.00  0.00    -0.398 N 
ATOM     21  H   UNL     1      40.898 133.100  19.128  1.00  0.00     0.156 HD
ATOM     22  H   UNL     1      41.538 132.705  17.503  1.00  0.00     0.156 HD
ENDBRANCH   4  20
TORSDOF 2
ENDMDL
MODEL 3
REMARK VINA RESULT:      -9.9      1.768      2.478
REMARK SMILES Cc1n[nH+]c(-c2cc3c(N)cc(F)c(F)c3[nH]2)o1
REMARK SMILES IDX 6 1 7 2 8 3 9 4 11 5 12 6 13 7 14 8 15 9 16 10 17 11 5 13
REMARK SMILES IDX 2 14 3 15 18 16 4 17 1 18 10 20
REMARK H PARENT 17 12 4 19 10 21 10 22
ROOT
ATOM      1  C   UNL     1      45.249 131.083  17.361  1.00  0.00     0.156 A 
ATOM      2  C   UNL     1      45.593 130.888  18.695  1.00  0.00     0.049 A 
ATOM      3  C   UNL     1      44.528 131.386  19.419  1.00  0.00     0.027 A 
ATOM      4  C   UNL     1      44.305 131.463  20.799  1.00  0.00     0.044 A 
ATOM      5  C   UNL     1      43.094 132.039  21.235  1.00  0.00     0.068 A 
ATOM      6  C   UNL     1      42.148 132.516  20.301  1.00  0.00     0.163 A 
ATOM      7  F   UNL     1      40.989 133.066  20.739  1.00  0.00    -0.204 F 
ATOM      8  C   UNL     1      42.401 132.423  18.921  1.00  0.00     0.182 A 
ATOM      9  F   UNL     1      41.501 132.878  18.014  1.00  0.00    -0.201 F 
ATOM     10  C   UNL     1      43.606 131.851  18.513  1.00  0.00     0.088 A 
ATOM     11  N   UNL     1      44.035 131.672  17.252  1.00  0.00    -0.344 N 
ATOM     12  H   UNL     1      43.530 131.934  16.377  1.00  0.00     0.167 HD
ENDROOT
BRANCH   1  13
ATOM     13  C   UNL     1      46.089 130.703  16.216  1.00  0.00     0.422 A 
ATOM     14  C   UNL     1      47.026 130.721  14.354  1.00  0.00     0.262 A 
ATOM     15  N   UNL     1      47.464 129.607  14.976  1.00  0.00     0.035 NA
ATOM     16  O   UNL     1      46.182 131.393  15.105  1.00  0.00    -0.381 OA
ATOM     17  N   UNL     1      46.867 129.607  16.156  1.00  0.00    -0.061 N 
ATOM     18  C   UNL     1      47.424 131.117  12.974  1.00  0.00     0.118 C 
ATOM     19  H   UNL     1      46.995 128.872  16.884  1.00  0.00     0.495 HD
ENDBRANCH   1  13
BRANCH   4  20
ATOM     20  N   UNL     1      45.265 130.980  21.744  1.00  0.00    -0.398 N 
ATOM     21  H   UNL     1      45.056 130.995  22.767  1.00  0.00     0.156 HD
ATOM     22  H   UNL     1      46.188 130.604  21.436  1.00  0.00     0.156 HD
ENDBRANCH   4  20
TORSDOF 2
ENDMDL
MODEL 4
REMARK VINA RESULT:      -9.6      1.939      2.655
REMARK SMILES Cc1n[nH+]c(-c2cc3c(N)cc(F)c(F)c3[nH]2)o1
REMARK SMILES IDX 6 1 7 2 8 3 9 4 11 5 12 6 13 7 14 8 15 9 16 10 17 11 5 13
REMARK SMILES IDX 2 14 3 15 18 16 4 17 1 18 10 20
REMARK H PARENT 17 12 4 19 10 21 10 22
ROOT
ATOM      1  C   UNL     1      45.127 131.210  16.893  1.00  0.00     0.156 A 
ATOM      2  C   UNL     1      45.663 130.937  18.149  1.00  0.00     0.049 A 
ATOM      3  C   UNL     1      44.698 131.347  19.048  1.00  0.00     0.027 A 
ATOM      4  C   UNL     1      44.672 131.322  20.448  1.00  0.00     0.044 A 
ATOM      5  C   UNL     1      43.520 131.822  21.090  1.00  0.00     0.068 A 
ATOM      6  C   UNL     1      42.439 132.328  20.335  1.00  0.00     0.163 A 
ATOM      7  F   UNL     1      41.340 132.804  20.970  1.00  0.00    -0.204 F 
ATOM      8  C   UNL     1      42.496 132.338  18.929  1.00  0.00     0.182 A 
ATOM      9  F   UNL     1      41.465 132.821  18.193  1.00  0.00    -0.201 F 
ATOM     10  C   UNL     1      43.645 131.839  18.317  1.00  0.00     0.088 A 
ATOM     11  N   UNL     1      43.896 131.761  16.999  1.00  0.00    -0.344 N 
ATOM     12  H   UNL     1      43.265 132.064  16.224  1.00  0.00     0.167 HD
ENDROOT
BRANCH   1  13
ATOM     13  C   UNL     1      45.806 130.939  15.618  1.00  0.00     0.422 A 
ATOM     14  C   UNL     1      47.137 130.182  14.204  1.00  0.00     0.262 A 
ATOM     15  N   UNL     1      46.295 130.987  13.523  1.00  0.00     0.035 NA
ATOM     16  O   UNL     1      46.847 130.153  15.486  1.00  0.00    -0.381 OA
ATOM     17  N   UNL     1      45.454 131.458  14.428  1.00  0.00    -0.061 N 
ATOM     18  C   UNL     1      48.277 129.450  13.583  1.00  0.00     0.118 C 
ATOM     19  H   UNL     1      44.671 132.116  14.222  1.00  0.00     0.495 HD
ENDBRANCH   1  13
BRANCH   4  20
ATOM     20  N   UNL     1      45.769 130.809  21.212  1.00  0.00    -0.398 N 
ATOM     21  H   UNL     1      46.128 129.844  21.042  1.00  0.00     0.156 HD
ATOM     22  H   UNL     1      46.230 131.384  21.951  1.00  0.00     0.156 HD
ENDBRANCH   4  20
TORSDOF 2
ENDMDL
MODEL 5
REMARK VINA RESULT:      -8.3      3.205      6.204
REMARK SMILES Cc1n[nH+]c(-c2cc3c(N)cc(F)c(F)c3[nH]2)o1
REMARK SMILES IDX 6 1 7 2 8 3 9 4 11 5 12 6 13 7 14 8 15 9 16 10 17 11 5 13
REMARK SMILES IDX 2 14 3 15 18 16 4 17 1 18 10 20
REMARK H PARENT 17 12 4 19 10 21 10 22
ROOT
ATOM      1  C   UNL     1      44.156 131.399  18.150  1.00  0.00     0.156 A 
ATOM      2  C   UNL     1      43.463 131.730  16.989  1.00  0.00     0.049 A 
ATOM      3  C   UNL     1      44.281 131.323  15.953  1.00  0.00     0.027 A 
ATOM      4  C   UNL     1      44.116 131.394  14.564  1.00  0.00     0.044 A 
ATOM      5  C   UNL     1      45.151 130.882  13.756  1.00  0.00     0.068 A 
ATOM      6  C   UNL     1      46.308 130.321  14.340  1.00  0.00     0.163 A 
ATOM      7  F   UNL     1      47.293 129.833  13.546  1.00  0.00    -0.204 F 
ATOM      8  C   UNL     1      46.443 130.263  15.739  1.00  0.00     0.182 A 
ATOM      9  F   UNL     1      47.550 129.727  16.311  1.00  0.00    -0.201 F 
ATOM     10  C   UNL     1      45.407 130.776  16.518  1.00  0.00     0.088 A 
ATOM     11  N   UNL     1      45.343 130.817  17.860  1.00  0.00    -0.344 N 
ATOM     12  H   UNL     1      46.063 130.469  18.531  1.00  0.00     0.167 HD
ENDROOT
BRANCH   1  13
ATOM     13  C   UNL     1      43.668 131.648  19.515  1.00  0.00     0.422 A 
ATOM     14  C   UNL     1      43.516 131.653  21.593  1.00  0.00     0.262 A 
ATOM     15  N   UNL     1      42.450 132.348  21.144  1.00  0.00     0.035 NA
ATOM     16  O   UNL     1      44.261 131.217  20.602  1.00  0.00    -0.381 OA
ATOM     17  N   UNL     1      42.559 132.342  19.826  1.00  0.00    -0.061 N 
ATOM     18  C   UNL     1      43.788 131.382  23.033  1.00  0.00     0.118 C 
ATOM     19  H   UNL     1      41.885 132.800  19.175  1.00  0.00     0.495 HD
ENDBRANCH   1  13
BRANCH   4  20
ATOM     20  N   UNL     1      42.943 131.964  13.974  1.00  0.00    -0.398 N 
ATOM     21  H   UNL     1      42.014 131.502  14.091  1.00  0.00     0.156 HD
ATOM     22  H   UNL     1      42.989 132.845  13.418  1.00  0.00     0.156 HD
ENDBRANCH   4  20
TORSDOF 2
ENDMDL
MODEL 6
REMARK VINA RESULT:      -8.1      3.308      6.120
REMARK SMILES Cc1n[nH+]c(-c2cc3c(N)cc(F)c(F)c3[nH]2)o1
REMARK SMILES IDX 6 1 7 2 8 3 9 4 11 5 12 6 13 7 14 8 15 9 16 10 17 11 5 13
REMARK SMILES IDX 2 14 3 15 18 16 4 17 1 18 10 20
REMARK H PARENT 17 12 4 19 10 21 10 22
ROOT
ATOM      1  C   UNL     1      45.021 131.044  18.362  1.00  0.00     0.156 A 
ATOM      2  C   UNL     1      44.193 131.530  17.354  1.00  0.00     0.049 A 
ATOM      3  C   UNL     1      44.832 131.202  16.175  1.00  0.00     0.027 A 
ATOM      4  C   UNL     1      44.478 131.431  14.839  1.00  0.00     0.044 A 
ATOM      5  C   UNL     1      45.357 130.964  13.840  1.00  0.00     0.068 A 
ATOM      6  C   UNL     1      46.550 130.292  14.189  1.00  0.00     0.163 A 
ATOM      7  F   UNL     1      47.382 129.850  13.215  1.00  0.00    -0.204 F 
ATOM      8  C   UNL     1      46.876 130.077  15.540  1.00  0.00     0.182 A 
ATOM      9  F   UNL     1      48.018 129.433  15.888  1.00  0.00    -0.201 F 
ATOM     10  C   UNL     1      45.992 130.548  16.510  1.00  0.00     0.088 A 
ATOM     11  N   UNL     1      46.119 130.446  17.844  1.00  0.00    -0.344 N 
ATOM     12  H   UNL     1      46.904 129.995  18.365  1.00  0.00     0.167 HD
ENDROOT
BRANCH   1  13
ATOM     13  C   UNL     1      44.746 131.164  19.801  1.00  0.00     0.422 A 
ATOM     14  C   UNL     1      43.761 131.490  21.609  1.00  0.00     0.262 A 
ATOM     15  N   UNL     1      45.026 131.153  21.935  1.00  0.00     0.035 NA
ATOM     16  O   UNL     1      43.584 131.504  20.306  1.00  0.00    -0.381 OA
ATOM     17  N   UNL     1      45.640 130.946  20.782  1.00  0.00    -0.061 N 
ATOM     18  C   UNL     1      42.708 131.839  22.604  1.00  0.00     0.118 C 
ATOM     19  H   UNL     1      46.641 130.667  20.686  1.00  0.00     0.495 HD
ENDBRANCH   1  13
BRANCH   4  20
ATOM     20  N   UNL     1      43.269 132.112  14.487  1.00  0.00    -0.398 N 
ATOM     21  H   UNL     1      42.715 131.812  13.655  1.00  0.00     0.156 HD
ATOM     22  H   UNL     1      42.918 132.918  15.049  1.00  0.00     0.156 HD
ENDBRANCH   4  20
TORSDOF 2
ENDMDL
MODEL 7
REMARK VINA RESULT:      -7.8      3.434      6.680
REMARK SMILES Cc1n[nH+]c(-c2cc3c(N)cc(F)c(F)c3[nH]2)o1
REMARK SMILES IDX 6 1 7 2 8 3 9 4 11 5 12 6 13 7 14 8 15 9 16 10 17 11 5 13
REMARK SMILES IDX 2 14 3 15 18 16 4 17 1 18 10 20
REMARK H PARENT 17 12 4 19 10 21 10 22
ROOT
ATOM      1  C   UNL     1      43.999 131.518  18.281  1.00  0.00     0.156 A 
ATOM      2  C   UNL     1      45.191 130.813  18.140  1.00  0.00     0.049 A 
ATOM      3  C   UNL     1      45.410 130.747  16.778  1.00  0.00     0.027 A 
ATOM      4  C   UNL     1      46.446 130.164  16.037  1.00  0.00     0.044 A 
ATOM      5  C   UNL     1      46.384 130.268  14.632  1.00  0.00     0.068 A 
ATOM      6  C   UNL     1      45.309 130.939  14.008  1.00  0.00     0.163 A 
ATOM      7  F   UNL     1      45.268 131.029  12.656  1.00  0.00    -0.204 F 
ATOM      8  C   UNL     1      44.285 131.514  14.780  1.00  0.00     0.182 A 
ATOM      9  F   UNL     1      43.248 132.162  14.192  1.00  0.00    -0.201 F 
ATOM     10  C   UNL     1      44.367 131.398  16.167  1.00  0.00     0.088 A 
ATOM     11  N   UNL     1      43.498 131.874  17.076  1.00  0.00    -0.344 N 
ATOM     12  H   UNL     1      42.621 132.407  16.883  1.00  0.00     0.167 HD
ENDROOT
BRANCH   1  13
ATOM     13  C   UNL     1      43.364 131.835  19.568  1.00  0.00     0.422 A 
ATOM     14  C   UNL     1      42.944 131.894  21.609  1.00  0.00     0.262 A 
ATOM     15  N   UNL     1      42.013 132.673  21.019  1.00  0.00     0.035 NA
ATOM     16  O   UNL     1      43.769 131.374  20.727  1.00  0.00    -0.381 OA
ATOM     17  N   UNL     1      42.291 132.631  19.727  1.00  0.00    -0.061 N 
ATOM     18  C   UNL     1      43.002 131.628  23.074  1.00  0.00     0.118 C 
ATOM     19  H   UNL     1      41.752 133.134  18.989  1.00  0.00     0.495 HD
ENDBRANCH   1  13
BRANCH   4  20
ATOM     20  N   UNL     1      47.534 129.483  16.671  1.00  0.00    -0.398 N 
ATOM     21  H   UNL     1      47.935 129.843  17.565  1.00  0.00     0.156 HD
ATOM     22  H   UNL     1      47.949 128.620  16.257  1.00  0.00     0.156 HD
ENDBRANCH   4  20
TORSDOF 2
ENDMDL
MODEL 8
REMARK VINA RESULT:      -7.6      3.461      6.482
REMARK SMILES Cc1n[nH+]c(-c2cc3c(N)cc(F)c(F)c3[nH]2)o1
REMARK SMILES IDX 6 1 7 2 8 3 9 4 11 5 12 6 13 7 14 8 15 9 16 10 17 11 5 13
REMARK SMILES IDX 2 14 3 15 18 16 4 17 1 18 10 20
REMARK H PARENT 17 12 4 19 10 21 10 22
ROOT
ATOM      1  C   UNL     1      44.639 131.207  19.057  1.00  0.00     0.156 A 
ATOM      2  C   UNL     1      45.739 130.572  18.489  1.00  0.00     0.049 A 
ATOM      3  C   UNL     1      45.530 130.640  17.126  1.00  0.00     0.027 A 
ATOM      4  C   UNL     1      46.296 130.173  16.050  1.00  0.00     0.044 A 
ATOM      5  C   UNL     1      45.803 130.402  14.749  1.00  0.00     0.068 A 
ATOM      6  C   UNL     1      44.579 131.078  14.552  1.00  0.00     0.163 A 
ATOM      7  F   UNL     1      44.122 131.289  13.293  1.00  0.00    -0.204 F 
ATOM      8  C   UNL     1      43.833 131.535  15.654  1.00  0.00     0.182 A 
ATOM      9  F   UNL     1      42.657 132.186  15.478  1.00  0.00    -0.201 F 
ATOM     10  C   UNL     1      44.340 131.297  16.931  1.00  0.00     0.088 A 
ATOM     11  N   UNL     1      43.786 131.649  18.104  1.00  0.00    -0.344 N 
ATOM     12  H   UNL     1      42.884 132.158  18.241  1.00  0.00     0.167 HD
ENDROOT
BRANCH   1  13
ATOM     13  C   UNL     1      44.425 131.378  20.502  1.00  0.00     0.422 A 
ATOM     14  C   UNL     1      43.496 131.558  22.359  1.00  0.00     0.262 A 
ATOM     15  N   UNL     1      44.820 131.666  22.597  1.00  0.00     0.035 NA
ATOM     16  O   UNL     1      43.248 131.387  21.079  1.00  0.00    -0.381 OA
ATOM     17  N   UNL     1      45.398 131.547  21.414  1.00  0.00    -0.061 N 
ATOM     18  C   UNL     1      42.448 131.659  23.413  1.00  0.00     0.118 C 
ATOM     19  H   UNL     1      46.428 131.586  21.253  1.00  0.00     0.495 HD
ENDBRANCH   1  13
BRANCH   4  20
ATOM     20  N   UNL     1      47.536 129.487  16.251  1.00  0.00    -0.398 N 
ATOM     21  H   UNL     1      48.120 129.686  17.092  1.00  0.00     0.156 HD
ATOM     22  H   UNL     1      47.881 128.779  15.567  1.00  0.00     0.156 HD
ENDBRANCH   4  20
TORSDOF 2
ENDMDL
MODEL 9
REMARK VINA RESULT:      -7.6      3.264      6.539
REMARK SMILES Cc1n[nH+]c(-c2cc3c(N)cc(F)c(F)c3[nH]2)o1
REMARK SMILES IDX 6 1 7 2 8 3 9 4 11 5 12 6 13 7 14 8 15 9 16 10 17 11 5 13
REMARK SMILES IDX 2 14 3 15 18 16 4 17 1 18 10 20
REMARK H PARENT 17 12 4 19 10 21 10 22
ROOT
ATOM      1  C   UNL     1      44.326 131.518  17.753  1.00  0.00     0.156 A 
ATOM      2  C   UNL     1      44.440 130.232  17.234  1.00  0.00     0.049 A 
ATOM      3  C   UNL     1      45.276 130.357  16.141  1.00  0.00     0.027 A 
ATOM      4  C   UNL     1      45.752 129.407  15.229  1.00  0.00     0.044 A 
ATOM      5  C   UNL     1      46.607 129.857  14.202  1.00  0.00     0.068 A 
ATOM      6  C   UNL     1      46.962 131.221  14.108  1.00  0.00     0.163 A 
ATOM      7  F   UNL     1      47.786 131.634  13.114  1.00  0.00    -0.204 F 
ATOM      8  C   UNL     1      46.468 132.151  15.040  1.00  0.00     0.182 A 
ATOM      9  F   UNL     1      46.802 133.462  14.961  1.00  0.00    -0.201 F 
ATOM     10  C   UNL     1      45.623 131.683  16.047  1.00  0.00     0.088 A 
ATOM     11  N   UNL     1      45.049 132.403  17.026  1.00  0.00    -0.344 N 
ATOM     12  H   UNL     1      45.147 133.430  17.186  1.00  0.00     0.167 HD
ENDROOT
BRANCH   1  13
ATOM     13  C   UNL     1      43.526 131.876  18.933  1.00  0.00     0.422 A 
ATOM     14  C   UNL     1      42.868 132.040  20.903  1.00  0.00     0.262 A 
ATOM     15  N   UNL     1      41.968 132.714  20.157  1.00  0.00     0.035 NA
ATOM     16  O   UNL     1      43.820 131.521  20.161  1.00  0.00    -0.381 OA
ATOM     17  N   UNL     1      42.398 132.606  18.911  1.00  0.00    -0.061 N 
ATOM     18  C   UNL     1      42.769 131.876  22.381  1.00  0.00     0.118 C 
ATOM     19  H   UNL     1      41.919 133.023  18.083  1.00  0.00     0.495 HD
ENDBRANCH   1  13
BRANCH   4  20
ATOM     20  N   UNL     1      45.390 128.025  15.325  1.00  0.00    -0.398 N 
ATOM     21  H   UNL     1      44.746 127.597  14.624  1.00  0.00     0.156 HD
ATOM     22  H   UNL     1      45.758 127.420  16.091  1.00  0.00     0.156 HD
ENDBRANCH   4  20
TORSDOF 2
ENDMDL


