MODEL 1
REMARK VINA RESULT:      -8.5      0.000      0.000
REMARK SMILES Cc1ccc(-c2ccc(N)c(C=O)c2)c2c[nH]nc12
REMARK SMILES IDX 6 1 7 2 8 3 9 4 11 5 14 6 5 7 2 8 3 9 19 10 4 11 18 12 15 13
REMARK SMILES IDX 17 14 16 15 1 16 12 18 13 19 10 20
REMARK H PARENT 17 17 10 21 10 22
ROOT
ATOM      1  C   UNL     1      45.607 131.225  17.056  1.00  0.00    -0.017 A 
ATOM      2  C   UNL     1      45.531 132.392  16.284  1.00  0.00     0.011 A 
ATOM      3  C   UNL     1      46.017 132.406  14.977  1.00  0.00     0.027 A 
ATOM      4  C   UNL     1      46.587 131.257  14.410  1.00  0.00     0.042 A 
ATOM      5  C   UNL     1      46.699 130.078  15.192  1.00  0.00     0.038 A 
ATOM      6  C   UNL     1      46.182 130.073  16.499  1.00  0.00     0.022 A 
ENDROOT
BRANCH   1   7
ATOM      7  C   UNL     1      45.073 131.210  18.437  1.00  0.00    -0.007 A 
ATOM      8  C   UNL     1      44.053 131.193  21.108  1.00  0.00    -0.023 A 
ATOM      9  C   UNL     1      45.337 130.681  20.824  1.00  0.00     0.006 A 
ATOM     10  C   UNL     1      43.304 131.678  20.033  1.00  0.00     0.096 A 
ATOM     11  C   UNL     1      45.843 130.691  19.505  1.00  0.00     0.010 A 
ATOM     12  N   UNL     1      42.046 132.157  20.056  1.00  0.00    -0.175 NA
ATOM     13  C   UNL     1      43.795 131.691  18.753  1.00  0.00     0.028 A 
ATOM     14  N   UNL     1      41.735 132.469  18.805  1.00  0.00    -0.284 N 
ATOM     15  C   UNL     1      42.770 132.195  17.980  1.00  0.00     0.114 A 
ATOM     16  C   UNL     1      43.488 131.144  22.496  1.00  0.00     0.047 C 
ATOM     17  H   UNL     1      40.812 132.860  18.512  1.00  0.00     0.189 HD
ENDBRANCH   1   7
BRANCH   5  18
ATOM     18  C   UNL     1      47.367 128.846  14.718  1.00  0.00     0.262 C 
ATOM     19  O   UNL     1      48.302 128.883  13.875  1.00  0.00    -0.298 OA
ENDBRANCH   5  18
BRANCH   4  20
ATOM     20  N   UNL     1      46.982 131.298  13.032  1.00  0.00    -0.398 N 
ATOM     21  H   UNL     1      47.671 130.605  12.661  1.00  0.00     0.156 HD
ATOM     22  H   UNL     1      46.732 132.094  12.408  1.00  0.00     0.156 HD
ENDBRANCH   4  20
TORSDOF 3
ENDMDL
MODEL 2
REMARK VINA RESULT:      -8.4      2.695      6.399
REMARK SMILES Cc1ccc(-c2ccc(N)c(C=O)c2)c2c[nH]nc12
REMARK SMILES IDX 6 1 7 2 8 3 9 4 11 5 14 6 5 7 2 8 3 9 19 10 4 11 18 12 15 13
REMARK SMILES IDX 17 14 16 15 1 16 12 18 13 19 10 20
REMARK H PARENT 17 17 10 21 10 22
ROOT
ATOM      1  C   UNL     1      44.402 131.639  17.879  1.00  0.00    -0.017 A 
ATOM      2  C   UNL     1      43.030 131.907  17.793  1.00  0.00     0.011 A 
ATOM      3  C   UNL     1      42.266 132.056  18.950  1.00  0.00     0.027 A 
ATOM      4  C   UNL     1      42.854 131.943  20.218  1.00  0.00     0.042 A 
ATOM      5  C   UNL     1      44.237 131.640  20.319  1.00  0.00     0.038 A 
ATOM      6  C   UNL     1      44.998 131.518  19.144  1.00  0.00     0.022 A 
ENDROOT
BRANCH   1   7
ATOM      7  C   UNL     1      45.213 131.501  16.647  1.00  0.00    -0.007 A 
ATOM      8  C   UNL     1      46.793 131.237  14.279  1.00  0.00    -0.023 A 
ATOM      9  C   UNL     1      46.567 132.504  14.858  1.00  0.00     0.006 A 
ATOM     10  C   UNL     1      46.194 130.136  14.895  1.00  0.00     0.096 A 
ATOM     11  C   UNL     1      45.789 132.635  16.029  1.00  0.00     0.010 A 
ATOM     12  N   UNL     1      46.223 128.852  14.494  1.00  0.00    -0.175 NA
ATOM     13  C   UNL     1      45.441 130.261  16.033  1.00  0.00     0.028 A 
ATOM     14  N   UNL     1      45.494 128.164  15.363  1.00  0.00    -0.284 N 
ATOM     15  C   UNL     1      44.995 128.987  16.312  1.00  0.00     0.114 A 
ATOM     16  C   UNL     1      47.578 131.092  13.009  1.00  0.00     0.047 C 
ATOM     17  H   UNL     1      45.328 127.135  15.302  1.00  0.00     0.189 HD
ENDBRANCH   1   7
BRANCH   5  18
ATOM     18  C   UNL     1      44.928 131.409  21.606  1.00  0.00     0.262 C 
ATOM     19  O   UNL     1      44.308 131.020  22.630  1.00  0.00    -0.298 OA
ENDBRANCH   5  18
BRANCH   4  20
ATOM     20  N   UNL     1      42.044 132.200  21.373  1.00  0.00    -0.398 N 
ATOM     21  H   UNL     1      41.838 133.182  21.664  1.00  0.00     0.156 HD
ATOM     22  H   UNL     1      41.774 131.445  22.039  1.00  0.00     0.156 HD
ENDBRANCH   4  20
TORSDOF 3
ENDMDL
MODEL 3
REMARK VINA RESULT:      -8.0      1.690      2.134
REMARK SMILES Cc1ccc(-c2ccc(N)c(C=O)c2)c2c[nH]nc12
REMARK SMILES IDX 6 1 7 2 8 3 9 4 11 5 14 6 5 7 2 8 3 9 19 10 4 11 18 12 15 13
REMARK SMILES IDX 17 14 16 15 1 16 12 18 13 19 10 20
REMARK H PARENT 17 17 10 21 10 22
ROOT
ATOM      1  C   UNL     1      45.233 130.862  17.432  1.00  0.00    -0.017 A 
ATOM      2  C   UNL     1      46.406 130.140  17.177  1.00  0.00     0.011 A 
ATOM      3  C   UNL     1      46.847 129.949  15.868  1.00  0.00     0.027 A 
ATOM      4  C   UNL     1      46.130 130.477  14.784  1.00  0.00     0.042 A 
ATOM      5  C   UNL     1      44.923 131.183  15.027  1.00  0.00     0.038 A 
ATOM      6  C   UNL     1      44.506 131.388  16.353  1.00  0.00     0.022 A 
ENDROOT
BRANCH   1   7
ATOM      7  C   UNL     1      44.779 131.078  18.825  1.00  0.00    -0.007 A 
ATOM      8  C   UNL     1      43.915 131.507  21.517  1.00  0.00    -0.023 A 
ATOM      9  C   UNL     1      45.107 130.802  21.246  1.00  0.00     0.006 A 
ATOM     10  C   UNL     1      43.174 131.957  20.421  1.00  0.00     0.096 A 
ATOM     11  C   UNL     1      45.536 130.592  19.916  1.00  0.00     0.010 A 
ATOM     12  N   UNL     1      41.990 132.596  20.435  1.00  0.00    -0.175 NA
ATOM     13  C   UNL     1      43.591 131.756  19.131  1.00  0.00     0.028 A 
ATOM     14  N   UNL     1      41.650 132.798  19.169  1.00  0.00    -0.284 N 
ATOM     15  C   UNL     1      42.596 132.296  18.343  1.00  0.00     0.114 A 
ATOM     16  C   UNL     1      43.426 131.695  22.922  1.00  0.00     0.047 C 
ATOM     17  H   UNL     1      40.769 133.269  18.867  1.00  0.00     0.189 HD
ENDBRANCH   1   7
BRANCH   5  18
ATOM     18  C   UNL     1      44.048 131.695  13.950  1.00  0.00     0.262 C 
ATOM     19  O   UNL     1      42.795 131.715  14.067  1.00  0.00    -0.298 OA
ENDBRANCH   5  18
BRANCH   4  20
ATOM     20  N   UNL     1      46.678 130.335  13.467  1.00  0.00    -0.398 N 
ATOM     21  H   UNL     1      46.069 130.032  12.674  1.00  0.00     0.156 HD
ATOM     22  H   UNL     1      47.704 130.367  13.287  1.00  0.00     0.156 HD
ENDBRANCH   4  20
TORSDOF 3
ENDMDL
MODEL 4
REMARK VINA RESULT:      -7.6      1.691      2.802
REMARK SMILES Cc1ccc(-c2ccc(N)c(C=O)c2)c2c[nH]nc12
REMARK SMILES IDX 6 1 7 2 8 3 9 4 11 5 14 6 5 7 2 8 3 9 19 10 4 11 18 12 15 13
REMARK SMILES IDX 17 14 16 15 1 16 12 18 13 19 10 20
REMARK H PARENT 17 17 10 21 10 22
ROOT
ATOM      1  C   UNL     1      45.153 130.686  16.664  1.00  0.00    -0.017 A 
ATOM      2  C   UNL     1      45.276 129.296  16.552  1.00  0.00     0.011 A 
ATOM      3  C   UNL     1      46.127 128.736  15.600  1.00  0.00     0.027 A 
ATOM      4  C   UNL     1      46.877 129.552  14.739  1.00  0.00     0.042 A 
ATOM      5  C   UNL     1      46.737 130.962  14.821  1.00  0.00     0.038 A 
ATOM      6  C   UNL     1      45.894 131.510  15.803  1.00  0.00     0.022 A 
ENDROOT
BRANCH   1   7
ATOM      7  C   UNL     1      44.262 131.276  17.690  1.00  0.00    -0.007 A 
ATOM      8  C   UNL     1      42.532 132.399  19.670  1.00  0.00    -0.023 A 
ATOM      9  C   UNL     1      42.137 132.341  18.317  1.00  0.00     0.006 A 
ATOM     10  C   UNL     1      43.802 131.910  19.988  1.00  0.00     0.096 A 
ATOM     11  C   UNL     1      42.991 131.784  17.338  1.00  0.00     0.010 A 
ATOM     12  N   UNL     1      44.407 131.914  21.190  1.00  0.00    -0.175 NA
ATOM     13  C   UNL     1      44.629 131.368  19.040  1.00  0.00     0.028 A 
ATOM     14  N   UNL     1      45.610 131.382  21.012  1.00  0.00    -0.284 N 
ATOM     15  C   UNL     1      45.787 131.042  19.716  1.00  0.00     0.114 A 
ATOM     16  C   UNL     1      41.654 133.030  20.709  1.00  0.00     0.047 C 
ATOM     17  H   UNL     1      46.314 131.261  21.774  1.00  0.00     0.189 HD
ENDBRANCH   1   7
BRANCH   5  18
ATOM     18  C   UNL     1      47.410 131.902  13.898  1.00  0.00     0.262 C 
ATOM     19  O   UNL     1      47.906 131.517  12.807  1.00  0.00    -0.298 OA
ENDBRANCH   5  18
BRANCH   4  20
ATOM     20  N   UNL     1      47.808 128.929  13.844  1.00  0.00    -0.398 N 
ATOM     21  H   UNL     1      47.493 128.163  13.207  1.00  0.00     0.156 HD
ATOM     22  H   UNL     1      48.834 129.096  13.908  1.00  0.00     0.156 HD
ENDBRANCH   4  20
TORSDOF 3
ENDMDL
MODEL 5
REMARK VINA RESULT:      -7.5      2.928      6.585
REMARK SMILES Cc1ccc(-c2ccc(N)c(C=O)c2)c2c[nH]nc12
REMARK SMILES IDX 6 1 7 2 8 3 9 4 11 5 14 6 5 7 2 8 3 9 19 10 4 11 18 12 15 13
REMARK SMILES IDX 17 14 16 15 1 16 12 18 13 19 10 20
REMARK H PARENT 17 17 10 21 10 22
ROOT
ATOM      1  C   UNL     1      44.752 131.465  18.215  1.00  0.00    -0.017 A 
ATOM      2  C   UNL     1      45.429 130.999  19.349  1.00  0.00     0.011 A 
ATOM      3  C   UNL     1      44.822 131.048  20.604  1.00  0.00     0.027 A 
ATOM      4  C   UNL     1      43.525 131.561  20.755  1.00  0.00     0.042 A 
ATOM      5  C   UNL     1      42.841 132.066  19.618  1.00  0.00     0.038 A 
ATOM      6  C   UNL     1      43.457 131.986  18.358  1.00  0.00     0.022 A 
ENDROOT
BRANCH   1   7
ATOM      7  C   UNL     1      45.394 131.393  16.882  1.00  0.00    -0.007 A 
ATOM      8  C   UNL     1      46.649 131.257  14.317  1.00  0.00    -0.023 A 
ATOM      9  C   UNL     1      46.513 132.490  14.988  1.00  0.00     0.006 A 
ATOM     10  C   UNL     1      46.125 130.124  14.945  1.00  0.00     0.096 A 
ATOM     11  C   UNL     1      45.895 132.558  16.257  1.00  0.00     0.010 A 
ATOM     12  N   UNL     1      46.089 128.864  14.474  1.00  0.00    -0.175 NA
ATOM     13  C   UNL     1      45.528 130.189  16.177  1.00  0.00     0.028 A 
ATOM     14  N   UNL     1      45.473 128.132  15.392  1.00  0.00    -0.284 N 
ATOM     15  C   UNL     1      45.110 128.901  16.442  1.00  0.00     0.114 A 
ATOM     16  C   UNL     1      47.260 131.180  12.950  1.00  0.00     0.047 C 
ATOM     17  H   UNL     1      45.290 127.108  15.298  1.00  0.00     0.189 HD
ENDBRANCH   1   7
BRANCH   5  18
ATOM     18  C   UNL     1      41.512 132.712  19.689  1.00  0.00     0.262 C 
ATOM     19  O   UNL     1      41.164 133.404  20.681  1.00  0.00    -0.298 OA
ENDBRANCH   5  18
BRANCH   4  20
ATOM     20  N   UNL     1      42.912 131.500  22.049  1.00  0.00    -0.398 N 
ATOM     21  H   UNL     1      43.441 131.805  22.897  1.00  0.00     0.156 HD
ATOM     22  H   UNL     1      42.005 131.012  22.210  1.00  0.00     0.156 HD
ENDBRANCH   4  20
TORSDOF 3
ENDMDL
MODEL 6
REMARK VINA RESULT:      -7.2      2.884      6.248
REMARK SMILES Cc1ccc(-c2ccc(N)c(C=O)c2)c2c[nH]nc12
REMARK SMILES IDX 6 1 7 2 8 3 9 4 11 5 14 6 5 7 2 8 3 9 19 10 4 11 18 12 15 13
REMARK SMILES IDX 17 14 16 15 1 16 12 18 13 19 10 20
REMARK H PARENT 17 17 10 21 10 22
ROOT
ATOM      1  C   UNL     1      44.044 131.386  18.408  1.00  0.00    -0.017 A 
ATOM      2  C   UNL     1      42.770 131.924  18.188  1.00  0.00     0.011 A 
ATOM      3  C   UNL     1      41.985 132.343  19.262  1.00  0.00     0.027 A 
ATOM      4  C   UNL     1      42.455 132.235  20.579  1.00  0.00     0.042 A 
ATOM      5  C   UNL     1      43.731 131.661  20.818  1.00  0.00     0.038 A 
ATOM      6  C   UNL     1      44.519 131.268  19.723  1.00  0.00     0.022 A 
ENDROOT
BRANCH   1   7
ATOM      7  C   UNL     1      44.881 130.960  17.262  1.00  0.00    -0.007 A 
ATOM      8  C   UNL     1      46.493 130.122  15.054  1.00  0.00    -0.023 A 
ATOM      9  C   UNL     1      46.925 129.916  16.382  1.00  0.00     0.006 A 
ATOM     10  C   UNL     1      45.268 130.769  14.872  1.00  0.00     0.096 A 
ATOM     11  C   UNL     1      46.129 130.328  17.473  1.00  0.00     0.010 A 
ATOM     12  N   UNL     1      44.687 131.119  13.710  1.00  0.00    -0.175 NA
ATOM     13  C   UNL     1      44.493 131.166  15.931  1.00  0.00     0.028 A 
ATOM     14  N   UNL     1      43.555 131.737  14.022  1.00  0.00    -0.284 N 
ATOM     15  C   UNL     1      43.402 131.792  15.364  1.00  0.00     0.114 A 
ATOM     16  C   UNL     1      47.352 129.731  13.889  1.00  0.00     0.047 C 
ATOM     17  H   UNL     1      42.890 132.130  13.319  1.00  0.00     0.189 HD
ENDBRANCH   1   7
BRANCH   5  18
ATOM     18  C   UNL     1      44.275 131.419  22.172  1.00  0.00     0.262 C 
ATOM     19  O   UNL     1      43.524 131.307  23.176  1.00  0.00    -0.298 OA
ENDBRANCH   5  18
BRANCH   4  20
ATOM     20  N   UNL     1      41.649 132.768  21.638  1.00  0.00    -0.398 N 
ATOM     21  H   UNL     1      40.925 132.173  22.099  1.00  0.00     0.156 HD
ATOM     22  H   UNL     1      41.641 133.784  21.871  1.00  0.00     0.156 HD
ENDBRANCH   4  20
TORSDOF 3
ENDMDL
MODEL 7
REMARK VINA RESULT:      -7.0      2.979      6.337
REMARK SMILES Cc1ccc(-c2ccc(N)c(C=O)c2)c2c[nH]nc12
REMARK SMILES IDX 6 1 7 2 8 3 9 4 11 5 14 6 5 7 2 8 3 9 19 10 4 11 18 12 15 13
REMARK SMILES IDX 17 14 16 15 1 16 12 18 13 19 10 20
REMARK H PARENT 17 17 10 21 10 22
ROOT
ATOM      1  C   UNL     1      44.679 131.110  18.649  1.00  0.00    -0.017 A 
ATOM      2  C   UNL     1      45.296 130.731  19.849  1.00  0.00     0.011 A 
ATOM      3  C   UNL     1      44.685 131.003  21.073  1.00  0.00     0.027 A 
ATOM      4  C   UNL     1      43.445 131.655  21.128  1.00  0.00     0.042 A 
ATOM      5  C   UNL     1      42.825 132.073  19.921  1.00  0.00     0.038 A 
ATOM      6  C   UNL     1      43.441 131.769  18.695  1.00  0.00     0.022 A 
ENDROOT
BRANCH   1   7
ATOM      7  C   UNL     1      45.322 130.803  17.351  1.00  0.00    -0.007 A 
ATOM      8  C   UNL     1      46.561 130.192  14.847  1.00  0.00    -0.023 A 
ATOM      9  C   UNL     1      47.202 129.879  16.064  1.00  0.00     0.006 A 
ATOM     10  C   UNL     1      45.320 130.829  14.923  1.00  0.00     0.096 A 
ATOM     11  C   UNL     1      46.590 130.178  17.302  1.00  0.00     0.010 A 
ATOM     12  N   UNL     1      44.557 131.269  13.905  1.00  0.00    -0.175 NA
ATOM     13  C   UNL     1      44.724 131.118  16.123  1.00  0.00     0.028 A 
ATOM     14  N   UNL     1      43.487 131.836  14.448  1.00  0.00    -0.284 N 
ATOM     15  C   UNL     1      43.553 131.770  15.796  1.00  0.00     0.114 A 
ATOM     16  C   UNL     1      47.222 129.922  13.529  1.00  0.00     0.047 C 
ATOM     17  H   UNL     1      42.717 132.277  13.898  1.00  0.00     0.189 HD
ENDBRANCH   1   7
BRANCH   5  18
ATOM     18  C   UNL     1      41.566 132.849  19.879  1.00  0.00     0.262 C 
ATOM     19  O   UNL     1      41.147 133.485  20.880  1.00  0.00    -0.298 OA
ENDBRANCH   5  18
BRANCH   4  20
ATOM     20  N   UNL     1      42.817 131.824  22.406  1.00  0.00    -0.398 N 
ATOM     21  H   UNL     1      42.950 132.709  22.945  1.00  0.00     0.156 HD
ATOM     22  H   UNL     1      42.354 131.034  22.904  1.00  0.00     0.156 HD
ENDBRANCH   4  20
TORSDOF 3
ENDMDL
MODEL 8
REMARK VINA RESULT:      -6.7      1.649      2.334
REMARK SMILES Cc1ccc(-c2ccc(N)c(C=O)c2)c2c[nH]nc12
REMARK SMILES IDX 6 1 7 2 8 3 9 4 11 5 14 6 5 7 2 8 3 9 19 10 4 11 18 12 15 13
REMARK SMILES IDX 17 14 16 15 1 16 12 18 13 19 10 20
REMARK H PARENT 17 17 10 21 10 22
ROOT
ATOM      1  C   UNL     1      44.495 131.373  16.915  1.00  0.00    -0.017 A 
ATOM      2  C   UNL     1      43.845 131.901  15.792  1.00  0.00     0.011 A 
ATOM      3  C   UNL     1      44.378 131.715  14.516  1.00  0.00     0.027 A 
ATOM      4  C   UNL     1      45.568 130.996  14.333  1.00  0.00     0.042 A 
ATOM      5  C   UNL     1      46.253 130.484  15.466  1.00  0.00     0.038 A 
ATOM      6  C   UNL     1      45.690 130.659  16.741  1.00  0.00     0.022 A 
ENDROOT
BRANCH   1   7
ATOM      7  C   UNL     1      43.915 131.557  18.265  1.00  0.00    -0.007 A 
ATOM      8  C   UNL     1      42.787 131.898  20.871  1.00  0.00    -0.023 A 
ATOM      9  C   UNL     1      42.035 132.197  19.715  1.00  0.00     0.006 A 
ATOM     10  C   UNL     1      44.100 131.457  20.685  1.00  0.00     0.096 A 
ATOM     11  C   UNL     1      42.591 132.027  18.427  1.00  0.00     0.010 A 
ATOM     12  N   UNL     1      45.013 131.169  21.631  1.00  0.00    -0.175 NA
ATOM     13  C   UNL     1      44.639 131.289  19.436  1.00  0.00     0.028 A 
ATOM     14  N   UNL     1      46.125 130.825  20.994  1.00  0.00    -0.284 N 
ATOM     15  C   UNL     1      45.941 130.890  19.657  1.00  0.00     0.114 A 
ATOM     16  C   UNL     1      42.223 132.119  22.242  1.00  0.00     0.047 C 
ATOM     17  H   UNL     1      47.013 130.554  21.473  1.00  0.00     0.189 HD
ENDBRANCH   1   7
BRANCH   5  18
ATOM     18  C   UNL     1      47.560 129.796  15.384  1.00  0.00     0.262 C 
ATOM     19  O   UNL     1      47.947 129.234  14.327  1.00  0.00    -0.298 OA
ENDBRANCH   5  18
BRANCH   4  20
ATOM     20  N   UNL     1      46.020 130.752  12.994  1.00  0.00    -0.398 N 
ATOM     21  H   UNL     1      46.849 130.141  12.822  1.00  0.00     0.156 HD
ATOM     22  H   UNL     1      45.653 131.289  12.179  1.00  0.00     0.156 HD
ENDBRANCH   4  20
TORSDOF 3
ENDMDL
MODEL 9
REMARK VINA RESULT:      -6.5      2.292      3.112
REMARK SMILES Cc1ccc(-c2ccc(N)c(C=O)c2)c2c[nH]nc12
REMARK SMILES IDX 6 1 7 2 8 3 9 4 11 5 14 6 5 7 2 8 3 9 19 10 4 11 18 12 15 13
REMARK SMILES IDX 17 14 16 15 1 16 12 18 13 19 10 20
REMARK H PARENT 17 17 10 21 10 22
ROOT
ATOM      1  C   UNL     1      44.600 131.120  17.412  1.00  0.00    -0.017 A 
ATOM      2  C   UNL     1      45.840 130.468  17.414  1.00  0.00     0.011 A 
ATOM      3  C   UNL     1      46.484 130.171  16.213  1.00  0.00     0.027 A 
ATOM      4  C   UNL     1      45.907 130.520  14.984  1.00  0.00     0.042 A 
ATOM      5  C   UNL     1      44.636 131.152  14.966  1.00  0.00     0.038 A 
ATOM      6  C   UNL     1      44.012 131.466  16.185  1.00  0.00     0.022 A 
ENDROOT
BRANCH   1   7
ATOM      7  C   UNL     1      43.929 131.449  18.690  1.00  0.00    -0.007 A 
ATOM      8  C   UNL     1      42.620 132.074  21.154  1.00  0.00    -0.023 A 
ATOM      9  C   UNL     1      42.074 132.491  19.922  1.00  0.00     0.006 A 
ATOM     10  C   UNL     1      43.828 131.373  21.115  1.00  0.00     0.096 A 
ATOM     11  C   UNL     1      42.718 132.181  18.704  1.00  0.00     0.010 A 
ATOM     12  N   UNL     1      44.556 130.929  22.156  1.00  0.00    -0.175 NA
ATOM     13  C   UNL     1      44.453 131.069  19.933  1.00  0.00     0.028 A 
ATOM     14  N   UNL     1      45.637 130.351  21.647  1.00  0.00    -0.284 N 
ATOM     15  C   UNL     1      45.615 130.421  20.297  1.00  0.00     0.114 A 
ATOM     16  C   UNL     1      41.969 132.438  22.455  1.00  0.00     0.047 C 
ATOM     17  H   UNL     1      46.394 129.919  22.220  1.00  0.00     0.189 HD
ENDBRANCH   1   7
BRANCH   5  18
ATOM     18  C   UNL     1      43.904 131.473  13.722  1.00  0.00     0.262 C 
ATOM     19  O   UNL     1      42.683 131.779  13.732  1.00  0.00    -0.298 OA
ENDBRANCH   5  18
BRANCH   4  20
ATOM     20  N   UNL     1      46.655 130.279  13.784  1.00  0.00    -0.398 N 
ATOM     21  H   UNL     1      46.159 130.101  12.882  1.00  0.00     0.156 HD
ATOM     22  H   UNL     1      47.684 130.114  13.797  1.00  0.00     0.156 HD
ENDBRANCH   4  20
TORSDOF 3
ENDMDL


