REMARK SMILES C=Cc1ccc(-c2cccc3cnoc23)nc1
REMARK SMILES IDX 3 1 4 2 5 3 6 4 16 5 17 6 2 7 1 8 7 9 8 10 15 11 9 12 14 13
REMARK SMILES IDX 11 14 10 15 13 16 12 17
REMARK H PARENT
ROOT
ATOM      1  C   UNL     1      -1.386   1.722  -1.427  1.00  0.00    -0.008 A 
ATOM      2  C   UNL     1      -1.674   1.298  -0.123  1.00  0.00     0.012 A 
ATOM      3  C   UNL     1      -0.857   0.368   0.522  1.00  0.00     0.030 A 
ATOM      4  C   UNL     1       0.270  -0.152  -0.142  1.00  0.00     0.074 A 
ATOM      5  N   UNL     1       0.527   0.278  -1.410  1.00  0.00    -0.255 NA
ATOM      6  C   UNL     1      -0.252   1.182  -2.059  1.00  0.00     0.119 A 
ENDROOT
BRANCH   1   7
ATOM      7  C   UNL     1      -2.288   2.715  -2.068  1.00  0.00     0.002 C 
ATOM      8  C   UNL     1      -2.133   3.203  -3.300  1.00  0.00     0.009 C 
ENDBRANCH   1   7
BRANCH   4   9
ATOM      9  C   UNL     1       1.191  -1.151   0.485  1.00  0.00     0.046 A 
ATOM     10  C   UNL     1       1.009  -1.660   1.801  1.00  0.00     0.014 A 
ATOM     11  C   UNL     1       2.306  -1.645  -0.215  1.00  0.00     0.176 A 
ATOM     12  C   UNL     1       1.908  -2.604   2.350  1.00  0.00     0.002 A 
ATOM     13  O   UNL     1       2.715  -1.357  -1.428  1.00  0.00    -0.356 OA
ATOM     14  C   UNL     1       3.166  -2.557   0.326  1.00  0.00     0.042 A 
ATOM     15  C   UNL     1       3.006  -3.065   1.607  1.00  0.00     0.014 A 
ATOM     16  N   UNL     1       3.799  -2.029  -1.718  1.00  0.00    -0.087 NA
ATOM     17  C   UNL     1       4.111  -2.791  -0.643  1.00  0.00     0.166 A 
ENDBRANCH   4   9
TORSDOF 2


