REMARK SMILES Cc1cc(-c2cccc3[nH+]coc23)cc(OC(=S)Nc2ccc(-n3ccc[nH+]3)cc2)c1F
REMARK SMILES IDX 17 1 18 2 19 3 16 5 15 6 2 7 3 8 31 9 4 10 14 11 1 12 32 13
REMARK SMILES IDX 5 14 6 15 13 16 7 17 12 18 9 19 8 20 11 21 10 22 20 24 21 25
REMARK SMILES IDX 30 26 22 27 29 28 23 29 24 30 25 31 28 32 26 33 27 34
REMARK H PARENT 19 4 10 23 28 35
ROOT
ATOM      1  C   UNL     1       0.677   3.834   1.228  1.00  0.00     0.266 C 
ATOM      2  S   UNL     1       0.900   5.374   1.728  1.00  0.00    -0.018 S 
ATOM      3  N   UNL     1       1.830   3.028   0.919  1.00  0.00    -0.316 N 
ATOM      4  H   UNL     1       2.699   3.521   0.609  1.00  0.00     0.171 HD
ENDROOT
BRANCH   1   5
ATOM      5  O   UNL     1      -0.641   3.353   1.137  1.00  0.00    -0.429 OA
BRANCH   5   6
ATOM      6  C   UNL     1      -1.079   2.315   0.302  1.00  0.00     0.166 A 
ATOM      7  C   UNL     1      -2.523   0.383  -0.014  1.00  0.00    -0.011 A 
ATOM      8  C   UNL     1      -1.844   0.078  -1.203  1.00  0.00     0.015 A 
ATOM      9  C   UNL     1      -2.127   1.498   0.742  1.00  0.00     0.168 A 
ATOM     10  C   UNL     1      -0.818   0.913  -1.674  1.00  0.00    -0.010 A 
ATOM     11  C   UNL     1      -0.478   2.061  -0.941  1.00  0.00     0.059 A 
ATOM     12  C   UNL     1      -3.594  -0.538   0.497  1.00  0.00     0.048 C 
ATOM     13  F   UNL     1      -2.719   1.759   1.936  1.00  0.00    -0.203 F 
BRANCH  10  14
ATOM     14  C   UNL     1      -0.049   0.551  -2.886  1.00  0.00     0.032 A 
ATOM     15  C   UNL     1       0.304   1.518  -3.857  1.00  0.00     0.013 A 
ATOM     16  C   UNL     1       0.409  -0.755  -3.099  1.00  0.00     0.212 A 
ATOM     17  C   UNL     1       1.074   1.159  -4.987  1.00  0.00     0.008 A 
ATOM     18  O   UNL     1       0.255  -1.820  -2.349  1.00  0.00    -0.403 OA
ATOM     19  C   UNL     1       1.153  -1.095  -4.190  1.00  0.00     0.249 A 
ATOM     20  C   UNL     1       1.510  -0.167  -5.163  1.00  0.00     0.083 A 
ATOM     21  C   UNL     1       0.889  -2.804  -2.966  1.00  0.00     0.521 A 
ATOM     22  N   UNL     1       1.467  -2.396  -4.122  1.00  0.00    -0.176 N 
ATOM     23  H   UNL     1       2.030  -2.963  -4.794  1.00  0.00     0.457 HD
ENDBRANCH  10  14
ENDBRANCH   5   6
ENDBRANCH   1   5
BRANCH   3  24
ATOM     24  C   UNL     1       1.851   1.592   0.944  1.00  0.00     0.042 A 
ATOM     25  C   UNL     1       1.115   0.869   1.895  1.00  0.00     0.028 A 
ATOM     26  C   UNL     1       2.572   0.899  -0.037  1.00  0.00     0.028 A 
ATOM     27  C   UNL     1       1.032  -0.524   1.811  1.00  0.00     0.034 A 
ATOM     28  C   UNL     1       2.496  -0.494  -0.119  1.00  0.00     0.034 A 
ATOM     29  C   UNL     1       1.707  -1.218   0.791  1.00  0.00     0.104 A 
BRANCH  29  30
ATOM     30  N   UNL     1       1.570  -2.645   0.661  1.00  0.00    -0.130 N 
ATOM     31  C   UNL     1       0.489  -3.379   0.997  1.00  0.00     0.163 A 
ATOM     32  N   UNL     1       2.490  -3.451   0.153  1.00  0.00    -0.126 N 
ATOM     33  C   UNL     1       0.740  -4.702   0.690  1.00  0.00     0.097 A 
ATOM     34  C   UNL     1       2.016  -4.709   0.160  1.00  0.00     0.335 A 
ATOM     35  H   UNL     1       3.436  -3.160  -0.181  1.00  0.00     0.488 HD
ENDBRANCH  29  30
ENDBRANCH   3  24
TORSDOF 5


