REMARK SMILES Cc1ccc(-c2cc(F)c3ncccc3c2O)c(F)n1
REMARK SMILES IDX 6 1 7 2 8 3 9 4 10 5 11 6 12 7 13 8 14 9 15 10 16 11 5 12
REMARK SMILES IDX 2 13 3 14 20 15 4 16 18 17 1 18 19 19 17 20
REMARK H PARENT 17 21
ROOT
ATOM      1  C   UNL     1       0.379   0.079  -0.412  1.00  0.00     0.032 A 
ATOM      2  C   UNL     1       0.688   0.709  -1.628  1.00  0.00     0.054 A 
ATOM      3  C   UNL     1       0.093   0.291  -2.819  1.00  0.00     0.150 A 
ATOM      4  F   UNL     1       0.416   0.911  -3.982  1.00  0.00    -0.205 F 
ATOM      5  C   UNL     1      -0.823  -0.763  -2.813  1.00  0.00     0.110 A 
ATOM      6  N   UNL     1      -1.397  -1.172  -3.977  1.00  0.00    -0.253 NA
ATOM      7  C   UNL     1      -2.296  -2.189  -4.016  1.00  0.00     0.112 A 
ATOM      8  C   UNL     1      -2.659  -2.848  -2.840  1.00  0.00     0.021 A 
ATOM      9  C   UNL     1      -2.091  -2.453  -1.628  1.00  0.00     0.016 A 
ATOM     10  C   UNL     1      -1.159  -1.402  -1.596  1.00  0.00     0.046 A 
ATOM     11  C   UNL     1      -0.568  -0.974  -0.390  1.00  0.00     0.133 A 
ENDROOT
BRANCH   1  12
ATOM     12  C   UNL     1       1.068   0.532   0.815  1.00  0.00     0.041 A 
ATOM     13  C   UNL     1       2.403   1.385   3.107  1.00  0.00     0.041 A 
ATOM     14  C   UNL     1       1.581   2.281   2.413  1.00  0.00     0.024 A 
ATOM     15  N   UNL     1       2.557   0.114   2.645  1.00  0.00    -0.225 NA
ATOM     16  C   UNL     1       0.915   1.851   1.264  1.00  0.00     0.015 A 
ATOM     17  C   UNL     1       1.918  -0.330   1.529  1.00  0.00     0.221 A 
ATOM     18  C   UNL     1       3.139   1.827   4.331  1.00  0.00     0.067 C 
ATOM     19  F   UNL     1       2.123  -1.603   1.107  1.00  0.00    -0.184 F 
ENDBRANCH   1  12
BRANCH  11  20
ATOM     20  O   UNL     1      -0.946  -1.584   0.811  1.00  0.00    -0.507 OA
ATOM     21  H   UNL     1      -0.622  -1.271   1.717  1.00  0.00     0.293 HD
ENDBRANCH  11  20
TORSDOF 2


