MODEL 1
REMARK VINA RESULT:      -7.1      0.000      0.000
REMARK SMILES N[NH2+]c1cccc2cc(-c3ccc(O)cc3)c3c[n-]nc3c12
REMARK SMILES IDX 3 1 4 2 5 3 6 4 7 5 8 6 9 7 17 8 18 9 19 10 20 11 21 12
REMARK SMILES IDX 22 13 2 14 1 17 10 20 11 21 16 22 12 23 15 24 13 25 14 26
REMARK H PARENT 2 15 2 16 1 18 1 19 14 27
ROOT
ATOM      1  C   UNL     1      43.027 131.653  21.813  1.00  0.00     0.158 A 
ATOM      2  C   UNL     1      43.737 131.241  22.957  1.00  0.00     0.070 A 
ATOM      3  C   UNL     1      44.989 130.640  22.851  1.00  0.00     0.007 A 
ATOM      4  C   UNL     1      45.571 130.441  21.603  1.00  0.00     0.009 A 
ATOM      5  C   UNL     1      44.909 130.850  20.438  1.00  0.00    -0.010 A 
ATOM      6  C   UNL     1      45.526 130.647  19.181  1.00  0.00     0.018 A 
ATOM      7  C   UNL     1      44.904 131.061  17.987  1.00  0.00    -0.010 A 
ATOM      8  C   UNL     1      43.648 131.667  18.105  1.00  0.00    -0.014 A 
ATOM      9  C   UNL     1      42.766 132.144  17.160  1.00  0.00    -0.113 A 
ATOM     10  N   UNL     1      41.676 132.618  17.801  1.00  0.00    -0.581 NA
ATOM     11  N   UNL     1      41.836 132.450  19.109  1.00  0.00    -0.367 NA
ATOM     12  C   UNL     1      43.031 131.866  19.311  1.00  0.00     0.061 A 
ATOM     13  C   UNL     1      43.624 131.471  20.530  1.00  0.00     0.069 A 
ENDROOT
BRANCH   1  14
ATOM     14  N   UNL     1      41.732 132.270  21.989  1.00  0.00    -0.239 N 
ATOM     15  H   UNL     1      41.735 133.241  21.602  1.00  0.00     0.376 HD
ATOM     16  H   UNL     1      40.983 131.739  21.484  1.00  0.00     0.376 HD
BRANCH  14  17
ATOM     17  N   UNL     1      41.422 132.298  23.364  1.00  0.00    -0.178 NA
ATOM     18  H   UNL     1      40.658 132.998  23.518  1.00  0.00     0.183 HD
ATOM     19  H   UNL     1      42.262 132.656  23.876  1.00  0.00     0.183 HD
ENDBRANCH  14  17
ENDBRANCH   1  14
BRANCH   7  20
ATOM     20  C   UNL     1      45.566 130.857  16.678  1.00  0.00    -0.017 A 
ATOM     21  C   UNL     1      45.841 129.559  16.219  1.00  0.00     0.012 A 
ATOM     22  C   UNL     1      45.955 131.958  15.894  1.00  0.00     0.012 A 
ATOM     23  C   UNL     1      46.477 129.363  14.990  1.00  0.00     0.047 A 
ATOM     24  C   UNL     1      46.590 131.760  14.665  1.00  0.00     0.047 A 
ATOM     25  C   UNL     1      46.852 130.464  14.209  1.00  0.00     0.115 A 
BRANCH  25  26
ATOM     26  O   UNL     1      47.486 130.282  12.981  1.00  0.00    -0.508 OA
ATOM     27  H   UNL     1      48.164 130.949  12.632  1.00  0.00     0.293 HD
ENDBRANCH  25  26
ENDBRANCH   7  20
TORSDOF 4
ENDMDL
MODEL 2
REMARK VINA RESULT:      -7.0      0.038      1.034
REMARK SMILES N[NH2+]c1cccc2cc(-c3ccc(O)cc3)c3c[n-]nc3c12
REMARK SMILES IDX 3 1 4 2 5 3 6 4 7 5 8 6 9 7 17 8 18 9 19 10 20 11 21 12
REMARK SMILES IDX 22 13 2 14 1 17 10 20 11 21 16 22 12 23 15 24 13 25 14 26
REMARK H PARENT 2 15 2 16 1 18 1 19 14 27
ROOT
ATOM      1  C   UNL     1      43.016 131.661  21.838  1.00  0.00     0.158 A 
ATOM      2  C   UNL     1      43.726 131.252  22.982  1.00  0.00     0.070 A 
ATOM      3  C   UNL     1      44.980 130.653  22.877  1.00  0.00     0.007 A 
ATOM      4  C   UNL     1      45.562 130.456  21.630  1.00  0.00     0.009 A 
ATOM      5  C   UNL     1      44.901 130.863  20.464  1.00  0.00    -0.010 A 
ATOM      6  C   UNL     1      45.520 130.660  19.207  1.00  0.00     0.018 A 
ATOM      7  C   UNL     1      44.897 131.073  18.013  1.00  0.00    -0.010 A 
ATOM      8  C   UNL     1      43.640 131.676  18.129  1.00  0.00    -0.014 A 
ATOM      9  C   UNL     1      42.758 132.150  17.184  1.00  0.00    -0.113 A 
ATOM     10  N   UNL     1      41.666 132.622  17.824  1.00  0.00    -0.581 NA
ATOM     11  N   UNL     1      41.825 132.455  19.132  1.00  0.00    -0.367 NA
ATOM     12  C   UNL     1      43.022 131.873  19.336  1.00  0.00     0.061 A 
ATOM     13  C   UNL     1      43.615 131.480  20.555  1.00  0.00     0.069 A 
ENDROOT
BRANCH   1  14
ATOM     14  N   UNL     1      41.720 132.276  22.012  1.00  0.00    -0.239 N 
ATOM     15  H   UNL     1      41.723 133.250  21.633  1.00  0.00     0.376 HD
ATOM     16  H   UNL     1      40.973 131.748  21.499  1.00  0.00     0.376 HD
BRANCH  14  17
ATOM     17  N   UNL     1      41.402 132.292  23.386  1.00  0.00    -0.178 NA
ATOM     18  H   UNL     1      40.585 131.656  23.546  1.00  0.00     0.183 HD
ATOM     19  H   UNL     1      41.080 133.258  23.630  1.00  0.00     0.183 HD
ENDBRANCH  14  17
ENDBRANCH   1  14
BRANCH   7  20
ATOM     20  C   UNL     1      45.561 130.870  16.705  1.00  0.00    -0.017 A 
ATOM     21  C   UNL     1      45.927 131.974  15.918  1.00  0.00     0.012 A 
ATOM     22  C   UNL     1      45.807 129.572  16.221  1.00  0.00     0.012 A 
ATOM     23  C   UNL     1      46.544 131.786  14.678  1.00  0.00     0.047 A 
ATOM     24  C   UNL     1      46.424 129.386  14.981  1.00  0.00     0.047 A 
ATOM     25  C   UNL     1      46.795 130.490  14.207  1.00  0.00     0.115 A 
BRANCH  25  26
ATOM     26  O   UNL     1      47.409 130.289  12.973  1.00  0.00    -0.508 OA
ATOM     27  H   UNL     1      46.871 130.064  12.144  1.00  0.00     0.293 HD
ENDBRANCH  25  26
ENDBRANCH   7  20
TORSDOF 4
ENDMDL
MODEL 3
REMARK VINA RESULT:      -6.7      0.966      1.513
REMARK SMILES N[NH2+]c1cccc2cc(-c3ccc(O)cc3)c3c[n-]nc3c12
REMARK SMILES IDX 3 1 4 2 5 3 6 4 7 5 8 6 9 7 17 8 18 9 19 10 20 11 21 12
REMARK SMILES IDX 22 13 2 14 1 17 10 20 11 21 16 22 12 23 15 24 13 25 14 26
REMARK H PARENT 2 15 2 16 1 18 1 19 14 27
ROOT
ATOM      1  C   UNL     1      43.049 131.764  20.881  1.00  0.00     0.158 A 
ATOM      2  C   UNL     1      43.686 131.524  22.114  1.00  0.00     0.070 A 
ATOM      3  C   UNL     1      44.988 131.032  22.168  1.00  0.00     0.007 A 
ATOM      4  C   UNL     1      45.692 130.775  20.996  1.00  0.00     0.009 A 
ATOM      5  C   UNL     1      45.106 131.015  19.748  1.00  0.00    -0.010 A 
ATOM      6  C   UNL     1      45.847 130.755  18.570  1.00  0.00     0.018 A 
ATOM      7  C   UNL     1      45.300 131.002  17.296  1.00  0.00    -0.010 A 
ATOM      8  C   UNL     1      43.994 131.499  17.251  1.00  0.00    -0.014 A 
ATOM      9  C   UNL     1      43.163 131.806  16.197  1.00  0.00    -0.113 A 
ATOM     10  N   UNL     1      41.984 132.235  16.698  1.00  0.00    -0.581 NA
ATOM     11  N   UNL     1      42.041 132.202  18.025  1.00  0.00    -0.367 NA
ATOM     12  C   UNL     1      43.258 131.749  18.379  1.00  0.00     0.061 A 
ATOM     13  C   UNL     1      43.771 131.521  19.674  1.00  0.00     0.069 A 
ENDROOT
BRANCH   1  14
ATOM     14  N   UNL     1      41.697 132.274  20.891  1.00  0.00    -0.239 N 
ATOM     15  H   UNL     1      41.105 131.753  20.205  1.00  0.00     0.376 HD
ATOM     16  H   UNL     1      41.251 132.160  21.832  1.00  0.00     0.376 HD
BRANCH  14  17
ATOM     17  N   UNL     1      41.723 133.646  20.563  1.00  0.00    -0.178 NA
ATOM     18  H   UNL     1      42.169 133.753  19.621  1.00  0.00     0.183 HD
ATOM     19  H   UNL     1      42.353 134.128  21.246  1.00  0.00     0.183 HD
ENDBRANCH  14  17
ENDBRANCH   1  14
BRANCH   7  20
ATOM     20  C   UNL     1      46.092 130.741  16.071  1.00  0.00    -0.017 A 
ATOM     21  C   UNL     1      46.335 131.775  15.153  1.00  0.00     0.012 A 
ATOM     22  C   UNL     1      46.582 129.452  15.797  1.00  0.00     0.012 A 
ATOM     23  C   UNL     1      47.072 131.530  13.990  1.00  0.00     0.047 A 
ATOM     24  C   UNL     1      47.319 129.209  14.634  1.00  0.00     0.047 A 
ATOM     25  C   UNL     1      47.567 130.245  13.729  1.00  0.00     0.115 A 
BRANCH  25  26
ATOM     26  O   UNL     1      48.303 129.988  12.574  1.00  0.00    -0.508 OA
ATOM     27  H   UNL     1      47.997 130.321  11.666  1.00  0.00     0.293 HD
ENDBRANCH  25  26
ENDBRANCH   7  20
TORSDOF 4
ENDMDL
MODEL 4
REMARK VINA RESULT:      -6.6      1.229      1.946
REMARK SMILES N[NH2+]c1cccc2cc(-c3ccc(O)cc3)c3c[n-]nc3c12
REMARK SMILES IDX 3 1 4 2 5 3 6 4 7 5 8 6 9 7 17 8 18 9 19 10 20 11 21 12
REMARK SMILES IDX 22 13 2 14 1 17 10 20 11 21 16 22 12 23 15 24 13 25 14 26
REMARK H PARENT 2 15 2 16 1 18 1 19 14 27
ROOT
ATOM      1  C   UNL     1      43.250 130.391  23.205  1.00  0.00     0.158 A 
ATOM      2  C   UNL     1      43.857 129.447  24.055  1.00  0.00     0.070 A 
ATOM      3  C   UNL     1      44.911 128.651  23.611  1.00  0.00     0.007 A 
ATOM      4  C   UNL     1      45.393 128.781  22.313  1.00  0.00     0.009 A 
ATOM      5  C   UNL     1      44.832 129.719  21.438  1.00  0.00    -0.010 A 
ATOM      6  C   UNL     1      45.347 129.840  20.125  1.00  0.00     0.018 A 
ATOM      7  C   UNL     1      44.824 130.785  19.220  1.00  0.00    -0.010 A 
ATOM      8  C   UNL     1      43.768 131.582  19.676  1.00  0.00    -0.014 A 
ATOM      9  C   UNL     1      43.016 132.554  19.054  1.00  0.00    -0.113 A 
ATOM     10  N   UNL     1      42.098 133.007  19.935  1.00  0.00    -0.581 NA
ATOM     11  N   UNL     1      42.240 132.353  21.083  1.00  0.00    -0.367 NA
ATOM     12  C   UNL     1      43.251 131.475  20.940  1.00  0.00     0.061 A 
ATOM     13  C   UNL     1      43.751 130.546  21.877  1.00  0.00     0.069 A 
ENDROOT
BRANCH   1  14
ATOM     14  N   UNL     1      42.161 131.187  23.723  1.00  0.00    -0.239 N 
ATOM     15  H   UNL     1      41.578 131.562  22.941  1.00  0.00     0.376 HD
ATOM     16  H   UNL     1      41.527 130.618  24.334  1.00  0.00     0.376 HD
BRANCH  14  17
ATOM     17  N   UNL     1      42.692 132.250  24.484  1.00  0.00    -0.178 NA
ATOM     18  H   UNL     1      43.721 132.092  24.601  1.00  0.00     0.183 HD
ATOM     19  H   UNL     1      42.272 132.201  25.441  1.00  0.00     0.183 HD
ENDBRANCH  14  17
ENDBRANCH   1  14
BRANCH   7  20
ATOM     20  C   UNL     1      45.382 130.913  17.854  1.00  0.00    -0.017 A 
ATOM     21  C   UNL     1      45.249 132.118  17.146  1.00  0.00     0.012 A 
ATOM     22  C   UNL     1      46.023 129.823  17.239  1.00  0.00     0.012 A 
ATOM     23  C   UNL     1      45.765 132.239  15.852  1.00  0.00     0.047 A 
ATOM     24  C   UNL     1      46.538 129.946  15.945  1.00  0.00     0.047 A 
ATOM     25  C   UNL     1      46.412 131.153  15.249  1.00  0.00     0.115 A 
BRANCH  25  26
ATOM     26  O   UNL     1      46.930 131.260  13.960  1.00  0.00    -0.508 OA
ATOM     27  H   UNL     1      47.723 130.704  13.660  1.00  0.00     0.293 HD
ENDBRANCH  25  26
ENDBRANCH   7  20
TORSDOF 4
ENDMDL
MODEL 5
REMARK VINA RESULT:      -6.6      1.043      1.248
REMARK SMILES N[NH2+]c1cccc2cc(-c3ccc(O)cc3)c3c[n-]nc3c12
REMARK SMILES IDX 3 1 4 2 5 3 6 4 7 5 8 6 9 7 17 8 18 9 19 10 20 11 21 12
REMARK SMILES IDX 22 13 2 14 1 17 10 20 11 21 16 22 12 23 15 24 13 25 14 26
REMARK H PARENT 2 15 2 16 1 18 1 19 14 27
ROOT
ATOM      1  C   UNL     1      43.012 131.696  20.713  1.00  0.00     0.158 A 
ATOM      2  C   UNL     1      43.622 131.422  21.952  1.00  0.00     0.070 A 
ATOM      3  C   UNL     1      44.912 130.902  22.020  1.00  0.00     0.007 A 
ATOM      4  C   UNL     1      45.631 130.649  20.857  1.00  0.00     0.009 A 
ATOM      5  C   UNL     1      45.072 130.922  19.603  1.00  0.00    -0.010 A 
ATOM      6  C   UNL     1      45.828 130.666  18.434  1.00  0.00     0.018 A 
ATOM      7  C   UNL     1      45.310 130.945  17.154  1.00  0.00    -0.010 A 
ATOM      8  C   UNL     1      44.015 131.471  17.096  1.00  0.00    -0.014 A 
ATOM      9  C   UNL     1      43.209 131.813  16.032  1.00  0.00    -0.113 A 
ATOM     10  N   UNL     1      42.031 132.258  16.520  1.00  0.00    -0.581 NA
ATOM     11  N   UNL     1      42.063 132.202  17.847  1.00  0.00    -0.367 NA
ATOM     12  C   UNL     1      43.264 131.718  18.215  1.00  0.00     0.061 A 
ATOM     13  C   UNL     1      43.749 131.458  19.514  1.00  0.00     0.069 A 
ENDROOT
BRANCH   1  14
ATOM     14  N   UNL     1      41.671 132.235  20.707  1.00  0.00    -0.239 N 
ATOM     15  H   UNL     1      41.075 131.726  20.016  1.00  0.00     0.376 HD
ATOM     16  H   UNL     1      41.212 132.132  21.644  1.00  0.00     0.376 HD
BRANCH  14  17
ATOM     17  N   UNL     1      41.730 133.605  20.378  1.00  0.00    -0.178 NA
ATOM     18  H   UNL     1      42.572 134.022  20.841  1.00  0.00     0.183 HD
ATOM     19  H   UNL     1      40.895 134.074  20.801  1.00  0.00     0.183 HD
ENDBRANCH  14  17
ENDBRANCH   1  14
BRANCH   7  20
ATOM     20  C   UNL     1      46.117 130.687  15.939  1.00  0.00    -0.017 A 
ATOM     21  C   UNL     1      46.677 129.419  15.717  1.00  0.00     0.012 A 
ATOM     22  C   UNL     1      46.357 131.714  15.009  1.00  0.00     0.012 A 
ATOM     23  C   UNL     1      47.449 129.176  14.577  1.00  0.00     0.047 A 
ATOM     24  C   UNL     1      47.128 131.469  13.870  1.00  0.00     0.047 A 
ATOM     25  C   UNL     1      47.675 130.201  13.650  1.00  0.00     0.115 A 
BRANCH  25  26
ATOM     26  O   UNL     1      48.442 129.971  12.509  1.00  0.00    -0.508 OA
ATOM     27  H   UNL     1      49.242 129.348  12.526  1.00  0.00     0.293 HD
ENDBRANCH  25  26
ENDBRANCH   7  20
TORSDOF 4
ENDMDL
MODEL 6
REMARK VINA RESULT:      -6.5      1.278      1.702
REMARK SMILES N[NH2+]c1cccc2cc(-c3ccc(O)cc3)c3c[n-]nc3c12
REMARK SMILES IDX 3 1 4 2 5 3 6 4 7 5 8 6 9 7 17 8 18 9 19 10 20 11 21 12
REMARK SMILES IDX 22 13 2 14 1 17 10 20 11 21 16 22 12 23 15 24 13 25 14 26
REMARK H PARENT 2 15 2 16 1 18 1 19 14 27
ROOT
ATOM      1  C   UNL     1      43.316 130.212  23.129  1.00  0.00     0.158 A 
ATOM      2  C   UNL     1      43.936 129.237  23.933  1.00  0.00     0.070 A 
ATOM      3  C   UNL     1      44.986 128.462  23.446  1.00  0.00     0.007 A 
ATOM      4  C   UNL     1      45.452 128.645  22.148  1.00  0.00     0.009 A 
ATOM      5  C   UNL     1      44.878 129.614  21.317  1.00  0.00    -0.010 A 
ATOM      6  C   UNL     1      45.377 129.788  20.004  1.00  0.00     0.018 A 
ATOM      7  C   UNL     1      44.840 130.766  19.144  1.00  0.00    -0.010 A 
ATOM      8  C   UNL     1      43.789 131.542  19.643  1.00  0.00    -0.014 A 
ATOM      9  C   UNL     1      43.027 132.536  19.069  1.00  0.00    -0.113 A 
ATOM     10  N   UNL     1      42.119 132.951  19.978  1.00  0.00    -0.581 NA
ATOM     11  N   UNL     1      42.277 132.252  21.097  1.00  0.00    -0.367 NA
ATOM     12  C   UNL     1      43.287 131.384  20.908  1.00  0.00     0.061 A 
ATOM     13  C   UNL     1      43.801 130.420  21.802  1.00  0.00     0.069 A 
ENDROOT
BRANCH   1  14
ATOM     14  N   UNL     1      42.232 130.984  23.691  1.00  0.00    -0.239 N 
ATOM     15  H   UNL     1      41.564 131.275  22.942  1.00  0.00     0.376 HD
ATOM     16  H   UNL     1      41.687 130.426  24.391  1.00  0.00     0.376 HD
BRANCH  14  17
ATOM     17  N   UNL     1      42.765 132.122  24.332  1.00  0.00    -0.178 NA
ATOM     18  H   UNL     1      43.232 131.816  25.218  1.00  0.00     0.183 HD
ATOM     19  H   UNL     1      41.965 132.736  24.615  1.00  0.00     0.183 HD
ENDBRANCH  14  17
ENDBRANCH   1  14
BRANCH   7  20
ATOM     20  C   UNL     1      45.381 130.949  17.777  1.00  0.00    -0.017 A 
ATOM     21  C   UNL     1      46.064 129.900  17.140  1.00  0.00     0.012 A 
ATOM     22  C   UNL     1      45.245 132.181  17.113  1.00  0.00     0.012 A 
ATOM     23  C   UNL     1      46.585 130.073  15.854  1.00  0.00     0.047 A 
ATOM     24  C   UNL     1      45.768 132.352  15.828  1.00  0.00     0.047 A 
ATOM     25  C   UNL     1      46.437 131.300  15.195  1.00  0.00     0.115 A 
BRANCH  25  26
ATOM     26  O   UNL     1      46.953 131.485  13.913  1.00  0.00    -0.508 OA
ATOM     27  H   UNL     1      46.396 131.899  13.174  1.00  0.00     0.293 HD
ENDBRANCH  25  26
ENDBRANCH   7  20
TORSDOF 4
ENDMDL
MODEL 7
REMARK VINA RESULT:      -6.2      1.819      3.049
REMARK SMILES N[NH2+]c1cccc2cc(-c3ccc(O)cc3)c3c[n-]nc3c12
REMARK SMILES IDX 3 1 4 2 5 3 6 4 7 5 8 6 9 7 17 8 18 9 19 10 20 11 21 12
REMARK SMILES IDX 22 13 2 14 1 17 10 20 11 21 16 22 12 23 15 24 13 25 14 26
REMARK H PARENT 2 15 2 16 1 18 1 19 14 27
ROOT
ATOM      1  C   UNL     1      42.642 131.975  21.886  1.00  0.00     0.158 A 
ATOM      2  C   UNL     1      41.476 132.764  21.863  1.00  0.00     0.070 A 
ATOM      3  C   UNL     1      41.005 133.318  20.675  1.00  0.00     0.007 A 
ATOM      4  C   UNL     1      41.678 133.094  19.478  1.00  0.00     0.009 A 
ATOM      5  C   UNL     1      42.832 132.301  19.450  1.00  0.00    -0.010 A 
ATOM      6  C   UNL     1      43.492 132.079  18.218  1.00  0.00     0.018 A 
ATOM      7  C   UNL     1      44.644 131.272  18.143  1.00  0.00    -0.010 A 
ATOM      8  C   UNL     1      45.108 130.717  19.340  1.00  0.00    -0.014 A 
ATOM      9  C   UNL     1      46.202 129.930  19.626  1.00  0.00    -0.113 A 
ATOM     10  N   UNL     1      46.209 129.680  20.953  1.00  0.00    -0.581 NA
ATOM     11  N   UNL     1      45.166 130.284  21.512  1.00  0.00    -0.367 NA
ATOM     12  C   UNL     1      44.487 130.927  20.544  1.00  0.00     0.061 A 
ATOM     13  C   UNL     1      43.328 131.723  20.660  1.00  0.00     0.069 A 
ENDROOT
BRANCH   1  14
ATOM     14  N   UNL     1      43.081 131.427  23.150  1.00  0.00    -0.239 N 
ATOM     15  H   UNL     1      44.120 131.318  23.159  1.00  0.00     0.376 HD
ATOM     16  H   UNL     1      42.830 132.058  23.948  1.00  0.00     0.376 HD
BRANCH  14  17
ATOM     17  N   UNL     1      42.461 130.176  23.346  1.00  0.00    -0.178 NA
ATOM     18  H   UNL     1      42.490 129.646  22.443  1.00  0.00     0.183 HD
ATOM     19  H   UNL     1      41.451 130.347  23.558  1.00  0.00     0.183 HD
ENDBRANCH  14  17
ENDBRANCH   1  14
BRANCH   7  20
ATOM     20  C   UNL     1      45.317 131.034  16.845  1.00  0.00    -0.017 A 
ATOM     21  C   UNL     1      45.745 132.117  16.061  1.00  0.00     0.012 A 
ATOM     22  C   UNL     1      45.510 129.725  16.370  1.00  0.00     0.012 A 
ATOM     23  C   UNL     1      46.370 131.897  14.831  1.00  0.00     0.047 A 
ATOM     24  C   UNL     1      46.136 129.506  15.139  1.00  0.00     0.047 A 
ATOM     25  C   UNL     1      46.568 130.589  14.367  1.00  0.00     0.115 A 
BRANCH  25  26
ATOM     26  O   UNL     1      47.191 130.356  13.142  1.00  0.00    -0.508 OA
ATOM     27  H   UNL     1      48.146 130.649  12.970  1.00  0.00     0.293 HD
ENDBRANCH  25  26
ENDBRANCH   7  20
TORSDOF 4
ENDMDL
MODEL 8
REMARK VINA RESULT:      -6.2      1.828      2.860
REMARK SMILES N[NH2+]c1cccc2cc(-c3ccc(O)cc3)c3c[n-]nc3c12
REMARK SMILES IDX 3 1 4 2 5 3 6 4 7 5 8 6 9 7 17 8 18 9 19 10 20 11 21 12
REMARK SMILES IDX 22 13 2 14 1 17 10 20 11 21 16 22 12 23 15 24 13 25 14 26
REMARK H PARENT 2 15 2 16 1 18 1 19 14 27
ROOT
ATOM      1  C   UNL     1      42.669 131.989  21.902  1.00  0.00     0.158 A 
ATOM      2  C   UNL     1      41.495 132.766  21.904  1.00  0.00     0.070 A 
ATOM      3  C   UNL     1      40.992 133.315  20.726  1.00  0.00     0.007 A 
ATOM      4  C   UNL     1      41.640 133.097  19.515  1.00  0.00     0.009 A 
ATOM      5  C   UNL     1      42.802 132.317  19.462  1.00  0.00    -0.010 A 
ATOM      6  C   UNL     1      43.438 132.101  18.216  1.00  0.00     0.018 A 
ATOM      7  C   UNL     1      44.597 131.306  18.117  1.00  0.00    -0.010 A 
ATOM      8  C   UNL     1      45.092 130.757  19.304  1.00  0.00    -0.014 A 
ATOM      9  C   UNL     1      46.201 129.982  19.566  1.00  0.00    -0.113 A 
ATOM     10  N   UNL     1      46.239 129.733  20.892  1.00  0.00    -0.581 NA
ATOM     11  N   UNL     1      45.203 130.326  21.474  1.00  0.00    -0.367 NA
ATOM     12  C   UNL     1      44.496 130.961  20.520  1.00  0.00     0.061 A 
ATOM     13  C   UNL     1      43.331 131.744  20.661  1.00  0.00     0.069 A 
ENDROOT
BRANCH   1  14
ATOM     14  N   UNL     1      43.141 131.448  23.156  1.00  0.00    -0.239 N 
ATOM     15  H   UNL     1      44.155 131.205  23.090  1.00  0.00     0.376 HD
ATOM     16  H   UNL     1      43.039 132.141  23.935  1.00  0.00     0.376 HD
BRANCH  14  17
ATOM     17  N   UNL     1      42.388 130.297  23.469  1.00  0.00    -0.178 NA
ATOM     18  H   UNL     1      43.051 129.518  23.695  1.00  0.00     0.183 HD
ATOM     19  H   UNL     1      41.870 130.007  22.607  1.00  0.00     0.183 HD
ENDBRANCH  14  17
ENDBRANCH   1  14
BRANCH   7  20
ATOM     20  C   UNL     1      45.244 131.074  16.805  1.00  0.00    -0.017 A 
ATOM     21  C   UNL     1      45.367 129.771  16.297  1.00  0.00     0.012 A 
ATOM     22  C   UNL     1      45.770 132.150  16.067  1.00  0.00     0.012 A 
ATOM     23  C   UNL     1      45.987 129.548  15.064  1.00  0.00     0.047 A 
ATOM     24  C   UNL     1      46.390 131.924  14.835  1.00  0.00     0.047 A 
ATOM     25  C   UNL     1      46.500 130.625  14.329  1.00  0.00     0.115 A 
BRANCH  25  26
ATOM     26  O   UNL     1      47.120 130.415  13.099  1.00  0.00    -0.508 OA
ATOM     27  H   UNL     1      48.120 130.538  12.983  1.00  0.00     0.293 HD
ENDBRANCH  25  26
ENDBRANCH   7  20
TORSDOF 4
ENDMDL
MODEL 9
REMARK VINA RESULT:      -5.5      2.033      2.997
REMARK SMILES N[NH2+]c1cccc2cc(-c3ccc(O)cc3)c3c[n-]nc3c12
REMARK SMILES IDX 3 1 4 2 5 3 6 4 7 5 8 6 9 7 17 8 18 9 19 10 20 11 21 12
REMARK SMILES IDX 22 13 2 14 1 17 10 20 11 21 16 22 12 23 15 24 13 25 14 26
REMARK H PARENT 2 15 2 16 1 18 1 19 14 27
ROOT
ATOM      1  C   UNL     1      42.700 131.860  22.372  1.00  0.00     0.158 A 
ATOM      2  C   UNL     1      41.544 132.648  22.538  1.00  0.00     0.070 A 
ATOM      3  C   UNL     1      40.945 133.284  21.453  1.00  0.00     0.007 A 
ATOM      4  C   UNL     1      41.475 133.145  20.175  1.00  0.00     0.009 A 
ATOM      5  C   UNL     1      42.613 132.358  19.960  1.00  0.00    -0.010 A 
ATOM      6  C   UNL     1      43.127 132.224  18.648  1.00  0.00     0.018 A 
ATOM      7  C   UNL     1      44.257 131.425  18.386  1.00  0.00    -0.010 A 
ATOM      8  C   UNL     1      44.850 130.787  19.480  1.00  0.00    -0.014 A 
ATOM      9  C   UNL     1      45.964 129.984  19.583  1.00  0.00    -0.113 A 
ATOM     10  N   UNL     1      46.120 129.641  20.879  1.00  0.00    -0.581 NA
ATOM     11  N   UNL     1      45.153 130.202  21.595  1.00  0.00    -0.367 NA
ATOM     12  C   UNL     1      44.372 130.911  20.758  1.00  0.00     0.061 A 
ATOM     13  C   UNL     1      43.239 131.696  21.061  1.00  0.00     0.069 A 
ENDROOT
BRANCH   1  14
ATOM     14  N   UNL     1      43.275 131.226  23.536  1.00  0.00    -0.239 N 
ATOM     15  H   UNL     1      42.557 131.122  24.288  1.00  0.00     0.376 HD
ATOM     16  H   UNL     1      43.630 130.265  23.313  1.00  0.00     0.376 HD
BRANCH  14  17
ATOM     17  N   UNL     1      44.351 132.011  24.000  1.00  0.00    -0.178 NA
ATOM     18  H   UNL     1      44.772 131.538  24.834  1.00  0.00     0.183 HD
ATOM     19  H   UNL     1      43.962 132.922  24.339  1.00  0.00     0.183 HD
ENDBRANCH  14  17
ENDBRANCH   1  14
BRANCH   7  20
ATOM     20  C   UNL     1      44.777 131.280  17.006  1.00  0.00    -0.017 A 
ATOM     21  C   UNL     1      46.067 130.771  16.786  1.00  0.00     0.012 A 
ATOM     22  C   UNL     1      43.999 131.676  15.904  1.00  0.00     0.012 A 
ATOM     23  C   UNL     1      46.565 130.643  15.486  1.00  0.00     0.047 A 
ATOM     24  C   UNL     1      44.498 131.547  14.604  1.00  0.00     0.047 A 
ATOM     25  C   UNL     1      45.780 131.030  14.391  1.00  0.00     0.115 A 
BRANCH  25  26
ATOM     26  O   UNL     1      46.265 130.907  13.090  1.00  0.00    -0.508 OA
ATOM     27  H   UNL     1      47.253 130.784  12.903  1.00  0.00     0.293 HD
ENDBRANCH  25  26
ENDBRANCH   7  20
TORSDOF 4
ENDMDL


