REMARK SMILES Cc1ccc(-c2ccc(/N=C(\O)C[C@H]([NH3+])C(=O)[O-])c(C=O)c2)cc1
REMARK SMILES IDX 11 1 12 2 10 4 9 5 8 6 19 7 7 8 22 9 6 10 20 11 21 12 5 13
REMARK SMILES IDX 4 14 23 15 3 16 24 17 2 18 1 19 13 20 14 21 16 22 17 23
REMARK SMILES IDX 18 24 15 25
REMARK H PARENT 12 3 15 26 15 27 15 28
ROOT
ATOM      1  C   UNL     1      -3.389   0.548  -0.739  1.00  0.00     0.192 C 
ENDROOT
BRANCH   1   2
ATOM      2  O   UNL     1      -3.240  -0.774  -1.157  1.00  0.00    -0.496 OA
ATOM      3  H   UNL     1      -3.957  -1.235  -1.705  1.00  0.00     0.294 HD
ENDBRANCH   1   2
BRANCH   1   4
ATOM      4  N   UNL     1      -2.467   1.136  -0.034  1.00  0.00    -0.217 NA
BRANCH   4   5
ATOM      5  C   UNL     1      -1.193   0.578   0.332  1.00  0.00     0.077 A 
ATOM      6  C   UNL     1      -0.451  -0.174  -0.596  1.00  0.00     0.030 A 
ATOM      7  C   UNL     1      -0.631   0.858   1.601  1.00  0.00     0.041 A 
ATOM      8  C   UNL     1       0.803  -0.684  -0.261  1.00  0.00     0.011 A 
ATOM      9  C   UNL     1       0.634   0.338   1.924  1.00  0.00     0.022 A 
ATOM     10  C   UNL     1       1.358  -0.438   1.003  1.00  0.00    -0.018 A 
BRANCH   7  11
ATOM     11  C   UNL     1      -1.330   1.669   2.627  1.00  0.00     0.262 C 
ATOM     12  O   UNL     1      -2.479   2.144   2.432  1.00  0.00    -0.298 OA
ENDBRANCH   7  11
BRANCH  10  13
ATOM     13  C   UNL     1       2.694  -0.982   1.357  1.00  0.00    -0.018 A 
ATOM     14  C   UNL     1       3.054  -2.290   0.986  1.00  0.00     0.009 A 
ATOM     15  C   UNL     1       3.620  -0.199   2.071  1.00  0.00     0.009 A 
ATOM     16  C   UNL     1       4.311  -2.802   1.319  1.00  0.00     0.004 A 
ATOM     17  C   UNL     1       4.877  -0.712   2.402  1.00  0.00     0.004 A 
ATOM     18  C   UNL     1       5.236  -2.011   2.015  1.00  0.00    -0.051 A 
ATOM     19  C   UNL     1       6.570  -2.575   2.406  1.00  0.00     0.044 C 
ENDBRANCH  10  13
ENDBRANCH   4   5
ENDBRANCH   1   4
BRANCH   1  20
ATOM     20  C   UNL     1      -4.636   1.305  -1.093  1.00  0.00     0.168 C 
BRANCH  20  21
ATOM     21  C   UNL     1      -4.604   1.794  -2.555  1.00  0.00     0.237 C 
BRANCH  21  22
ATOM     22  C   UNL     1      -5.942   2.373  -2.929  1.00  0.00     0.100 C 
ATOM     23  O   UNL     1      -6.346   3.443  -2.399  1.00  0.00    -0.544 OA
ATOM     24  O   UNL     1      -6.749   1.717  -3.850  1.00  0.00    -0.544 OA
ENDBRANCH  21  22
BRANCH  21  25
ATOM     25  N   UNL     1      -3.542   2.788  -2.766  1.00  0.00    -0.350 N 
ATOM     26  H   UNL     1      -3.644   3.588  -2.099  1.00  0.00     0.345 HD
ATOM     27  H   UNL     1      -3.585   3.151  -3.746  1.00  0.00     0.345 HD
ATOM     28  H   UNL     1      -2.604   2.346  -2.630  1.00  0.00     0.345 HD
ENDBRANCH  21  25
ENDBRANCH  20  21
ENDBRANCH   1  20
TORSDOF 9


