MODEL 1
REMARK VINA RESULT:      -7.7      0.000      0.000
REMARK SMILES C[C@@]1(N)CCC[C@@H]1C(=O)[N-]c1cc(F)c(F)cc1[NH2+]c1ccc(F)cc1
REMARK SMILES IDX 10 1 8 2 9 3 7 4 2 5 4 6 5 7 6 8 1 9 3 10 11 13 12 14 18 15
REMARK SMILES IDX 13 16 17 17 15 18 14 19 16 20 19 21 20 24 21 25 26 26 22 27
REMARK SMILES IDX 25 28 23 29 24 30
REMARK H PARENT 3 11 3 12 19 22 19 23
ROOT
ATOM      1  N   UNL     1      45.535 130.717  19.848  1.00  0.00    -0.622 NA
ENDROOT
BRANCH   1   2
ATOM      2  C   UNL     1      45.327 131.017  21.235  1.00  0.00     0.060 C 
ATOM      3  O   UNL     1      45.918 132.022  21.714  1.00  0.00    -0.320 OA
BRANCH   2   4
ATOM      4  C   UNL     1      44.309 130.269  22.087  1.00  0.00     0.057 C 
ATOM      5  C   UNL     1      43.817 131.046  23.336  1.00  0.00     0.021 C 
ATOM      6  C   UNL     1      43.517 129.957  24.399  1.00  0.00     0.022 C 
ATOM      7  C   UNL     1      43.940 128.617  23.803  1.00  0.00     0.003 C 
ATOM      8  C   UNL     1      44.842 128.945  22.629  1.00  0.00     0.012 C 
ATOM      9  C   UNL     1      42.543 131.848  23.005  1.00  0.00     0.028 C 
BRANCH   5  10
ATOM     10  N   UNL     1      44.854 131.968  23.828  1.00  0.00    -0.325 NA
ATOM     11  H   UNL     1      44.541 132.400  24.729  1.00  0.00     0.119 HD
ATOM     12  H   UNL     1      44.977 132.749  23.143  1.00  0.00     0.119 HD
ENDBRANCH   5  10
ENDBRANCH   2   4
ENDBRANCH   1   2
BRANCH   1  13
ATOM     13  C   UNL     1      44.717 131.105  18.735  1.00  0.00    -0.068 A 
ATOM     14  C   UNL     1      43.449 131.678  18.940  1.00  0.00     0.032 A 
ATOM     15  C   UNL     1      45.142 130.813  17.417  1.00  0.00     0.123 A 
ATOM     16  C   UNL     1      42.658 132.055  17.854  1.00  0.00     0.158 A 
ATOM     17  C   UNL     1      44.336 131.207  16.333  1.00  0.00     0.109 A 
ATOM     18  C   UNL     1      43.107 131.833  16.551  1.00  0.00     0.164 A 
ATOM     19  F   UNL     1      41.445 132.625  18.067  1.00  0.00    -0.204 F 
ATOM     20  F   UNL     1      42.339 132.200  15.496  1.00  0.00    -0.204 F 
BRANCH  15  21
ATOM     21  N   UNL     1      46.386 130.114  17.171  1.00  0.00    -0.283 N 
ATOM     22  H   UNL     1      46.272 129.090  17.352  1.00  0.00     0.358 HD
ATOM     23  H   UNL     1      47.116 130.451  17.841  1.00  0.00     0.358 HD
BRANCH  21  24
ATOM     24  C   UNL     1      46.811 130.298  15.805  1.00  0.00     0.134 A 
ATOM     25  C   UNL     1      46.655 131.545  15.168  1.00  0.00     0.071 A 
ATOM     26  C   UNL     1      47.397 129.236  15.092  1.00  0.00     0.071 A 
ATOM     27  C   UNL     1      47.065 131.717  13.844  1.00  0.00     0.045 A 
ATOM     28  C   UNL     1      47.801 129.413  13.765  1.00  0.00     0.045 A 
ATOM     29  C   UNL     1      47.634 130.652  13.141  1.00  0.00     0.123 A 
ATOM     30  F   UNL     1      48.023 130.821  11.853  1.00  0.00    -0.207 F 
ENDBRANCH  21  24
ENDBRANCH  15  21
ENDBRANCH   1  13
TORSDOF 6
ENDMDL
MODEL 2
REMARK VINA RESULT:      -7.4      2.894      7.341
REMARK SMILES C[C@@]1(N)CCC[C@@H]1C(=O)[N-]c1cc(F)c(F)cc1[NH2+]c1ccc(F)cc1
REMARK SMILES IDX 10 1 8 2 9 3 7 4 2 5 4 6 5 7 6 8 1 9 3 10 11 13 12 14 18 15
REMARK SMILES IDX 13 16 17 17 15 18 14 19 16 20 19 21 20 24 21 25 26 26 22 27
REMARK SMILES IDX 25 28 23 29 24 30
REMARK H PARENT 3 11 3 12 19 22 19 23
ROOT
ATOM      1  N   UNL     1      44.750 130.930  18.152  1.00  0.00    -0.622 NA
ENDROOT
BRANCH   1   2
ATOM      2  C   UNL     1      45.213 131.753  17.072  1.00  0.00     0.060 C 
ATOM      3  O   UNL     1      45.551 132.938  17.338  1.00  0.00    -0.320 OA
BRANCH   2   4
ATOM      4  C   UNL     1      45.454 131.202  15.672  1.00  0.00     0.057 C 
ATOM      5  C   UNL     1      46.100 129.792  15.636  1.00  0.00     0.021 C 
ATOM      6  C   UNL     1      46.958 129.772  14.344  1.00  0.00     0.022 C 
ATOM      7  C   UNL     1      46.888 131.170  13.735  1.00  0.00     0.003 C 
ATOM      8  C   UNL     1      46.376 132.083  14.833  1.00  0.00     0.012 C 
ATOM      9  C   UNL     1      45.013 128.701  15.583  1.00  0.00     0.028 C 
BRANCH   5  10
ATOM     10  N   UNL     1      46.951 129.570  16.818  1.00  0.00    -0.325 NA
ATOM     11  H   UNL     1      47.762 130.230  16.795  1.00  0.00     0.119 HD
ATOM     12  H   UNL     1      47.345 128.602  16.783  1.00  0.00     0.119 HD
ENDBRANCH   5  10
ENDBRANCH   2   4
ENDBRANCH   1   2
BRANCH   1  13
ATOM     13  C   UNL     1      44.011 131.339  19.311  1.00  0.00    -0.068 A 
ATOM     14  C   UNL     1      42.928 132.228  19.196  1.00  0.00     0.032 A 
ATOM     15  C   UNL     1      44.439 130.926  20.596  1.00  0.00     0.123 A 
ATOM     16  C   UNL     1      42.211 132.622  20.328  1.00  0.00     0.158 A 
ATOM     17  C   UNL     1      43.700 131.326  21.725  1.00  0.00     0.109 A 
ATOM     18  C   UNL     1      42.588 132.160  21.589  1.00  0.00     0.164 A 
ATOM     19  F   UNL     1      41.158 133.466  20.200  1.00  0.00    -0.204 F 
ATOM     20  F   UNL     1      41.891 132.541  22.688  1.00  0.00    -0.204 F 
BRANCH  15  21
ATOM     21  N   UNL     1      45.621 130.109  20.763  1.00  0.00    -0.283 N 
ATOM     22  H   UNL     1      46.412 130.681  21.142  1.00  0.00     0.358 HD
ATOM     23  H   UNL     1      45.937 129.754  19.831  1.00  0.00     0.358 HD
BRANCH  21  24
ATOM     24  C   UNL     1      45.362 129.020  21.672  1.00  0.00     0.134 A 
ATOM     25  C   UNL     1      44.620 129.230  22.851  1.00  0.00     0.071 A 
ATOM     26  C   UNL     1      45.839 127.726  21.388  1.00  0.00     0.071 A 
ATOM     27  C   UNL     1      44.374 128.172  23.729  1.00  0.00     0.045 A 
ATOM     28  C   UNL     1      45.594 126.672  22.274  1.00  0.00     0.045 A 
ATOM     29  C   UNL     1      44.864 126.895  23.444  1.00  0.00     0.123 A 
ATOM     30  F   UNL     1      44.631 125.872  24.303  1.00  0.00    -0.207 F 
ENDBRANCH  21  24
ENDBRANCH  15  21
ENDBRANCH   1  13
TORSDOF 6
ENDMDL
MODEL 3
REMARK VINA RESULT:      -6.9      1.193      1.898
REMARK SMILES C[C@@]1(N)CCC[C@@H]1C(=O)[N-]c1cc(F)c(F)cc1[NH2+]c1ccc(F)cc1
REMARK SMILES IDX 10 1 8 2 9 3 7 4 2 5 4 6 5 7 6 8 1 9 3 10 11 13 12 14 18 15
REMARK SMILES IDX 13 16 17 17 15 18 14 19 16 20 19 21 20 24 21 25 26 26 22 27
REMARK SMILES IDX 25 28 23 29 24 30
REMARK H PARENT 3 11 3 12 19 22 19 23
ROOT
ATOM      1  N   UNL     1      45.627 130.577  20.145  1.00  0.00    -0.622 NA
ENDROOT
BRANCH   1   2
ATOM      2  C   UNL     1      45.236 129.885  21.340  1.00  0.00     0.060 C 
ATOM      3  O   UNL     1      45.557 128.671  21.448  1.00  0.00    -0.320 OA
BRANCH   2   4
ATOM      4  C   UNL     1      44.600 130.601  22.525  1.00  0.00     0.057 C 
ATOM      5  C   UNL     1      43.797 129.681  23.480  1.00  0.00     0.021 C 
ATOM      6  C   UNL     1      42.658 130.572  24.040  1.00  0.00     0.022 C 
ATOM      7  C   UNL     1      42.749 131.920  23.329  1.00  0.00     0.003 C 
ATOM      8  C   UNL     1      43.617 131.692  22.106  1.00  0.00     0.012 C 
ATOM      9  C   UNL     1      44.698 129.171  24.622  1.00  0.00     0.028 C 
BRANCH   5  10
ATOM     10  N   UNL     1      43.236 128.528  22.757  1.00  0.00    -0.325 NA
ATOM     11  H   UNL     1      42.593 127.996  23.389  1.00  0.00     0.119 HD
ATOM     12  H   UNL     1      44.009 127.875  22.491  1.00  0.00     0.119 HD
ENDBRANCH   5  10
ENDBRANCH   2   4
ENDBRANCH   1   2
BRANCH   1  13
ATOM     13  C   UNL     1      44.783 131.021  19.074  1.00  0.00    -0.068 A 
ATOM     14  C   UNL     1      43.531 131.604  19.339  1.00  0.00     0.032 A 
ATOM     15  C   UNL     1      45.166 130.776  17.733  1.00  0.00     0.123 A 
ATOM     16  C   UNL     1      42.714 132.035  18.292  1.00  0.00     0.158 A 
ATOM     17  C   UNL     1      44.334 131.224  16.690  1.00  0.00     0.109 A 
ATOM     18  C   UNL     1      43.121 131.859  16.970  1.00  0.00     0.164 A 
ATOM     19  F   UNL     1      41.517 132.612  18.564  1.00  0.00    -0.204 F 
ATOM     20  F   UNL     1      42.329 132.279  15.953  1.00  0.00    -0.204 F 
BRANCH  15  21
ATOM     21  N   UNL     1      46.390 130.070  17.422  1.00  0.00    -0.283 N 
ATOM     22  H   UNL     1      46.274 129.044  17.590  1.00  0.00     0.358 HD
ATOM     23  H   UNL     1      47.151 130.388  18.067  1.00  0.00     0.358 HD
BRANCH  21  24
ATOM     24  C   UNL     1      46.760 130.276  16.044  1.00  0.00     0.134 A 
ATOM     25  C   UNL     1      47.301 129.222  15.282  1.00  0.00     0.071 A 
ATOM     26  C   UNL     1      46.575 131.532  15.436  1.00  0.00     0.071 A 
ATOM     27  C   UNL     1      47.661 129.427  13.947  1.00  0.00     0.045 A 
ATOM     28  C   UNL     1      46.942 131.733  14.102  1.00  0.00     0.045 A 
ATOM     29  C   UNL     1      47.486 130.682  13.359  1.00  0.00     0.123 A 
ATOM     30  F   UNL     1      47.844 130.880  12.066  1.00  0.00    -0.207 F 
ENDBRANCH  21  24
ENDBRANCH  15  21
ENDBRANCH   1  13
TORSDOF 6
ENDMDL
MODEL 4
REMARK VINA RESULT:      -6.9      3.100      7.367
REMARK SMILES C[C@@]1(N)CCC[C@@H]1C(=O)[N-]c1cc(F)c(F)cc1[NH2+]c1ccc(F)cc1
REMARK SMILES IDX 10 1 8 2 9 3 7 4 2 5 4 6 5 7 6 8 1 9 3 10 11 13 12 14 18 15
REMARK SMILES IDX 13 16 17 17 15 18 14 19 16 20 19 21 20 24 21 25 26 26 22 27
REMARK SMILES IDX 25 28 23 29 24 30
REMARK H PARENT 3 11 3 12 19 22 19 23
ROOT
ATOM      1  N   UNL     1      45.032 131.777  18.824  1.00  0.00    -0.622 NA
ENDROOT
BRANCH   1   2
ATOM      2  C   UNL     1      45.267 130.658  17.956  1.00  0.00     0.060 C 
ATOM      3  O   UNL     1      45.942 129.695  18.408  1.00  0.00    -0.320 OA
BRANCH   2   4
ATOM      4  C   UNL     1      44.602 130.533  16.591  1.00  0.00     0.057 C 
ATOM      5  C   UNL     1      45.587 130.327  15.410  1.00  0.00     0.021 C 
ATOM      6  C   UNL     1      44.909 131.010  14.193  1.00  0.00     0.022 C 
ATOM      7  C   UNL     1      43.637 131.682  14.703  1.00  0.00     0.003 C 
ATOM      8  C   UNL     1      43.780 131.763  16.211  1.00  0.00     0.012 C 
ATOM      9  C   UNL     1      45.799 128.824  15.141  1.00  0.00     0.028 C 
BRANCH   5  10
ATOM     10  N   UNL     1      46.888 130.956  15.690  1.00  0.00    -0.325 NA
ATOM     11  H   UNL     1      46.741 131.941  16.010  1.00  0.00     0.119 HD
ATOM     12  H   UNL     1      47.448 131.003  14.807  1.00  0.00     0.119 HD
ENDBRANCH   5  10
ENDBRANCH   2   4
ENDBRANCH   1   2
BRANCH   1  13
ATOM     13  C   UNL     1      44.067 131.879  19.880  1.00  0.00    -0.068 A 
ATOM     14  C   UNL     1      42.956 132.732  19.759  1.00  0.00     0.032 A 
ATOM     15  C   UNL     1      44.288 131.195  21.099  1.00  0.00     0.123 A 
ATOM     16  C   UNL     1      42.019 132.827  20.789  1.00  0.00     0.158 A 
ATOM     17  C   UNL     1      43.330 131.296  22.125  1.00  0.00     0.109 A 
ATOM     18  C   UNL     1      42.198 132.098  21.966  1.00  0.00     0.164 A 
ATOM     19  F   UNL     1      40.942 133.640  20.650  1.00  0.00    -0.204 F 
ATOM     20  F   UNL     1      41.288 132.188  22.966  1.00  0.00    -0.204 F 
BRANCH  15  21
ATOM     21  N   UNL     1      45.482 130.404  21.307  1.00  0.00    -0.283 N 
ATOM     22  H   UNL     1      46.187 130.942  21.862  1.00  0.00     0.358 HD
ATOM     23  H   UNL     1      45.931 130.199  20.384  1.00  0.00     0.358 HD
BRANCH  21  24
ATOM     24  C   UNL     1      45.168 129.186  22.012  1.00  0.00     0.134 A 
ATOM     25  C   UNL     1      45.616 127.941  21.528  1.00  0.00     0.071 A 
ATOM     26  C   UNL     1      44.417 129.224  23.202  1.00  0.00     0.071 A 
ATOM     27  C   UNL     1      45.307 126.763  22.213  1.00  0.00     0.045 A 
ATOM     28  C   UNL     1      44.106 128.042  23.881  1.00  0.00     0.045 A 
ATOM     29  C   UNL     1      44.549 126.813  23.386  1.00  0.00     0.123 A 
ATOM     30  F   UNL     1      44.243 125.667  24.044  1.00  0.00    -0.207 F 
ENDBRANCH  21  24
ENDBRANCH  15  21
ENDBRANCH   1  13
TORSDOF 6
ENDMDL
MODEL 5
REMARK VINA RESULT:      -6.8      0.396      1.029
REMARK SMILES C[C@@]1(N)CCC[C@@H]1C(=O)[N-]c1cc(F)c(F)cc1[NH2+]c1ccc(F)cc1
REMARK SMILES IDX 10 1 8 2 9 3 7 4 2 5 4 6 5 7 6 8 1 9 3 10 11 13 12 14 18 15
REMARK SMILES IDX 13 16 17 17 15 18 14 19 16 20 19 21 20 24 21 25 26 26 22 27
REMARK SMILES IDX 25 28 23 29 24 30
REMARK H PARENT 3 11 3 12 19 22 19 23
ROOT
ATOM      1  N   UNL     1      45.682 130.459  19.544  1.00  0.00    -0.622 NA
ENDROOT
BRANCH   1   2
ATOM      2  C   UNL     1      45.573 130.834  20.925  1.00  0.00     0.060 C 
ATOM      3  O   UNL     1      46.176 131.875  21.301  1.00  0.00    -0.320 OA
BRANCH   2   4
ATOM      4  C   UNL     1      44.639 130.117  21.892  1.00  0.00     0.057 C 
ATOM      5  C   UNL     1      44.183 130.972  23.103  1.00  0.00     0.021 C 
ATOM      6  C   UNL     1      43.992 129.962  24.264  1.00  0.00     0.022 C 
ATOM      7  C   UNL     1      44.441 128.596  23.752  1.00  0.00     0.003 C 
ATOM      8  C   UNL     1      45.261 128.864  22.504  1.00  0.00     0.012 C 
ATOM      9  C   UNL     1      42.857 131.692  22.785  1.00  0.00     0.028 C 
BRANCH   5  10
ATOM     10  N   UNL     1      45.202 131.973  23.458  1.00  0.00    -0.325 NA
ATOM     11  H   UNL     1      45.054 132.290  24.444  1.00  0.00     0.119 HD
ATOM     12  H   UNL     1      45.090 132.815  22.848  1.00  0.00     0.119 HD
ENDBRANCH   5  10
ENDBRANCH   2   4
ENDBRANCH   1   2
BRANCH   1  13
ATOM     13  C   UNL     1      44.873 130.907  18.448  1.00  0.00    -0.068 A 
ATOM     14  C   UNL     1      43.620 131.504  18.676  1.00  0.00     0.032 A 
ATOM     15  C   UNL     1      45.290 130.654  17.119  1.00  0.00     0.123 A 
ATOM     16  C   UNL     1      42.837 131.939  17.605  1.00  0.00     0.158 A 
ATOM     17  C   UNL     1      44.492 131.106  16.052  1.00  0.00     0.109 A 
ATOM     18  C   UNL     1      43.279 131.754  16.295  1.00  0.00     0.164 A 
ATOM     19  F   UNL     1      41.639 132.529  17.841  1.00  0.00    -0.204 F 
ATOM     20  F   UNL     1      42.520 132.178  15.255  1.00  0.00    -0.204 F 
BRANCH  15  21
ATOM     21  N   UNL     1      46.516 129.934  16.845  1.00  0.00    -0.283 N 
ATOM     22  H   UNL     1      46.368 128.904  16.953  1.00  0.00     0.358 HD
ATOM     23  H   UNL     1      47.243 130.202  17.549  1.00  0.00     0.358 HD
BRANCH  21  24
ATOM     24  C   UNL     1      46.971 130.199  15.503  1.00  0.00     0.134 A 
ATOM     25  C   UNL     1      47.537 129.171  14.722  1.00  0.00     0.071 A 
ATOM     26  C   UNL     1      46.848 131.487  14.949  1.00  0.00     0.071 A 
ATOM     27  C   UNL     1      47.980 129.433  13.424  1.00  0.00     0.045 A 
ATOM     28  C   UNL     1      47.297 131.744  13.650  1.00  0.00     0.045 A 
ATOM     29  C   UNL     1      47.865 130.719  12.889  1.00  0.00     0.123 A 
ATOM     30  F   UNL     1      48.303 130.971  11.631  1.00  0.00    -0.207 F 
ENDBRANCH  21  24
ENDBRANCH  15  21
ENDBRANCH   1  13
TORSDOF 6
ENDMDL
MODEL 6
REMARK VINA RESULT:      -6.8      1.580      2.153
REMARK SMILES C[C@@]1(N)CCC[C@@H]1C(=O)[N-]c1cc(F)c(F)cc1[NH2+]c1ccc(F)cc1
REMARK SMILES IDX 10 1 8 2 9 3 7 4 2 5 4 6 5 7 6 8 1 9 3 10 11 13 12 14 18 15
REMARK SMILES IDX 13 16 17 17 15 18 14 19 16 20 19 21 20 24 21 25 26 26 22 27
REMARK SMILES IDX 25 28 23 29 24 30
REMARK H PARENT 3 11 3 12 19 22 19 23
ROOT
ATOM      1  N   UNL     1      45.271 130.462  20.920  1.00  0.00    -0.622 NA
ENDROOT
BRANCH   1   2
ATOM      2  C   UNL     1      44.966 129.644  22.058  1.00  0.00     0.060 C 
ATOM      3  O   UNL     1      45.224 128.412  21.984  1.00  0.00    -0.320 OA
BRANCH   2   4
ATOM      4  C   UNL     1      44.499 130.233  23.383  1.00  0.00     0.057 C 
ATOM      5  C   UNL     1      43.034 129.891  23.762  1.00  0.00     0.021 C 
ATOM      6  C   UNL     1      42.527 131.116  24.568  1.00  0.00     0.022 C 
ATOM      7  C   UNL     1      43.636 132.164  24.541  1.00  0.00     0.003 C 
ATOM      8  C   UNL     1      44.571 131.758  23.418  1.00  0.00     0.012 C 
ATOM      9  C   UNL     1      42.984 128.615  24.625  1.00  0.00     0.028 C 
BRANCH   5  10
ATOM     10  N   UNL     1      42.209 129.693  22.559  1.00  0.00    -0.325 NA
ATOM     11  H   UNL     1      42.434 130.433  21.854  1.00  0.00     0.119 HD
ATOM     12  H   UNL     1      41.199 129.808  22.809  1.00  0.00     0.119 HD
ENDBRANCH   5  10
ENDBRANCH   2   4
ENDBRANCH   1   2
BRANCH   1  13
ATOM     13  C   UNL     1      44.347 131.092  20.021  1.00  0.00    -0.068 A 
ATOM     14  C   UNL     1      43.233 131.795  20.511  1.00  0.00     0.032 A 
ATOM     15  C   UNL     1      44.499 130.916  18.625  1.00  0.00     0.123 A 
ATOM     16  C   UNL     1      42.338 132.408  19.631  1.00  0.00     0.158 A 
ATOM     17  C   UNL     1      43.592 131.546  17.752  1.00  0.00     0.109 A 
ATOM     18  C   UNL     1      42.526 132.295  18.253  1.00  0.00     0.164 A 
ATOM     19  F   UNL     1      41.278 133.099  20.119  1.00  0.00    -0.204 F 
ATOM     20  F   UNL     1      41.658 132.890  17.399  1.00  0.00    -0.204 F 
BRANCH  15  21
ATOM     21  N   UNL     1      45.564 130.097  18.086  1.00  0.00    -0.283 N 
ATOM     22  H   UNL     1      45.341 129.082  18.203  1.00  0.00     0.358 HD
ATOM     23  H   UNL     1      46.445 130.269  18.625  1.00  0.00     0.358 HD
BRANCH  21  24
ATOM     24  C   UNL     1      45.754 130.370  16.682  1.00  0.00     0.134 A 
ATOM     25  C   UNL     1      44.771 131.060  15.946  1.00  0.00     0.071 A 
ATOM     26  C   UNL     1      46.931 129.957  16.029  1.00  0.00     0.071 A 
ATOM     27  C   UNL     1      44.959 131.319  14.586  1.00  0.00     0.045 A 
ATOM     28  C   UNL     1      47.111 130.215  14.667  1.00  0.00     0.045 A 
ATOM     29  C   UNL     1      46.125 130.893  13.945  1.00  0.00     0.123 A 
ATOM     30  F   UNL     1      46.300 131.138  12.623  1.00  0.00    -0.207 F 
ENDBRANCH  21  24
ENDBRANCH  15  21
ENDBRANCH   1  13
TORSDOF 6
ENDMDL
MODEL 7
REMARK VINA RESULT:      -6.7      3.703      5.757
REMARK SMILES C[C@@]1(N)CCC[C@@H]1C(=O)[N-]c1cc(F)c(F)cc1[NH2+]c1ccc(F)cc1
REMARK SMILES IDX 10 1 8 2 9 3 7 4 2 5 4 6 5 7 6 8 1 9 3 10 11 13 12 14 18 15
REMARK SMILES IDX 13 16 17 17 15 18 14 19 16 20 19 21 20 24 21 25 26 26 22 27
REMARK SMILES IDX 25 28 23 29 24 30
REMARK H PARENT 3 11 3 12 19 22 19 23
ROOT
ATOM      1  N   UNL     1      45.603 127.891  21.766  1.00  0.00    -0.622 NA
ENDROOT
BRANCH   1   2
ATOM      2  C   UNL     1      45.526 126.532  22.223  1.00  0.00     0.060 C 
ATOM      3  O   UNL     1      44.439 125.917  22.058  1.00  0.00    -0.320 OA
BRANCH   2   4
ATOM      4  C   UNL     1      46.743 125.778  22.743  1.00  0.00     0.057 C 
ATOM      5  C   UNL     1      46.752 124.262  22.415  1.00  0.00     0.021 C 
ATOM      6  C   UNL     1      47.496 123.595  23.602  1.00  0.00     0.022 C 
ATOM      7  C   UNL     1      47.792 124.691  24.622  1.00  0.00     0.003 C 
ATOM      8  C   UNL     1      46.890 125.856  24.261  1.00  0.00     0.012 C 
ATOM      9  C   UNL     1      47.497 124.001  21.092  1.00  0.00     0.028 C 
BRANCH   5  10
ATOM     10  N   UNL     1      45.381 123.735  22.310  1.00  0.00    -0.325 NA
ATOM     11  H   UNL     1      44.772 124.196  23.025  1.00  0.00     0.119 HD
ATOM     12  H   UNL     1      45.386 122.712  22.528  1.00  0.00     0.119 HD
ENDBRANCH   5  10
ENDBRANCH   2   4
ENDBRANCH   1   2
BRANCH   1  13
ATOM     13  C   UNL     1      44.773 128.994  22.154  1.00  0.00    -0.068 A 
ATOM     14  C   UNL     1      43.705 128.810  23.050  1.00  0.00     0.032 A 
ATOM     15  C   UNL     1      44.963 130.260  21.551  1.00  0.00     0.123 A 
ATOM     16  C   UNL     1      42.901 129.887  23.426  1.00  0.00     0.158 A 
ATOM     17  C   UNL     1      44.149 131.337  21.947  1.00  0.00     0.109 A 
ATOM     18  C   UNL     1      43.132 131.153  22.886  1.00  0.00     0.164 A 
ATOM     19  F   UNL     1      41.886 129.698  24.306  1.00  0.00    -0.204 F 
ATOM     20  F   UNL     1      42.353 132.200  23.252  1.00  0.00    -0.204 F 
BRANCH  15  21
ATOM     21  N   UNL     1      45.974 130.459  20.535  1.00  0.00    -0.283 N 
ATOM     22  H   UNL     1      46.543 129.590  20.408  1.00  0.00     0.358 HD
ATOM     23  H   UNL     1      46.641 131.204  20.845  1.00  0.00     0.358 HD
BRANCH  21  24
ATOM     24  C   UNL     1      45.366 130.802  19.273  1.00  0.00     0.134 A 
ATOM     25  C   UNL     1      44.151 131.514  19.233  1.00  0.00     0.071 A 
ATOM     26  C   UNL     1      45.983 130.438  18.062  1.00  0.00     0.071 A 
ATOM     27  C   UNL     1      43.564 131.841  18.008  1.00  0.00     0.045 A 
ATOM     28  C   UNL     1      45.388 130.763  16.839  1.00  0.00     0.045 A 
ATOM     29  C   UNL     1      44.179 131.462  16.812  1.00  0.00     0.123 A 
ATOM     30  F   UNL     1      43.602 131.774  15.625  1.00  0.00    -0.207 F 
ENDBRANCH  21  24
ENDBRANCH  15  21
ENDBRANCH   1  13
TORSDOF 6
ENDMDL
MODEL 8
REMARK VINA RESULT:      -6.6      1.453      1.912
REMARK SMILES C[C@@]1(N)CCC[C@@H]1C(=O)[N-]c1cc(F)c(F)cc1[NH2+]c1ccc(F)cc1
REMARK SMILES IDX 10 1 8 2 9 3 7 4 2 5 4 6 5 7 6 8 1 9 3 10 11 13 12 14 18 15
REMARK SMILES IDX 13 16 17 17 15 18 14 19 16 20 19 21 20 24 21 25 26 26 22 27
REMARK SMILES IDX 25 28 23 29 24 30
REMARK H PARENT 3 11 3 12 19 22 19 23
ROOT
ATOM      1  N   UNL     1      45.063 130.970  21.174  1.00  0.00    -0.622 NA
ENDROOT
BRANCH   1   2
ATOM      2  C   UNL     1      45.365 129.593  21.442  1.00  0.00     0.060 C 
ATOM      3  O   UNL     1      46.475 129.147  21.045  1.00  0.00    -0.320 OA
BRANCH   2   4
ATOM      4  C   UNL     1      44.473 128.718  22.313  1.00  0.00     0.057 C 
ATOM      5  C   UNL     1      43.824 129.453  23.515  1.00  0.00     0.021 C 
ATOM      6  C   UNL     1      43.692 128.377  24.625  1.00  0.00     0.022 C 
ATOM      7  C   UNL     1      44.354 127.105  24.101  1.00  0.00     0.003 C 
ATOM      8  C   UNL     1      45.214 127.532  22.926  1.00  0.00     0.012 C 
ATOM      9  C   UNL     1      42.439 130.005  23.127  1.00  0.00     0.028 C 
BRANCH   5  10
ATOM     10  N   UNL     1      44.674 130.563  23.978  1.00  0.00    -0.325 NA
ATOM     11  H   UNL     1      44.689 130.580  25.024  1.00  0.00     0.119 HD
ATOM     12  H   UNL     1      44.259 131.471  23.665  1.00  0.00     0.119 HD
ENDBRANCH   5  10
ENDBRANCH   2   4
ENDBRANCH   1   2
BRANCH   1  13
ATOM     13  C   UNL     1      44.091 131.491  20.255  1.00  0.00    -0.068 A 
ATOM     14  C   UNL     1      43.039 132.306  20.708  1.00  0.00     0.032 A 
ATOM     15  C   UNL     1      44.131 131.097  18.897  1.00  0.00     0.123 A 
ATOM     16  C   UNL     1      42.097 132.812  19.810  1.00  0.00     0.158 A 
ATOM     17  C   UNL     1      43.178 131.622  18.003  1.00  0.00     0.109 A 
ATOM     18  C   UNL     1      42.175 132.482  18.456  1.00  0.00     0.164 A 
ATOM     19  F   UNL     1      41.098 133.612  20.258  1.00  0.00    -0.204 F 
ATOM     20  F   UNL     1      41.262 132.974  17.583  1.00  0.00    -0.204 F 
BRANCH  15  21
ATOM     21  N   UNL     1      45.127 130.164  18.417  1.00  0.00    -0.283 N 
ATOM     22  H   UNL     1      44.714 129.208  18.314  1.00  0.00     0.358 HD
ATOM     23  H   UNL     1      45.894 130.077  19.124  1.00  0.00     0.358 HD
BRANCH  21  24
ATOM     24  C   UNL     1      45.645 130.585  17.139  1.00  0.00     0.134 A 
ATOM     25  C   UNL     1      45.434 131.899  16.677  1.00  0.00     0.071 A 
ATOM     26  C   UNL     1      46.379 129.690  16.338  1.00  0.00     0.071 A 
ATOM     27  C   UNL     1      45.935 132.300  15.437  1.00  0.00     0.045 A 
ATOM     28  C   UNL     1      46.874 130.096  15.095  1.00  0.00     0.045 A 
ATOM     29  C   UNL     1      46.651 131.399  14.643  1.00  0.00     0.123 A 
ATOM     30  F   UNL     1      47.128 131.790  13.436  1.00  0.00    -0.207 F 
ENDBRANCH  21  24
ENDBRANCH  15  21
ENDBRANCH   1  13
TORSDOF 6
ENDMDL
MODEL 9
REMARK VINA RESULT:      -5.8      2.555      7.427
REMARK SMILES C[C@@]1(N)CCC[C@@H]1C(=O)[N-]c1cc(F)c(F)cc1[NH2+]c1ccc(F)cc1
REMARK SMILES IDX 10 1 8 2 9 3 7 4 2 5 4 6 5 7 6 8 1 9 3 10 11 13 12 14 18 15
REMARK SMILES IDX 13 16 17 17 15 18 14 19 16 20 19 21 20 24 21 25 26 26 22 27
REMARK SMILES IDX 25 28 23 29 24 30
REMARK H PARENT 3 11 3 12 19 22 19 23
ROOT
ATOM      1  N   UNL     1      45.484 130.603  19.308  1.00  0.00    -0.622 NA
ENDROOT
BRANCH   1   2
ATOM      2  C   UNL     1      45.987 130.355  17.987  1.00  0.00     0.060 C 
ATOM      3  O   UNL     1      47.097 129.766  17.881  1.00  0.00    -0.320 OA
BRANCH   2   4
ATOM      4  C   UNL     1      45.163 130.632  16.736  1.00  0.00     0.057 C 
ATOM      5  C   UNL     1      45.626 129.859  15.474  1.00  0.00     0.021 C 
ATOM      6  C   UNL     1      45.291 130.793  14.281  1.00  0.00     0.022 C 
ATOM      7  C   UNL     1      44.764 132.100  14.866  1.00  0.00     0.003 C 
ATOM      8  C   UNL     1      45.174 132.103  16.327  1.00  0.00     0.012 C 
ATOM      9  C   UNL     1      44.865 128.525  15.349  1.00  0.00     0.028 C 
BRANCH   5  10
ATOM     10  N   UNL     1      47.072 129.587  15.520  1.00  0.00    -0.325 NA
ATOM     11  H   UNL     1      47.401 129.275  14.577  1.00  0.00     0.119 HD
ATOM     12  H   UNL     1      47.255 128.798  16.182  1.00  0.00     0.119 HD
ENDBRANCH   5  10
ENDBRANCH   2   4
ENDBRANCH   1   2
BRANCH   1  13
ATOM     13  C   UNL     1      44.274 131.281  19.671  1.00  0.00    -0.068 A 
ATOM     14  C   UNL     1      43.438 131.837  18.687  1.00  0.00     0.032 A 
ATOM     15  C   UNL     1      43.968 131.484  21.038  1.00  0.00     0.123 A 
ATOM     16  C   UNL     1      42.260 132.494  19.046  1.00  0.00     0.158 A 
ATOM     17  C   UNL     1      42.773 132.142  21.382  1.00  0.00     0.109 A 
ATOM     18  C   UNL     1      41.920 132.634  20.392  1.00  0.00     0.164 A 
ATOM     19  F   UNL     1      41.454 133.010  18.084  1.00  0.00    -0.204 F 
ATOM     20  F   UNL     1      40.776 133.272  20.741  1.00  0.00    -0.204 F 
BRANCH  15  21
ATOM     21  N   UNL     1      44.865 131.032  22.080  1.00  0.00    -0.283 N 
ATOM     22  H   UNL     1      44.923 131.742  22.847  1.00  0.00     0.358 HD
ATOM     23  H   UNL     1      45.833 130.940  21.692  1.00  0.00     0.358 HD
BRANCH  21  24
ATOM     24  C   UNL     1      44.409 129.783  22.638  1.00  0.00     0.134 A 
ATOM     25  C   UNL     1      45.044 128.572  22.301  1.00  0.00     0.071 A 
ATOM     26  C   UNL     1      43.326 129.758  23.537  1.00  0.00     0.071 A 
ATOM     27  C   UNL     1      44.596 127.365  22.842  1.00  0.00     0.045 A 
ATOM     28  C   UNL     1      42.878 128.546  24.071  1.00  0.00     0.045 A 
ATOM     29  C   UNL     1      43.511 127.350  23.723  1.00  0.00     0.123 A 
ATOM     30  F   UNL     1      43.074 126.175  24.239  1.00  0.00    -0.207 F 
ENDBRANCH  21  24
ENDBRANCH  15  21
ENDBRANCH   1  13
TORSDOF 6
ENDMDL


