MODEL 1
REMARK VINA RESULT:      -9.0      0.000      0.000
REMARK SMILES O=C([N-][C@H]1CC12CCC2)c1ccc(C(=O)N[C@@H]2C=CCC2)c(F)c1[O-]
REMARK SMILES IDX 10 1 11 2 12 3 13 4 22 5 23 6 24 7 25 8 2 9 1 10 3 11 4 12
REMARK SMILES IDX 5 13 6 14 7 15 9 16 8 17 14 18 16 19 15 20 17 22 18 23 21 24
REMARK SMILES IDX 19 25 20 26
REMARK H PARENT 16 21
ROOT
ATOM      1  C   UNL     1      43.851 131.510  20.300  1.00  0.00    -0.006 A 
ATOM      2  C   UNL     1      45.028 130.881  19.856  1.00  0.00     0.010 A 
ATOM      3  C   UNL     1      45.275 130.706  18.493  1.00  0.00     0.017 A 
ATOM      4  C   UNL     1      44.359 131.163  17.536  1.00  0.00     0.074 A 
ATOM      5  C   UNL     1      43.170 131.777  17.969  1.00  0.00     0.128 A 
ATOM      6  F   UNL     1      42.225 132.164  17.074  1.00  0.00    -0.207 F 
ATOM      7  C   UNL     1      42.917 131.953  19.336  1.00  0.00    -0.062 A 
ATOM      8  O   UNL     1      41.727 132.565  19.719  1.00  0.00    -0.870 OA
ENDROOT
BRANCH   1   9
ATOM      9  C   UNL     1      43.616 131.683  21.758  1.00  0.00     0.082 C 
ATOM     10  O   UNL     1      42.684 132.423  22.176  1.00  0.00    -0.315 OA
BRANCH   9  11
ATOM     11  N   UNL     1      44.449 131.005  22.704  1.00  0.00    -0.646 NA
BRANCH  11  12
ATOM     12  C   UNL     1      44.435 129.558  22.865  1.00  0.00    -0.100 C 
ATOM     13  C   UNL     1      44.639 129.096  24.312  1.00  0.00    -0.010 C 
ATOM     14  C   UNL     1      43.255 129.078  23.672  1.00  0.00    -0.044 C 
ATOM     15  C   UNL     1      42.530 127.765  23.642  1.00  0.00     0.006 C 
ATOM     16  C   UNL     1      42.160 129.825  24.380  1.00  0.00     0.006 C 
ATOM     17  C   UNL     1      41.380 128.493  24.369  1.00  0.00     0.001 C 
ENDBRANCH  11  12
ENDBRANCH   9  11
ENDBRANCH   1   9
BRANCH   4  18
ATOM     18  C   UNL     1      44.648 130.969  16.098  1.00  0.00     0.254 C 
ATOM     19  N   UNL     1      45.694 130.086  15.666  1.00  0.00    -0.346 N 
ATOM     20  O   UNL     1      43.944 131.570  15.240  1.00  0.00    -0.269 OA
ATOM     21  H   UNL     1      46.117 129.428  16.360  1.00  0.00     0.164 HD
BRANCH  19  22
ATOM     22  C   UNL     1      46.122 130.025  14.265  1.00  0.00     0.105 C 
ATOM     23  C   UNL     1      47.348 129.192  14.118  1.00  0.00    -0.007 C 
ATOM     24  C   UNL     1      46.543 131.411  13.748  1.00  0.00     0.033 C 
ATOM     25  C   UNL     1      48.345 129.857  13.564  1.00  0.00    -0.029 C 
ATOM     26  C   UNL     1      47.981 131.260  13.240  1.00  0.00     0.029 C 
ENDBRANCH  19  22
ENDBRANCH   4  18
TORSDOF 5
ENDMDL
MODEL 2
REMARK VINA RESULT:      -8.4      1.433      1.962
REMARK SMILES O=C([N-][C@H]1CC12CCC2)c1ccc(C(=O)N[C@@H]2C=CCC2)c(F)c1[O-]
REMARK SMILES IDX 10 1 11 2 12 3 13 4 22 5 23 6 24 7 25 8 2 9 1 10 3 11 4 12
REMARK SMILES IDX 5 13 6 14 7 15 9 16 8 17 14 18 16 19 15 20 17 22 18 23 21 24
REMARK SMILES IDX 19 25 20 26
REMARK H PARENT 16 21
ROOT
ATOM      1  C   UNL     1      44.362 131.384  21.760  1.00  0.00    -0.006 A 
ATOM      2  C   UNL     1      45.474 130.951  21.015  1.00  0.00     0.010 A 
ATOM      3  C   UNL     1      45.438 130.935  19.620  1.00  0.00     0.017 A 
ATOM      4  C   UNL     1      44.295 131.361  18.929  1.00  0.00     0.074 A 
ATOM      5  C   UNL     1      43.170 131.778  19.664  1.00  0.00     0.128 A 
ATOM      6  F   UNL     1      42.020 132.125  19.032  1.00  0.00    -0.207 F 
ATOM      7  C   UNL     1      43.202 131.793  21.065  1.00  0.00    -0.062 A 
ATOM      8  O   UNL     1      42.066 132.214  21.751  1.00  0.00    -0.870 OA
ENDROOT
BRANCH   1   9
ATOM      9  C   UNL     1      44.431 131.390  23.245  1.00  0.00     0.082 C 
ATOM     10  O   UNL     1      44.445 132.478  23.884  1.00  0.00    -0.315 OA
BRANCH   9  11
ATOM     11  N   UNL     1      44.481 130.155  23.966  1.00  0.00    -0.646 NA
BRANCH  11  12
ATOM     12  C   UNL     1      43.479 129.111  23.802  1.00  0.00    -0.100 C 
ATOM     13  C   UNL     1      43.692 128.241  22.558  1.00  0.00    -0.010 C 
ATOM     14  C   UNL     1      44.059 127.727  23.946  1.00  0.00    -0.044 C 
ATOM     15  C   UNL     1      43.413 126.449  24.395  1.00  0.00     0.006 C 
ATOM     16  C   UNL     1      45.468 127.251  24.154  1.00  0.00     0.006 C 
ATOM     17  C   UNL     1      44.846 125.920  24.624  1.00  0.00     0.001 C 
ENDBRANCH  11  12
ENDBRANCH   9  11
ENDBRANCH   1   9
BRANCH   4  18
ATOM     18  C   UNL     1      44.285 131.338  17.450  1.00  0.00     0.254 C 
ATOM     19  N   UNL     1      45.167 130.475  16.717  1.00  0.00    -0.346 N 
ATOM     20  O   UNL     1      43.468 132.071  16.827  1.00  0.00    -0.269 OA
ATOM     21  H   UNL     1      45.672 129.717  17.231  1.00  0.00     0.164 HD
BRANCH  19  22
ATOM     22  C   UNL     1      45.309 130.573  15.261  1.00  0.00     0.105 C 
ATOM     23  C   UNL     1      46.159 129.470  14.733  1.00  0.00    -0.007 C 
ATOM     24  C   UNL     1      46.058 131.854  14.858  1.00  0.00     0.033 C 
ATOM     25  C   UNL     1      47.208 129.918  14.067  1.00  0.00    -0.029 C 
ATOM     26  C   UNL     1      47.264 131.402  14.028  1.00  0.00     0.029 C 
ENDBRANCH  19  22
ENDBRANCH   4  18
TORSDOF 5
ENDMDL
MODEL 3
REMARK VINA RESULT:      -7.6      1.419      1.921
REMARK SMILES O=C([N-][C@H]1CC12CCC2)c1ccc(C(=O)N[C@@H]2C=CCC2)c(F)c1[O-]
REMARK SMILES IDX 10 1 11 2 12 3 13 4 22 5 23 6 24 7 25 8 2 9 1 10 3 11 4 12
REMARK SMILES IDX 5 13 6 14 7 15 9 16 8 17 14 18 16 19 15 20 17 22 18 23 21 24
REMARK SMILES IDX 19 25 20 26
REMARK H PARENT 16 21
ROOT
ATOM      1  C   UNL     1      43.210 131.393  20.463  1.00  0.00    -0.006 A 
ATOM      2  C   UNL     1      42.233 131.609  19.475  1.00  0.00     0.010 A 
ATOM      3  C   UNL     1      42.568 131.584  18.120  1.00  0.00     0.017 A 
ATOM      4  C   UNL     1      43.885 131.331  17.715  1.00  0.00     0.074 A 
ATOM      5  C   UNL     1      44.875 131.132  18.695  1.00  0.00     0.128 A 
ATOM      6  F   UNL     1      46.175 130.960  18.341  1.00  0.00    -0.207 F 
ATOM      7  C   UNL     1      44.543 131.159  20.056  1.00  0.00    -0.062 A 
ATOM      8  O   UNL     1      45.553 130.956  20.991  1.00  0.00    -0.870 OA
ENDROOT
BRANCH   1   9
ATOM      9  C   UNL     1      42.822 131.426  21.899  1.00  0.00     0.082 C 
ATOM     10  O   UNL     1      42.488 132.510  22.449  1.00  0.00    -0.315 OA
BRANCH   9  11
ATOM     11  N   UNL     1      42.823 130.220  22.670  1.00  0.00    -0.646 NA
BRANCH  11  12
ATOM     12  C   UNL     1      43.997 129.367  22.788  1.00  0.00    -0.100 C 
ATOM     13  C   UNL     1      44.372 129.030  24.236  1.00  0.00    -0.010 C 
ATOM     14  C   UNL     1      43.668 128.007  23.351  1.00  0.00    -0.044 C 
ATOM     15  C   UNL     1      44.352 126.686  23.154  1.00  0.00     0.006 C 
ATOM     16  C   UNL     1      42.383 127.423  23.863  1.00  0.00     0.006 C 
ATOM     17  C   UNL     1      43.049 126.044  23.674  1.00  0.00     0.001 C 
ENDBRANCH  11  12
ENDBRANCH   9  11
ENDBRANCH   1   9
BRANCH   4  18
ATOM     18  C   UNL     1      44.213 131.305  16.272  1.00  0.00     0.254 C 
ATOM     19  N   UNL     1      45.388 130.633  15.792  1.00  0.00    -0.346 N 
ATOM     20  O   UNL     1      43.432 131.860  15.451  1.00  0.00    -0.269 OA
ATOM     21  H   UNL     1      45.901 129.991  16.440  1.00  0.00     0.164 HD
BRANCH  19  22
ATOM     22  C   UNL     1      45.833 130.755  14.401  1.00  0.00     0.105 C 
ATOM     23  C   UNL     1      46.501 129.505  13.943  1.00  0.00    -0.007 C 
ATOM     24  C   UNL     1      46.914 131.838  14.253  1.00  0.00     0.033 C 
ATOM     25  C   UNL     1      47.734 129.719  13.520  1.00  0.00    -0.029 C 
ATOM     26  C   UNL     1      48.128 131.148  13.620  1.00  0.00     0.029 C 
ENDBRANCH  19  22
ENDBRANCH   4  18
TORSDOF 5
ENDMDL
MODEL 4
REMARK VINA RESULT:      -7.1      1.186      8.364
REMARK SMILES O=C([N-][C@H]1CC12CCC2)c1ccc(C(=O)N[C@@H]2C=CCC2)c(F)c1[O-]
REMARK SMILES IDX 10 1 11 2 12 3 13 4 22 5 23 6 24 7 25 8 2 9 1 10 3 11 4 12
REMARK SMILES IDX 5 13 6 14 7 15 9 16 8 17 14 18 16 19 15 20 17 22 18 23 21 24
REMARK SMILES IDX 19 25 20 26
REMARK H PARENT 16 21
ROOT
ATOM      1  C   UNL     1      44.151 131.316  16.964  1.00  0.00    -0.006 A 
ATOM      2  C   UNL     1      45.258 130.792  17.656  1.00  0.00     0.010 A 
ATOM      3  C   UNL     1      45.268 130.736  19.051  1.00  0.00     0.017 A 
ATOM      4  C   UNL     1      44.169 131.191  19.792  1.00  0.00     0.074 A 
ATOM      5  C   UNL     1      43.064 131.734  19.111  1.00  0.00     0.128 A 
ATOM      6  F   UNL     1      42.015 132.254  19.798  1.00  0.00    -0.207 F 
ATOM      7  C   UNL     1      43.051 131.794  17.711  1.00  0.00    -0.062 A 
ATOM      8  O   UNL     1      41.938 132.340  17.079  1.00  0.00    -0.870 OA
ENDROOT
BRANCH   1   9
ATOM      9  C   UNL     1      44.170 131.362  15.478  1.00  0.00     0.082 C 
ATOM     10  O   UNL     1      43.412 132.151  14.849  1.00  0.00    -0.315 OA
BRANCH   9  11
ATOM     11  N   UNL     1      45.054 130.508  14.745  1.00  0.00    -0.646 NA
BRANCH  11  12
ATOM     12  C   UNL     1      45.841 130.980  13.614  1.00  0.00    -0.100 C 
ATOM     13  C   UNL     1      47.036 131.852  14.015  1.00  0.00    -0.010 C 
ATOM     14  C   UNL     1      47.233 130.399  13.597  1.00  0.00    -0.044 C 
ATOM     15  C   UNL     1      48.158 130.137  12.445  1.00  0.00     0.006 C 
ATOM     16  C   UNL     1      47.950 129.497  14.560  1.00  0.00     0.006 C 
ATOM     17  C   UNL     1      48.925 129.199  13.402  1.00  0.00     0.001 C 
ENDBRANCH  11  12
ENDBRANCH   9  11
ENDBRANCH   1   9
BRANCH   4  18
ATOM     18  C   UNL     1      44.203 131.116  21.270  1.00  0.00     0.254 C 
ATOM     19  N   UNL     1      44.107 129.854  21.949  1.00  0.00    -0.346 N 
ATOM     20  O   UNL     1      44.345 132.176  21.939  1.00  0.00    -0.269 OA
ATOM     21  H   UNL     1      44.217 128.974  21.394  1.00  0.00     0.164 HD
BRANCH  19  22
ATOM     22  C   UNL     1      43.946 129.771  23.403  1.00  0.00     0.105 C 
ATOM     23  C   UNL     1      44.058 128.362  23.873  1.00  0.00    -0.007 C 
ATOM     24  C   UNL     1      42.535 130.203  23.835  1.00  0.00     0.033 C 
ATOM     25  C   UNL     1      42.984 127.964  24.530  1.00  0.00    -0.029 C 
ATOM     26  C   UNL     1      41.949 129.025  24.622  1.00  0.00     0.029 C 
ENDBRANCH  19  22
ENDBRANCH   4  18
TORSDOF 5
ENDMDL
MODEL 5
REMARK VINA RESULT:      -7.0      1.105      8.314
REMARK SMILES O=C([N-][C@H]1CC12CCC2)c1ccc(C(=O)N[C@@H]2C=CCC2)c(F)c1[O-]
REMARK SMILES IDX 10 1 11 2 12 3 13 4 22 5 23 6 24 7 25 8 2 9 1 10 3 11 4 12
REMARK SMILES IDX 5 13 6 14 7 15 9 16 8 17 14 18 16 19 15 20 17 22 18 23 21 24
REMARK SMILES IDX 19 25 20 26
REMARK H PARENT 16 21
ROOT
ATOM      1  C   UNL     1      44.433 131.562  17.160  1.00  0.00    -0.006 A 
ATOM      2  C   UNL     1      45.398 131.133  18.090  1.00  0.00     0.010 A 
ATOM      3  C   UNL     1      45.082 131.016  19.445  1.00  0.00     0.017 A 
ATOM      4  C   UNL     1      43.794 131.314  19.907  1.00  0.00     0.074 A 
ATOM      5  C   UNL     1      42.827 131.763  18.989  1.00  0.00     0.128 A 
ATOM      6  F   UNL     1      41.590 132.133  19.412  1.00  0.00    -0.207 F 
ATOM      7  C   UNL     1      43.140 131.883  17.628  1.00  0.00    -0.062 A 
ATOM      8  O   UNL     1      42.152 132.331  16.756  1.00  0.00    -0.870 OA
ENDROOT
BRANCH   1   9
ATOM      9  C   UNL     1      44.799 131.676  15.723  1.00  0.00     0.082 C 
ATOM     10  O   UNL     1      43.906 131.796  14.840  1.00  0.00    -0.315 OA
BRANCH   9  11
ATOM     11  N   UNL     1      46.175 131.652  15.329  1.00  0.00    -0.646 NA
BRANCH  11  12
ATOM     12  C   UNL     1      46.971 130.434  15.338  1.00  0.00    -0.100 C 
ATOM     13  C   UNL     1      46.358 129.289  14.524  1.00  0.00    -0.010 C 
ATOM     14  C   UNL     1      47.529 130.099  13.978  1.00  0.00    -0.044 C 
ATOM     15  C   UNL     1      48.768 129.341  13.599  1.00  0.00     0.006 C 
ATOM     16  C   UNL     1      47.350 130.751  12.637  1.00  0.00     0.006 C 
ATOM     17  C   UNL     1      48.622 129.991  12.207  1.00  0.00     0.001 C 
ENDBRANCH  11  12
ENDBRANCH   9  11
ENDBRANCH   1   9
BRANCH   4  18
ATOM     18  C   UNL     1      43.484 131.178  21.348  1.00  0.00     0.254 C 
ATOM     19  N   UNL     1      44.035 130.103  22.124  1.00  0.00    -0.346 N 
ATOM     20  O   UNL     1      42.746 132.035  21.905  1.00  0.00    -0.269 OA
ATOM     21  H   UNL     1      44.815 129.535  21.717  1.00  0.00     0.164 HD
BRANCH  19  22
ATOM     22  C   UNL     1      43.595 129.837  23.497  1.00  0.00     0.105 C 
ATOM     23  C   UNL     1      44.522 128.894  24.182  1.00  0.00    -0.007 C 
ATOM     24  C   UNL     1      42.237 129.115  23.518  1.00  0.00     0.033 C 
ATOM     25  C   UNL     1      43.905 127.812  24.621  1.00  0.00    -0.029 C 
ATOM     26  C   UNL     1      42.453 127.821  24.310  1.00  0.00     0.029 C 
ENDBRANCH  19  22
ENDBRANCH   4  18
TORSDOF 5
ENDMDL
MODEL 6
REMARK VINA RESULT:      -6.6      2.745      3.666
REMARK SMILES O=C([N-][C@H]1CC12CCC2)c1ccc(C(=O)N[C@@H]2C=CCC2)c(F)c1[O-]
REMARK SMILES IDX 10 1 11 2 12 3 13 4 22 5 23 6 24 7 25 8 2 9 1 10 3 11 4 12
REMARK SMILES IDX 5 13 6 14 7 15 9 16 8 17 14 18 16 19 15 20 17 22 18 23 21 24
REMARK SMILES IDX 19 25 20 26
REMARK H PARENT 16 21
ROOT
ATOM      1  C   UNL     1      44.434 129.627  22.304  1.00  0.00    -0.006 A 
ATOM      2  C   UNL     1      45.439 129.247  21.395  1.00  0.00     0.010 A 
ATOM      3  C   UNL     1      45.611 129.933  20.192  1.00  0.00     0.017 A 
ATOM      4  C   UNL     1      44.792 131.023  19.867  1.00  0.00     0.074 A 
ATOM      5  C   UNL     1      43.772 131.400  20.760  1.00  0.00     0.128 A 
ATOM      6  F   UNL     1      42.912 132.403  20.446  1.00  0.00    -0.207 F 
ATOM      7  C   UNL     1      43.595 130.712  21.968  1.00  0.00    -0.062 A 
ATOM      8  O   UNL     1      42.574 131.119  22.822  1.00  0.00    -0.870 OA
ENDROOT
BRANCH   1   9
ATOM      9  C   UNL     1      44.276 128.876  23.578  1.00  0.00     0.082 C 
ATOM     10  O   UNL     1      43.882 129.461  24.624  1.00  0.00    -0.315 OA
BRANCH   9  11
ATOM     11  N   UNL     1      44.570 127.476  23.627  1.00  0.00    -0.646 NA
BRANCH  11  12
ATOM     12  C   UNL     1      45.930 126.959  23.571  1.00  0.00    -0.100 C 
ATOM     13  C   UNL     1      46.225 125.884  24.624  1.00  0.00    -0.010 C 
ATOM     14  C   UNL     1      45.979 125.507  23.167  1.00  0.00    -0.044 C 
ATOM     15  C   UNL     1      47.057 124.732  22.468  1.00  0.00     0.006 C 
ATOM     16  C   UNL     1      44.890 124.511  22.888  1.00  0.00     0.006 C 
ATOM     17  C   UNL     1      45.968 123.683  22.159  1.00  0.00     0.001 C 
ENDBRANCH  11  12
ENDBRANCH   9  11
ENDBRANCH   1   9
BRANCH   4  18
ATOM     18  C   UNL     1      44.999 131.737  18.587  1.00  0.00     0.254 C 
ATOM     19  N   UNL     1      45.075 131.021  17.345  1.00  0.00    -0.346 N 
ATOM     20  O   UNL     1      45.082 132.996  18.588  1.00  0.00    -0.269 OA
ATOM     21  H   UNL     1      44.783 130.016  17.324  1.00  0.00     0.164 HD
BRANCH  19  22
ATOM     22  C   UNL     1      45.468 131.681  16.097  1.00  0.00     0.105 C 
ATOM     23  C   UNL     1      44.363 131.637  15.100  1.00  0.00    -0.007 C 
ATOM     24  C   UNL     1      46.626 130.937  15.411  1.00  0.00     0.033 C 
ATOM     25  C   UNL     1      44.724 131.052  13.972  1.00  0.00    -0.029 C 
ATOM     26  C   UNL     1      46.135 130.588  14.002  1.00  0.00     0.029 C 
ENDBRANCH  19  22
ENDBRANCH   4  18
TORSDOF 5
ENDMDL
MODEL 7
REMARK VINA RESULT:      -6.6      1.596      8.534
REMARK SMILES O=C([N-][C@H]1CC12CCC2)c1ccc(C(=O)N[C@@H]2C=CCC2)c(F)c1[O-]
REMARK SMILES IDX 10 1 11 2 12 3 13 4 22 5 23 6 24 7 25 8 2 9 1 10 3 11 4 12
REMARK SMILES IDX 5 13 6 14 7 15 9 16 8 17 14 18 16 19 15 20 17 22 18 23 21 24
REMARK SMILES IDX 19 25 20 26
REMARK H PARENT 16 21
ROOT
ATOM      1  C   UNL     1      44.164 131.220  16.753  1.00  0.00    -0.006 A 
ATOM      2  C   UNL     1      43.118 131.869  17.434  1.00  0.00     0.010 A 
ATOM      3  C   UNL     1      43.114 131.949  18.828  1.00  0.00     0.017 A 
ATOM      4  C   UNL     1      44.158 131.394  19.579  1.00  0.00     0.074 A 
ATOM      5  C   UNL     1      45.200 130.727  18.909  1.00  0.00     0.128 A 
ATOM      6  F   UNL     1      46.189 130.111  19.607  1.00  0.00    -0.207 F 
ATOM      7  C   UNL     1      45.207 130.642  17.510  1.00  0.00    -0.062 A 
ATOM      8  O   UNL     1      46.257 129.972  16.890  1.00  0.00    -0.870 OA
ENDROOT
BRANCH   1   9
ATOM      9  C   UNL     1      44.141 131.152  15.268  1.00  0.00     0.082 C 
ATOM     10  O   UNL     1      43.233 131.732  14.612  1.00  0.00    -0.315 OA
BRANCH   9  11
ATOM     11  N   UNL     1      45.154 130.423  14.567  1.00  0.00    -0.646 NA
BRANCH  11  12
ATOM     12  C   UNL     1      45.993 131.034  13.546  1.00  0.00    -0.100 C 
ATOM     13  C   UNL     1      47.230 131.745  14.106  1.00  0.00    -0.010 C 
ATOM     14  C   UNL     1      47.346 130.377  13.442  1.00  0.00    -0.044 C 
ATOM     15  C   UNL     1      48.279 130.261  12.272  1.00  0.00     0.006 C 
ATOM     16  C   UNL     1      47.986 129.277  14.239  1.00  0.00     0.006 C 
ATOM     17  C   UNL     1      48.966 129.123  13.057  1.00  0.00     0.001 C 
ENDBRANCH  11  12
ENDBRANCH   9  11
ENDBRANCH   1   9
BRANCH   4  18
ATOM     18  C   UNL     1      44.132 131.497  21.055  1.00  0.00     0.254 C 
ATOM     19  N   UNL     1      44.669 130.452  21.879  1.00  0.00    -0.346 N 
ATOM     20  O   UNL     1      43.654 132.534  21.593  1.00  0.00    -0.269 OA
ATOM     21  H   UNL     1      45.259 129.712  21.434  1.00  0.00     0.164 HD
BRANCH  19  22
ATOM     22  C   UNL     1      44.482 130.443  23.333  1.00  0.00     0.105 C 
ATOM     23  C   UNL     1      43.249 129.697  23.709  1.00  0.00    -0.007 C 
ATOM     24  C   UNL     1      44.244 131.863  23.875  1.00  0.00     0.033 C 
ATOM     25  C   UNL     1      42.405 130.437  24.405  1.00  0.00    -0.029 C 
ATOM     26  C   UNL     1      42.907 131.818  24.622  1.00  0.00     0.029 C 
ENDBRANCH  19  22
ENDBRANCH   4  18
TORSDOF 5
ENDMDL
MODEL 8
REMARK VINA RESULT:      -6.2      1.362      1.998
REMARK SMILES O=C([N-][C@H]1CC12CCC2)c1ccc(C(=O)N[C@@H]2C=CCC2)c(F)c1[O-]
REMARK SMILES IDX 10 1 11 2 12 3 13 4 22 5 23 6 24 7 25 8 2 9 1 10 3 11 4 12
REMARK SMILES IDX 5 13 6 14 7 15 9 16 8 17 14 18 16 19 15 20 17 22 18 23 21 24
REMARK SMILES IDX 19 25 20 26
REMARK H PARENT 16 21
ROOT
ATOM      1  C   UNL     1      43.287 131.931  20.058  1.00  0.00    -0.006 A 
ATOM      2  C   UNL     1      42.311 131.462  19.159  1.00  0.00     0.010 A 
ATOM      3  C   UNL     1      42.651 131.125  17.848  1.00  0.00     0.017 A 
ATOM      4  C   UNL     1      43.974 131.237  17.401  1.00  0.00     0.074 A 
ATOM      5  C   UNL     1      44.954 131.723  18.286  1.00  0.00     0.128 A 
ATOM      6  F   UNL     1      46.231 131.916  17.866  1.00  0.00    -0.207 F 
ATOM      7  C   UNL     1      44.617 132.064  19.602  1.00  0.00    -0.062 A 
ATOM      8  O   UNL     1      45.619 132.540  20.443  1.00  0.00    -0.870 OA
ENDROOT
BRANCH   1   9
ATOM      9  C   UNL     1      42.894 132.282  21.449  1.00  0.00     0.082 C 
ATOM     10  O   UNL     1      41.831 132.923  21.674  1.00  0.00    -0.315 OA
BRANCH   9  11
ATOM     11  N   UNL     1      43.722 131.890  22.548  1.00  0.00    -0.646 NA
BRANCH  11  12
ATOM     12  C   UNL     1      43.240 131.043  23.630  1.00  0.00    -0.100 C 
ATOM     13  C   UNL     1      42.323 129.907  23.162  1.00  0.00    -0.010 C 
ATOM     14  C   UNL     1      43.774 129.635  23.543  1.00  0.00    -0.044 C 
ATOM     15  C   UNL     1      44.022 128.625  24.624  1.00  0.00     0.006 C 
ATOM     16  C   UNL     1      44.639 128.957  22.518  1.00  0.00     0.006 C 
ATOM     17  C   UNL     1      44.921 127.896  23.602  1.00  0.00     0.001 C 
ENDBRANCH  11  12
ENDBRANCH   9  11
ENDBRANCH   1   9
BRANCH   4  18
ATOM     18  C   UNL     1      44.309 130.869  16.007  1.00  0.00     0.254 C 
ATOM     19  N   UNL     1      45.637 130.457  15.649  1.00  0.00    -0.346 N 
ATOM     20  O   UNL     1      43.404 130.892  15.128  1.00  0.00    -0.269 OA
ATOM     21  H   UNL     1      46.315 130.224  16.411  1.00  0.00     0.164 HD
BRANCH  19  22
ATOM     22  C   UNL     1      46.036 130.273  14.250  1.00  0.00     0.105 C 
ATOM     23  C   UNL     1      47.129 129.268  14.136  1.00  0.00    -0.007 C 
ATOM     24  C   UNL     1      46.645 131.560  13.669  1.00  0.00     0.033 C 
ATOM     25  C   UNL     1      48.205 129.758  13.547  1.00  0.00    -0.029 C 
ATOM     26  C   UNL     1      48.042 131.183  13.163  1.00  0.00     0.029 C 
ENDBRANCH  19  22
ENDBRANCH   4  18
TORSDOF 5
ENDMDL


