MODEL 1
REMARK VINA RESULT:      -4.1      0.000      0.000
REMARK SMILES CC(C)[C@H](N=O)C(=O)N(c1ccc2[nH]ccc2c1)c1cccc2c1CCC2
REMARK SMILES IDX 7 1 8 2 4 3 2 4 1 5 3 6 5 7 6 8 9 9 10 10 11 11 18 12 12 13
REMARK SMILES IDX 17 14 13 15 16 16 14 17 15 18 19 20 20 21 24 22 21 23 23 24
REMARK SMILES IDX 25 25 22 26 27 27 26 28
REMARK H PARENT 14 19
ROOT
ATOM      1  C   UNL     1      43.971 126.282  23.457  1.00  0.00     0.260 C 
ATOM      2  O   UNL     1      43.718 126.687  24.625  1.00  0.00    -0.271 OA
ENDROOT
BRANCH   1   3
ATOM      3  C   UNL     1      43.081 125.189  22.877  1.00  0.00     0.243 C 
BRANCH   3   4
ATOM      4  C   UNL     1      41.652 125.173  23.489  1.00  0.00     0.021 C 
ATOM      5  C   UNL     1      40.551 125.003  22.433  1.00  0.00     0.010 C 
ATOM      6  C   UNL     1      41.511 124.119  24.597  1.00  0.00     0.010 C 
ENDBRANCH   3   4
BRANCH   3   7
ATOM      7  N   UNL     1      43.696 123.888  22.994  1.00  0.00    -0.056 NA
ATOM      8  O   UNL     1      44.741 123.653  22.463  1.00  0.00    -0.150 OA
ENDBRANCH   3   7
ENDBRANCH   1   3
BRANCH   1   9
ATOM      9  N   UNL     1      45.116 126.829  22.760  1.00  0.00    -0.279 N 
BRANCH   9  10
ATOM     10  C   UNL     1      46.389 126.146  22.849  1.00  0.00     0.050 A 
ATOM     11  C   UNL     1      47.246 126.363  23.963  1.00  0.00     0.029 A 
ATOM     12  C   UNL     1      46.799 125.248  21.831  1.00  0.00     0.037 A 
ATOM     13  C   UNL     1      48.480 125.697  24.070  1.00  0.00     0.029 A 
ATOM     14  C   UNL     1      48.025 124.606  21.971  1.00  0.00     0.001 A 
ATOM     15  C   UNL     1      48.836 124.820  23.051  1.00  0.00     0.045 A 
ATOM     16  C   UNL     1      48.659 123.696  21.152  1.00  0.00     0.028 A 
ATOM     17  N   UNL     1      49.958 124.088  22.958  1.00  0.00    -0.361 N 
ATOM     18  C   UNL     1      49.855 123.399  21.799  1.00  0.00     0.083 A 
ATOM     19  H   UNL     1      50.750 124.055  23.639  1.00  0.00     0.166 HD
ENDBRANCH   9  10
BRANCH   9  20
ATOM     20  C   UNL     1      45.081 128.176  22.247  1.00  0.00     0.052 A 
ATOM     21  C   UNL     1      45.925 128.556  21.183  1.00  0.00     0.027 A 
ATOM     22  C   UNL     1      44.177 129.128  22.751  1.00  0.00    -0.021 A 
ATOM     23  C   UNL     1      45.874 129.860  20.666  1.00  0.00     0.002 A 
ATOM     24  C   UNL     1      44.136 130.404  22.241  1.00  0.00    -0.043 A 
ATOM     25  C   UNL     1      43.175 128.945  23.832  1.00  0.00     0.038 C 
ATOM     26  C   UNL     1      44.976 130.794  21.196  1.00  0.00     0.004 A 
ATOM     27  C   UNL     1      43.120 131.246  22.910  1.00  0.00     0.036 C 
ATOM     28  C   UNL     1      42.563 130.343  24.025  1.00  0.00     0.010 C 
ENDBRANCH   9  20
ENDBRANCH   1   9
TORSDOF 6
ENDMDL
MODEL 2
REMARK VINA RESULT:      -3.0      4.067      7.883
REMARK SMILES CC(C)[C@H](N=O)C(=O)N(c1ccc2[nH]ccc2c1)c1cccc2c1CCC2
REMARK SMILES IDX 7 1 8 2 4 3 2 4 1 5 3 6 5 7 6 8 9 9 10 10 11 11 18 12 12 13
REMARK SMILES IDX 17 14 13 15 16 16 14 17 15 18 19 20 20 21 24 22 21 23 23 24
REMARK SMILES IDX 25 25 22 26 27 27 26 28
REMARK H PARENT 14 19
ROOT
ATOM      1  C   UNL     1      45.218 132.382  22.973  1.00  0.00     0.260 C 
ATOM      2  O   UNL     1      44.602 132.958  23.912  1.00  0.00    -0.271 OA
ENDROOT
BRANCH   1   3
ATOM      3  C   UNL     1      46.588 132.924  22.585  1.00  0.00     0.243 C 
BRANCH   3   4
ATOM      4  C   UNL     1      47.383 133.500  23.790  1.00  0.00     0.021 C 
ATOM      5  C   UNL     1      48.791 133.974  23.405  1.00  0.00     0.010 C 
ATOM      6  C   UNL     1      46.611 134.615  24.510  1.00  0.00     0.010 C 
ENDBRANCH   3   4
BRANCH   3   7
ATOM      7  N   UNL     1      46.489 133.904  21.529  1.00  0.00    -0.056 NA
ATOM      8  O   UNL     1      47.399 134.640  21.287  1.00  0.00    -0.150 OA
ENDBRANCH   3   7
ENDBRANCH   1   3
BRANCH   1   9
ATOM      9  N   UNL     1      44.571 131.285  22.283  1.00  0.00    -0.279 N 
BRANCH   9  10
ATOM     10  C   UNL     1      44.265 131.419  20.875  1.00  0.00     0.050 A 
ATOM     11  C   UNL     1      42.969 131.827  20.456  1.00  0.00     0.029 A 
ATOM     12  C   UNL     1      45.252 131.150  19.893  1.00  0.00     0.037 A 
ATOM     13  C   UNL     1      42.660 131.975  19.092  1.00  0.00     0.029 A 
ATOM     14  C   UNL     1      44.911 131.309  18.553  1.00  0.00     0.001 A 
ATOM     15  C   UNL     1      43.662 131.708  18.166  1.00  0.00     0.045 A 
ATOM     16  C   UNL     1      45.659 131.125  17.410  1.00  0.00     0.028 A 
ATOM     17  N   UNL     1      43.580 131.787  16.828  1.00  0.00    -0.361 N 
ATOM     18  C   UNL     1      44.799 131.432  16.361  1.00  0.00     0.083 A 
ATOM     19  H   UNL     1      42.748 132.065  16.260  1.00  0.00     0.166 HD
ENDBRANCH   9  10
BRANCH   9  20
ATOM     20  C   UNL     1      43.965 130.211  23.030  1.00  0.00     0.052 A 
ATOM     21  C   UNL     1      42.897 130.472  23.914  1.00  0.00     0.027 A 
ATOM     22  C   UNL     1      44.379 128.877  22.864  1.00  0.00    -0.021 A 
ATOM     23  C   UNL     1      42.289 129.425  24.623  1.00  0.00     0.002 A 
ATOM     24  C   UNL     1      43.780 127.858  23.565  1.00  0.00    -0.043 A 
ATOM     25  C   UNL     1      45.446 128.364  21.968  1.00  0.00     0.038 C 
ATOM     26  C   UNL     1      42.730 128.107  24.452  1.00  0.00     0.004 A 
ATOM     27  C   UNL     1      44.364 126.536  23.247  1.00  0.00     0.036 C 
ATOM     28  C   UNL     1      45.526 126.862  22.293  1.00  0.00     0.010 C 
ENDBRANCH   9  20
ENDBRANCH   1   9
TORSDOF 6
ENDMDL
MODEL 3
REMARK VINA RESULT:      -2.9      3.382      6.554
REMARK SMILES CC(C)[C@H](N=O)C(=O)N(c1ccc2[nH]ccc2c1)c1cccc2c1CCC2
REMARK SMILES IDX 7 1 8 2 4 3 2 4 1 5 3 6 5 7 6 8 9 9 10 10 11 11 18 12 12 13
REMARK SMILES IDX 17 14 13 15 16 16 14 17 15 18 19 20 20 21 24 22 21 23 23 24
REMARK SMILES IDX 25 25 22 26 27 27 26 28
REMARK H PARENT 14 19
ROOT
ATOM      1  C   UNL     1      45.133 129.229  21.808  1.00  0.00     0.260 C 
ATOM      2  O   UNL     1      45.622 128.556  20.859  1.00  0.00    -0.271 OA
ENDROOT
BRANCH   1   3
ATOM      3  C   UNL     1      45.008 128.551  23.167  1.00  0.00     0.243 C 
BRANCH   3   4
ATOM      4  C   UNL     1      45.533 127.088  23.174  1.00  0.00     0.021 C 
ATOM      5  C   UNL     1      45.837 126.568  24.585  1.00  0.00     0.010 C 
ATOM      6  C   UNL     1      44.588 126.132  22.433  1.00  0.00     0.010 C 
ENDBRANCH   3   4
BRANCH   3   7
ATOM      7  N   UNL     1      43.652 128.604  23.661  1.00  0.00    -0.056 NA
ATOM      8  O   UNL     1      42.799 127.912  23.190  1.00  0.00    -0.150 OA
ENDBRANCH   3   7
ENDBRANCH   1   3
BRANCH   1   9
ATOM      9  N   UNL     1      44.668 130.575  21.544  1.00  0.00    -0.279 N 
BRANCH   9  10
ATOM     10  C   UNL     1      44.369 130.964  20.182  1.00  0.00     0.050 A 
ATOM     11  C   UNL     1      43.131 131.588  19.868  1.00  0.00     0.029 A 
ATOM     12  C   UNL     1      45.306 130.733  19.144  1.00  0.00     0.037 A 
ATOM     13  C   UNL     1      42.832 131.984  18.552  1.00  0.00     0.029 A 
ATOM     14  C   UNL     1      44.977 131.139  17.854  1.00  0.00     0.001 A 
ATOM     15  C   UNL     1      43.785 131.744  17.568  1.00  0.00     0.045 A 
ATOM     16  C   UNL     1      45.687 131.046  16.677  1.00  0.00     0.028 A 
ATOM     17  N   UNL     1      43.703 132.041  16.261  1.00  0.00    -0.361 N 
ATOM     18  C   UNL     1      44.863 131.616  15.712  1.00  0.00     0.083 A 
ATOM     19  H   UNL     1      42.907 132.504  15.766  1.00  0.00     0.166 HD
ENDBRANCH   9  10
BRANCH   9  20
ATOM     20  C   UNL     1      44.791 131.598  22.552  1.00  0.00     0.052 A 
ATOM     21  C   UNL     1      43.878 131.657  23.624  1.00  0.00     0.027 A 
ATOM     22  C   UNL     1      45.846 132.529  22.525  1.00  0.00    -0.021 A 
ATOM     23  C   UNL     1      44.012 132.638  24.620  1.00  0.00     0.002 A 
ATOM     24  C   UNL     1      45.969 133.487  23.502  1.00  0.00    -0.043 A 
ATOM     25  C   UNL     1      46.939 132.632  21.525  1.00  0.00     0.038 C 
ATOM     26  C   UNL     1      45.062 133.562  24.563  1.00  0.00     0.004 A 
ATOM     27  C   UNL     1      47.141 134.364  23.288  1.00  0.00     0.036 C 
ATOM     28  C   UNL     1      47.719 133.891  21.943  1.00  0.00     0.010 C 
ENDBRANCH   9  20
ENDBRANCH   1   9
TORSDOF 6
ENDMDL
MODEL 4
REMARK VINA RESULT:      -2.7      3.958      6.325
REMARK SMILES CC(C)[C@H](N=O)C(=O)N(c1ccc2[nH]ccc2c1)c1cccc2c1CCC2
REMARK SMILES IDX 7 1 8 2 4 3 2 4 1 5 3 6 5 7 6 8 9 9 10 10 11 11 18 12 12 13
REMARK SMILES IDX 17 14 13 15 16 16 14 17 15 18 19 20 20 21 24 22 21 23 23 24
REMARK SMILES IDX 25 25 22 26 27 27 26 28
REMARK H PARENT 14 19
ROOT
ATOM      1  C   UNL     1      44.352 130.658  23.111  1.00  0.00     0.260 C 
ATOM      2  O   UNL     1      44.058 131.139  24.240  1.00  0.00    -0.271 OA
ENDROOT
BRANCH   1   3
ATOM      3  C   UNL     1      43.942 129.219  22.824  1.00  0.00     0.243 C 
BRANCH   3   4
ATOM      4  C   UNL     1      43.074 128.593  23.951  1.00  0.00     0.021 C 
ATOM      5  C   UNL     1      41.582 128.926  23.812  1.00  0.00     0.010 C 
ATOM      6  C   UNL     1      43.285 127.077  24.067  1.00  0.00     0.010 C 
ENDBRANCH   3   4
BRANCH   3   7
ATOM      7  N   UNL     1      45.089 128.387  22.547  1.00  0.00    -0.056 NA
ATOM      8  O   UNL     1      45.503 128.264  21.433  1.00  0.00    -0.150 OA
ENDBRANCH   3   7
ENDBRANCH   1   3
BRANCH   1   9
ATOM      9  N   UNL     1      45.108 131.471  22.180  1.00  0.00    -0.279 N 
BRANCH   9  10
ATOM     10  C   UNL     1      46.040 132.452  22.694  1.00  0.00     0.050 A 
ATOM     11  C   UNL     1      45.957 132.884  24.046  1.00  0.00     0.029 A 
ATOM     12  C   UNL     1      47.050 132.993  21.860  1.00  0.00     0.037 A 
ATOM     13  C   UNL     1      46.864 133.826  24.564  1.00  0.00     0.029 A 
ATOM     14  C   UNL     1      47.931 133.922  22.406  1.00  0.00     0.001 A 
ATOM     15  C   UNL     1      47.843 134.323  23.710  1.00  0.00     0.045 A 
ATOM     16  C   UNL     1      48.991 134.594  21.837  1.00  0.00     0.028 A 
ATOM     17  N   UNL     1      48.800 135.220  23.999  1.00  0.00    -0.361 N 
ATOM     18  C   UNL     1      49.504 135.389  22.857  1.00  0.00     0.083 A 
ATOM     19  H   UNL     1      48.967 135.693  24.915  1.00  0.00     0.166 HD
ENDBRANCH   9  10
BRANCH   9  20
ATOM     20  C   UNL     1      44.727 131.531  20.791  1.00  0.00     0.052 A 
ATOM     21  C   UNL     1      45.617 131.094  19.788  1.00  0.00     0.027 A 
ATOM     22  C   UNL     1      43.450 131.973  20.399  1.00  0.00    -0.021 A 
ATOM     23  C   UNL     1      45.239 131.129  18.437  1.00  0.00     0.002 A 
ATOM     24  C   UNL     1      43.088 132.006  19.074  1.00  0.00    -0.043 A 
ATOM     25  C   UNL     1      42.344 132.438  21.275  1.00  0.00     0.038 C 
ATOM     26  C   UNL     1      43.967 131.587  18.072  1.00  0.00     0.004 A 
ATOM     27  C   UNL     1      41.709 132.503  18.878  1.00  0.00     0.036 C 
ATOM     28  C   UNL     1      41.250 132.895  20.293  1.00  0.00     0.010 C 
ENDBRANCH   9  20
ENDBRANCH   1   9
TORSDOF 6
ENDMDL
MODEL 5
REMARK VINA RESULT:      -2.7      4.885      7.204
REMARK SMILES CC(C)[C@H](N=O)C(=O)N(c1ccc2[nH]ccc2c1)c1cccc2c1CCC2
REMARK SMILES IDX 7 1 8 2 4 3 2 4 1 5 3 6 5 7 6 8 9 9 10 10 11 11 18 12 12 13
REMARK SMILES IDX 17 14 13 15 16 16 14 17 15 18 19 20 20 21 24 22 21 23 23 24
REMARK SMILES IDX 25 25 22 26 27 27 26 28
REMARK H PARENT 14 19
ROOT
ATOM      1  C   UNL     1      44.920 131.755  22.717  1.00  0.00     0.260 C 
ATOM      2  O   UNL     1      45.002 132.437  23.775  1.00  0.00    -0.271 OA
ENDROOT
BRANCH   1   3
ATOM      3  C   UNL     1      44.035 130.514  22.742  1.00  0.00     0.243 C 
BRANCH   3   4
ATOM      4  C   UNL     1      42.969 130.543  23.872  1.00  0.00     0.021 C 
ATOM      5  C   UNL     1      42.033 131.755  23.780  1.00  0.00     0.010 C 
ATOM      6  C   UNL     1      42.164 129.237  23.939  1.00  0.00     0.010 C 
ENDBRANCH   3   4
BRANCH   3   7
ATOM      7  N   UNL     1      44.822 129.305  22.818  1.00  0.00    -0.056 NA
ATOM      8  O   UNL     1      45.272 128.802  21.832  1.00  0.00    -0.150 OA
ENDBRANCH   3   7
ENDBRANCH   1   3
BRANCH   1   9
ATOM      9  N   UNL     1      45.707 132.149  21.567  1.00  0.00    -0.279 N 
BRANCH   9  10
ATOM     10  C   UNL     1      46.764 133.124  21.736  1.00  0.00     0.050 A 
ATOM     11  C   UNL     1      47.835 132.876  22.636  1.00  0.00     0.029 A 
ATOM     12  C   UNL     1      46.748 134.338  21.003  1.00  0.00     0.037 A 
ATOM     13  C   UNL     1      48.876 133.807  22.800  1.00  0.00     0.029 A 
ATOM     14  C   UNL     1      47.795 135.235  21.189  1.00  0.00     0.001 A 
ATOM     15  C   UNL     1      48.822 134.980  22.054  1.00  0.00     0.045 A 
ATOM     16  C   UNL     1      48.033 136.465  20.615  1.00  0.00     0.028 A 
ATOM     17  N   UNL     1      49.705 135.992  22.058  1.00  0.00    -0.361 N 
ATOM     18  C   UNL     1      49.227 136.903  21.180  1.00  0.00     0.083 A 
ATOM     19  H   UNL     1      50.581 136.064  22.623  1.00  0.00     0.166 HD
ENDBRANCH   9  10
BRANCH   9  20
ATOM     20  C   UNL     1      45.262 131.824  20.235  1.00  0.00     0.052 A 
ATOM     21  C   UNL     1      46.126 131.167  19.335  1.00  0.00     0.027 A 
ATOM     22  C   UNL     1      43.950 132.103  19.812  1.00  0.00    -0.021 A 
ATOM     23  C   UNL     1      45.686 130.828  18.046  1.00  0.00     0.002 A 
ATOM     24  C   UNL     1      43.528 131.771  18.548  1.00  0.00    -0.043 A 
ATOM     25  C   UNL     1      42.863 132.747  20.594  1.00  0.00     0.038 C 
ATOM     26  C   UNL     1      44.379 131.130  17.644  1.00  0.00     0.004 A 
ATOM     27  C   UNL     1      42.119 132.151  18.305  1.00  0.00     0.036 C 
ATOM     28  C   UNL     1      41.706 132.890  19.590  1.00  0.00     0.010 C 
ENDBRANCH   9  20
ENDBRANCH   1   9
TORSDOF 6
ENDMDL
MODEL 6
REMARK VINA RESULT:      -2.6      4.260      7.358
REMARK SMILES CC(C)[C@H](N=O)C(=O)N(c1ccc2[nH]ccc2c1)c1cccc2c1CCC2
REMARK SMILES IDX 7 1 8 2 4 3 2 4 1 5 3 6 5 7 6 8 9 9 10 10 11 11 18 12 12 13
REMARK SMILES IDX 17 14 13 15 16 16 14 17 15 18 19 20 20 21 24 22 21 23 23 24
REMARK SMILES IDX 25 25 22 26 27 27 26 28
REMARK H PARENT 14 19
ROOT
ATOM      1  C   UNL     1      44.930 131.365  20.321  1.00  0.00     0.260 C 
ATOM      2  O   UNL     1      45.663 130.385  20.011  1.00  0.00    -0.271 OA
ENDROOT
BRANCH   1   3
ATOM      3  C   UNL     1      44.275 132.146  19.189  1.00  0.00     0.243 C 
BRANCH   3   4
ATOM      4  C   UNL     1      42.724 132.184  19.287  1.00  0.00     0.021 C 
ATOM      5  C   UNL     1      42.115 130.823  19.650  1.00  0.00     0.010 C 
ATOM      6  C   UNL     1      42.234 133.275  20.251  1.00  0.00     0.010 C 
ENDBRANCH   3   4
BRANCH   3   7
ATOM      7  N   UNL     1      44.688 131.651  17.897  1.00  0.00    -0.056 NA
ATOM      8  O   UNL     1      45.321 132.336  17.150  1.00  0.00    -0.150 OA
ENDBRANCH   3   7
ENDBRANCH   1   3
BRANCH   1   9
ATOM      9  N   UNL     1      44.800 131.726  21.718  1.00  0.00    -0.279 N 
BRANCH   9  10
ATOM     10  C   UNL     1      45.804 132.573  22.325  1.00  0.00     0.050 A 
ATOM     11  C   UNL     1      45.752 132.867  23.715  1.00  0.00     0.029 A 
ATOM     12  C   UNL     1      46.855 133.118  21.545  1.00  0.00     0.037 A 
ATOM     13  C   UNL     1      46.728 133.677  24.322  1.00  0.00     0.029 A 
ATOM     14  C   UNL     1      47.804 133.913  22.180  1.00  0.00     0.001 A 
ATOM     15  C   UNL     1      47.745 134.183  23.519  1.00  0.00     0.045 A 
ATOM     16  C   UNL     1      48.915 134.556  21.677  1.00  0.00     0.028 A 
ATOM     17  N   UNL     1      48.768 134.968  23.893  1.00  0.00    -0.361 N 
ATOM     18  C   UNL     1      49.486 135.200  22.770  1.00  0.00     0.083 A 
ATOM     19  H   UNL     1      48.970 135.329  24.853  1.00  0.00     0.166 HD
ENDBRANCH   9  10
BRANCH   9  20
ATOM     20  C   UNL     1      43.875 131.018  22.569  1.00  0.00     0.052 A 
ATOM     21  C   UNL     1      42.767 131.688  23.129  1.00  0.00     0.027 A 
ATOM     22  C   UNL     1      44.017 129.642  22.822  1.00  0.00    -0.021 A 
ATOM     23  C   UNL     1      41.852 130.995  23.937  1.00  0.00     0.002 A 
ATOM     24  C   UNL     1      43.119 128.972  23.617  1.00  0.00    -0.043 A 
ATOM     25  C   UNL     1      45.073 128.731  22.311  1.00  0.00     0.038 C 
ATOM     26  C   UNL     1      42.025 129.628  24.187  1.00  0.00     0.004 A 
ATOM     27  C   UNL     1      43.450 127.537  23.756  1.00  0.00     0.036 C 
ATOM     28  C   UNL     1      44.783 127.388  23.004  1.00  0.00     0.010 C 
ENDBRANCH   9  20
ENDBRANCH   1   9
TORSDOF 6
ENDMDL
MODEL 7
REMARK VINA RESULT:      -2.5      3.860      7.442
REMARK SMILES CC(C)[C@H](N=O)C(=O)N(c1ccc2[nH]ccc2c1)c1cccc2c1CCC2
REMARK SMILES IDX 7 1 8 2 4 3 2 4 1 5 3 6 5 7 6 8 9 9 10 10 11 11 18 12 12 13
REMARK SMILES IDX 17 14 13 15 16 16 14 17 15 18 19 20 20 21 24 22 21 23 23 24
REMARK SMILES IDX 25 25 22 26 27 27 26 28
REMARK H PARENT 14 19
ROOT
ATOM      1  C   UNL     1      44.380 131.836  23.227  1.00  0.00     0.260 C 
ATOM      2  O   UNL     1      43.528 131.833  24.158  1.00  0.00    -0.271 OA
ENDROOT
BRANCH   1   3
ATOM      3  C   UNL     1      45.357 133.004  23.165  1.00  0.00     0.243 C 
BRANCH   3   4
ATOM      4  C   UNL     1      46.396 132.874  22.017  1.00  0.00     0.021 C 
ATOM      5  C   UNL     1      45.968 133.606  20.738  1.00  0.00     0.010 C 
ATOM      6  C   UNL     1      47.799 133.318  22.455  1.00  0.00     0.010 C 
ENDBRANCH   3   4
BRANCH   3   7
ATOM      7  N   UNL     1      46.024 133.203  24.431  1.00  0.00    -0.056 NA
ATOM      8  O   UNL     1      46.697 134.172  24.625  1.00  0.00    -0.150 OA
ENDBRANCH   3   7
ENDBRANCH   1   3
BRANCH   1   9
ATOM      9  N   UNL     1      44.346 130.773  22.244  1.00  0.00    -0.279 N 
BRANCH   9  10
ATOM     10  C   UNL     1      44.050 131.096  20.865  1.00  0.00     0.050 A 
ATOM     11  C   UNL     1      42.810 131.697  20.517  1.00  0.00     0.029 A 
ATOM     12  C   UNL     1      44.992 130.820  19.842  1.00  0.00     0.037 A 
ATOM     13  C   UNL     1      42.513 132.028  19.183  1.00  0.00     0.029 A 
ATOM     14  C   UNL     1      44.665 131.163  18.533  1.00  0.00     0.001 A 
ATOM     15  C   UNL     1      43.471 131.747  18.215  1.00  0.00     0.045 A 
ATOM     16  C   UNL     1      45.380 131.019  17.364  1.00  0.00     0.028 A 
ATOM     17  N   UNL     1      43.392 131.981  16.895  1.00  0.00    -0.361 N 
ATOM     18  C   UNL     1      44.556 131.538  16.370  1.00  0.00     0.083 A 
ATOM     19  H   UNL     1      42.595 132.416  16.376  1.00  0.00     0.166 HD
ENDBRANCH   9  10
BRANCH   9  20
ATOM     20  C   UNL     1      44.298 129.395  22.665  1.00  0.00     0.052 A 
ATOM     21  C   UNL     1      45.399 128.542  22.439  1.00  0.00     0.027 A 
ATOM     22  C   UNL     1      43.186 128.876  23.353  1.00  0.00    -0.021 A 
ATOM     23  C   UNL     1      45.364 127.207  22.871  1.00  0.00     0.002 A 
ATOM     24  C   UNL     1      43.159 127.567  23.769  1.00  0.00    -0.043 A 
ATOM     25  C   UNL     1      41.942 129.592  23.734  1.00  0.00     0.038 C 
ATOM     26  C   UNL     1      44.238 126.710  23.540  1.00  0.00     0.004 A 
ATOM     27  C   UNL     1      41.902 127.224  24.469  1.00  0.00     0.036 C 
ATOM     28  C   UNL     1      41.052 128.501  24.355  1.00  0.00     0.010 C 
ENDBRANCH   9  20
ENDBRANCH   1   9
TORSDOF 6
ENDMDL
MODEL 8
REMARK VINA RESULT:      -2.5      4.436      7.656
REMARK SMILES CC(C)[C@H](N=O)C(=O)N(c1ccc2[nH]ccc2c1)c1cccc2c1CCC2
REMARK SMILES IDX 7 1 8 2 4 3 2 4 1 5 3 6 5 7 6 8 9 9 10 10 11 11 18 12 12 13
REMARK SMILES IDX 17 14 13 15 16 16 14 17 15 18 19 20 20 21 24 22 21 23 23 24
REMARK SMILES IDX 25 25 22 26 27 27 26 28
REMARK H PARENT 14 19
ROOT
ATOM      1  C   UNL     1      45.691 130.987  19.798  1.00  0.00     0.260 C 
ATOM      2  O   UNL     1      46.740 130.293  19.694  1.00  0.00    -0.271 OA
ENDROOT
BRANCH   1   3
ATOM      3  C   UNL     1      44.720 130.985  18.624  1.00  0.00     0.243 C 
BRANCH   3   4
ATOM      4  C   UNL     1      45.426 131.078  17.243  1.00  0.00     0.021 C 
ATOM      5  C   UNL     1      45.854 129.709  16.696  1.00  0.00     0.010 C 
ATOM      6  C   UNL     1      44.579 131.837  16.212  1.00  0.00     0.010 C 
ENDBRANCH   3   4
BRANCH   3   7
ATOM      7  N   UNL     1      43.728 132.026  18.757  1.00  0.00    -0.056 NA
ATOM      8  O   UNL     1      42.563 131.780  18.651  1.00  0.00    -0.150 OA
ENDBRANCH   3   7
ENDBRANCH   1   3
BRANCH   1   9
ATOM      9  N   UNL     1      45.497 131.786  20.991  1.00  0.00    -0.279 N 
BRANCH   9  10
ATOM     10  C   UNL     1      46.448 132.831  21.303  1.00  0.00     0.050 A 
ATOM     11  C   UNL     1      46.304 134.127  20.737  1.00  0.00     0.029 A 
ATOM     12  C   UNL     1      47.533 132.579  22.181  1.00  0.00     0.037 A 
ATOM     13  C   UNL     1      47.212 135.157  21.042  1.00  0.00     0.029 A 
ATOM     14  C   UNL     1      48.411 133.622  22.461  1.00  0.00     0.001 A 
ATOM     15  C   UNL     1      48.257 134.866  21.914  1.00  0.00     0.045 A 
ATOM     16  C   UNL     1      49.528 133.661  23.267  1.00  0.00     0.028 A 
ATOM     17  N   UNL     1      49.225 135.696  22.335  1.00  0.00    -0.361 N 
ATOM     18  C   UNL     1      50.005 134.964  23.163  1.00  0.00     0.083 A 
ATOM     19  H   UNL     1      49.353 136.700  22.078  1.00  0.00     0.166 HD
ENDBRANCH   9  10
BRANCH   9  20
ATOM     20  C   UNL     1      44.567 131.361  22.008  1.00  0.00     0.052 A 
ATOM     21  C   UNL     1      43.664 132.282  22.578  1.00  0.00     0.027 A 
ATOM     22  C   UNL     1      44.496 130.018  22.421  1.00  0.00    -0.021 A 
ATOM     23  C   UNL     1      42.742 131.864  23.550  1.00  0.00     0.002 A 
ATOM     24  C   UNL     1      43.591 129.618  23.375  1.00  0.00    -0.043 A 
ATOM     25  C   UNL     1      45.311 128.875  21.935  1.00  0.00     0.038 C 
ATOM     26  C   UNL     1      42.701 130.525  23.955  1.00  0.00     0.004 A 
ATOM     27  C   UNL     1      43.682 128.170  23.666  1.00  0.00     0.036 C 
ATOM     28  C   UNL     1      44.873 127.694  22.818  1.00  0.00     0.010 C 
ENDBRANCH   9  20
ENDBRANCH   1   9
TORSDOF 6
ENDMDL
MODEL 9
REMARK VINA RESULT:      -2.4      4.715      8.034
REMARK SMILES CC(C)[C@H](N=O)C(=O)N(c1ccc2[nH]ccc2c1)c1cccc2c1CCC2
REMARK SMILES IDX 7 1 8 2 4 3 2 4 1 5 3 6 5 7 6 8 9 9 10 10 11 11 18 12 12 13
REMARK SMILES IDX 17 14 13 15 16 16 14 17 15 18 19 20 20 21 24 22 21 23 23 24
REMARK SMILES IDX 25 25 22 26 27 27 26 28
REMARK H PARENT 14 19
ROOT
ATOM      1  C   UNL     1      46.168 133.027  21.066  1.00  0.00     0.260 C 
ATOM      2  O   UNL     1      46.124 134.044  20.320  1.00  0.00    -0.271 OA
ENDROOT
BRANCH   1   3
ATOM      3  C   UNL     1      47.199 133.015  22.188  1.00  0.00     0.243 C 
BRANCH   3   4
ATOM      4  C   UNL     1      46.748 133.813  23.443  1.00  0.00     0.021 C 
ATOM      5  C   UNL     1      47.717 133.665  24.625  1.00  0.00     0.010 C 
ATOM      6  C   UNL     1      46.497 135.294  23.126  1.00  0.00     0.010 C 
ENDBRANCH   3   4
BRANCH   3   7
ATOM      7  N   UNL     1      48.487 133.480  21.728  1.00  0.00    -0.056 NA
ATOM      8  O   UNL     1      48.773 134.640  21.775  1.00  0.00    -0.150 OA
ENDBRANCH   3   7
ENDBRANCH   1   3
BRANCH   1   9
ATOM      9  N   UNL     1      45.286 131.914  20.782  1.00  0.00    -0.279 N 
BRANCH   9  10
ATOM     10  C   UNL     1      44.927 131.629  19.409  1.00  0.00     0.050 A 
ATOM     11  C   UNL     1      43.622 131.926  18.931  1.00  0.00     0.029 A 
ATOM     12  C   UNL     1      45.871 131.055  18.521  1.00  0.00     0.037 A 
ATOM     13  C   UNL     1      43.262 131.669  17.596  1.00  0.00     0.029 A 
ATOM     14  C   UNL     1      45.480 130.815  17.207  1.00  0.00     0.001 A 
ATOM     15  C   UNL     1      44.223 131.112  16.760  1.00  0.00     0.045 A 
ATOM     16  C   UNL     1      46.181 130.280  16.148  1.00  0.00     0.028 A 
ATOM     17  N   UNL     1      44.090 130.790  15.463  1.00  0.00    -0.361 N 
ATOM     18  C   UNL     1      45.284 130.281  15.084  1.00  0.00     0.083 A 
ATOM     19  H   UNL     1      43.240 130.907  14.866  1.00  0.00     0.166 HD
ENDBRANCH   9  10
BRANCH   9  20
ATOM     20  C   UNL     1      44.534 131.292  21.844  1.00  0.00     0.052 A 
ATOM     21  C   UNL     1      43.619 132.048  22.606  1.00  0.00     0.027 A 
ATOM     22  C   UNL     1      44.650 129.917  22.116  1.00  0.00    -0.021 A 
ATOM     23  C   UNL     1      42.868 131.439  23.624  1.00  0.00     0.002 A 
ATOM     24  C   UNL     1      43.912 129.330  23.116  1.00  0.00    -0.043 A 
ATOM     25  C   UNL     1      45.511 128.925  21.423  1.00  0.00     0.038 C 
ATOM     26  C   UNL     1      43.013 130.071  23.885  1.00  0.00     0.004 A 
ATOM     27  C   UNL     1      44.183 127.880  23.238  1.00  0.00     0.036 C 
ATOM     28  C   UNL     1      45.304 127.623  22.217  1.00  0.00     0.010 C 
ENDBRANCH   9  20
ENDBRANCH   1   9
TORSDOF 6
ENDMDL


