REMARK SMILES C=Cc1cc(-c2ccc3c(c2)[C@@H](N)CC3)c(F)cc1N
REMARK SMILES IDX 6 1 7 2 8 3 9 4 10 5 11 6 12 7 14 8 15 9 5 10 3 11 4 12
REMARK SMILES IDX 19 13 18 14 16 15 17 16 2 17 1 18 20 19 13 22
REMARK H PARENT 20 20 20 21 13 23 13 24
ROOT
ATOM      1  C   UNL     1      -0.213  -0.118   0.899  1.00  0.00    -0.015 A 
ATOM      2  C   UNL     1      -0.845  -0.746   1.997  1.00  0.00     0.009 A 
ATOM      3  C   UNL     1      -2.244  -0.805   2.075  1.00  0.00     0.005 A 
ATOM      4  C   UNL     1      -3.000  -0.238   1.048  1.00  0.00    -0.043 A 
ATOM      5  C   UNL     1      -2.399   0.361  -0.029  1.00  0.00    -0.027 A 
ATOM      6  C   UNL     1      -1.007   0.438  -0.126  1.00  0.00     0.014 A 
ATOM      7  C   UNL     1      -3.391   0.886  -1.003  1.00  0.00     0.081 C 
ATOM      8  C   UNL     1      -4.749   0.646  -0.301  1.00  0.00     0.028 C 
ATOM      9  C   UNL     1      -4.477  -0.202   0.955  1.00  0.00     0.038 C 
ENDROOT
BRANCH   1  10
ATOM     10  C   UNL     1       1.266  -0.059   0.812  1.00  0.00     0.018 A 
ATOM     11  C   UNL     1       3.314  -0.363  -0.499  1.00  0.00    -0.002 A 
ATOM     12  C   UNL     1       1.911  -0.406  -0.387  1.00  0.00     0.022 A 
ATOM     13  C   UNL     1       4.082   0.032   0.623  1.00  0.00     0.042 A 
ATOM     14  C   UNL     1       3.433   0.373   1.818  1.00  0.00     0.066 A 
ATOM     15  C   UNL     1       2.042   0.333   1.915  1.00  0.00     0.133 A 
ATOM     16  F   UNL     1       1.454   0.715   3.078  1.00  0.00    -0.206 F 
BRANCH  11  17
ATOM     17  C   UNL     1       3.969  -0.794  -1.760  1.00  0.00     0.002 C 
ATOM     18  C   UNL     1       3.449  -0.556  -2.963  1.00  0.00     0.009 C 
ENDBRANCH  11  17
BRANCH  13  19
ATOM     19  N   UNL     1       5.512   0.135   0.562  1.00  0.00    -0.398 N 
ATOM     20  H   UNL     1       6.061   0.370   1.419  1.00  0.00     0.156 HD
ATOM     21  H   UNL     1       6.041   0.056  -0.333  1.00  0.00     0.156 HD
ENDBRANCH  13  19
ENDBRANCH   1  10
BRANCH   7  22
ATOM     22  N   UNL     1      -3.314   0.139  -2.259  1.00  0.00    -0.324 NA
ATOM     23  H   UNL     1      -4.031   0.532  -2.911  1.00  0.00     0.119 HD
ATOM     24  H   UNL     1      -2.387   0.336  -2.701  1.00  0.00     0.119 HD
ENDBRANCH   7  22
TORSDOF 4


