MODEL 1
REMARK VINA RESULT:     -10.4      0.000      0.000
REMARK SMILES Nc1cc(O)c(F)cc1[NH2+]c1ccc2cc[nH]c2c1
REMARK SMILES IDX 2 1 3 2 4 3 6 4 7 5 8 6 9 7 1 8 10 11 11 14 12 15 19 16
REMARK SMILES IDX 13 17 18 18 14 19 17 20 15 21 16 22 5 24
REMARK H PARENT 1 9 1 10 10 12 10 13 17 23 5 25
ROOT
ATOM      1  C   UNL     1      42.845 132.054  19.124  1.00  0.00     0.098 A 
ATOM      2  C   UNL     1      43.100 131.905  20.498  1.00  0.00     0.081 A 
ATOM      3  C   UNL     1      44.341 131.456  20.952  1.00  0.00     0.153 A 
ATOM      4  C   UNL     1      45.348 131.147  20.031  1.00  0.00     0.170 A 
ATOM      5  F   UNL     1      46.559 130.706  20.457  1.00  0.00    -0.203 F 
ATOM      6  C   UNL     1      45.110 131.286  18.663  1.00  0.00     0.113 A 
ATOM      7  C   UNL     1      43.864 131.737  18.185  1.00  0.00     0.161 A 
ENDROOT
BRANCH   1   8
ATOM      8  N   UNL     1      41.554 132.527  18.716  1.00  0.00    -0.394 N 
ATOM      9  H   UNL     1      41.225 133.496  18.901  1.00  0.00     0.156 HD
ATOM     10  H   UNL     1      40.885 131.885  18.236  1.00  0.00     0.156 HD
ENDBRANCH   1   8
BRANCH   7  11
ATOM     11  N   UNL     1      43.648 131.834  16.757  1.00  0.00    -0.280 N 
ATOM     12  H   UNL     1      42.701 131.463  16.517  1.00  0.00     0.358 HD
ATOM     13  H   UNL     1      43.648 132.835  16.453  1.00  0.00     0.358 HD
BRANCH  11  14
ATOM     14  C   UNL     1      44.692 131.147  16.031  1.00  0.00     0.136 A 
ATOM     15  C   UNL     1      44.839 129.737  16.143  1.00  0.00     0.069 A 
ATOM     16  C   UNL     1      45.541 131.863  15.151  1.00  0.00     0.094 A 
ATOM     17  C   UNL     1      45.838 129.056  15.424  1.00  0.00     0.016 A 
ATOM     18  C   UNL     1      46.519 131.157  14.455  1.00  0.00     0.051 A 
ATOM     19  C   UNL     1      46.663 129.803  14.591  1.00  0.00    -0.000 A 
ATOM     20  N   UNL     1      47.420 131.648  13.588  1.00  0.00    -0.361 N 
ATOM     21  C   UNL     1      47.703 129.414  13.775  1.00  0.00     0.028 A 
ATOM     22  C   UNL     1      48.147 130.586  13.170  1.00  0.00     0.083 A 
ATOM     23  H   UNL     1      47.538 132.643  13.294  1.00  0.00     0.166 HD
ENDBRANCH  11  14
ENDBRANCH   7  11
BRANCH   3  24
ATOM     24  O   UNL     1      44.559 131.323  22.323  1.00  0.00    -0.505 OA
ATOM     25  H   UNL     1      45.477 131.439  22.734  1.00  0.00     0.293 HD
ENDBRANCH   3  24
TORSDOF 4
ENDMDL
MODEL 2
REMARK VINA RESULT:      -9.1      3.251      6.414
REMARK SMILES Nc1cc(O)c(F)cc1[NH2+]c1ccc2cc[nH]c2c1
REMARK SMILES IDX 2 1 3 2 4 3 6 4 7 5 8 6 9 7 1 8 10 11 11 14 12 15 19 16
REMARK SMILES IDX 13 17 18 18 14 19 17 20 15 21 16 22 5 24
REMARK H PARENT 1 9 1 10 10 12 10 13 17 23 5 25
ROOT
ATOM      1  C   UNL     1      45.874 129.382  14.945  1.00  0.00     0.098 A 
ATOM      2  C   UNL     1      47.085 128.895  14.424  1.00  0.00     0.081 A 
ATOM      3  C   UNL     1      47.941 129.727  13.700  1.00  0.00     0.153 A 
ATOM      4  C   UNL     1      47.593 131.065  13.486  1.00  0.00     0.170 A 
ATOM      5  F   UNL     1      48.413 131.885  12.782  1.00  0.00    -0.203 F 
ATOM      6  C   UNL     1      46.392 131.564  13.994  1.00  0.00     0.113 A 
ATOM      7  C   UNL     1      45.515 130.740  14.726  1.00  0.00     0.161 A 
ENDROOT
BRANCH   1   8
ATOM      8  N   UNL     1      45.038 128.484  15.687  1.00  0.00    -0.394 N 
ATOM      9  H   UNL     1      44.099 128.755  16.045  1.00  0.00     0.156 HD
ATOM     10  H   UNL     1      45.372 127.523  15.918  1.00  0.00     0.156 HD
ENDBRANCH   1   8
BRANCH   7  11
ATOM     11  N   UNL     1      44.264 131.290  15.205  1.00  0.00    -0.280 N 
ATOM     12  H   UNL     1      44.093 132.219  14.758  1.00  0.00     0.358 HD
ATOM     13  H   UNL     1      43.463 130.682  14.917  1.00  0.00     0.358 HD
BRANCH  11  14
ATOM     14  C   UNL     1      44.260 131.380  16.647  1.00  0.00     0.136 A 
ATOM     15  C   UNL     1      45.454 131.153  17.386  1.00  0.00     0.069 A 
ATOM     16  C   UNL     1      43.081 131.757  17.337  1.00  0.00     0.094 A 
ATOM     17  C   UNL     1      45.466 131.260  18.788  1.00  0.00     0.016 A 
ATOM     18  C   UNL     1      43.129 131.853  18.726  1.00  0.00     0.051 A 
ATOM     19  C   UNL     1      44.280 131.609  19.424  1.00  0.00    -0.000 A 
ATOM     20  N   UNL     1      42.127 132.183  19.556  1.00  0.00    -0.361 N 
ATOM     21  C   UNL     1      43.998 131.791  20.761  1.00  0.00     0.028 A 
ATOM     22  C   UNL     1      42.653 132.146  20.803  1.00  0.00     0.083 A 
ATOM     23  H   UNL     1      41.144 132.420  19.298  1.00  0.00     0.166 HD
ENDBRANCH  11  14
ENDBRANCH   7  11
BRANCH   3  24
ATOM     24  O   UNL     1      49.135 129.208  13.201  1.00  0.00    -0.505 OA
ATOM     25  H   UNL     1      49.311 128.211  13.161  1.00  0.00     0.293 HD
ENDBRANCH   3  24
TORSDOF 4
ENDMDL
MODEL 3
REMARK VINA RESULT:      -9.1      0.853      1.469
REMARK SMILES Nc1cc(O)c(F)cc1[NH2+]c1ccc2cc[nH]c2c1
REMARK SMILES IDX 2 1 3 2 4 3 6 4 7 5 8 6 9 7 1 8 10 11 11 14 12 15 19 16
REMARK SMILES IDX 13 17 18 18 14 19 17 20 15 21 16 22 5 24
REMARK H PARENT 1 9 1 10 10 12 10 13 17 23 5 25
ROOT
ATOM      1  C   UNL     1      42.866 132.110  19.273  1.00  0.00     0.098 A 
ATOM      2  C   UNL     1      43.239 132.067  20.627  1.00  0.00     0.081 A 
ATOM      3  C   UNL     1      44.480 131.557  21.014  1.00  0.00     0.153 A 
ATOM      4  C   UNL     1      45.368 131.081  20.044  1.00  0.00     0.170 A 
ATOM      5  F   UNL     1      46.577 130.581  20.405  1.00  0.00    -0.203 F 
ATOM      6  C   UNL     1      45.012 131.114  18.695  1.00  0.00     0.113 A 
ATOM      7  C   UNL     1      43.765 131.623  18.285  1.00  0.00     0.161 A 
ENDROOT
BRANCH   1   8
ATOM      8  N   UNL     1      41.583 132.651  18.934  1.00  0.00    -0.394 N 
ATOM      9  H   UNL     1      40.912 133.002  19.648  1.00  0.00     0.156 HD
ATOM     10  H   UNL     1      41.269 132.680  17.939  1.00  0.00     0.156 HD
ENDBRANCH   1   8
BRANCH   7  11
ATOM     11  N   UNL     1      43.423 131.607  16.878  1.00  0.00    -0.280 N 
ATOM     12  H   UNL     1      42.690 130.883  16.702  1.00  0.00     0.358 HD
ATOM     13  H   UNL     1      42.998 132.520  16.594  1.00  0.00     0.358 HD
BRANCH  11  14
ATOM     14  C   UNL     1      44.598 131.388  16.066  1.00  0.00     0.136 A 
ATOM     15  C   UNL     1      45.390 132.488  15.636  1.00  0.00     0.069 A 
ATOM     16  C   UNL     1      45.007 130.071  15.740  1.00  0.00     0.094 A 
ATOM     17  C   UNL     1      46.548 132.285  14.863  1.00  0.00     0.016 A 
ATOM     18  C   UNL     1      46.158 129.908  14.973  1.00  0.00     0.051 A 
ATOM     19  C   UNL     1      46.898 130.977  14.548  1.00  0.00    -0.000 A 
ATOM     20  N   UNL     1      46.703 128.754  14.554  1.00  0.00    -0.361 N 
ATOM     21  C   UNL     1      47.961 130.482  13.825  1.00  0.00     0.028 A 
ATOM     22  C   UNL     1      47.806 129.099  13.851  1.00  0.00     0.083 A 
ATOM     23  H   UNL     1      46.351 127.787  14.732  1.00  0.00     0.166 HD
ENDBRANCH  11  14
ENDBRANCH   7  11
BRANCH   3  24
ATOM     24  O   UNL     1      44.815 131.532  22.367  1.00  0.00    -0.505 OA
ATOM     25  H   UNL     1      44.523 130.779  22.978  1.00  0.00     0.293 HD
ENDBRANCH   3  24
TORSDOF 4
ENDMDL
MODEL 4
REMARK VINA RESULT:      -8.9      3.382      6.163
REMARK SMILES Nc1cc(O)c(F)cc1[NH2+]c1ccc2cc[nH]c2c1
REMARK SMILES IDX 2 1 3 2 4 3 6 4 7 5 8 6 9 7 1 8 10 11 11 14 12 15 19 16
REMARK SMILES IDX 13 17 18 18 14 19 17 20 15 21 16 22 5 24
REMARK H PARENT 1 9 1 10 10 12 10 13 17 23 5 25
ROOT
ATOM      1  C   UNL     1      45.788 129.412  14.992  1.00  0.00     0.098 A 
ATOM      2  C   UNL     1      46.997 128.917  14.476  1.00  0.00     0.081 A 
ATOM      3  C   UNL     1      47.862 129.742  13.755  1.00  0.00     0.153 A 
ATOM      4  C   UNL     1      47.524 131.082  13.539  1.00  0.00     0.170 A 
ATOM      5  F   UNL     1      48.352 131.897  12.838  1.00  0.00    -0.203 F 
ATOM      6  C   UNL     1      46.325 131.590  14.042  1.00  0.00     0.113 A 
ATOM      7  C   UNL     1      45.440 130.773  14.772  1.00  0.00     0.161 A 
ENDROOT
BRANCH   1   8
ATOM      8  N   UNL     1      44.944 128.520  15.732  1.00  0.00    -0.394 N 
ATOM      9  H   UNL     1      45.235 127.557  15.994  1.00  0.00     0.156 HD
ATOM     10  H   UNL     1      43.980 128.814  16.007  1.00  0.00     0.156 HD
ENDBRANCH   1   8
BRANCH   7  11
ATOM     11  N   UNL     1      44.191 131.331  15.246  1.00  0.00    -0.280 N 
ATOM     12  H   UNL     1      44.029 132.263  14.801  1.00  0.00     0.358 HD
ATOM     13  H   UNL     1      43.386 130.731  14.952  1.00  0.00     0.358 HD
BRANCH  11  14
ATOM     14  C   UNL     1      44.181 131.418  16.688  1.00  0.00     0.136 A 
ATOM     15  C   UNL     1      42.997 131.801  17.378  1.00  0.00     0.069 A 
ATOM     16  C   UNL     1      45.332 131.062  17.435  1.00  0.00     0.094 A 
ATOM     17  C   UNL     1      42.970 131.867  18.782  1.00  0.00     0.016 A 
ATOM     18  C   UNL     1      45.269 131.140  18.824  1.00  0.00     0.051 A 
ATOM     19  C   UNL     1      44.129 131.532  19.472  1.00  0.00    -0.000 A 
ATOM     20  N   UNL     1      46.245 130.858  19.702  1.00  0.00    -0.361 N 
ATOM     21  C   UNL     1      44.392 131.499  20.824  1.00  0.00     0.028 A 
ATOM     22  C   UNL     1      45.714 131.076  20.928  1.00  0.00     0.083 A 
ATOM     23  H   UNL     1      47.214 130.535  19.488  1.00  0.00     0.166 HD
ENDBRANCH  11  14
ENDBRANCH   7  11
BRANCH   3  24
ATOM     24  O   UNL     1      49.054 129.215  13.260  1.00  0.00    -0.505 OA
ATOM     25  H   UNL     1      49.139 128.242  12.993  1.00  0.00     0.293 HD
ENDBRANCH   3  24
TORSDOF 4
ENDMDL
MODEL 5
REMARK VINA RESULT:      -8.8      2.406      2.913
REMARK SMILES Nc1cc(O)c(F)cc1[NH2+]c1ccc2cc[nH]c2c1
REMARK SMILES IDX 2 1 3 2 4 3 6 4 7 5 8 6 9 7 1 8 10 11 11 14 12 15 19 16
REMARK SMILES IDX 13 17 18 18 14 19 17 20 15 21 16 22 5 24
REMARK H PARENT 1 9 1 10 10 12 10 13 17 23 5 25
ROOT
ATOM      1  C   UNL     1      44.264 131.395  20.664  1.00  0.00     0.098 A 
ATOM      2  C   UNL     1      43.131 132.137  21.039  1.00  0.00     0.081 A 
ATOM      3  C   UNL     1      42.212 132.576  20.084  1.00  0.00     0.153 A 
ATOM      4  C   UNL     1      42.418 132.277  18.733  1.00  0.00     0.170 A 
ATOM      5  F   UNL     1      41.536 132.699  17.792  1.00  0.00    -0.203 F 
ATOM      6  C   UNL     1      43.541 131.544  18.343  1.00  0.00     0.113 A 
ATOM      7  C   UNL     1      44.479 131.093  19.292  1.00  0.00     0.161 A 
ENDROOT
BRANCH   1   8
ATOM      8  N   UNL     1      45.169 130.963  21.689  1.00  0.00    -0.394 N 
ATOM      9  H   UNL     1      45.090 131.275  22.678  1.00  0.00     0.156 HD
ATOM     10  H   UNL     1      45.968 130.333  21.455  1.00  0.00     0.156 HD
ENDBRANCH   1   8
BRANCH   7  11
ATOM     11  N   UNL     1      45.646 130.365  18.840  1.00  0.00    -0.280 N 
ATOM     12  H   UNL     1      46.462 130.591  19.453  1.00  0.00     0.358 HD
ATOM     13  H   UNL     1      45.494 129.334  18.934  1.00  0.00     0.358 HD
BRANCH  11  14
ATOM     14  C   UNL     1      45.924 130.650  17.451  1.00  0.00     0.136 A 
ATOM     15  C   UNL     1      45.566 131.906  16.888  1.00  0.00     0.069 A 
ATOM     16  C   UNL     1      46.613 129.704  16.651  1.00  0.00     0.094 A 
ATOM     17  C   UNL     1      45.852 132.202  15.543  1.00  0.00     0.016 A 
ATOM     18  C   UNL     1      46.879 130.031  15.323  1.00  0.00     0.051 A 
ATOM     19  C   UNL     1      46.508 131.235  14.790  1.00  0.00    -0.000 A 
ATOM     20  N   UNL     1      47.506 129.275  14.407  1.00  0.00    -0.361 N 
ATOM     21  C   UNL     1      46.917 131.246  13.474  1.00  0.00     0.028 A 
ATOM     22  C   UNL     1      47.531 130.014  13.273  1.00  0.00     0.083 A 
ATOM     23  H   UNL     1      47.896 128.316  14.538  1.00  0.00     0.166 HD
ENDBRANCH  11  14
ENDBRANCH   7  11
BRANCH   3  24
ATOM     24  O   UNL     1      41.099 133.308  20.494  1.00  0.00    -0.505 OA
ATOM     25  H   UNL     1      40.768 134.114  19.978  1.00  0.00     0.293 HD
ENDBRANCH   3  24
TORSDOF 4
ENDMDL
MODEL 6
REMARK VINA RESULT:      -8.1      1.095      1.432
REMARK SMILES Nc1cc(O)c(F)cc1[NH2+]c1ccc2cc[nH]c2c1
REMARK SMILES IDX 2 1 3 2 4 3 6 4 7 5 8 6 9 7 1 8 10 11 11 14 12 15 19 16
REMARK SMILES IDX 13 17 18 18 14 19 17 20 15 21 16 22 5 24
REMARK H PARENT 1 9 1 10 10 12 10 13 17 23 5 25
ROOT
ATOM      1  C   UNL     1      42.766 132.188  19.668  1.00  0.00     0.098 A 
ATOM      2  C   UNL     1      43.272 131.989  20.963  1.00  0.00     0.081 A 
ATOM      3  C   UNL     1      44.528 131.414  21.163  1.00  0.00     0.153 A 
ATOM      4  C   UNL     1      45.298 131.028  20.060  1.00  0.00     0.170 A 
ATOM      5  F   UNL     1      46.521 130.466  20.238  1.00  0.00    -0.203 F 
ATOM      6  C   UNL     1      44.810 131.216  18.766  1.00  0.00     0.113 A 
ATOM      7  C   UNL     1      43.544 131.794  18.545  1.00  0.00     0.161 A 
ENDROOT
BRANCH   1   8
ATOM      8  N   UNL     1      41.473 132.790  19.523  1.00  0.00    -0.394 N 
ATOM      9  H   UNL     1      41.076 133.059  18.600  1.00  0.00     0.156 HD
ATOM     10  H   UNL     1      40.895 133.006  20.366  1.00  0.00     0.156 HD
ENDBRANCH   1   8
BRANCH   7  11
ATOM     11  N   UNL     1      43.062 131.939  17.188  1.00  0.00    -0.280 N 
ATOM     12  H   UNL     1      42.143 131.451  17.086  1.00  0.00     0.358 HD
ATOM     13  H   UNL     1      42.876 132.946  16.971  1.00  0.00     0.358 HD
BRANCH  11  14
ATOM     14  C   UNL     1      44.037 131.450  16.240  1.00  0.00     0.136 A 
ATOM     15  C   UNL     1      43.867 131.685  14.848  1.00  0.00     0.069 A 
ATOM     16  C   UNL     1      45.204 130.786  16.693  1.00  0.00     0.094 A 
ATOM     17  C   UNL     1      44.821 131.233  13.918  1.00  0.00     0.016 A 
ATOM     18  C   UNL     1      46.127 130.352  15.744  1.00  0.00     0.051 A 
ATOM     19  C   UNL     1      45.938 130.565  14.406  1.00  0.00    -0.000 A 
ATOM     20  N   UNL     1      47.281 129.701  15.966  1.00  0.00    -0.361 N 
ATOM     21  C   UNL     1      47.020 130.025  13.746  1.00  0.00     0.028 A 
ATOM     22  C   UNL     1      47.831 129.498  14.747  1.00  0.00     0.083 A 
ATOM     23  H   UNL     1      47.676 129.411  16.888  1.00  0.00     0.166 HD
ENDBRANCH  11  14
ENDBRANCH   7  11
BRANCH   3  24
ATOM     24  O   UNL     1      44.997 131.233  22.463  1.00  0.00    -0.505 OA
ATOM     25  H   UNL     1      44.532 131.646  23.263  1.00  0.00     0.293 HD
ENDBRANCH   3  24
TORSDOF 4
ENDMDL
MODEL 7
REMARK VINA RESULT:      -8.1      2.788      6.386
REMARK SMILES Nc1cc(O)c(F)cc1[NH2+]c1ccc2cc[nH]c2c1
REMARK SMILES IDX 2 1 3 2 4 3 6 4 7 5 8 6 9 7 1 8 10 11 11 14 12 15 19 16
REMARK SMILES IDX 13 17 18 18 14 19 17 20 15 21 16 22 5 24
REMARK H PARENT 1 9 1 10 10 12 10 13 17 23 5 25
ROOT
ATOM      1  C   UNL     1      45.873 131.803  15.508  1.00  0.00     0.098 A 
ATOM      2  C   UNL     1      46.826 131.043  14.810  1.00  0.00     0.081 A 
ATOM      3  C   UNL     1      46.707 129.655  14.715  1.00  0.00     0.153 A 
ATOM      4  C   UNL     1      45.626 129.007  15.323  1.00  0.00     0.170 A 
ATOM      5  F   UNL     1      45.498 127.659  15.242  1.00  0.00    -0.203 F 
ATOM      6  C   UNL     1      44.672 129.747  16.023  1.00  0.00     0.113 A 
ATOM      7  C   UNL     1      44.775 131.148  16.130  1.00  0.00     0.161 A 
ENDROOT
BRANCH   1   8
ATOM      8  N   UNL     1      46.042 133.226  15.566  1.00  0.00    -0.394 N 
ATOM      9  H   UNL     1      45.439 133.887  15.036  1.00  0.00     0.156 HD
ATOM     10  H   UNL     1      46.813 133.642  16.134  1.00  0.00     0.156 HD
ENDBRANCH   1   8
BRANCH   7  11
ATOM     11  N   UNL     1      43.782 131.873  16.895  1.00  0.00    -0.280 N 
ATOM     12  H   UNL     1      43.815 132.887  16.644  1.00  0.00     0.358 HD
ATOM     13  H   UNL     1      42.819 131.548  16.646  1.00  0.00     0.358 HD
BRANCH  11  14
ATOM     14  C   UNL     1      43.972 131.665  18.312  1.00  0.00     0.136 A 
ATOM     15  C   UNL     1      45.226 131.223  18.813  1.00  0.00     0.069 A 
ATOM     16  C   UNL     1      42.928 131.960  19.224  1.00  0.00     0.094 A 
ATOM     17  C   UNL     1      45.428 131.038  20.193  1.00  0.00     0.016 A 
ATOM     18  C   UNL     1      43.163 131.766  20.583  1.00  0.00     0.051 A 
ATOM     19  C   UNL     1      44.369 131.318  21.048  1.00  0.00    -0.000 A 
ATOM     20  N   UNL     1      42.308 131.977  21.597  1.00  0.00    -0.361 N 
ATOM     21  C   UNL     1      44.278 131.238  22.421  1.00  0.00     0.028 A 
ATOM     22  C   UNL     1      42.985 131.655  22.724  1.00  0.00     0.083 A 
ATOM     23  H   UNL     1      41.323 132.319  21.535  1.00  0.00     0.166 HD
ENDBRANCH  11  14
ENDBRANCH   7  11
BRANCH   3  24
ATOM     24  O   UNL     1      47.672 128.934  14.012  1.00  0.00    -0.505 OA
ATOM     25  H   UNL     1      47.873 127.963  14.221  1.00  0.00     0.293 HD
ENDBRANCH   3  24
TORSDOF 4
ENDMDL
MODEL 8
REMARK VINA RESULT:      -7.8      2.528      3.510
REMARK SMILES Nc1cc(O)c(F)cc1[NH2+]c1ccc2cc[nH]c2c1
REMARK SMILES IDX 2 1 3 2 4 3 6 4 7 5 8 6 9 7 1 8 10 11 11 14 12 15 19 16
REMARK SMILES IDX 13 17 18 18 14 19 17 20 15 21 16 22 5 24
REMARK H PARENT 1 9 1 10 10 12 10 13 17 23 5 25
ROOT
ATOM      1  C   UNL     1      43.100 131.017  22.176  1.00  0.00     0.098 A 
ATOM      2  C   UNL     1      42.648 129.965  22.990  1.00  0.00     0.081 A 
ATOM      3  C   UNL     1      43.425 128.820  23.181  1.00  0.00     0.153 A 
ATOM      4  C   UNL     1      44.671 128.714  22.554  1.00  0.00     0.170 A 
ATOM      5  F   UNL     1      45.437 127.608  22.728  1.00  0.00    -0.203 F 
ATOM      6  C   UNL     1      45.133 129.749  21.740  1.00  0.00     0.113 A 
ATOM      7  C   UNL     1      44.364 130.911  21.535  1.00  0.00     0.161 A 
ENDROOT
BRANCH   1   8
ATOM      8  N   UNL     1      42.263 132.171  22.023  1.00  0.00    -0.394 N 
ATOM      9  H   UNL     1      42.372 133.027  22.603  1.00  0.00     0.156 HD
ATOM     10  H   UNL     1      41.485 132.169  21.327  1.00  0.00     0.156 HD
ENDBRANCH   1   8
BRANCH   7  11
ATOM     11  N   UNL     1      44.866 131.945  20.655  1.00  0.00    -0.280 N 
ATOM     12  H   UNL     1      44.339 132.833  20.816  1.00  0.00     0.358 HD
ATOM     13  H   UNL     1      45.866 132.162  20.877  1.00  0.00     0.358 HD
BRANCH  11  14
ATOM     14  C   UNL     1      44.798 131.524  19.274  1.00  0.00     0.136 A 
ATOM     15  C   UNL     1      43.677 131.870  18.471  1.00  0.00     0.069 A 
ATOM     16  C   UNL     1      45.876 130.815  18.688  1.00  0.00     0.094 A 
ATOM     17  C   UNL     1      43.610 131.484  17.120  1.00  0.00     0.016 A 
ATOM     18  C   UNL     1      45.776 130.449  17.348  1.00  0.00     0.051 A 
ATOM     19  C   UNL     1      44.680 130.769  16.594  1.00  0.00    -0.000 A 
ATOM     20  N   UNL     1      46.677 129.772  16.617  1.00  0.00    -0.361 N 
ATOM     21  C   UNL     1      44.892 130.273  15.326  1.00  0.00     0.028 A 
ATOM     22  C   UNL     1      46.141 129.661  15.380  1.00  0.00     0.083 A 
ATOM     23  H   UNL     1      47.601 129.405  16.934  1.00  0.00     0.166 HD
ENDBRANCH  11  14
ENDBRANCH   7  11
BRANCH   3  24
ATOM     24  O   UNL     1      42.944 127.797  23.998  1.00  0.00    -0.505 OA
ATOM     25  H   UNL     1      43.179 126.826  23.834  1.00  0.00     0.293 HD
ENDBRANCH   3  24
TORSDOF 4
ENDMDL
MODEL 9
REMARK VINA RESULT:      -7.7      2.753      6.286
REMARK SMILES Nc1cc(O)c(F)cc1[NH2+]c1ccc2cc[nH]c2c1
REMARK SMILES IDX 2 1 3 2 4 3 6 4 7 5 8 6 9 7 1 8 10 11 11 14 12 15 19 16
REMARK SMILES IDX 13 17 18 18 14 19 17 20 15 21 16 22 5 24
REMARK H PARENT 1 9 1 10 10 12 10 13 17 23 5 25
ROOT
ATOM      1  C   UNL     1      44.155 131.431  14.737  1.00  0.00     0.098 A 
ATOM      2  C   UNL     1      45.200 130.926  13.945  1.00  0.00     0.081 A 
ATOM      3  C   UNL     1      46.315 130.321  14.527  1.00  0.00     0.153 A 
ATOM      4  C   UNL     1      46.399 130.214  15.920  1.00  0.00     0.170 A 
ATOM      5  F   UNL     1      47.477 129.631  16.502  1.00  0.00    -0.203 F 
ATOM      6  C   UNL     1      45.371 130.713  16.722  1.00  0.00     0.113 A 
ATOM      7  C   UNL     1      44.239 131.327  16.152  1.00  0.00     0.161 A 
ENDROOT
BRANCH   1   8
ATOM      8  N   UNL     1      43.031 132.035  14.083  1.00  0.00    -0.394 N 
ATOM      9  H   UNL     1      42.868 133.062  14.076  1.00  0.00     0.156 HD
ATOM     10  H   UNL     1      42.315 131.441  13.610  1.00  0.00     0.156 HD
ENDBRANCH   1   8
BRANCH   7  11
ATOM     11  N   UNL     1      43.212 131.862  17.022  1.00  0.00    -0.280 N 
ATOM     12  H   UNL     1      43.028 132.861  16.778  1.00  0.00     0.358 HD
ATOM     13  H   UNL     1      42.307 131.359  16.873  1.00  0.00     0.358 HD
BRANCH  11  14
ATOM     14  C   UNL     1      43.584 131.709  18.410  1.00  0.00     0.136 A 
ATOM     15  C   UNL     1      44.939 131.479  18.772  1.00  0.00     0.069 A 
ATOM     16  C   UNL     1      42.610 131.850  19.431  1.00  0.00     0.094 A 
ATOM     17  C   UNL     1      45.315 131.351  20.121  1.00  0.00     0.016 A 
ATOM     18  C   UNL     1      43.018 131.717  20.756  1.00  0.00     0.051 A 
ATOM     19  C   UNL     1      44.323 131.473  21.087  1.00  0.00    -0.000 A 
ATOM     20  N   UNL     1      42.254 131.806  21.857  1.00  0.00    -0.361 N 
ATOM     21  C   UNL     1      44.394 131.401  22.461  1.00  0.00     0.028 A 
ATOM     22  C   UNL     1      43.091 131.613  22.903  1.00  0.00     0.083 A 
ATOM     23  H   UNL     1      41.227 131.987  21.902  1.00  0.00     0.166 HD
ENDBRANCH  11  14
ENDBRANCH   7  11
BRANCH   3  24
ATOM     24  O   UNL     1      47.331 129.830  13.709  1.00  0.00    -0.505 OA
ATOM     25  H   UNL     1      47.217 129.746  12.706  1.00  0.00     0.293 HD
ENDBRANCH   3  24
TORSDOF 4
ENDMDL


