REMARK SMILES Cc1cc(N)c(Nc2cc(F)c(C)nc2F)cc1F
REMARK SMILES IDX 1 1 2 2 3 3 4 4 6 5 17 6 18 7 19 8 5 9 7 12 8 14 9 15 15 16
REMARK SMILES IDX 10 17 14 18 12 19 16 20 11 21 13 22
REMARK H PARENT 5 10 5 11 7 13
ROOT
ATOM      1  C   UNL     1       5.279   0.395  -2.403  1.00  0.00     0.047 C 
ATOM      2  C   UNL     1       4.155   0.508  -1.414  1.00  0.00    -0.013 A 
ATOM      3  C   UNL     1       4.303   0.000  -0.115  1.00  0.00     0.034 A 
ATOM      4  C   UNL     1       3.271   0.130   0.828  1.00  0.00     0.056 A 
ATOM      5  C   UNL     1       2.065   0.765   0.455  1.00  0.00     0.065 A 
ATOM      6  C   UNL     1       1.940   1.309  -0.830  1.00  0.00     0.067 A 
ATOM      7  C   UNL     1       2.974   1.183  -1.760  1.00  0.00     0.128 A 
ATOM      8  F   UNL     1       2.823   1.718  -2.998  1.00  0.00    -0.207 F 
ENDROOT
BRANCH   4   9
ATOM      9  N   UNL     1       3.481  -0.346   2.164  1.00  0.00    -0.397 N 
ATOM     10  H   UNL     1       4.355  -0.859   2.413  1.00  0.00     0.156 HD
ATOM     11  H   UNL     1       2.805  -0.144   2.932  1.00  0.00     0.156 HD
ENDBRANCH   4   9
BRANCH   5  12
ATOM     12  N   UNL     1       0.967   0.892   1.370  1.00  0.00    -0.350 N 
ATOM     13  H   UNL     1       0.553   1.844   1.492  1.00  0.00     0.167 HD
BRANCH  12  14
ATOM     14  C   UNL     1       0.289  -0.231   1.968  1.00  0.00     0.097 A 
ATOM     15  C   UNL     1       0.477  -1.542   1.496  1.00  0.00     0.072 A 
ATOM     16  C   UNL     1      -0.603  -0.025   3.032  1.00  0.00     0.237 A 
ATOM     17  C   UNL     1      -0.200  -2.606   2.092  1.00  0.00     0.146 A 
ATOM     18  N   UNL     1      -1.251  -1.079   3.596  1.00  0.00    -0.220 NA
ATOM     19  C   UNL     1      -1.072  -2.355   3.159  1.00  0.00     0.076 A 
ATOM     20  F   UNL     1      -0.820   1.222   3.517  1.00  0.00    -0.183 F 
ATOM     21  F   UNL     1      -0.011  -3.869   1.631  1.00  0.00    -0.205 F 
ATOM     22  C   UNL     1      -1.815  -3.475   3.818  1.00  0.00     0.070 C 
ENDBRANCH  12  14
ENDBRANCH   5  12
TORSDOF 3


