REMARK SMILES Cc1ccc([NH2+]c2cc(-c3c[nH+]c4c(c3)C(=O)NC4)cc(N)c2[O-])cc1F
REMARK SMILES IDX 7 1 8 2 9 3 20 4 21 5 23 6 24 7 6 8 5 11 2 12 3 13 26 14
REMARK SMILES IDX 4 15 25 16 1 17 27 18 10 19 11 20 15 21 12 22 14 23 13 24
REMARK SMILES IDX 16 25 19 26 18 27 17 29 22 31
REMARK H PARENT 6 9 6 10 12 28 18 30 22 32 22 33
ROOT
ATOM      1  C   UNL     1      -0.916  -1.373  -1.487  1.00  0.00     0.129 A 
ATOM      2  C   UNL     1      -0.104  -0.285  -1.120  1.00  0.00     0.076 A 
ATOM      3  C   UNL     1      -0.582   1.033  -1.195  1.00  0.00    -0.004 A 
ATOM      4  C   UNL     1      -1.892   1.258  -1.646  1.00  0.00     0.034 A 
ATOM      5  C   UNL     1      -2.717   0.188  -2.015  1.00  0.00     0.030 A 
ATOM      6  C   UNL     1      -2.231  -1.129  -1.933  1.00  0.00    -0.021 A 
ATOM      7  O   UNL     1      -3.053  -2.191  -2.296  1.00  0.00    -0.867 OA
ENDROOT
BRANCH   1   8
ATOM      8  N   UNL     1      -0.410  -2.720  -1.362  1.00  0.00    -0.282 N 
ATOM      9  H   UNL     1      -0.857  -3.350  -2.068  1.00  0.00     0.358 HD
ATOM     10  H   UNL     1       0.617  -2.736  -1.564  1.00  0.00     0.358 HD
BRANCH   8  11
ATOM     11  C   UNL     1      -0.652  -3.209  -0.027  1.00  0.00     0.137 A 
ATOM     12  C   UNL     1      -1.152  -4.114   2.597  1.00  0.00    -0.015 A 
ATOM     13  C   UNL     1      -2.075  -4.368   1.571  1.00  0.00     0.012 A 
ATOM     14  C   UNL     1       0.015  -3.387   2.308  1.00  0.00     0.132 A 
ATOM     15  C   UNL     1      -1.827  -3.922   0.270  1.00  0.00     0.068 A 
ATOM     16  C   UNL     1       0.263  -2.942   1.006  1.00  0.00     0.107 A 
ATOM     17  C   UNL     1      -1.433  -4.567   4.000  1.00  0.00     0.047 C 
ATOM     18  F   UNL     1       0.910  -3.106   3.289  1.00  0.00    -0.206 F 
ENDBRANCH   8  11
ENDBRANCH   1   8
BRANCH   3  19
ATOM     19  C   UNL     1       0.284   2.170  -0.793  1.00  0.00     0.047 A 
ATOM     20  C   UNL     1       0.289   3.377  -1.541  1.00  0.00     0.315 A 
ATOM     21  C   UNL     1       1.116   2.072   0.343  1.00  0.00     0.035 A 
ATOM     22  N   UNL     1       1.085   4.425  -1.172  1.00  0.00    -0.212 N 
ATOM     23  C   UNL     1       1.904   3.168   0.672  1.00  0.00     0.109 A 
ATOM     24  C   UNL     1       1.880   4.316  -0.077  1.00  0.00     0.211 A 
ATOM     25  C   UNL     1       2.835   3.386   1.749  1.00  0.00     0.258 C 
ATOM     26  C   UNL     1       2.809   5.357   0.477  1.00  0.00     0.225 C 
ATOM     27  N   UNL     1       3.388   4.693   1.648  1.00  0.00    -0.342 N 
ATOM     28  H   UNL     1       1.082   5.306  -1.733  1.00  0.00     0.453 HD
ATOM     29  O   UNL     1       3.130   2.561   2.652  1.00  0.00    -0.269 OA
ATOM     30  H   UNL     1       4.090   5.109   2.300  1.00  0.00     0.164 HD
ENDBRANCH   3  19
BRANCH   5  31
ATOM     31  N   UNL     1      -4.052   0.446  -2.465  1.00  0.00    -0.399 N 
ATOM     32  H   UNL     1      -4.414   1.424  -2.525  1.00  0.00     0.156 HD
ATOM     33  H   UNL     1      -4.692  -0.330  -2.744  1.00  0.00     0.156 HD
ENDBRANCH   5  31
TORSDOF 4


