MODEL 1
REMARK VINA RESULT:     -10.3      0.000      0.000
REMARK SMILES Cc1ccc(-c2ccc(C#N)cc2)c2c[nH][nH+]c12
REMARK SMILES IDX 6 1 7 2 8 3 9 4 12 5 13 6 5 7 2 8 3 9 18 10 4 11 17 12 14 13
REMARK SMILES IDX 16 14 15 15 1 16 10 19 11 20
REMARK H PARENT 17 17 16 18
ROOT
ATOM      1  C   UNL     1      45.497 131.142  17.329  1.00  0.00    -0.017 A 
ATOM      2  C   UNL     1      45.518 132.265  16.484  1.00  0.00     0.010 A 
ATOM      3  C   UNL     1      46.092 132.183  15.211  1.00  0.00     0.020 A 
ATOM      4  C   UNL     1      46.658 130.979  14.773  1.00  0.00     0.052 A 
ATOM      5  C   UNL     1      46.650 129.860  15.612  1.00  0.00     0.020 A 
ATOM      6  C   UNL     1      46.076 129.940  16.885  1.00  0.00     0.010 A 
ENDROOT
BRANCH   1   7
ATOM      7  C   UNL     1      44.897 131.236  18.680  1.00  0.00    -0.003 A 
ATOM      8  C   UNL     1      43.740 131.406  21.290  1.00  0.00     0.024 A 
ATOM      9  C   UNL     1      45.055 130.923  21.113  1.00  0.00     0.011 A 
ATOM     10  C   UNL     1      43.045 131.801  20.144  1.00  0.00     0.239 A 
ATOM     11  C   UNL     1      45.627 130.841  19.825  1.00  0.00     0.010 A 
ATOM     12  N   UNL     1      41.810 132.328  20.056  1.00  0.00    -0.126 N 
ATOM     13  C   UNL     1      43.598 131.719  18.891  1.00  0.00     0.078 A 
ATOM     14  N   UNL     1      41.570 132.589  18.779  1.00  0.00    -0.174 N 
ATOM     15  C   UNL     1      42.642 132.235  18.034  1.00  0.00     0.163 A 
ATOM     16  C   UNL     1      43.126 131.516  22.655  1.00  0.00     0.052 C 
ATOM     17  H   UNL     1      41.147 132.521  20.839  1.00  0.00     0.488 HD
ATOM     18  H   UNL     1      40.688 133.017  18.420  1.00  0.00     0.238 HD
ENDBRANCH   1   7
BRANCH   4  19
ATOM     19  C   UNL     1      47.249 130.895  13.463  1.00  0.00     0.099 C 
ATOM     20  N   UNL     1      47.723 130.826  12.409  1.00  0.00    -0.192 NA
ENDBRANCH   4  19
TORSDOF 2
ENDMDL
MODEL 2
REMARK VINA RESULT:     -10.2      0.021      1.143
REMARK SMILES Cc1ccc(-c2ccc(C#N)cc2)c2c[nH][nH+]c12
REMARK SMILES IDX 6 1 7 2 8 3 9 4 12 5 13 6 5 7 2 8 3 9 18 10 4 11 17 12 14 13
REMARK SMILES IDX 16 14 15 15 1 16 10 19 11 20
REMARK H PARENT 17 17 16 18
ROOT
ATOM      1  C   UNL     1      45.515 131.145  17.339  1.00  0.00    -0.017 A 
ATOM      2  C   UNL     1      46.067 129.932  16.890  1.00  0.00     0.010 A 
ATOM      3  C   UNL     1      46.637 129.843  15.616  1.00  0.00     0.020 A 
ATOM      4  C   UNL     1      46.654 130.962  14.774  1.00  0.00     0.052 A 
ATOM      5  C   UNL     1      46.097 132.169  15.209  1.00  0.00     0.020 A 
ATOM      6  C   UNL     1      45.528 132.261  16.483  1.00  0.00     0.010 A 
ENDROOT
BRANCH   1   7
ATOM      7  C   UNL     1      44.903 131.233  18.685  1.00  0.00    -0.003 A 
ATOM      8  C   UNL     1      43.722 131.391  21.285  1.00  0.00     0.024 A 
ATOM      9  C   UNL     1      45.039 130.911  21.118  1.00  0.00     0.011 A 
ATOM     10  C   UNL     1      43.037 131.790  20.134  1.00  0.00     0.239 A 
ATOM     11  C   UNL     1      45.623 130.834  19.834  1.00  0.00     0.010 A 
ATOM     12  N   UNL     1      41.802 132.316  20.037  1.00  0.00    -0.126 N 
ATOM     13  C   UNL     1      43.602 131.714  18.885  1.00  0.00     0.078 A 
ATOM     14  N   UNL     1      41.574 132.582  18.759  1.00  0.00    -0.174 N 
ATOM     15  C   UNL     1      42.653 132.233  18.023  1.00  0.00     0.163 A 
ATOM     16  C   UNL     1      43.095 131.495  22.644  1.00  0.00     0.052 C 
ATOM     17  H   UNL     1      41.132 132.506  20.814  1.00  0.00     0.488 HD
ATOM     18  H   UNL     1      40.695 133.010  18.393  1.00  0.00     0.238 HD
ENDBRANCH   1   7
BRANCH   4  19
ATOM     19  C   UNL     1      47.241 130.868  13.463  1.00  0.00     0.099 C 
ATOM     20  N   UNL     1      47.711 130.793  12.408  1.00  0.00    -0.192 NA
ENDBRANCH   4  19
TORSDOF 2
ENDMDL
MODEL 3
REMARK VINA RESULT:      -9.2      1.564      2.577
REMARK SMILES Cc1ccc(-c2ccc(C#N)cc2)c2c[nH][nH+]c12
REMARK SMILES IDX 6 1 7 2 8 3 9 4 12 5 13 6 5 7 2 8 3 9 18 10 4 11 17 12 14 13
REMARK SMILES IDX 16 14 15 15 1 16 10 19 11 20
REMARK H PARENT 17 17 16 18
ROOT
ATOM      1  C   UNL     1      45.211 131.083  16.892  1.00  0.00    -0.017 A 
ATOM      2  C   UNL     1      45.594 129.739  16.746  1.00  0.00     0.010 A 
ATOM      3  C   UNL     1      46.441 129.354  15.702  1.00  0.00     0.020 A 
ATOM      4  C   UNL     1      46.906 130.308  14.788  1.00  0.00     0.052 A 
ATOM      5  C   UNL     1      46.520 131.646  14.920  1.00  0.00     0.020 A 
ATOM      6  C   UNL     1      45.675 132.032  15.965  1.00  0.00     0.010 A 
ENDROOT
BRANCH   1   7
ATOM      7  C   UNL     1      44.305 131.485  17.994  1.00  0.00    -0.003 A 
ATOM      8  C   UNL     1      42.557 132.272  20.116  1.00  0.00     0.024 A 
ATOM      9  C   UNL     1      42.118 132.291  18.775  1.00  0.00     0.011 A 
ATOM     10  C   UNL     1      43.867 131.847  20.354  1.00  0.00     0.239 A 
ATOM     11  C   UNL     1      42.981 131.901  17.727  1.00  0.00     0.010 A 
ATOM     12  N   UNL     1      44.497 131.703  21.534  1.00  0.00    -0.126 N 
ATOM     13  C   UNL     1      44.708 131.470  19.337  1.00  0.00     0.078 A 
ATOM     14  N   UNL     1      45.714 131.236  21.290  1.00  0.00    -0.174 N 
ATOM     15  C   UNL     1      45.879 131.075  19.958  1.00  0.00     0.163 A 
ATOM     16  C   UNL     1      41.646 132.668  21.241  1.00  0.00     0.052 C 
ATOM     17  H   UNL     1      44.114 131.900  22.485  1.00  0.00     0.488 HD
ATOM     18  H   UNL     1      46.420 131.017  22.027  1.00  0.00     0.238 HD
ENDBRANCH   1   7
BRANCH   4  19
ATOM     19  C   UNL     1      47.778 129.911  13.713  1.00  0.00     0.099 C 
ATOM     20  N   UNL     1      48.477 129.591  12.847  1.00  0.00    -0.192 NA
ENDBRANCH   4  19
TORSDOF 2
ENDMDL
MODEL 4
REMARK VINA RESULT:      -9.1      1.562      2.318
REMARK SMILES Cc1ccc(-c2ccc(C#N)cc2)c2c[nH][nH+]c12
REMARK SMILES IDX 6 1 7 2 8 3 9 4 12 5 13 6 5 7 2 8 3 9 18 10 4 11 17 12 14 13
REMARK SMILES IDX 16 14 15 15 1 16 10 19 11 20
REMARK H PARENT 17 17 16 18
ROOT
ATOM      1  C   UNL     1      45.159 131.070  16.986  1.00  0.00    -0.017 A 
ATOM      2  C   UNL     1      45.559 132.010  16.021  1.00  0.00     0.010 A 
ATOM      3  C   UNL     1      46.402 131.631  14.971  1.00  0.00     0.020 A 
ATOM      4  C   UNL     1      46.860 130.311  14.880  1.00  0.00     0.052 A 
ATOM      5  C   UNL     1      46.475 129.372  15.843  1.00  0.00     0.020 A 
ATOM      6  C   UNL     1      45.631 129.749  16.892  1.00  0.00     0.010 A 
ENDROOT
BRANCH   1   7
ATOM      7  C   UNL     1      44.274 131.477  18.102  1.00  0.00    -0.003 A 
ATOM      8  C   UNL     1      42.565 132.275  20.252  1.00  0.00     0.024 A 
ATOM      9  C   UNL     1      42.107 132.306  18.917  1.00  0.00     0.011 A 
ATOM     10  C   UNL     1      43.873 131.832  20.470  1.00  0.00     0.239 A 
ATOM     11  C   UNL     1      42.951 131.910  17.856  1.00  0.00     0.010 A 
ATOM     12  N   UNL     1      44.517 131.674  21.640  1.00  0.00    -0.126 N 
ATOM     13  C   UNL     1      44.694 131.450  19.439  1.00  0.00     0.078 A 
ATOM     14  N   UNL     1      45.725 131.194  21.376  1.00  0.00    -0.174 N 
ATOM     15  C   UNL     1      45.869 131.038  20.041  1.00  0.00     0.163 A 
ATOM     16  C   UNL     1      41.675 132.676  21.392  1.00  0.00     0.052 C 
ATOM     17  H   UNL     1      44.150 131.871  22.597  1.00  0.00     0.488 HD
ATOM     18  H   UNL     1      46.438 130.962  22.102  1.00  0.00     0.238 HD
ENDBRANCH   1   7
BRANCH   4  19
ATOM     19  C   UNL     1      47.729 129.922  13.799  1.00  0.00     0.099 C 
ATOM     20  N   UNL     1      48.427 129.609  12.931  1.00  0.00    -0.192 NA
ENDBRANCH   4  19
TORSDOF 2
ENDMDL
MODEL 5
REMARK VINA RESULT:      -8.4      0.970      1.583
REMARK SMILES Cc1ccc(-c2ccc(C#N)cc2)c2c[nH][nH+]c12
REMARK SMILES IDX 6 1 7 2 8 3 9 4 12 5 13 6 5 7 2 8 3 9 18 10 4 11 17 12 14 13
REMARK SMILES IDX 16 14 15 15 1 16 10 19 11 20
REMARK H PARENT 17 17 16 18
ROOT
ATOM      1  C   UNL     1      44.962 131.121  18.240  1.00  0.00    -0.017 A 
ATOM      2  C   UNL     1      46.001 130.236  17.906  1.00  0.00     0.010 A 
ATOM      3  C   UNL     1      46.456 130.145  16.586  1.00  0.00     0.020 A 
ATOM      4  C   UNL     1      45.871 130.931  15.586  1.00  0.00     0.052 A 
ATOM      5  C   UNL     1      44.828 131.806  15.910  1.00  0.00     0.020 A 
ATOM      6  C   UNL     1      44.373 131.900  17.228  1.00  0.00     0.010 A 
ENDROOT
BRANCH   1   7
ATOM      7  C   UNL     1      44.476 131.207  19.637  1.00  0.00    -0.003 A 
ATOM      8  C   UNL     1      43.538 131.361  22.334  1.00  0.00     0.024 A 
ATOM      9  C   UNL     1      44.754 130.713  22.030  1.00  0.00     0.011 A 
ATOM     10  C   UNL     1      42.829 131.924  21.270  1.00  0.00     0.239 A 
ATOM     11  C   UNL     1      45.218 130.639  20.698  1.00  0.00     0.010 A 
ATOM     12  N   UNL     1      41.679 132.622  21.308  1.00  0.00    -0.126 N 
ATOM     13  C   UNL     1      43.277 131.851  19.975  1.00  0.00     0.078 A 
ATOM     14  N   UNL     1      41.392 132.999  20.070  1.00  0.00    -0.174 N 
ATOM     15  C   UNL     1      42.349 132.551  19.226  1.00  0.00     0.163 A 
ATOM     16  C   UNL     1      43.040 131.463  23.746  1.00  0.00     0.052 C 
ATOM     17  H   UNL     1      41.106 132.854  22.149  1.00  0.00     0.488 HD
ATOM     18  H   UNL     1      40.559 133.569  19.805  1.00  0.00     0.238 HD
ENDBRANCH   1   7
BRANCH   4  19
ATOM     19  C   UNL     1      46.339 130.836  14.228  1.00  0.00     0.099 C 
ATOM     20  N   UNL     1      46.715 130.759  13.136  1.00  0.00    -0.192 NA
ENDBRANCH   4  19
TORSDOF 2
ENDMDL
MODEL 6
REMARK VINA RESULT:      -8.2      1.135      1.468
REMARK SMILES Cc1ccc(-c2ccc(C#N)cc2)c2c[nH][nH+]c12
REMARK SMILES IDX 6 1 7 2 8 3 9 4 12 5 13 6 5 7 2 8 3 9 18 10 4 11 17 12 14 13
REMARK SMILES IDX 16 14 15 15 1 16 10 19 11 20
REMARK H PARENT 17 17 16 18
ROOT
ATOM      1  C   UNL     1      44.761 131.138  18.460  1.00  0.00    -0.017 A 
ATOM      2  C   UNL     1      44.083 131.805  17.425  1.00  0.00     0.010 A 
ATOM      3  C   UNL     1      44.530 131.701  16.104  1.00  0.00     0.020 A 
ATOM      4  C   UNL     1      45.664 130.935  15.805  1.00  0.00     0.052 A 
ATOM      5  C   UNL     1      46.350 130.278  16.830  1.00  0.00     0.020 A 
ATOM      6  C   UNL     1      45.904 130.380  18.152  1.00  0.00     0.010 A 
ENDROOT
BRANCH   1   7
ATOM      7  C   UNL     1      44.291 131.259  19.860  1.00  0.00    -0.003 A 
ATOM      8  C   UNL     1      43.383 131.481  22.563  1.00  0.00     0.024 A 
ATOM      9  C   UNL     1      44.573 130.787  22.256  1.00  0.00     0.011 A 
ATOM     10  C   UNL     1      42.685 132.055  21.497  1.00  0.00     0.239 A 
ATOM     11  C   UNL     1      45.022 130.679  20.921  1.00  0.00     0.010 A 
ATOM     12  N   UNL     1      41.561 132.794  21.535  1.00  0.00    -0.126 N 
ATOM     13  C   UNL     1      43.119 131.949  20.199  1.00  0.00     0.078 A 
ATOM     14  N   UNL     1      41.276 133.164  20.294  1.00  0.00    -0.174 N 
ATOM     15  C   UNL     1      42.209 132.672  19.448  1.00  0.00     0.163 A 
ATOM     16  C   UNL     1      42.902 131.619  23.977  1.00  0.00     0.052 C 
ATOM     17  H   UNL     1      41.003 133.056  22.378  1.00  0.00     0.488 HD
ATOM     18  H   UNL     1      40.461 133.759  20.029  1.00  0.00     0.238 HD
ENDBRANCH   1   7
BRANCH   4  19
ATOM     19  C   UNL     1      46.122 130.829  14.444  1.00  0.00     0.099 C 
ATOM     20  N   UNL     1      46.493 130.744  13.351  1.00  0.00    -0.192 NA
ENDBRANCH   4  19
TORSDOF 2
ENDMDL
MODEL 7
REMARK VINA RESULT:      -8.1      1.680      6.598
REMARK SMILES Cc1ccc(-c2ccc(C#N)cc2)c2c[nH][nH+]c12
REMARK SMILES IDX 6 1 7 2 8 3 9 4 12 5 13 6 5 7 2 8 3 9 18 10 4 11 17 12 14 13
REMARK SMILES IDX 16 14 15 15 1 16 10 19 11 20
REMARK H PARENT 17 17 16 18
ROOT
ATOM      1  C   UNL     1      44.666 131.487  18.140  1.00  0.00    -0.017 A 
ATOM      2  C   UNL     1      45.401 131.270  19.318  1.00  0.00     0.010 A 
ATOM      3  C   UNL     1      44.779 131.364  20.567  1.00  0.00     0.020 A 
ATOM      4  C   UNL     1      43.418 131.683  20.652  1.00  0.00     0.052 A 
ATOM      5  C   UNL     1      42.683 131.911  19.484  1.00  0.00     0.020 A 
ATOM      6  C   UNL     1      43.302 131.817  18.234  1.00  0.00     0.010 A 
ENDROOT
BRANCH   1   7
ATOM      7  C   UNL     1      45.330 131.397  16.819  1.00  0.00    -0.003 A 
ATOM      8  C   UNL     1      46.605 131.231  14.264  1.00  0.00     0.024 A 
ATOM      9  C   UNL     1      46.496 132.467  14.937  1.00  0.00     0.011 A 
ATOM     10  C   UNL     1      46.076 130.106  14.903  1.00  0.00     0.239 A 
ATOM     11  C   UNL     1      45.868 132.549  16.200  1.00  0.00     0.010 A 
ATOM     12  N   UNL     1      46.094 128.826  14.490  1.00  0.00    -0.126 N 
ATOM     13  C   UNL     1      45.463 130.184  16.129  1.00  0.00     0.078 A 
ATOM     14  N   UNL     1      45.514 128.090  15.428  1.00  0.00    -0.174 N 
ATOM     15  C   UNL     1      45.119 128.883  16.449  1.00  0.00     0.163 A 
ATOM     16  C   UNL     1      47.285 131.126  12.931  1.00  0.00     0.052 C 
ATOM     17  H   UNL     1      46.499 128.451  13.604  1.00  0.00     0.488 HD
ATOM     18  H   UNL     1      45.401 127.053  15.378  1.00  0.00     0.238 HD
ENDBRANCH   1   7
BRANCH   4  19
ATOM     19  C   UNL     1      42.779 131.779  21.939  1.00  0.00     0.099 C 
ATOM     20  N   UNL     1      42.264 131.856  22.972  1.00  0.00    -0.192 NA
ENDBRANCH   4  19
TORSDOF 2
ENDMDL
MODEL 8
REMARK VINA RESULT:      -8.1      1.693      6.542
REMARK SMILES Cc1ccc(-c2ccc(C#N)cc2)c2c[nH][nH+]c12
REMARK SMILES IDX 6 1 7 2 8 3 9 4 12 5 13 6 5 7 2 8 3 9 18 10 4 11 17 12 14 13
REMARK SMILES IDX 16 14 15 15 1 16 10 19 11 20
REMARK H PARENT 17 17 16 18
ROOT
ATOM      1  C   UNL     1      44.686 131.505  18.179  1.00  0.00    -0.017 A 
ATOM      2  C   UNL     1      43.315 131.796  18.282  1.00  0.00     0.010 A 
ATOM      3  C   UNL     1      42.701 131.878  19.536  1.00  0.00     0.020 A 
ATOM      4  C   UNL     1      43.450 131.663  20.700  1.00  0.00     0.052 A 
ATOM      5  C   UNL     1      44.813 131.362  20.604  1.00  0.00     0.020 A 
ATOM      6  C   UNL     1      45.428 131.280  19.352  1.00  0.00     0.010 A 
ENDROOT
BRANCH   1   7
ATOM      7  C   UNL     1      45.330 131.408  16.848  1.00  0.00    -0.003 A 
ATOM      8  C   UNL     1      46.565 131.227  14.275  1.00  0.00     0.024 A 
ATOM      9  C   UNL     1      46.485 132.463  14.952  1.00  0.00     0.011 A 
ATOM     10  C   UNL     1      46.027 130.109  14.919  1.00  0.00     0.239 A 
ATOM     11  C   UNL     1      45.877 132.552  16.224  1.00  0.00     0.010 A 
ATOM     12  N   UNL     1      46.018 128.830  14.503  1.00  0.00    -0.126 N 
ATOM     13  C   UNL     1      45.434 130.194  16.153  1.00  0.00     0.078 A 
ATOM     14  N   UNL     1      45.440 128.101  15.448  1.00  0.00    -0.174 N 
ATOM     15  C   UNL     1      45.073 128.898  16.476  1.00  0.00     0.163 A 
ATOM     16  C   UNL     1      47.223 131.115  12.931  1.00  0.00     0.052 C 
ATOM     17  H   UNL     1      46.405 128.451  13.611  1.00  0.00     0.488 HD
ATOM     18  H   UNL     1      45.310 127.066  15.397  1.00  0.00     0.238 HD
ENDBRANCH   1   7
BRANCH   4  19
ATOM     19  C   UNL     1      42.818 131.748  21.990  1.00  0.00     0.099 C 
ATOM     20  N   UNL     1      42.308 131.817  23.027  1.00  0.00    -0.192 NA
ENDBRANCH   4  19
TORSDOF 2
ENDMDL


