MODEL 1
REMARK VINA RESULT:      -5.6      0.000      0.000
REMARK SMILES C=C[C@@H](Oc1[nH+]c[nH+]c(C)c1C)c1ccc2[nH]c(-c3cnc4oc[nH+]c4c3)cc2c1
REMARK SMILES IDX 3 1 2 2 1 3 4 4 5 5 6 6 11 7 7 8 9 9 8 10 12 12 10 13 13 15
REMARK SMILES IDX 14 16 30 17 15 18 29 19 16 20 28 21 17 22 18 23 19 25 20 26
REMARK SMILES IDX 27 27 21 28 26 29 22 30 25 31 23 32 24 33
REMARK H PARENT 6 11 8 14 17 24 25 34
ROOT
ATOM      1  C   UNL     1      42.318 132.551  22.766  1.00  0.00     0.232 C 
ENDROOT
BRANCH   1   2
ATOM      2  C   UNL     1      40.841 132.426  23.045  1.00  0.00     0.015 C 
ATOM      3  C   UNL     1      40.027 133.487  23.029  1.00  0.00     0.008 C 
ENDBRANCH   1   2
BRANCH   1   4
ATOM      4  O   UNL     1      43.043 131.585  23.531  1.00  0.00    -0.431 OA
BRANCH   4   5
ATOM      5  C   UNL     1      42.633 130.265  23.784  1.00  0.00     0.381 A 
ATOM      6  N   UNL     1      41.423 129.996  24.357  1.00  0.00    -0.123 N 
ATOM      7  C   UNL     1      43.491 129.202  23.442  1.00  0.00     0.128 A 
ATOM      8  C   UNL     1      41.039 128.721  24.621  1.00  0.00     0.632 A 
ATOM      9  C   UNL     1      43.078 127.886  23.749  1.00  0.00     0.194 A 
ATOM     10  N   UNL     1      41.858 127.683  24.324  1.00  0.00    -0.159 N 
ATOM     11  H   UNL     1      40.766 130.762  24.618  1.00  0.00     0.463 HD
ATOM     12  C   UNL     1      44.832 129.472  22.795  1.00  0.00     0.063 C 
ATOM     13  C   UNL     1      43.940 126.698  23.416  1.00  0.00     0.124 C 
ATOM     14  H   UNL     1      41.530 126.714  24.536  1.00  0.00     0.460 HD
ENDBRANCH   4   5
ENDBRANCH   1   4
BRANCH   1  15
ATOM     15  C   UNL     1      42.556 132.323  21.293  1.00  0.00    -0.003 A 
ATOM     16  C   UNL     1      41.611 132.762  20.326  1.00  0.00     0.010 A 
ATOM     17  C   UNL     1      43.768 131.735  20.864  1.00  0.00     0.018 A 
ATOM     18  C   UNL     1      41.854 132.588  18.952  1.00  0.00     0.027 A 
ATOM     19  C   UNL     1      43.976 131.585  19.495  1.00  0.00     0.000 A 
ATOM     20  C   UNL     1      43.052 131.991  18.573  1.00  0.00     0.046 A 
ATOM     21  C   UNL     1      45.046 131.060  18.806  1.00  0.00     0.037 A 
ATOM     22  N   UNL     1      43.480 131.745  17.323  1.00  0.00    -0.354 N 
ATOM     23  C   UNL     1      44.703 131.173  17.454  1.00  0.00     0.048 A 
ATOM     24  H   UNL     1      42.972 131.979  16.441  1.00  0.00     0.167 HD
BRANCH  23  25
ATOM     25  C   UNL     1      45.549 130.744  16.311  1.00  0.00     0.023 A 
ATOM     26  C   UNL     1      45.768 129.359  16.047  1.00  0.00     0.126 A 
ATOM     27  C   UNL     1      46.156 131.703  15.462  1.00  0.00     0.097 A 
ATOM     28  N   UNL     1      46.539 128.958  14.990  1.00  0.00    -0.215 NA
ATOM     29  C   UNL     1      46.925 131.228  14.407  1.00  0.00     0.270 A 
ATOM     30  C   UNL     1      47.097 129.902  14.196  1.00  0.00     0.297 A 
ATOM     31  N   UNL     1      47.582 131.908  13.457  1.00  0.00    -0.175 N 
ATOM     32  O   UNL     1      47.847 129.715  13.140  1.00  0.00    -0.384 OA
ATOM     33  C   UNL     1      48.137 130.930  12.696  1.00  0.00     0.522 A 
ATOM     34  H   UNL     1      47.648 132.942  13.329  1.00  0.00     0.457 HD
ENDBRANCH  23  25
ENDBRANCH   1  15
TORSDOF 5
ENDMDL
MODEL 2
REMARK VINA RESULT:      -4.5      0.844      1.148
REMARK SMILES C=C[C@@H](Oc1[nH+]c[nH+]c(C)c1C)c1ccc2[nH]c(-c3cnc4oc[nH+]c4c3)cc2c1
REMARK SMILES IDX 3 1 2 2 1 3 4 4 5 5 6 6 11 7 7 8 9 9 8 10 12 12 10 13 13 15
REMARK SMILES IDX 14 16 30 17 15 18 29 19 16 20 28 21 17 22 18 23 19 25 20 26
REMARK SMILES IDX 27 27 21 28 26 29 22 30 25 31 23 32 24 33
REMARK H PARENT 6 11 8 14 17 24 25 34
ROOT
ATOM      1  C   UNL     1      42.439 132.541  22.397  1.00  0.00     0.232 C 
ENDROOT
BRANCH   1   2
ATOM      2  C   UNL     1      40.975 132.417  22.737  1.00  0.00     0.015 C 
ATOM      3  C   UNL     1      40.505 132.704  23.955  1.00  0.00     0.008 C 
ENDBRANCH   1   2
BRANCH   1   4
ATOM      4  O   UNL     1      43.197 131.593  23.153  1.00  0.00    -0.431 OA
BRANCH   4   5
ATOM      5  C   UNL     1      42.793 130.284  23.468  1.00  0.00     0.381 A 
ATOM      6  N   UNL     1      41.703 130.049  24.255  1.00  0.00    -0.123 N 
ATOM      7  C   UNL     1      43.532 129.197  22.963  1.00  0.00     0.128 A 
ATOM      8  C   UNL     1      41.328 128.784  24.576  1.00  0.00     0.632 A 
ATOM      9  C   UNL     1      43.136 127.892  23.331  1.00  0.00     0.194 A 
ATOM     10  N   UNL     1      42.038 127.723  24.122  1.00  0.00    -0.159 N 
ATOM     11  H   UNL     1      41.135 130.833  24.641  1.00  0.00     0.463 HD
ATOM     12  C   UNL     1      44.738 129.430  22.078  1.00  0.00     0.063 C 
ATOM     13  C   UNL     1      43.877 126.680  22.833  1.00  0.00     0.124 C 
ATOM     14  H   UNL     1      41.720 126.763  24.384  1.00  0.00     0.460 HD
ENDBRANCH   4   5
ENDBRANCH   1   4
BRANCH   1  15
ATOM     15  C   UNL     1      42.621 132.283  20.921  1.00  0.00    -0.003 A 
ATOM     16  C   UNL     1      41.564 132.531  20.004  1.00  0.00     0.010 A 
ATOM     17  C   UNL     1      43.881 131.864  20.435  1.00  0.00     0.018 A 
ATOM     18  C   UNL     1      41.748 132.332  18.624  1.00  0.00     0.027 A 
ATOM     19  C   UNL     1      44.027 131.684  19.062  1.00  0.00     0.000 A 
ATOM     20  C   UNL     1      42.998 131.904  18.188  1.00  0.00     0.046 A 
ATOM     21  C   UNL     1      45.121 131.293  18.323  1.00  0.00     0.037 A 
ATOM     22  N   UNL     1      43.382 131.668  16.923  1.00  0.00    -0.354 N 
ATOM     23  C   UNL     1      44.684 131.291  16.994  1.00  0.00     0.048 A 
ATOM     24  H   UNL     1      42.793 131.782  16.068  1.00  0.00     0.167 HD
BRANCH  23  25
ATOM     25  C   UNL     1      45.516 130.941  15.814  1.00  0.00     0.023 A 
ATOM     26  C   UNL     1      45.151 131.386  14.508  1.00  0.00     0.126 A 
ATOM     27  C   UNL     1      46.688 130.158  15.963  1.00  0.00     0.097 A 
ATOM     28  N   UNL     1      45.918 131.075  13.419  1.00  0.00    -0.215 NA
ATOM     29  C   UNL     1      47.421 129.879  14.816  1.00  0.00     0.270 A 
ATOM     30  C   UNL     1      47.035 130.331  13.600  1.00  0.00     0.297 A 
ATOM     31  N   UNL     1      48.563 129.189  14.681  1.00  0.00    -0.175 N 
ATOM     32  O   UNL     1      47.894 129.947  12.692  1.00  0.00    -0.384 OA
ATOM     33  C   UNL     1      48.816 129.257  13.349  1.00  0.00     0.522 A 
ATOM     34  H   UNL     1      49.125 128.716  15.422  1.00  0.00     0.457 HD
ENDBRANCH  23  25
ENDBRANCH   1  15
TORSDOF 5
ENDMDL
MODEL 3
REMARK VINA RESULT:      -3.5      1.280      1.677
REMARK SMILES C=C[C@@H](Oc1[nH+]c[nH+]c(C)c1C)c1ccc2[nH]c(-c3cnc4oc[nH+]c4c3)cc2c1
REMARK SMILES IDX 3 1 2 2 1 3 4 4 5 5 6 6 11 7 7 8 9 9 8 10 12 12 10 13 13 15
REMARK SMILES IDX 14 16 30 17 15 18 29 19 16 20 28 21 17 22 18 23 19 25 20 26
REMARK SMILES IDX 27 27 21 28 26 29 22 30 25 31 23 32 24 33
REMARK H PARENT 6 11 8 14 17 24 25 34
ROOT
ATOM      1  C   UNL     1      43.161 132.367  22.743  1.00  0.00     0.232 C 
ENDROOT
BRANCH   1   2
ATOM      2  C   UNL     1      41.696 132.312  23.098  1.00  0.00     0.015 C 
ATOM      3  C   UNL     1      41.238 132.754  24.273  1.00  0.00     0.008 C 
ENDBRANCH   1   2
BRANCH   1   4
ATOM      4  O   UNL     1      43.884 131.394  23.501  1.00  0.00    -0.431 OA
BRANCH   4   5
ATOM      5  C   UNL     1      44.058 130.044  23.148  1.00  0.00     0.381 A 
ATOM      6  N   UNL     1      45.065 129.654  22.313  1.00  0.00    -0.123 N 
ATOM      7  C   UNL     1      43.172 129.080  23.666  1.00  0.00     0.128 A 
ATOM      8  C   UNL     1      45.217 128.353  21.956  1.00  0.00     0.632 A 
ATOM      9  C   UNL     1      43.337 127.736  23.261  1.00  0.00     0.194 A 
ATOM     10  N   UNL     1      44.362 127.410  22.422  1.00  0.00    -0.159 N 
ATOM     11  H   UNL     1      45.737 130.345  21.917  1.00  0.00     0.463 HD
ATOM     12  C   UNL     1      42.055 129.484  24.603  1.00  0.00     0.063 C 
ATOM     13  C   UNL     1      42.429 126.649  23.770  1.00  0.00     0.124 C 
ATOM     14  H   UNL     1      44.510 126.418  22.132  1.00  0.00     0.460 HD
ENDBRANCH   4   5
ENDBRANCH   1   4
BRANCH   1  15
ATOM     15  C   UNL     1      43.316 132.086  21.267  1.00  0.00    -0.003 A 
ATOM     16  C   UNL     1      42.243 132.323  20.365  1.00  0.00     0.010 A 
ATOM     17  C   UNL     1      44.566 131.658  20.765  1.00  0.00     0.018 A 
ATOM     18  C   UNL     1      42.402 132.102  18.985  1.00  0.00     0.027 A 
ATOM     19  C   UNL     1      44.687 131.456  19.393  1.00  0.00     0.000 A 
ATOM     20  C   UNL     1      43.643 131.665  18.534  1.00  0.00     0.046 A 
ATOM     21  C   UNL     1      45.767 131.052  18.640  1.00  0.00     0.037 A 
ATOM     22  N   UNL     1      44.005 131.409  17.266  1.00  0.00    -0.354 N 
ATOM     23  C   UNL     1      45.307 131.031  17.319  1.00  0.00     0.048 A 
ATOM     24  H   UNL     1      43.400 131.511  16.420  1.00  0.00     0.167 HD
BRANCH  23  25
ATOM     25  C   UNL     1      46.117 130.661  16.130  1.00  0.00     0.023 A 
ATOM     26  C   UNL     1      46.878 129.454  16.114  1.00  0.00     0.126 A 
ATOM     27  C   UNL     1      46.149 131.501  14.989  1.00  0.00     0.097 A 
ATOM     28  N   UNL     1      47.618 129.104  15.018  1.00  0.00    -0.215 NA
ATOM     29  C   UNL     1      46.920 131.086  13.910  1.00  0.00     0.270 A 
ATOM     30  C   UNL     1      47.619 129.928  13.943  1.00  0.00     0.297 A 
ATOM     31  N   UNL     1      47.105 131.672  12.719  1.00  0.00    -0.175 N 
ATOM     32  O   UNL     1      48.249 129.758  12.809  1.00  0.00    -0.384 OA
ATOM     33  C   UNL     1      47.935 130.815  12.072  1.00  0.00     0.522 A 
ATOM     34  H   UNL     1      46.704 132.570  12.370  1.00  0.00     0.457 HD
ENDBRANCH  23  25
ENDBRANCH   1  15
TORSDOF 5
ENDMDL


