REMARK SMILES CC(=O)c1ccc(-c2ccc([O-])cc2)c2cn[nH]c12
REMARK SMILES IDX 4 1 5 2 6 3 7 4 15 5 16 6 17 7 18 8 19 9 2 11 1 12 3 13 8 14
REMARK SMILES IDX 9 15 14 16 10 17 13 18 11 19 12 20
REMARK H PARENT 18 10
ROOT
ATOM      1  C   UNL     1      -1.050   0.117   2.066  1.00  0.00     0.043 A 
ATOM      2  C   UNL     1      -1.435   0.741   0.855  1.00  0.00     0.015 A 
ATOM      3  C   UNL     1      -0.658   0.604  -0.315  1.00  0.00     0.010 A 
ATOM      4  C   UNL     1       0.526  -0.162  -0.313  1.00  0.00    -0.007 A 
ATOM      5  C   UNL     1       0.892  -0.759   0.899  1.00  0.00     0.028 A 
ATOM      6  C   UNL     1       2.003  -1.491   1.273  1.00  0.00     0.144 A 
ATOM      7  N   UNL     1       1.904  -1.776   2.591  1.00  0.00    -0.183 NA
ATOM      8  N   UNL     1       0.775  -1.252   3.052  1.00  0.00    -0.277 N 
ATOM      9  C   UNL     1       0.143  -0.628   2.040  1.00  0.00     0.076 A 
ATOM     10  H   UNL     1       0.481  -1.306   4.051  1.00  0.00     0.190 HD
ENDROOT
BRANCH   1  11
ATOM     11  C   UNL     1      -1.885   0.247   3.288  1.00  0.00     0.161 C 
ATOM     12  C   UNL     1      -2.814   1.407   3.477  1.00  0.00     0.093 C 
ATOM     13  O   UNL     1      -1.865  -0.657   4.165  1.00  0.00    -0.294 OA
ENDBRANCH   1  11
BRANCH   4  14
ATOM     14  C   UNL     1       1.335  -0.309  -1.546  1.00  0.00    -0.018 A 
ATOM     15  C   UNL     1       1.770  -1.577  -1.970  1.00  0.00     0.008 A 
ATOM     16  C   UNL     1       1.656   0.820  -2.321  1.00  0.00     0.008 A 
ATOM     17  C   UNL     1       2.524  -1.710  -3.140  1.00  0.00    -0.008 A 
ATOM     18  C   UNL     1       2.411   0.682  -3.490  1.00  0.00    -0.008 A 
ATOM     19  C   UNL     1       2.846  -0.582  -3.899  1.00  0.00    -0.109 A 
ATOM     20  O   UNL     1       3.596  -0.716  -5.061  1.00  0.00    -0.872 OA
ENDBRANCH   4  14
TORSDOF 2


