REMARK SMILES O=C1[N-]Cc2[nH+]cc(-c3ccc4[nH]ccc4c3)cc21
REMARK SMILES IDX 1 1 2 2 3 3 4 4 5 5 6 6 7 7 8 8 18 9 19 10 9 12 10 13 17 14
REMARK SMILES IDX 11 15 16 16 12 17 15 18 13 19 14 20
REMARK H PARENT 6 11 13 21
ROOT
ATOM      1  O   UNL     1      -1.821   0.981  -4.224  1.00  0.00    -0.315 OA
ATOM      2  C   UNL     1      -2.333   0.122  -3.460  1.00  0.00     0.089 C 
ATOM      3  N   UNL     1      -3.366  -0.776  -3.855  1.00  0.00    -0.641 NA
ATOM      4  C   UNL     1      -3.692  -1.613  -2.693  1.00  0.00    -0.006 C 
ATOM      5  C   UNL     1      -2.766  -1.115  -1.625  1.00  0.00     0.171 A 
ATOM      6  N   UNL     1      -2.665  -1.565  -0.349  1.00  0.00    -0.215 N 
ATOM      7  C   UNL     1      -1.758  -0.998   0.502  1.00  0.00     0.315 A 
ATOM      8  C   UNL     1      -0.917   0.060   0.067  1.00  0.00     0.046 A 
ATOM      9  C   UNL     1      -1.036   0.517  -1.264  1.00  0.00     0.031 A 
ATOM     10  C   UNL     1      -1.976  -0.098  -2.083  1.00  0.00     0.065 A 
ATOM     11  H   UNL     1      -3.280  -2.341  -0.016  1.00  0.00     0.453 HD
ENDROOT
BRANCH   8  12
ATOM     12  C   UNL     1       0.069   0.675   0.991  1.00  0.00    -0.012 A 
ATOM     13  C   UNL     1       0.802  -0.133   1.903  1.00  0.00     0.011 A 
ATOM     14  C   UNL     1       0.288   2.074   0.973  1.00  0.00     0.019 A 
ATOM     15  C   UNL     1       1.738   0.440   2.783  1.00  0.00     0.027 A 
ATOM     16  C   UNL     1       1.222   2.605   1.858  1.00  0.00    -0.000 A 
ATOM     17  C   UNL     1       1.922   1.818   2.732  1.00  0.00     0.045 A 
ATOM     18  C   UNL     1       1.629   3.906   2.059  1.00  0.00     0.028 A 
ATOM     19  N   UNL     1       2.756   2.559   3.479  1.00  0.00    -0.361 N 
ATOM     20  C   UNL     1       2.581   3.837   3.071  1.00  0.00     0.083 A 
ATOM     21  H   UNL     1       3.407   2.223   4.223  1.00  0.00     0.166 HD
ENDBRANCH   8  12
TORSDOF 1


