REMARK SMILES CO[C@H]1CCC[C@H](c2cc3cc(F)ccc3[nH]2)N1C(=O)c1ccc(Cl)c(C)c1
REMARK SMILES IDX 3 1 4 2 5 3 6 4 7 5 18 6 2 7 1 8 19 9 20 10 21 11 22 12
REMARK SMILES IDX 28 13 23 14 26 15 24 16 27 17 25 18 8 19 9 20 17 21 10 22
REMARK SMILES IDX 16 23 11 24 15 25 12 26 14 27 13 29
REMARK H PARENT 17 28
ROOT
ATOM      1  C   UNL     1      -2.556  -0.565   2.458  1.00  0.00     0.217 C 
ATOM      2  C   UNL     1      -3.351  -1.581   1.626  1.00  0.00     0.055 C 
ATOM      3  C   UNL     1      -3.755  -0.994   0.265  1.00  0.00     0.007 C 
ATOM      4  C   UNL     1      -2.530  -0.489  -0.509  1.00  0.00     0.032 C 
ATOM      5  C   UNL     1      -1.723   0.515   0.338  1.00  0.00     0.135 C 
ATOM      6  N   UNL     1      -1.416  -0.089   1.656  1.00  0.00    -0.304 N 
ENDROOT
BRANCH   1   7
ATOM      7  O   UNL     1      -3.416   0.509   2.803  1.00  0.00    -0.362 OA
ATOM      8  C   UNL     1      -2.827   1.323   3.792  1.00  0.00     0.197 C 
ENDBRANCH   1   7
BRANCH   6   9
ATOM      9  C   UNL     1      -0.086  -0.176   2.212  1.00  0.00     0.256 C 
ATOM     10  O   UNL     1       0.138   0.286   3.363  1.00  0.00    -0.269 OA
BRANCH   9  11
ATOM     11  C   UNL     1       1.020  -0.811   1.466  1.00  0.00     0.040 A 
ATOM     12  C   UNL     1       2.318  -0.286   1.552  1.00  0.00     0.015 A 
ATOM     13  C   UNL     1       0.777  -1.913   0.634  1.00  0.00     0.018 A 
ATOM     14  C   UNL     1       3.347  -0.822   0.776  1.00  0.00     0.021 A 
ATOM     15  C   UNL     1       1.807  -2.459  -0.150  1.00  0.00    -0.032 A 
ATOM     16  C   UNL     1       3.098  -1.898  -0.083  1.00  0.00     0.044 A 
ATOM     17  C   UNL     1       1.515  -3.609  -1.074  1.00  0.00     0.046 C 
ATOM     18  Cl  UNL     1       4.421  -2.511  -1.067  1.00  0.00    -0.084 Cl
ENDBRANCH   9  11
ENDBRANCH   6   9
BRANCH   5  19
ATOM     19  C   UNL     1      -0.499   1.045  -0.381  1.00  0.00     0.039 A 
ATOM     20  C   UNL     1       0.159   0.447  -1.462  1.00  0.00     0.034 A 
ATOM     21  N   UNL     1       0.191   2.126   0.057  1.00  0.00    -0.357 N 
ATOM     22  C   UNL     1       1.295   1.201  -1.651  1.00  0.00     0.003 A 
ATOM     23  C   UNL     1       1.283   2.206  -0.721  1.00  0.00     0.046 A 
ATOM     24  C   UNL     1       2.358   1.028  -2.534  1.00  0.00     0.049 A 
ATOM     25  C   UNL     1       2.335   3.114  -0.611  1.00  0.00     0.029 A 
ATOM     26  C   UNL     1       3.432   1.933  -2.453  1.00  0.00     0.123 A 
ATOM     27  C   UNL     1       3.420   2.973  -1.496  1.00  0.00     0.041 A 
ATOM     28  H   UNL     1      -0.045   2.734   0.873  1.00  0.00     0.166 HD
ATOM     29  F   UNL     1       4.489   1.800  -3.291  1.00  0.00    -0.207 F 
ENDBRANCH   5  19
TORSDOF 4


