MODEL 1
REMARK VINA RESULT:      -7.0      0.000      0.000
REMARK SMILES [H]/N=c1\[n-]cccc1Nc1ccc2c(nnn2C)c1C=C
REMARK SMILES IDX 9 1 8 3 3 4 4 5 5 6 7 7 6 8 2 9 1 10 10 11 11 12 19 13 12 14
REMARK SMILES IDX 14 15 13 16 15 17 17 18 16 19 18 20 20 21 21 22
REMARK H PARENT 9 2
ROOT
ATOM      1  N   UNL     1      44.193 131.406  21.973  1.00  0.00    -0.355 N 
ATOM      2  H   UNL     1      44.182 132.364  22.392  1.00  0.00     0.167 HD
ENDROOT
BRANCH   1   3
ATOM      3  C   UNL     1      43.739 130.299  22.778  1.00  0.00     0.037 A 
ATOM      4  C   UNL     1      42.572 130.412  23.561  1.00  0.00    -0.041 A 
ATOM      5  N   UNL     1      42.149 129.354  24.307  1.00  0.00    -0.441 NA
ATOM      6  C   UNL     1      42.815 128.170  24.321  1.00  0.00    -0.022 A 
ATOM      7  C   UNL     1      44.427 129.073  22.777  1.00  0.00     0.025 A 
ATOM      8  C   UNL     1      43.968 128.009  23.554  1.00  0.00    -0.002 A 
BRANCH   4   9
ATOM      9  N   UNL     1      41.906 131.522  23.588  1.00  0.00    -0.480 NA
ATOM     10  H   UNL     1      42.253 132.357  24.111  1.00  0.00     0.020 HD
ENDBRANCH   4   9
ENDBRANCH   1   3
BRANCH   1  11
ATOM     11  C   UNL     1      44.500 131.303  20.573  1.00  0.00     0.048 A 
ATOM     12  C   UNL     1      45.774 130.809  20.195  1.00  0.00     0.029 A 
ATOM     13  C   UNL     1      43.549 131.669  19.574  1.00  0.00     0.027 A 
ATOM     14  C   UNL     1      46.137 130.698  18.843  1.00  0.00     0.032 A 
ATOM     15  C   UNL     1      43.958 131.540  18.238  1.00  0.00     0.122 A 
ATOM     16  C   UNL     1      45.195 131.083  17.897  1.00  0.00     0.089 A 
ATOM     17  N   UNL     1      43.252 131.739  17.106  1.00  0.00    -0.130 NA
ATOM     18  N   UNL     1      45.250 131.029  16.559  1.00  0.00    -0.248 N 
ATOM     19  N   UNL     1      44.066 131.420  16.101  1.00  0.00    -0.066 NA
ATOM     20  C   UNL     1      46.342 130.542  15.725  1.00  0.00     0.176 C 
BRANCH  13  21
ATOM     21  C   UNL     1      42.169 132.068  19.938  1.00  0.00     0.005 C 
ATOM     22  C   UNL     1      41.831 133.319  20.250  1.00  0.00     0.009 C 
ENDBRANCH  13  21
ENDBRANCH   1  11
TORSDOF 4
ENDMDL
MODEL 2
REMARK VINA RESULT:      -6.6      1.502      6.238
REMARK SMILES [H]/N=c1\[n-]cccc1Nc1ccc2c(nnn2C)c1C=C
REMARK SMILES IDX 9 1 8 3 3 4 4 5 5 6 7 7 6 8 2 9 1 10 10 11 11 12 19 13 12 14
REMARK SMILES IDX 14 15 13 16 15 17 17 18 16 19 18 20 20 21 21 22
REMARK H PARENT 9 2
ROOT
ATOM      1  N   UNL     1      45.020 131.869  17.901  1.00  0.00    -0.355 N 
ATOM      2  H   UNL     1      44.998 132.910  17.806  1.00  0.00     0.167 HD
ENDROOT
BRANCH   1   3
ATOM      3  C   UNL     1      45.422 131.084  16.760  1.00  0.00     0.037 A 
ATOM      4  C   UNL     1      45.968 131.705  15.618  1.00  0.00    -0.041 A 
ATOM      5  N   UNL     1      46.354 130.949  14.553  1.00  0.00    -0.441 NA
ATOM      6  C   UNL     1      46.237 129.596  14.549  1.00  0.00    -0.022 A 
ATOM      7  C   UNL     1      45.308 129.682  16.769  1.00  0.00     0.025 A 
ATOM      8  C   UNL     1      45.711 128.938  15.659  1.00  0.00    -0.002 A 
BRANCH   4   9
ATOM      9  N   UNL     1      46.094 132.992  15.569  1.00  0.00    -0.480 NA
ATOM     10  H   UNL     1      46.862 133.447  15.027  1.00  0.00     0.020 HD
ENDBRANCH   4   9
ENDBRANCH   1   3
BRANCH   1  11
ATOM     11  C   UNL     1      44.810 131.322  19.213  1.00  0.00     0.048 A 
ATOM     12  C   UNL     1      45.782 130.432  19.737  1.00  0.00     0.029 A 
ATOM     13  C   UNL     1      43.665 131.670  19.990  1.00  0.00     0.027 A 
ATOM     14  C   UNL     1      45.626 129.854  21.007  1.00  0.00     0.032 A 
ATOM     15  C   UNL     1      43.554 131.067  21.253  1.00  0.00     0.122 A 
ATOM     16  C   UNL     1      44.489 130.198  21.728  1.00  0.00     0.089 A 
ATOM     17  N   UNL     1      42.630 131.265  22.214  1.00  0.00    -0.130 NA
ATOM     18  N   UNL     1      44.120 129.848  22.969  1.00  0.00    -0.248 N 
ATOM     19  N   UNL     1      43.001 130.509  23.246  1.00  0.00    -0.066 NA
ATOM     20  C   UNL     1      44.832 128.992  23.908  1.00  0.00     0.176 C 
BRANCH  13  21
ATOM     21  C   UNL     1      42.701 132.691  19.519  1.00  0.00     0.005 C 
ATOM     22  C   UNL     1      41.683 132.412  18.705  1.00  0.00     0.009 C 
ENDBRANCH  13  21
ENDBRANCH   1  11
TORSDOF 4
ENDMDL
MODEL 3
REMARK VINA RESULT:      -6.4      1.174      1.344
REMARK SMILES [H]/N=c1\[n-]cccc1Nc1ccc2c(nnn2C)c1C=C
REMARK SMILES IDX 9 1 8 3 3 4 4 5 5 6 7 7 6 8 2 9 1 10 10 11 11 12 19 13 12 14
REMARK SMILES IDX 14 15 13 16 15 17 17 18 16 19 18 20 20 21 21 22
REMARK H PARENT 9 2
ROOT
ATOM      1  N   UNL     1      44.373 131.716  20.651  1.00  0.00    -0.355 N 
ATOM      2  H   UNL     1      44.204 132.723  20.878  1.00  0.00     0.167 HD
ENDROOT
BRANCH   1   3
ATOM      3  C   UNL     1      44.128 130.731  21.675  1.00  0.00     0.037 A 
ATOM      4  C   UNL     1      43.041 130.872  22.561  1.00  0.00    -0.041 A 
ATOM      5  N   UNL     1      42.815 129.927  23.516  1.00  0.00    -0.441 NA
ATOM      6  C   UNL     1      43.607 128.831  23.647  1.00  0.00    -0.022 A 
ATOM      7  C   UNL     1      44.946 129.593  21.796  1.00  0.00     0.025 A 
ATOM      8  C   UNL     1      44.688 128.644  22.787  1.00  0.00    -0.002 A 
BRANCH   4   9
ATOM      9  N   UNL     1      42.261 131.902  22.483  1.00  0.00    -0.480 NA
ATOM     10  H   UNL     1      41.274 131.818  22.153  1.00  0.00     0.020 HD
ENDBRANCH   4   9
ENDBRANCH   1   3
BRANCH   1  11
ATOM     11  C   UNL     1      44.673 131.390  19.284  1.00  0.00     0.048 A 
ATOM     12  C   UNL     1      45.846 130.642  19.010  1.00  0.00     0.029 A 
ATOM     13  C   UNL     1      43.811 131.786  18.219  1.00  0.00     0.027 A 
ATOM     14  C   UNL     1      46.199 130.305  17.693  1.00  0.00     0.032 A 
ATOM     15  C   UNL     1      44.206 131.425  16.922  1.00  0.00     0.122 A 
ATOM     16  C   UNL     1      45.349 130.725  16.678  1.00  0.00     0.089 A 
ATOM     17  N   UNL     1      43.558 131.601  15.752  1.00  0.00    -0.130 NA
ATOM     18  N   UNL     1      45.408 130.498  15.358  1.00  0.00    -0.248 N 
ATOM     19  N   UNL     1      44.314 131.026  14.819  1.00  0.00    -0.066 NA
ATOM     20  C   UNL     1      46.407 129.732  14.624  1.00  0.00     0.176 C 
BRANCH  13  21
ATOM     21  C   UNL     1      42.517 132.457  18.488  1.00  0.00     0.005 C 
ATOM     22  C   UNL     1      41.451 131.817  18.967  1.00  0.00     0.009 C 
ENDBRANCH  13  21
ENDBRANCH   1  11
TORSDOF 4
ENDMDL
MODEL 4
REMARK VINA RESULT:      -6.1      1.332      6.046
REMARK SMILES [H]/N=c1\[n-]cccc1Nc1ccc2c(nnn2C)c1C=C
REMARK SMILES IDX 9 1 8 3 3 4 4 5 5 6 7 7 6 8 2 9 1 10 10 11 11 12 19 13 12 14
REMARK SMILES IDX 14 15 13 16 15 17 17 18 16 19 18 20 20 21 21 22
REMARK H PARENT 9 2
ROOT
ATOM      1  N   UNL     1      44.869 131.973  18.273  1.00  0.00    -0.355 N 
ATOM      2  H   UNL     1      44.955 133.013  18.204  1.00  0.00     0.167 HD
ENDROOT
BRANCH   1   3
ATOM      3  C   UNL     1      45.153 131.181  17.101  1.00  0.00     0.037 A 
ATOM      4  C   UNL     1      44.346 131.289  15.950  1.00  0.00    -0.041 A 
ATOM      5  N   UNL     1      44.633 130.543  14.847  1.00  0.00    -0.441 NA
ATOM      6  C   UNL     1      45.689 129.689  14.809  1.00  0.00    -0.022 A 
ATOM      7  C   UNL     1      46.254 130.309  17.066  1.00  0.00     0.025 A 
ATOM      8  C   UNL     1      46.520 129.558  15.920  1.00  0.00    -0.002 A 
BRANCH   4   9
ATOM      9  N   UNL     1      43.323 132.083  15.937  1.00  0.00    -0.480 NA
ATOM     10  H   UNL     1      42.695 132.180  16.766  1.00  0.00     0.020 HD
ENDBRANCH   4   9
ENDBRANCH   1   3
BRANCH   1  11
ATOM     11  C   UNL     1      44.640 131.416  19.577  1.00  0.00     0.048 A 
ATOM     12  C   UNL     1      45.611 130.534  20.115  1.00  0.00     0.029 A 
ATOM     13  C   UNL     1      43.475 131.746  20.333  1.00  0.00     0.027 A 
ATOM     14  C   UNL     1      45.436 129.947  21.378  1.00  0.00     0.032 A 
ATOM     15  C   UNL     1      43.346 131.135  21.589  1.00  0.00     0.122 A 
ATOM     16  C   UNL     1      44.281 130.273  22.079  1.00  0.00     0.089 A 
ATOM     17  N   UNL     1      42.401 131.317  22.534  1.00  0.00    -0.130 NA
ATOM     18  N   UNL     1      43.891 129.912  23.309  1.00  0.00    -0.248 N 
ATOM     19  N   UNL     1      42.760 130.559  23.568  1.00  0.00    -0.066 NA
ATOM     20  C   UNL     1      44.595 129.058  24.258  1.00  0.00     0.176 C 
BRANCH  13  21
ATOM     21  C   UNL     1      42.509 132.760  19.849  1.00  0.00     0.005 C 
ATOM     22  C   UNL     1      41.484 133.196  20.581  1.00  0.00     0.009 C 
ENDBRANCH  13  21
ENDBRANCH   1  11
TORSDOF 4
ENDMDL
MODEL 5
REMARK VINA RESULT:      -6.0      1.588      6.174
REMARK SMILES [H]/N=c1\[n-]cccc1Nc1ccc2c(nnn2C)c1C=C
REMARK SMILES IDX 9 1 8 3 3 4 4 5 5 6 7 7 6 8 2 9 1 10 10 11 11 12 19 13 12 14
REMARK SMILES IDX 14 15 13 16 15 17 17 18 16 19 18 20 20 21 21 22
REMARK H PARENT 9 2
ROOT
ATOM      1  N   UNL     1      45.407 131.892  18.303  1.00  0.00    -0.355 N 
ATOM      2  H   UNL     1      46.071 132.698  18.360  1.00  0.00     0.167 HD
ENDROOT
BRANCH   1   3
ATOM      3  C   UNL     1      45.047 131.388  17.000  1.00  0.00     0.037 A 
ATOM      4  C   UNL     1      45.822 130.388  16.379  1.00  0.00    -0.041 A 
ATOM      5  N   UNL     1      45.464 129.913  15.154  1.00  0.00    -0.441 NA
ATOM      6  C   UNL     1      44.366 130.370  14.497  1.00  0.00    -0.022 A 
ATOM      7  C   UNL     1      43.902 131.858  16.333  1.00  0.00     0.025 A 
ATOM      8  C   UNL     1      43.564 131.351  15.077  1.00  0.00    -0.002 A 
BRANCH   4   9
ATOM      9  N   UNL     1      46.883 129.924  16.960  1.00  0.00    -0.480 NA
ATOM     10  H   UNL     1      47.737 129.667  16.416  1.00  0.00     0.020 HD
ENDBRANCH   4   9
ENDBRANCH   1   3
BRANCH   1  11
ATOM     11  C   UNL     1      45.044 131.249  19.536  1.00  0.00     0.048 A 
ATOM     12  C   UNL     1      45.923 130.275  20.074  1.00  0.00     0.029 A 
ATOM     13  C   UNL     1      43.839 131.584  20.223  1.00  0.00     0.027 A 
ATOM     14  C   UNL     1      45.617 129.602  21.268  1.00  0.00     0.032 A 
ATOM     15  C   UNL     1      43.578 130.885  21.412  1.00  0.00     0.122 A 
ATOM     16  C   UNL     1      44.426 129.938  21.900  1.00  0.00     0.089 A 
ATOM     17  N   UNL     1      42.568 131.046  22.291  1.00  0.00    -0.130 NA
ATOM     18  N   UNL     1      43.919 129.505  23.063  1.00  0.00    -0.248 N 
ATOM     19  N   UNL     1      42.803 130.191  23.285  1.00  0.00    -0.066 NA
ATOM     20  C   UNL     1      44.499 128.542  23.991  1.00  0.00     0.176 C 
BRANCH  13  21
ATOM     21  C   UNL     1      42.967 132.684  19.749  1.00  0.00     0.005 C 
ATOM     22  C   UNL     1      41.809 132.477  19.122  1.00  0.00     0.009 C 
ENDBRANCH  13  21
ENDBRANCH   1  11
TORSDOF 4
ENDMDL
MODEL 6
REMARK VINA RESULT:      -6.0      1.113      1.714
REMARK SMILES [H]/N=c1\[n-]cccc1Nc1ccc2c(nnn2C)c1C=C
REMARK SMILES IDX 9 1 8 3 3 4 4 5 5 6 7 7 6 8 2 9 1 10 10 11 11 12 19 13 12 14
REMARK SMILES IDX 14 15 13 16 15 17 17 18 16 19 18 20 20 21 21 22
REMARK H PARENT 9 2
ROOT
ATOM      1  N   UNL     1      45.084 131.432  21.555  1.00  0.00    -0.355 N 
ATOM      2  H   UNL     1      45.780 132.119  21.925  1.00  0.00     0.167 HD
ENDROOT
BRANCH   1   3
ATOM      3  C   UNL     1      44.091 130.905  22.459  1.00  0.00     0.037 A 
ATOM      4  C   UNL     1      44.103 129.544  22.822  1.00  0.00    -0.041 A 
ATOM      5  N   UNL     1      43.166 129.063  23.685  1.00  0.00    -0.441 NA
ATOM      6  C   UNL     1      42.207 129.859  24.225  1.00  0.00    -0.022 A 
ATOM      7  C   UNL     1      43.110 131.740  23.022  1.00  0.00     0.025 A 
ATOM      8  C   UNL     1      42.163 131.215  23.903  1.00  0.00    -0.002 A 
BRANCH   4   9
ATOM      9  N   UNL     1      44.991 128.741  22.330  1.00  0.00    -0.480 NA
ATOM     10  H   UNL     1      44.720 127.861  21.836  1.00  0.00     0.020 HD
ENDBRANCH   4   9
ENDBRANCH   1   3
BRANCH   1  11
ATOM     11  C   UNL     1      45.075 131.204  20.136  1.00  0.00     0.048 A 
ATOM     12  C   UNL     1      46.040 130.322  19.588  1.00  0.00     0.029 A 
ATOM     13  C   UNL     1      44.112 131.829  19.289  1.00  0.00     0.027 A 
ATOM     14  C   UNL     1      46.090 130.070  18.207  1.00  0.00     0.032 A 
ATOM     15  C   UNL     1      44.202 131.545  17.918  1.00  0.00     0.122 A 
ATOM     16  C   UNL     1      45.151 130.711  17.408  1.00  0.00     0.089 A 
ATOM     17  N   UNL     1      43.391 131.931  16.911  1.00  0.00    -0.130 NA
ATOM     18  N   UNL     1      44.933 130.611  16.089  1.00  0.00    -0.248 N 
ATOM     19  N   UNL     1      43.862 131.346  15.811  1.00  0.00    -0.066 NA
ATOM     20  C   UNL     1      45.644 129.783  15.124  1.00  0.00     0.176 C 
BRANCH  13  21
ATOM     21  C   UNL     1      43.016 132.653  19.851  1.00  0.00     0.005 C 
ATOM     22  C   UNL     1      41.730 132.446  19.568  1.00  0.00     0.009 C 
ENDBRANCH  13  21
ENDBRANCH   1  11
TORSDOF 4
ENDMDL
MODEL 7
REMARK VINA RESULT:      -5.7      2.587      6.445
REMARK SMILES [H]/N=c1\[n-]cccc1Nc1ccc2c(nnn2C)c1C=C
REMARK SMILES IDX 9 1 8 3 3 4 4 5 5 6 7 7 6 8 2 9 1 10 10 11 11 12 19 13 12 14
REMARK SMILES IDX 14 15 13 16 15 17 17 18 16 19 18 20 20 21 21 22
REMARK H PARENT 9 2
ROOT
ATOM      1  N   UNL     1      44.842 129.820  22.841  1.00  0.00    -0.355 N 
ATOM      2  H   UNL     1      45.554 130.207  23.502  1.00  0.00     0.167 HD
ENDROOT
BRANCH   1   3
ATOM      3  C   UNL     1      44.326 130.682  21.806  1.00  0.00     0.037 A 
ATOM      4  C   UNL     1      45.103 130.980  20.668  1.00  0.00    -0.041 A 
ATOM      5  N   UNL     1      44.598 131.786  19.693  1.00  0.00    -0.441 NA
ATOM      6  C   UNL     1      43.351 132.319  19.772  1.00  0.00    -0.022 A 
ATOM      7  C   UNL     1      43.030 131.219  21.890  1.00  0.00     0.025 A 
ATOM      8  C   UNL     1      42.543 132.043  20.874  1.00  0.00    -0.002 A 
BRANCH   4   9
ATOM      9  N   UNL     1      46.301 130.505  20.548  1.00  0.00    -0.480 NA
ATOM     10  H   UNL     1      46.968 130.491  21.351  1.00  0.00     0.020 HD
ENDBRANCH   4   9
ENDBRANCH   1   3
BRANCH   1  11
ATOM     11  C   UNL     1      44.568 128.411  22.917  1.00  0.00     0.048 A 
ATOM     12  C   UNL     1      45.381 127.523  22.169  1.00  0.00     0.029 A 
ATOM     13  C   UNL     1      43.516 127.902  23.737  1.00  0.00     0.027 A 
ATOM     14  C   UNL     1      45.153 126.138  22.192  1.00  0.00     0.032 A 
ATOM     15  C   UNL     1      43.328 126.511  23.727  1.00  0.00     0.122 A 
ATOM     16  C   UNL     1      44.107 125.677  22.984  1.00  0.00     0.089 A 
ATOM     17  N   UNL     1      42.472 125.761  24.450  1.00  0.00    -0.130 NA
ATOM     18  N   UNL     1      43.708 124.423  23.236  1.00  0.00    -0.248 N 
ATOM     19  N   UNL     1      42.727 124.495  24.129  1.00  0.00    -0.066 NA
ATOM     20  C   UNL     1      44.281 123.182  22.729  1.00  0.00     0.176 C 
BRANCH  13  21
ATOM     21  C   UNL     1      42.735 128.795  24.624  1.00  0.00     0.005 C 
ATOM     22  C   UNL     1      41.439 129.049  24.442  1.00  0.00     0.009 C 
ENDBRANCH  13  21
ENDBRANCH   1  11
TORSDOF 4
ENDMDL
MODEL 8
REMARK VINA RESULT:      -5.7      1.171      1.385
REMARK SMILES [H]/N=c1\[n-]cccc1Nc1ccc2c(nnn2C)c1C=C
REMARK SMILES IDX 9 1 8 3 3 4 4 5 5 6 7 7 6 8 2 9 1 10 10 11 11 12 19 13 12 14
REMARK SMILES IDX 14 15 13 16 15 17 17 18 16 19 18 20 20 21 21 22
REMARK H PARENT 9 2
ROOT
ATOM      1  N   UNL     1      45.088 131.608  21.489  1.00  0.00    -0.355 N 
ATOM      2  H   UNL     1      45.702 132.390  21.812  1.00  0.00     0.167 HD
ENDROOT
BRANCH   1   3
ATOM      3  C   UNL     1      44.163 131.027  22.430  1.00  0.00     0.037 A 
ATOM      4  C   UNL     1      44.076 131.520  23.748  1.00  0.00    -0.041 A 
ATOM      5  N   UNL     1      43.190 130.969  24.622  1.00  0.00    -0.441 NA
ATOM      6  C   UNL     1      42.366 129.949  24.267  1.00  0.00    -0.022 A 
ATOM      7  C   UNL     1      43.305 129.979  22.051  1.00  0.00     0.025 A 
ATOM      8  C   UNL     1      42.409 129.436  22.972  1.00  0.00    -0.002 A 
BRANCH   4   9
ATOM      9  N   UNL     1      44.845 132.485  24.139  1.00  0.00    -0.480 NA
ATOM     10  H   UNL     1      45.776 132.658  23.698  1.00  0.00     0.020 HD
ENDBRANCH   4   9
ENDBRANCH   1   3
BRANCH   1  11
ATOM     11  C   UNL     1      45.102 131.296  20.086  1.00  0.00     0.048 A 
ATOM     12  C   UNL     1      46.045 130.349  19.614  1.00  0.00     0.029 A 
ATOM     13  C   UNL     1      44.181 131.904  19.181  1.00  0.00     0.027 A 
ATOM     14  C   UNL     1      46.116 130.014  18.252  1.00  0.00     0.032 A 
ATOM     15  C   UNL     1      44.291 131.536  17.830  1.00  0.00     0.122 A 
ATOM     16  C   UNL     1      45.220 130.640  17.394  1.00  0.00     0.089 A 
ATOM     17  N   UNL     1      43.518 131.890  16.784  1.00  0.00    -0.130 NA
ATOM     18  N   UNL     1      45.028 130.469  16.078  1.00  0.00    -0.248 N 
ATOM     19  N   UNL     1      43.991 131.225  15.732  1.00  0.00    -0.066 NA
ATOM     20  C   UNL     1      45.729 129.561  15.181  1.00  0.00     0.176 C 
BRANCH  13  21
ATOM     21  C   UNL     1      43.105 132.799  19.666  1.00  0.00     0.005 C 
ATOM     22  C   UNL     1      41.832 132.418  19.768  1.00  0.00     0.009 C 
ENDBRANCH  13  21
ENDBRANCH   1  11
TORSDOF 4
ENDMDL
MODEL 9
REMARK VINA RESULT:      -5.7      1.074      2.227
REMARK SMILES [H]/N=c1\[n-]cccc1Nc1ccc2c(nnn2C)c1C=C
REMARK SMILES IDX 9 1 8 3 3 4 4 5 5 6 7 7 6 8 2 9 1 10 10 11 11 12 19 13 12 14
REMARK SMILES IDX 14 15 13 16 15 17 17 18 16 19 18 20 20 21 21 22
REMARK H PARENT 9 2
ROOT
ATOM      1  N   UNL     1      43.410 131.850  21.580  1.00  0.00    -0.355 N 
ATOM      2  H   UNL     1      43.173 132.800  21.945  1.00  0.00     0.167 HD
ENDROOT
BRANCH   1   3
ATOM      3  C   UNL     1      43.343 130.729  22.485  1.00  0.00     0.037 A 
ATOM      4  C   UNL     1      42.409 130.715  23.541  1.00  0.00    -0.041 A 
ATOM      5  N   UNL     1      42.349 129.644  24.380  1.00  0.00    -0.441 NA
ATOM      6  C   UNL     1      43.164 128.568  24.234  1.00  0.00    -0.022 A 
ATOM      7  C   UNL     1      44.182 129.613  22.320  1.00  0.00     0.025 A 
ATOM      8  C   UNL     1      44.096 128.533  23.199  1.00  0.00    -0.002 A 
BRANCH   4   9
ATOM      9  N   UNL     1      41.615 131.720  23.728  1.00  0.00    -0.480 NA
ATOM     10  H   UNL     1      41.934 132.588  24.214  1.00  0.00     0.020 HD
ENDBRANCH   4   9
ENDBRANCH   1   3
BRANCH   1  11
ATOM     11  C   UNL     1      43.619 131.722  20.164  1.00  0.00     0.048 A 
ATOM     12  C   UNL     1      42.524 131.963  19.295  1.00  0.00     0.029 A 
ATOM     13  C   UNL     1      44.896 131.378  19.629  1.00  0.00     0.027 A 
ATOM     14  C   UNL     1      42.663 131.839  17.904  1.00  0.00     0.032 A 
ATOM     15  C   UNL     1      44.984 131.267  18.232  1.00  0.00     0.122 A 
ATOM     16  C   UNL     1      43.915 131.482  17.417  1.00  0.00     0.089 A 
ATOM     17  N   UNL     1      46.065 131.031  17.462  1.00  0.00    -0.130 NA
ATOM     18  N   UNL     1      44.340 131.352  16.152  1.00  0.00    -0.248 N 
ATOM     19  N   UNL     1      45.641 131.089  16.201  1.00  0.00    -0.066 NA
ATOM     20  C   UNL     1      43.579 131.554  14.926  1.00  0.00     0.176 C 
BRANCH  13  21
ATOM     21  C   UNL     1      46.084 131.244  20.504  1.00  0.00     0.005 C 
ATOM     22  C   UNL     1      46.666 132.282  21.105  1.00  0.00     0.009 C 
ENDBRANCH  13  21
ENDBRANCH   1  11
TORSDOF 4
ENDMDL


