MODEL 1
REMARK VINA RESULT:      -6.6      0.000      0.000
REMARK SMILES Cc1ccc(-c2cc(N)c(Nc3ccc(C)nc3F)cc2F)cc1
REMARK SMILES IDX 6 1 7 2 8 3 10 4 20 5 21 6 22 7 5 8 2 9 3 10 24 11 4 12
REMARK SMILES IDX 23 13 1 14 9 15 11 18 12 20 13 21 18 22 14 23 17 24 15 25
REMARK SMILES IDX 19 26 16 27
REMARK H PARENT 9 16 9 17 11 19
ROOT
ATOM      1  C   UNL     1      44.036 131.549  18.955  1.00  0.00     0.020 A 
ATOM      2  C   UNL     1      43.052 131.893  18.013  1.00  0.00     0.039 A 
ATOM      3  C   UNL     1      43.330 131.868  16.638  1.00  0.00     0.056 A 
ATOM      4  C   UNL     1      44.624 131.518  16.197  1.00  0.00     0.065 A 
ATOM      5  C   UNL     1      45.594 131.143  17.134  1.00  0.00     0.068 A 
ATOM      6  C   UNL     1      45.310 131.161  18.502  1.00  0.00     0.133 A 
ATOM      7  F   UNL     1      46.271 130.771  19.378  1.00  0.00    -0.206 F 
ENDROOT
BRANCH   1   8
ATOM      8  C   UNL     1      43.721 131.585  20.404  1.00  0.00    -0.015 A 
ATOM      9  C   UNL     1      43.120 131.661  23.157  1.00  0.00    -0.051 A 
ATOM     10  C   UNL     1      42.234 132.218  22.224  1.00  0.00     0.004 A 
ATOM     11  C   UNL     1      44.321 131.091  22.710  1.00  0.00     0.004 A 
ATOM     12  C   UNL     1      42.529 132.177  20.858  1.00  0.00     0.009 A 
ATOM     13  C   UNL     1      44.617 131.049  21.344  1.00  0.00     0.009 A 
ATOM     14  C   UNL     1      42.822 131.741  24.625  1.00  0.00     0.044 C 
ENDBRANCH   1   8
BRANCH   3  15
ATOM     15  N   UNL     1      42.281 132.165  15.707  1.00  0.00    -0.397 N 
ATOM     16  H   UNL     1      41.299 131.850  15.865  1.00  0.00     0.156 HD
ATOM     17  H   UNL     1      42.466 132.765  14.872  1.00  0.00     0.156 HD
ENDBRANCH   3  15
BRANCH   4  18
ATOM     18  N   UNL     1      44.970 131.511  14.804  1.00  0.00    -0.350 N 
ATOM     19  H   UNL     1      44.246 131.851  14.130  1.00  0.00     0.167 HD
BRANCH  18  20
ATOM     20  C   UNL     1      46.158 130.889  14.279  1.00  0.00     0.095 A 
ATOM     21  C   UNL     1      47.049 131.587  13.444  1.00  0.00     0.033 A 
ATOM     22  C   UNL     1      46.464 129.561  14.619  1.00  0.00     0.236 A 
ATOM     23  C   UNL     1      48.194 130.957  12.959  1.00  0.00     0.026 A 
ATOM     24  N   UNL     1      47.587 128.970  14.132  1.00  0.00    -0.223 NA
ATOM     25  C   UNL     1      48.450 129.627  13.311  1.00  0.00     0.041 A 
ATOM     26  F   UNL     1      45.637 128.850  15.426  1.00  0.00    -0.183 F 
ATOM     27  C   UNL     1      49.679 128.935  12.814  1.00  0.00     0.067 C 
ENDBRANCH  18  20
ENDBRANCH   4  18
TORSDOF 4
ENDMDL
MODEL 2
REMARK VINA RESULT:      -6.0      0.168      1.003
REMARK SMILES Cc1ccc(-c2cc(N)c(Nc3ccc(C)nc3F)cc2F)cc1
REMARK SMILES IDX 6 1 7 2 8 3 10 4 20 5 21 6 22 7 5 8 2 9 3 10 24 11 4 12
REMARK SMILES IDX 23 13 1 14 9 15 11 18 12 20 13 21 18 22 14 23 17 24 15 25
REMARK SMILES IDX 19 26 16 27
REMARK H PARENT 9 16 9 17 11 19
ROOT
ATOM      1  C   UNL     1      44.078 131.592  18.999  1.00  0.00     0.020 A 
ATOM      2  C   UNL     1      43.091 131.835  18.029  1.00  0.00     0.039 A 
ATOM      3  C   UNL     1      43.409 131.840  16.663  1.00  0.00     0.056 A 
ATOM      4  C   UNL     1      44.744 131.623  16.259  1.00  0.00     0.065 A 
ATOM      5  C   UNL     1      45.720 131.347  17.224  1.00  0.00     0.068 A 
ATOM      6  C   UNL     1      45.397 131.335  18.583  1.00  0.00     0.133 A 
ATOM      7  F   UNL     1      46.368 131.044  19.486  1.00  0.00    -0.206 F 
ENDROOT
BRANCH   1   8
ATOM      8  C   UNL     1      43.721 131.594  20.438  1.00  0.00    -0.015 A 
ATOM      9  C   UNL     1      43.043 131.591  23.174  1.00  0.00    -0.051 A 
ATOM     10  C   UNL     1      44.237 130.999  22.741  1.00  0.00     0.004 A 
ATOM     11  C   UNL     1      42.175 132.160  22.231  1.00  0.00     0.004 A 
ATOM     12  C   UNL     1      44.576 131.004  21.385  1.00  0.00     0.009 A 
ATOM     13  C   UNL     1      42.513 132.166  20.874  1.00  0.00     0.009 A 
ATOM     14  C   UNL     1      42.660 131.550  24.624  1.00  0.00     0.044 C 
ENDBRANCH   1   8
BRANCH   3  15
ATOM     15  N   UNL     1      42.361 132.030  15.702  1.00  0.00    -0.397 N 
ATOM     16  H   UNL     1      42.126 131.302  14.993  1.00  0.00     0.156 HD
ATOM     17  H   UNL     1      41.762 132.885  15.733  1.00  0.00     0.156 HD
ENDBRANCH   3  15
BRANCH   4  18
ATOM     18  N   UNL     1      45.127 131.652  14.876  1.00  0.00    -0.350 N 
ATOM     19  H   UNL     1      44.438 132.050  14.197  1.00  0.00     0.167 HD
BRANCH  18  20
ATOM     20  C   UNL     1      46.300 130.997  14.358  1.00  0.00     0.095 A 
ATOM     21  C   UNL     1      47.258 131.690  13.596  1.00  0.00     0.033 A 
ATOM     22  C   UNL     1      46.523 129.638  14.632  1.00  0.00     0.236 A 
ATOM     23  C   UNL     1      48.387 131.027  13.117  1.00  0.00     0.026 A 
ATOM     24  N   UNL     1      47.631 129.014  14.151  1.00  0.00    -0.223 NA
ATOM     25  C   UNL     1      48.559 129.668  13.401  1.00  0.00     0.041 A 
ATOM     26  F   UNL     1      45.630 128.929  15.367  1.00  0.00    -0.183 F 
ATOM     27  C   UNL     1      49.768 128.939  12.909  1.00  0.00     0.067 C 
ENDBRANCH  18  20
ENDBRANCH   4  18
TORSDOF 4
ENDMDL
MODEL 3
REMARK VINA RESULT:      -6.0      1.352      1.840
REMARK SMILES Cc1ccc(-c2cc(N)c(Nc3ccc(C)nc3F)cc2F)cc1
REMARK SMILES IDX 6 1 7 2 8 3 10 4 20 5 21 6 22 7 5 8 2 9 3 10 24 11 4 12
REMARK SMILES IDX 23 13 1 14 9 15 11 18 12 20 13 21 18 22 14 23 17 24 15 25
REMARK SMILES IDX 19 26 16 27
REMARK H PARENT 9 16 9 17 11 19
ROOT
ATOM      1  C   UNL     1      43.452 131.647  19.021  1.00  0.00     0.020 A 
ATOM      2  C   UNL     1      44.741 131.214  18.666  1.00  0.00     0.039 A 
ATOM      3  C   UNL     1      45.113 131.086  17.319  1.00  0.00     0.056 A 
ATOM      4  C   UNL     1      44.170 131.371  16.308  1.00  0.00     0.065 A 
ATOM      5  C   UNL     1      42.897 131.835  16.663  1.00  0.00     0.068 A 
ATOM      6  C   UNL     1      42.535 131.969  18.005  1.00  0.00     0.133 A 
ATOM      7  F   UNL     1      41.298 132.441  18.308  1.00  0.00    -0.206 F 
ENDROOT
BRANCH   1   8
ATOM      8  C   UNL     1      43.081 131.773  20.451  1.00  0.00    -0.015 A 
ATOM      9  C   UNL     1      42.374 132.021  23.169  1.00  0.00    -0.051 A 
ATOM     10  C   UNL     1      41.668 132.731  22.187  1.00  0.00     0.004 A 
ATOM     11  C   UNL     1      43.452 131.209  22.789  1.00  0.00     0.004 A 
ATOM     12  C   UNL     1      42.016 132.605  20.839  1.00  0.00     0.009 A 
ATOM     13  C   UNL     1      43.800 131.082  21.441  1.00  0.00     0.009 A 
ATOM     14  C   UNL     1      42.027 132.187  24.619  1.00  0.00     0.044 C 
ENDBRANCH   1   8
BRANCH   3  15
ATOM     15  N   UNL     1      46.456 130.701  16.997  1.00  0.00    -0.397 N 
ATOM     16  H   UNL     1      47.278 131.257  17.316  1.00  0.00     0.156 HD
ATOM     17  H   UNL     1      46.644 129.810  16.486  1.00  0.00     0.156 HD
ENDBRANCH   3  15
BRANCH   4  18
ATOM     18  N   UNL     1      44.488 131.222  14.916  1.00  0.00    -0.350 N 
ATOM     19  H   UNL     1      43.706 131.336  14.232  1.00  0.00     0.167 HD
BRANCH  18  20
ATOM     20  C   UNL     1      45.756 130.738  14.435  1.00  0.00     0.095 A 
ATOM     21  C   UNL     1      46.661 131.580  13.763  1.00  0.00     0.033 A 
ATOM     22  C   UNL     1      46.127 129.401  14.655  1.00  0.00     0.236 A 
ATOM     23  C   UNL     1      47.884 131.081  13.317  1.00  0.00     0.026 A 
ATOM     24  N   UNL     1      47.325 128.939  14.209  1.00  0.00    -0.223 NA
ATOM     25  C   UNL     1      48.204 129.738  13.545  1.00  0.00     0.041 A 
ATOM     26  F   UNL     1      45.290 128.553  15.304  1.00  0.00    -0.183 F 
ATOM     27  C   UNL     1      49.515 129.184  13.087  1.00  0.00     0.067 C 
ENDBRANCH  18  20
ENDBRANCH   4  18
TORSDOF 4
ENDMDL
MODEL 4
REMARK VINA RESULT:      -6.0      2.511      8.273
REMARK SMILES Cc1ccc(-c2cc(N)c(Nc3ccc(C)nc3F)cc2F)cc1
REMARK SMILES IDX 6 1 7 2 8 3 10 4 20 5 21 6 22 7 5 8 2 9 3 10 24 11 4 12
REMARK SMILES IDX 23 13 1 14 9 15 11 18 12 20 13 21 18 22 14 23 17 24 15 25
REMARK SMILES IDX 19 26 16 27
REMARK H PARENT 9 16 9 17 11 19
ROOT
ATOM      1  C   UNL     1      45.332 131.143  16.214  1.00  0.00     0.020 A 
ATOM      2  C   UNL     1      45.778 131.410  17.520  1.00  0.00     0.039 A 
ATOM      3  C   UNL     1      44.882 131.831  18.515  1.00  0.00     0.056 A 
ATOM      4  C   UNL     1      43.520 132.013  18.193  1.00  0.00     0.065 A 
ATOM      5  C   UNL     1      43.072 131.714  16.901  1.00  0.00     0.068 A 
ATOM      6  C   UNL     1      43.965 131.288  15.915  1.00  0.00     0.133 A 
ATOM      7  F   UNL     1      43.487 130.989  14.680  1.00  0.00    -0.206 F 
ENDROOT
BRANCH   1   8
ATOM      8  C   UNL     1      46.296 130.702  15.177  1.00  0.00    -0.015 A 
ATOM      9  C   UNL     1      48.124 129.867  13.201  1.00  0.00    -0.051 A 
ATOM     10  C   UNL     1      47.617 131.174  13.188  1.00  0.00     0.004 A 
ATOM     11  C   UNL     1      47.691 128.971  14.188  1.00  0.00     0.004 A 
ATOM     12  C   UNL     1      46.714 131.590  14.171  1.00  0.00     0.009 A 
ATOM     13  C   UNL     1      46.788 129.386  15.172  1.00  0.00     0.009 A 
ATOM     14  C   UNL     1      49.062 129.409  12.123  1.00  0.00     0.044 C 
ENDBRANCH   1   8
BRANCH   3  15
ATOM     15  N   UNL     1      45.365 132.032  19.850  1.00  0.00    -0.397 N 
ATOM     16  H   UNL     1      44.835 131.697  20.683  1.00  0.00     0.156 HD
ATOM     17  H   UNL     1      46.300 132.467  20.016  1.00  0.00     0.156 HD
ENDBRANCH   3  15
BRANCH   4  18
ATOM     18  N   UNL     1      42.571 132.475  19.165  1.00  0.00    -0.350 N 
ATOM     19  H   UNL     1      41.973 133.290  18.900  1.00  0.00     0.167 HD
BRANCH  18  20
ATOM     20  C   UNL     1      42.536 132.014  20.529  1.00  0.00     0.095 A 
ATOM     21  C   UNL     1      43.307 130.918  20.958  1.00  0.00     0.033 A 
ATOM     22  C   UNL     1      41.737 132.678  21.474  1.00  0.00     0.236 A 
ATOM     23  C   UNL     1      43.255 130.502  22.288  1.00  0.00     0.026 A 
ATOM     24  N   UNL     1      41.704 132.252  22.765  1.00  0.00    -0.223 NA
ATOM     25  C   UNL     1      42.433 131.185  23.191  1.00  0.00     0.041 A 
ATOM     26  F   UNL     1      40.981 133.743  21.109  1.00  0.00    -0.183 F 
ATOM     27  C   UNL     1      42.372 130.766  24.625  1.00  0.00     0.067 C 
ENDBRANCH  18  20
ENDBRANCH   4  18
TORSDOF 4
ENDMDL
MODEL 5
REMARK VINA RESULT:      -5.9      1.224      2.004
REMARK SMILES Cc1ccc(-c2cc(N)c(Nc3ccc(C)nc3F)cc2F)cc1
REMARK SMILES IDX 6 1 7 2 8 3 10 4 20 5 21 6 22 7 5 8 2 9 3 10 24 11 4 12
REMARK SMILES IDX 23 13 1 14 9 15 11 18 12 20 13 21 18 22 14 23 17 24 15 25
REMARK SMILES IDX 19 26 16 27
REMARK H PARENT 9 16 9 17 11 19
ROOT
ATOM      1  C   UNL     1      43.938 131.538  18.983  1.00  0.00     0.020 A 
ATOM      2  C   UNL     1      45.126 130.897  18.591  1.00  0.00     0.039 A 
ATOM      3  C   UNL     1      45.436 130.719  17.235  1.00  0.00     0.056 A 
ATOM      4  C   UNL     1      44.530 131.169  16.250  1.00  0.00     0.065 A 
ATOM      5  C   UNL     1      43.364 131.838  16.640  1.00  0.00     0.068 A 
ATOM      6  C   UNL     1      43.063 132.019  17.992  1.00  0.00     0.133 A 
ATOM      7  F   UNL     1      41.932 132.691  18.330  1.00  0.00    -0.206 F 
ENDROOT
BRANCH   1   8
ATOM      8  C   UNL     1      43.629 131.712  20.423  1.00  0.00    -0.015 A 
ATOM      9  C   UNL     1      43.047 132.036  23.161  1.00  0.00    -0.051 A 
ATOM     10  C   UNL     1      44.371 131.858  22.737  1.00  0.00     0.004 A 
ATOM     11  C   UNL     1      42.013 132.023  22.215  1.00  0.00     0.004 A 
ATOM     12  C   UNL     1      44.661 131.701  21.378  1.00  0.00     0.009 A 
ATOM     13  C   UNL     1      42.302 131.867  20.856  1.00  0.00     0.009 A 
ATOM     14  C   UNL     1      42.732 132.164  24.623  1.00  0.00     0.044 C 
ENDBRANCH   1   8
BRANCH   3  15
ATOM     15  N   UNL     1      46.686 130.116  16.876  1.00  0.00    -0.397 N 
ATOM     16  H   UNL     1      46.880 129.106  17.050  1.00  0.00     0.156 HD
ATOM     17  H   UNL     1      47.415 130.667  16.369  1.00  0.00     0.156 HD
ENDBRANCH   3  15
BRANCH   4  18
ATOM     18  N   UNL     1      44.784 130.981  14.850  1.00  0.00    -0.350 N 
ATOM     19  H   UNL     1      43.962 131.022  14.205  1.00  0.00     0.167 HD
BRANCH  18  20
ATOM     20  C   UNL     1      46.051 130.550  14.319  1.00  0.00     0.095 A 
ATOM     21  C   UNL     1      46.890 131.427  13.608  1.00  0.00     0.033 A 
ATOM     22  C   UNL     1      46.488 129.232  14.528  1.00  0.00     0.236 A 
ATOM     23  C   UNL     1      48.115 130.980  13.114  1.00  0.00     0.026 A 
ATOM     24  N   UNL     1      47.686 128.820  14.035  1.00  0.00    -0.223 NA
ATOM     25  C   UNL     1      48.502 129.653  13.333  1.00  0.00     0.041 A 
ATOM     26  F   UNL     1      45.716 128.352  15.213  1.00  0.00    -0.183 F 
ATOM     27  C   UNL     1      49.816 129.154  12.824  1.00  0.00     0.067 C 
ENDBRANCH  18  20
ENDBRANCH   4  18
TORSDOF 4
ENDMDL
MODEL 6
REMARK VINA RESULT:      -5.7      2.483      8.296
REMARK SMILES Cc1ccc(-c2cc(N)c(Nc3ccc(C)nc3F)cc2F)cc1
REMARK SMILES IDX 6 1 7 2 8 3 10 4 20 5 21 6 22 7 5 8 2 9 3 10 24 11 4 12
REMARK SMILES IDX 23 13 1 14 9 15 11 18 12 20 13 21 18 22 14 23 17 24 15 25
REMARK SMILES IDX 19 26 16 27
REMARK H PARENT 9 16 9 17 11 19
ROOT
ATOM      1  C   UNL     1      45.457 131.044  16.160  1.00  0.00     0.020 A 
ATOM      2  C   UNL     1      45.897 131.164  17.489  1.00  0.00     0.039 A 
ATOM      3  C   UNL     1      45.028 131.601  18.500  1.00  0.00     0.056 A 
ATOM      4  C   UNL     1      43.699 131.948  18.172  1.00  0.00     0.065 A 
ATOM      5  C   UNL     1      43.252 131.795  16.854  1.00  0.00     0.068 A 
ATOM      6  C   UNL     1      44.119 131.352  15.852  1.00  0.00     0.133 A 
ATOM      7  F   UNL     1      43.642 131.198  14.591  1.00  0.00    -0.206 F 
ENDROOT
BRANCH   1   8
ATOM      8  C   UNL     1      46.394 130.583  15.107  1.00  0.00    -0.015 A 
ATOM      9  C   UNL     1      48.180 129.705  13.112  1.00  0.00    -0.051 A 
ATOM     10  C   UNL     1      47.831 128.856  14.171  1.00  0.00     0.004 A 
ATOM     11  C   UNL     1      47.655 131.004  13.069  1.00  0.00     0.004 A 
ATOM     12  C   UNL     1      46.942 129.289  15.159  1.00  0.00     0.009 A 
ATOM     13  C   UNL     1      46.766 131.439  14.056  1.00  0.00     0.009 A 
ATOM     14  C   UNL     1      49.166 129.254  12.074  1.00  0.00     0.044 C 
ENDBRANCH   1   8
BRANCH   3  15
ATOM     15  N   UNL     1      45.498 131.651  19.853  1.00  0.00    -0.397 N 
ATOM     16  H   UNL     1      46.116 130.910  20.249  1.00  0.00     0.156 HD
ATOM     17  H   UNL     1      45.281 132.473  20.460  1.00  0.00     0.156 HD
ENDBRANCH   3  15
BRANCH   4  18
ATOM     18  N   UNL     1      42.780 132.433  19.162  1.00  0.00    -0.350 N 
ATOM     19  H   UNL     1      42.219 133.281  18.919  1.00  0.00     0.167 HD
BRANCH  18  20
ATOM     20  C   UNL     1      42.735 131.945  20.516  1.00  0.00     0.095 A 
ATOM     21  C   UNL     1      43.547 130.879  20.945  1.00  0.00     0.033 A 
ATOM     22  C   UNL     1      41.884 132.553  21.453  1.00  0.00     0.236 A 
ATOM     23  C   UNL     1      43.483 130.436  22.265  1.00  0.00     0.026 A 
ATOM     24  N   UNL     1      41.840 132.102  22.735  1.00  0.00    -0.223 NA
ATOM     25  C   UNL     1      42.608 131.062  23.160  1.00  0.00     0.041 A 
ATOM     26  F   UNL     1      41.087 133.589  21.088  1.00  0.00    -0.183 F 
ATOM     27  C   UNL     1      42.533 130.614  24.584  1.00  0.00     0.067 C 
ENDBRANCH  18  20
ENDBRANCH   4  18
TORSDOF 4
ENDMDL
MODEL 7
REMARK VINA RESULT:      -4.9      2.131      8.020
REMARK SMILES Cc1ccc(-c2cc(N)c(Nc3ccc(C)nc3F)cc2F)cc1
REMARK SMILES IDX 6 1 7 2 8 3 10 4 20 5 21 6 22 7 5 8 2 9 3 10 24 11 4 12
REMARK SMILES IDX 23 13 1 14 9 15 11 18 12 20 13 21 18 22 14 23 17 24 15 25
REMARK SMILES IDX 19 26 16 27
REMARK H PARENT 9 16 9 17 11 19
ROOT
ATOM      1  C   UNL     1      45.460 130.931  16.053  1.00  0.00     0.020 A 
ATOM      2  C   UNL     1      44.209 131.437  15.662  1.00  0.00     0.039 A 
ATOM      3  C   UNL     1      43.259 131.829  16.618  1.00  0.00     0.056 A 
ATOM      4  C   UNL     1      43.557 131.690  17.991  1.00  0.00     0.065 A 
ATOM      5  C   UNL     1      44.817 131.219  18.378  1.00  0.00     0.068 A 
ATOM      6  C   UNL     1      45.762 130.837  17.423  1.00  0.00     0.133 A 
ATOM      7  F   UNL     1      46.979 130.404  17.840  1.00  0.00    -0.206 F 
ENDROOT
BRANCH   1   8
ATOM      8  C   UNL     1      46.447 130.520  15.025  1.00  0.00    -0.015 A 
ATOM      9  C   UNL     1      48.319 129.741  13.067  1.00  0.00    -0.051 A 
ATOM     10  C   UNL     1      47.744 131.020  13.027  1.00  0.00     0.004 A 
ATOM     11  C   UNL     1      47.933 128.844  14.073  1.00  0.00     0.004 A 
ATOM     12  C   UNL     1      46.819 131.408  14.000  1.00  0.00     0.009 A 
ATOM     13  C   UNL     1      47.008 129.232  15.047  1.00  0.00     0.009 A 
ATOM     14  C   UNL     1      49.281 129.311  11.999  1.00  0.00     0.044 C 
ENDBRANCH   1   8
BRANCH   3  15
ATOM     15  N   UNL     1      42.018 132.397  16.178  1.00  0.00    -0.397 N 
ATOM     16  H   UNL     1      41.559 132.098  15.291  1.00  0.00     0.156 HD
ATOM     17  H   UNL     1      41.509 133.085  16.777  1.00  0.00     0.156 HD
ENDBRANCH   3  15
BRANCH   4  18
ATOM     18  N   UNL     1      42.608 132.044  19.007  1.00  0.00    -0.350 N 
ATOM     19  H   UNL     1      41.792 132.630  18.717  1.00  0.00     0.167 HD
BRANCH  18  20
ATOM     20  C   UNL     1      42.817 131.808  20.412  1.00  0.00     0.095 A 
ATOM     21  C   UNL     1      43.825 130.942  20.873  1.00  0.00     0.033 A 
ATOM     22  C   UNL     1      42.020 132.468  21.361  1.00  0.00     0.236 A 
ATOM     23  C   UNL     1      44.006 130.742  22.241  1.00  0.00     0.026 A 
ATOM     24  N   UNL     1      42.216 132.255  22.690  1.00  0.00    -0.223 NA
ATOM     25  C   UNL     1      43.178 131.410  23.150  1.00  0.00     0.041 A 
ATOM     26  F   UNL     1      41.039 133.317  20.965  1.00  0.00    -0.183 F 
ATOM     27  C   UNL     1      43.362 131.221  24.622  1.00  0.00     0.067 C 
ENDBRANCH  18  20
ENDBRANCH   4  18
TORSDOF 4
ENDMDL
MODEL 8
REMARK VINA RESULT:      -4.3      3.221      8.281
REMARK SMILES Cc1ccc(-c2cc(N)c(Nc3ccc(C)nc3F)cc2F)cc1
REMARK SMILES IDX 6 1 7 2 8 3 10 4 20 5 21 6 22 7 5 8 2 9 3 10 24 11 4 12
REMARK SMILES IDX 23 13 1 14 9 15 11 18 12 20 13 21 18 22 14 23 17 24 15 25
REMARK SMILES IDX 19 26 16 27
REMARK H PARENT 9 16 9 17 11 19
ROOT
ATOM      1  C   UNL     1      45.650 131.089  17.993  1.00  0.00     0.020 A 
ATOM      2  C   UNL     1      44.471 131.703  18.449  1.00  0.00     0.039 A 
ATOM      3  C   UNL     1      44.145 131.714  19.814  1.00  0.00     0.056 A 
ATOM      4  C   UNL     1      45.003 131.079  20.738  1.00  0.00     0.065 A 
ATOM      5  C   UNL     1      46.194 130.498  20.287  1.00  0.00     0.068 A 
ATOM      6  C   UNL     1      46.518 130.496  18.928  1.00  0.00     0.133 A 
ATOM      7  F   UNL     1      47.691 129.940  18.533  1.00  0.00    -0.206 F 
ENDROOT
BRANCH   1   8
ATOM      8  C   UNL     1      45.972 131.086  16.546  1.00  0.00    -0.015 A 
ATOM      9  C   UNL     1      46.592 131.079  13.796  1.00  0.00    -0.051 A 
ATOM     10  C   UNL     1      47.098 130.078  14.637  1.00  0.00     0.004 A 
ATOM     11  C   UNL     1      45.799 132.100  14.340  1.00  0.00     0.004 A 
ATOM     12  C   UNL     1      46.787 130.078  16.000  1.00  0.00     0.009 A 
ATOM     13  C   UNL     1      45.488 132.101  15.703  1.00  0.00     0.009 A 
ATOM     14  C   UNL     1      46.959 131.101  12.341  1.00  0.00     0.044 C 
ENDBRANCH   1   8
BRANCH   3  15
ATOM     15  N   UNL     1      42.965 132.404  20.246  1.00  0.00    -0.397 N 
ATOM     16  H   UNL     1      42.629 132.355  21.232  1.00  0.00     0.156 HD
ATOM     17  H   UNL     1      42.447 133.030  19.590  1.00  0.00     0.156 HD
ENDBRANCH   3  15
BRANCH   4  18
ATOM     18  N   UNL     1      44.699 131.033  22.140  1.00  0.00    -0.350 N 
ATOM     19  H   UNL     1      45.253 131.656  22.771  1.00  0.00     0.167 HD
BRANCH  18  20
ATOM     20  C   UNL     1      43.829 130.052  22.736  1.00  0.00     0.095 A 
ATOM     21  C   UNL     1      44.260 128.735  22.981  1.00  0.00     0.033 A 
ATOM     22  C   UNL     1      42.524 130.407  23.113  1.00  0.00     0.236 A 
ATOM     23  C   UNL     1      43.395 127.812  23.567  1.00  0.00     0.026 A 
ATOM     24  N   UNL     1      41.700 129.488  23.682  1.00  0.00    -0.223 NA
ATOM     25  C   UNL     1      42.097 128.207  23.911  1.00  0.00     0.041 A 
ATOM     26  F   UNL     1      42.066 131.667  22.902  1.00  0.00    -0.183 F 
ATOM     27  C   UNL     1      41.156 127.238  24.553  1.00  0.00     0.067 C 
ENDBRANCH  18  20
ENDBRANCH   4  18
TORSDOF 4
ENDMDL
MODEL 9
REMARK VINA RESULT:      -4.3      9.236     11.221
REMARK SMILES Cc1ccc(-c2cc(N)c(Nc3ccc(C)nc3F)cc2F)cc1
REMARK SMILES IDX 6 1 7 2 8 3 10 4 20 5 21 6 22 7 5 8 2 9 3 10 24 11 4 12
REMARK SMILES IDX 23 13 1 14 9 15 11 18 12 20 13 21 18 22 14 23 17 24 15 25
REMARK SMILES IDX 19 26 16 27
REMARK H PARENT 9 16 9 17 11 19
ROOT
ATOM      1  C   UNL     1      47.889 124.168  22.634  1.00  0.00     0.020 A 
ATOM      2  C   UNL     1      46.865 124.505  23.535  1.00  0.00     0.039 A 
ATOM      3  C   UNL     1      45.596 123.912  23.440  1.00  0.00     0.056 A 
ATOM      4  C   UNL     1      45.339 122.983  22.408  1.00  0.00     0.065 A 
ATOM      5  C   UNL     1      46.370 122.623  21.532  1.00  0.00     0.068 A 
ATOM      6  C   UNL     1      47.633 123.209  21.636  1.00  0.00     0.133 A 
ATOM      7  F   UNL     1      48.612 122.818  20.780  1.00  0.00    -0.206 F 
ENDROOT
BRANCH   1   8
ATOM      8  C   UNL     1      49.221 124.809  22.751  1.00  0.00    -0.015 A 
ATOM      9  C   UNL     1      51.749 126.034  22.977  1.00  0.00    -0.051 A 
ATOM     10  C   UNL     1      50.837 126.093  24.040  1.00  0.00     0.004 A 
ATOM     11  C   UNL     1      51.381 125.384  21.790  1.00  0.00     0.004 A 
ATOM     12  C   UNL     1      49.585 125.482  23.930  1.00  0.00     0.009 A 
ATOM     13  C   UNL     1      50.129 124.773  21.680  1.00  0.00     0.009 A 
ATOM     14  C   UNL     1      53.077 126.724  23.080  1.00  0.00     0.044 C 
ENDBRANCH   1   8
BRANCH   3  15
ATOM     15  N   UNL     1      44.598 124.237  24.416  1.00  0.00    -0.397 N 
ATOM     16  H   UNL     1      43.908 123.531  24.753  1.00  0.00     0.156 HD
ATOM     17  H   UNL     1      44.580 125.180  24.863  1.00  0.00     0.156 HD
ENDBRANCH   3  15
BRANCH   4  18
ATOM     18  N   UNL     1      44.049 122.375  22.246  1.00  0.00    -0.350 N 
ATOM     19  H   UNL     1      43.970 121.601  21.548  1.00  0.00     0.167 HD
BRANCH  18  20
ATOM     20  C   UNL     1      42.842 122.895  22.835  1.00  0.00     0.095 A 
ATOM     21  C   UNL     1      42.372 122.438  24.080  1.00  0.00     0.033 A 
ATOM     22  C   UNL     1      42.116 123.900  22.176  1.00  0.00     0.236 A 
ATOM     23  C   UNL     1      41.203 122.969  24.625  1.00  0.00     0.026 A 
ATOM     24  N   UNL     1      40.979 124.400  22.728  1.00  0.00    -0.223 NA
ATOM     25  C   UNL     1      40.504 123.958  23.925  1.00  0.00     0.041 A 
ATOM     26  F   UNL     1      42.534 124.376  20.976  1.00  0.00    -0.183 F 
ATOM     27  C   UNL     1      39.256 124.551  24.496  1.00  0.00     0.067 C 
ENDBRANCH  18  20
ENDBRANCH   4  18
TORSDOF 4
ENDMDL


