REMARK SMILES CCOC(=O)c1cc(NC(=S)n2[nH]c(=O)/c(=N/N)cc2-c2ccc3[nH]ccc3c2)ccc1F
REMARK SMILES IDX 31 1 30 2 8 3 7 4 6 5 32 6 33 7 9 8 10 9 11 11 12 12 20 13
REMARK SMILES IDX 13 14 19 15 14 16 16 17 15 19 21 20 22 21 29 22 23 23 28 24
REMARK SMILES IDX 24 25 27 26 25 27 26 28 17 30 18 31 4 34 5 35 3 36 2 37 1 38
REMARK H PARENT 9 10 13 18 25 29 18 32 18 33
ROOT
ATOM      1  C   UNL     1      -1.678   4.646  -2.967  1.00  0.00     0.042 A 
ATOM      2  C   UNL     1      -2.400   3.650  -2.309  1.00  0.00     0.029 A 
ATOM      3  C   UNL     1      -1.733   2.623  -1.631  1.00  0.00     0.041 A 
ATOM      4  C   UNL     1      -0.329   2.577  -1.661  1.00  0.00     0.045 A 
ATOM      5  C   UNL     1       0.412   3.578  -2.317  1.00  0.00     0.097 A 
ATOM      6  C   UNL     1      -0.281   4.620  -2.969  1.00  0.00     0.137 A 
ATOM      7  F   UNL     1       0.385   5.608  -3.620  1.00  0.00    -0.206 F 
ENDROOT
BRANCH   3   8
ATOM      8  N   UNL     1      -2.499   1.600  -0.974  1.00  0.00    -0.331 N 
ATOM      9  C   UNL     1      -2.125   0.964   0.261  1.00  0.00     0.197 C 
ATOM     10  H   UNL     1      -3.398   1.308  -1.420  1.00  0.00     0.169 HD
ATOM     11  S   UNL     1      -1.178   1.748   1.354  1.00  0.00    -0.038 S 
BRANCH   9  12
ATOM     12  N   UNL     1      -2.826  -0.220   0.680  1.00  0.00    -0.227 N 
ATOM     13  C   UNL     1      -2.151  -1.379   0.979  1.00  0.00     0.075 A 
ATOM     14  N   UNL     1      -4.158  -0.156   0.810  1.00  0.00    -0.255 N 
ATOM     15  C   UNL     1      -2.866  -2.485   1.456  1.00  0.00     0.065 A 
ATOM     16  C   UNL     1      -4.892  -1.209   1.260  1.00  0.00     0.290 A 
ATOM     17  C   UNL     1      -4.259  -2.408   1.608  1.00  0.00     0.151 A 
ATOM     18  H   UNL     1      -4.660   0.735   0.587  1.00  0.00     0.192 HD
ATOM     19  O   UNL     1      -6.144  -1.095   1.368  1.00  0.00    -0.266 OA
BRANCH  13  20
ATOM     20  C   UNL     1      -0.687  -1.514   0.775  1.00  0.00     0.001 A 
ATOM     21  C   UNL     1      -0.114  -1.268  -0.500  1.00  0.00     0.012 A 
ATOM     22  C   UNL     1       0.137  -1.931   1.845  1.00  0.00     0.020 A 
ATOM     23  C   UNL     1       1.267  -1.432  -0.710  1.00  0.00     0.027 A 
ATOM     24  C   UNL     1       1.499  -2.082   1.601  1.00  0.00     0.000 A 
ATOM     25  C   UNL     1       2.045  -1.847   0.369  1.00  0.00     0.045 A 
ATOM     26  C   UNL     1       2.520  -2.481   2.436  1.00  0.00     0.028 A 
ATOM     27  N   UNL     1       3.367  -2.085   0.380  1.00  0.00    -0.361 N 
ATOM     28  C   UNL     1       3.662  -2.470   1.643  1.00  0.00     0.083 A 
ATOM     29  H   UNL     1       4.032  -2.004  -0.420  1.00  0.00     0.166 HD
ENDBRANCH  13  20
BRANCH  17  30
ATOM     30  N   UNL     1      -4.986  -3.402   2.042  1.00  0.00    -0.177 NA
BRANCH  30  31
ATOM     31  N   UNL     1      -4.506  -4.652   2.471  1.00  0.00    -0.323 N 
ATOM     32  H   UNL     1      -5.193  -5.397   2.719  1.00  0.00     0.179 HD
ATOM     33  H   UNL     1      -3.500  -4.843   2.663  1.00  0.00     0.179 HD
ENDBRANCH  30  31
ENDBRANCH  17  30
ENDBRANCH   9  12
ENDBRANCH   3   8
BRANCH   5  34
ATOM     34  C   UNL     1       1.893   3.518  -2.308  1.00  0.00     0.341 C 
ATOM     35  O   UNL     1       2.574   4.451  -2.817  1.00  0.00    -0.246 OA
BRANCH  34  36
ATOM     36  O   UNL     1       2.539   2.421  -1.729  1.00  0.00    -0.462 OA
BRANCH  36  37
ATOM     37  C   UNL     1       3.956   2.318  -1.645  1.00  0.00     0.230 C 
ATOM     38  C   UNL     1       4.331   0.985  -1.020  1.00  0.00     0.049 C 
ENDBRANCH  36  37
ENDBRANCH  34  36
ENDBRANCH   5  34
TORSDOF 8


