REMARK SMILES Fc1ccc(-c2ccc3cc[nH]c3c2)c(F)c1F
REMARK SMILES IDX 6 1 7 2 8 3 9 4 10 5 11 6 12 7 13 8 14 9 5 11 2 12 3 13
REMARK SMILES IDX 17 14 4 15 15 16 1 17 18 18 16 19
REMARK H PARENT 12 10
ROOT
ATOM      1  C   UNL     1       1.064   0.181   0.142  1.00  0.00    -0.013 A 
ATOM      2  C   UNL     1       1.932   1.252   0.488  1.00  0.00     0.009 A 
ATOM      3  C   UNL     1       1.695   2.029   1.637  1.00  0.00     0.011 A 
ATOM      4  C   UNL     1       0.590   1.711   2.420  1.00  0.00    -0.001 A 
ATOM      5  C   UNL     1       0.117   2.284   3.580  1.00  0.00     0.028 A 
ATOM      6  C   UNL     1      -1.017   1.549   3.912  1.00  0.00     0.083 A 
ATOM      7  N   UNL     1      -1.237   0.569   3.005  1.00  0.00    -0.361 N 
ATOM      8  C   UNL     1      -0.249   0.678   2.101  1.00  0.00     0.046 A 
ATOM      9  C   UNL     1      -0.045  -0.111   0.971  1.00  0.00     0.035 A 
ATOM     10  H   UNL     1      -2.015  -0.127   3.011  1.00  0.00     0.166 HD
ENDROOT
BRANCH   1  11
ATOM     11  C   UNL     1       1.325  -0.637  -1.066  1.00  0.00     0.021 A 
ATOM     12  C   UNL     1       1.823  -2.215  -3.340  1.00  0.00     0.161 A 
ATOM     13  C   UNL     1       1.519  -2.823  -2.120  1.00  0.00     0.043 A 
ATOM     14  C   UNL     1       1.875  -0.821  -3.432  1.00  0.00     0.195 A 
ATOM     15  C   UNL     1       1.269  -2.041  -0.989  1.00  0.00     0.015 A 
ATOM     16  C   UNL     1       1.627  -0.032  -2.303  1.00  0.00     0.169 A 
ATOM     17  F   UNL     1       2.064  -2.979  -4.434  1.00  0.00    -0.204 F 
ATOM     18  F   UNL     1       2.159  -0.233  -4.621  1.00  0.00    -0.200 F 
ATOM     19  F   UNL     1       1.645   1.320  -2.428  1.00  0.00    -0.203 F 
ENDBRANCH   1  11
TORSDOF 1


