REMARK SMILES COCC[NH2+]C(=S)n1[nH+]c2cc(-c3c[nH+]c(F)cc3C)ccc2c1C
REMARK SMILES IDX 5 1 4 4 3 5 2 6 1 7 6 8 7 9 8 10 9 11 24 12 10 13 23 14
REMARK SMILES IDX 11 15 22 16 12 17 21 18 25 20 13 21 14 22 19 23 15 24 18 25
REMARK SMILES IDX 16 26 20 27 17 29
REMARK H PARENT 5 2 5 3 9 19 15 28
ROOT
ATOM      1  N   UNL     1       2.723   1.825  -3.758  1.00  0.00    -0.283 N 
ATOM      2  H   UNL     1       3.141   1.071  -3.169  1.00  0.00     0.354 HD
ATOM      3  H   UNL     1       3.499   2.487  -3.994  1.00  0.00     0.354 HD
ENDROOT
BRANCH   1   4
ATOM      4  C   UNL     1       2.200   1.256  -5.012  1.00  0.00     0.296 C 
BRANCH   4   5
ATOM      5  C   UNL     1       1.167   0.141  -4.785  1.00  0.00     0.221 C 
BRANCH   5   6
ATOM      6  O   UNL     1       1.702  -0.849  -3.931  1.00  0.00    -0.379 OA
ATOM      7  C   UNL     1       0.689  -1.763  -3.579  1.00  0.00     0.195 C 
ENDBRANCH   5   6
ENDBRANCH   4   5
ENDBRANCH   1   4
BRANCH   1   8
ATOM      8  C   UNL     1       1.700   2.535  -3.030  1.00  0.00     0.327 C 
ATOM      9  S   UNL     1       1.468   4.138  -3.312  1.00  0.00     0.009 S 
BRANCH   8  10
ATOM     10  N   UNL     1       0.896   1.848  -2.051  1.00  0.00    -0.062 N 
ATOM     11  N   UNL     1       1.393   0.989  -1.166  1.00  0.00    -0.113 N 
ATOM     12  C   UNL     1      -0.457   1.910  -1.900  1.00  0.00     0.100 A 
ATOM     13  C   UNL     1       0.373   0.507  -0.439  1.00  0.00     0.237 A 
ATOM     14  C   UNL     1      -0.803   1.062  -0.863  1.00  0.00     0.074 A 
ATOM     15  C   UNL     1       0.420  -0.426   0.593  1.00  0.00     0.091 A 
ATOM     16  C   UNL     1      -2.026   0.722  -0.288  1.00  0.00     0.018 A 
ATOM     17  C   UNL     1      -0.798  -0.789   1.211  1.00  0.00    -0.005 A 
ATOM     18  C   UNL     1      -2.017  -0.218   0.759  1.00  0.00     0.010 A 
ATOM     19  H   UNL     1       2.403   0.749  -1.048  1.00  0.00     0.489 HD
ATOM     20  C   UNL     1      -1.402   2.727  -2.731  1.00  0.00     0.072 C 
BRANCH  17  21
ATOM     21  C   UNL     1      -0.800  -1.790   2.300  1.00  0.00     0.049 A 
ATOM     22  C   UNL     1      -0.285  -3.072   2.046  1.00  0.00     0.317 A 
ATOM     23  C   UNL     1      -1.297  -1.501   3.593  1.00  0.00    -0.028 A 
ATOM     24  N   UNL     1      -0.294  -4.026   3.015  1.00  0.00    -0.186 N 
ATOM     25  C   UNL     1      -1.307  -2.516   4.562  1.00  0.00     0.118 A 
ATOM     26  C   UNL     1      -0.796  -3.777   4.253  1.00  0.00     0.358 A 
ATOM     27  C   UNL     1      -1.831  -0.140   3.958  1.00  0.00     0.045 C 
ATOM     28  H   UNL     1       0.088  -4.974   2.799  1.00  0.00     0.456 HD
ATOM     29  F   UNL     1      -0.798  -4.754   5.193  1.00  0.00    -0.136 F 
ENDBRANCH  17  21
ENDBRANCH   8  10
ENDBRANCH   1   8
TORSDOF 6


