REMARK SMILES CC(=O)c1ccc(-c2cc(N=C=O)c([O-])c([NH2+]c3ccc(C)c(F)c3)c2)cn1
REMARK SMILES IDX 8 1 9 2 10 3 14 4 15 5 16 6 26 7 7 8 27 9 28 10 4 11 6 12
REMARK SMILES IDX 5 13 2 14 3 15 1 16 11 17 12 18 13 19 17 20 18 23 19 24
REMARK SMILES IDX 25 25 20 26 23 27 21 28 24 29 22 30
REMARK H PARENT 17 21 17 22
ROOT
ATOM      1  C   UNL     1       0.337  -0.956   0.564  1.00  0.00    -0.009 A 
ATOM      2  C   UNL     1      -0.204  -1.577   1.700  1.00  0.00     0.037 A 
ATOM      3  C   UNL     1      -1.587  -1.731   1.854  1.00  0.00     0.075 A 
ATOM      4  C   UNL     1      -2.453  -1.251   0.842  1.00  0.00    -0.018 A 
ATOM      5  O   UNL     1      -3.832  -1.388   0.965  1.00  0.00    -0.867 OA
ATOM      6  C   UNL     1      -1.922  -0.628  -0.308  1.00  0.00     0.129 A 
ATOM      7  C   UNL     1      -0.530  -0.486  -0.433  1.00  0.00     0.076 A 
ENDROOT
BRANCH   1   8
ATOM      8  C   UNL     1       1.806  -0.791   0.422  1.00  0.00     0.000 A 
ATOM      9  C   UNL     1       2.353   0.398  -0.089  1.00  0.00     0.120 A 
ATOM     10  N   UNL     1       3.699   0.537  -0.213  1.00  0.00    -0.253 NA
ATOM     11  C   UNL     1       4.568  -0.449   0.142  1.00  0.00     0.106 A 
ATOM     12  C   UNL     1       2.686  -1.819   0.797  1.00  0.00     0.013 A 
ATOM     13  C   UNL     1       4.065  -1.653   0.658  1.00  0.00     0.033 A 
BRANCH  11  14
ATOM     14  C   UNL     1       6.022  -0.236  -0.019  1.00  0.00     0.178 C 
ATOM     15  O   UNL     1       6.837  -1.141   0.307  1.00  0.00    -0.293 OA
ATOM     16  C   UNL     1       6.548   1.053  -0.571  1.00  0.00     0.095 C 
ENDBRANCH  11  14
ENDBRANCH   1   8
BRANCH   3  17
ATOM     17  N   UNL     1      -2.051  -2.373   3.056  1.00  0.00    -0.168 NA
BRANCH  17  18
ATOM     18  C   UNL     1      -3.270  -2.583   3.356  1.00  0.00     0.240 C 
ATOM     19  O   UNL     1      -4.455  -2.789   3.649  1.00  0.00    -0.211 OA
ENDBRANCH  17  18
ENDBRANCH   3  17
BRANCH   6  20
ATOM     20  N   UNL     1      -2.790  -0.101  -1.336  1.00  0.00    -0.282 N 
ATOM     21  H   UNL     1      -2.322  -0.171  -2.271  1.00  0.00     0.358 HD
ATOM     22  H   UNL     1      -3.668  -0.666  -1.406  1.00  0.00     0.358 HD
BRANCH  20  23
ATOM     23  C   UNL     1      -3.100   1.279  -1.051  1.00  0.00     0.137 A 
ATOM     24  C   UNL     1      -2.227   2.303  -1.458  1.00  0.00     0.068 A 
ATOM     25  C   UNL     1      -4.258   1.617  -0.329  1.00  0.00     0.107 A 
ATOM     26  C   UNL     1      -2.510   3.638  -1.156  1.00  0.00     0.012 A 
ATOM     27  C   UNL     1      -4.542   2.952  -0.026  1.00  0.00     0.132 A 
ATOM     28  C   UNL     1      -3.674   3.973  -0.448  1.00  0.00    -0.015 A 
ATOM     29  F   UNL     1      -5.662   3.249   0.681  1.00  0.00    -0.206 F 
ATOM     30  C   UNL     1      -3.965   5.404  -0.099  1.00  0.00     0.047 C 
ENDBRANCH  20  23
ENDBRANCH   6  20
TORSDOF 6


