REMARK SMILES C=Cc1ccc(-c2ccc([NH2+]c3ccc([O-])cc3F)c3ccoc23)nc1
REMARK SMILES IDX 7 1 8 2 9 3 10 4 20 5 21 6 22 7 23 8 24 9 6 10 3 11 4 12
REMARK SMILES IDX 26 13 5 14 25 15 2 16 1 17 11 18 12 21 13 22 18 23 14 24
REMARK SMILES IDX 17 25 15 26 19 27 16 28
REMARK H PARENT 11 19 11 20
ROOT
ATOM      1  C   UNL     1       1.445   0.013   0.349  1.00  0.00     0.044 A 
ATOM      2  C   UNL     1       1.228  -0.657   1.576  1.00  0.00     0.020 A 
ATOM      3  C   UNL     1       0.611  -1.925   1.610  1.00  0.00     0.070 A 
ATOM      4  C   UNL     1       0.199  -2.564   0.419  1.00  0.00     0.145 A 
ATOM      5  C   UNL     1       0.436  -1.883  -0.783  1.00  0.00     0.082 A 
ATOM      6  C   UNL     1       0.166  -2.226  -2.091  1.00  0.00     0.057 A 
ATOM      7  C   UNL     1       0.624  -1.153  -2.842  1.00  0.00     0.196 A 
ATOM      8  O   UNL     1       1.135  -0.227  -2.054  1.00  0.00    -0.463 OA
ATOM      9  C   UNL     1       1.034  -0.648  -0.816  1.00  0.00     0.149 A 
ENDROOT
BRANCH   1  10
ATOM     10  C   UNL     1       2.100   1.344   0.286  1.00  0.00     0.074 A 
ATOM     11  C   UNL     1       3.368   3.834   0.088  1.00  0.00    -0.008 A 
ATOM     12  C   UNL     1       2.623   3.510   1.236  1.00  0.00     0.012 A 
ATOM     13  C   UNL     1       3.433   2.890  -0.946  1.00  0.00     0.119 A 
ATOM     14  C   UNL     1       1.991   2.269   1.337  1.00  0.00     0.030 A 
ATOM     15  N   UNL     1       2.811   1.689  -0.823  1.00  0.00    -0.255 NA
BRANCH  11  16
ATOM     16  C   UNL     1       4.056   5.137  -0.088  1.00  0.00     0.002 C 
ATOM     17  C   UNL     1       4.312   5.991   0.904  1.00  0.00     0.009 C 
ENDBRANCH  11  16
ENDBRANCH   1  10
BRANCH   4  18
ATOM     18  N   UNL     1      -0.463  -3.847   0.455  1.00  0.00    -0.278 N 
ATOM     19  H   UNL     1      -0.090  -4.447  -0.316  1.00  0.00     0.358 HD
ATOM     20  H   UNL     1      -0.245  -4.342   1.351  1.00  0.00     0.358 HD
BRANCH  18  21
ATOM     21  C   UNL     1      -1.896  -3.680   0.357  1.00  0.00     0.170 A 
ATOM     22  C   UNL     1      -2.605  -3.033   1.389  1.00  0.00     0.071 A 
ATOM     23  C   UNL     1      -2.615  -4.189  -0.746  1.00  0.00     0.183 A 
ATOM     24  C   UNL     1      -3.990  -2.868   1.304  1.00  0.00    -0.002 A 
ATOM     25  C   UNL     1      -4.002  -4.019  -0.823  1.00  0.00     0.037 A 
ATOM     26  C   UNL     1      -4.688  -3.356   0.198  1.00  0.00    -0.106 A 
ATOM     27  F   UNL     1      -1.984  -4.868  -1.737  1.00  0.00    -0.200 F 
ATOM     28  O   UNL     1      -6.065  -3.189   0.115  1.00  0.00    -0.872 OA
ENDBRANCH  18  21
ENDBRANCH   4  18
TORSDOF 4


