MODEL 1
REMARK VINA RESULT:      -7.2      0.000      0.000
REMARK SMILES Cc1ccoc1NC(=O)N1CCC[C@H](c2ccc3ccc(C)c(F)c3[nH+]2)[C@H]1F
REMARK SMILES IDX 10 1 11 2 12 3 13 4 14 5 27 6 28 7 8 8 7 9 9 11 6 12 2 13
REMARK SMILES IDX 3 14 4 15 5 16 1 17 15 18 16 19 26 20 17 21 25 22 18 23
REMARK SMILES IDX 23 24 19 25 21 26 20 27 24 29 22 30
REMARK H PARENT 7 10 26 28
ROOT
ATOM      1  N   UNL     1      43.861 129.643  23.450  1.00  0.00    -0.293 N 
ATOM      2  C   UNL     1      42.646 129.505  24.267  1.00  0.00     0.124 C 
ATOM      3  C   UNL     1      42.024 130.868  24.605  1.00  0.00     0.023 C 
ATOM      4  C   UNL     1      41.981 131.769  23.364  1.00  0.00     0.021 C 
ATOM      5  C   UNL     1      43.376 131.955  22.698  1.00  0.00     0.140 C 
ATOM      6  C   UNL     1      44.447 130.975  23.236  1.00  0.00     0.280 C 
ATOM      7  F   UNL     1      44.945 131.445  24.440  1.00  0.00    -0.223 F 
ENDROOT
BRANCH   1   8
ATOM      8  C   UNL     1      44.468 128.456  22.900  1.00  0.00     0.326 C 
ATOM      9  N   UNL     1      44.335 127.187  23.563  1.00  0.00    -0.278 N 
ATOM     10  H   UNL     1      43.882 127.149  24.500  1.00  0.00     0.175 HD
ATOM     11  O   UNL     1      45.169 128.551  21.856  1.00  0.00    -0.248 OA
BRANCH   9  12
ATOM     12  C   UNL     1      44.895 125.971  23.049  1.00  0.00     0.203 A 
ATOM     13  C   UNL     1      44.173 124.888  22.588  1.00  0.00     0.013 A 
ATOM     14  C   UNL     1      45.108 123.945  22.214  1.00  0.00     0.047 A 
ATOM     15  C   UNL     1      46.342 124.521  22.458  1.00  0.00     0.198 A 
ATOM     16  O   UNL     1      46.183 125.728  22.956  1.00  0.00    -0.448 OA
ATOM     17  C   UNL     1      42.687 124.725  22.569  1.00  0.00     0.050 C 
ENDBRANCH   9  12
ENDBRANCH   1   8
BRANCH   5  18
ATOM     18  C   UNL     1      43.287 131.849  21.184  1.00  0.00     0.188 A 
ATOM     19  C   UNL     1      42.184 132.393  20.507  1.00  0.00     0.075 A 
ATOM     20  N   UNL     1      44.312 131.298  20.465  1.00  0.00    -0.205 N 
ATOM     21  C   UNL     1      42.146 132.373  19.114  1.00  0.00     0.021 A 
ATOM     22  C   UNL     1      44.308 131.278  19.099  1.00  0.00     0.247 A 
ATOM     23  C   UNL     1      43.211 131.824  18.395  1.00  0.00     0.049 A 
ATOM     24  C   UNL     1      45.393 130.740  18.383  1.00  0.00     0.197 A 
ATOM     25  C   UNL     1      43.209 131.825  16.994  1.00  0.00     0.015 A 
ATOM     26  C   UNL     1      45.384 130.738  16.978  1.00  0.00    -0.008 A 
ATOM     27  C   UNL     1      44.292 131.290  16.291  1.00  0.00     0.007 A 
ATOM     28  H   UNL     1      45.133 130.903  20.976  1.00  0.00     0.454 HD
ATOM     29  F   UNL     1      46.464 130.234  19.050  1.00  0.00    -0.199 F 
ATOM     30  C   UNL     1      46.562 130.203  16.218  1.00  0.00     0.048 C 
ENDBRANCH   5  18
TORSDOF 3
ENDMDL
MODEL 2
REMARK VINA RESULT:      -7.0      0.711      1.143
REMARK SMILES Cc1ccoc1NC(=O)N1CCC[C@H](c2ccc3ccc(C)c(F)c3[nH+]2)[C@H]1F
REMARK SMILES IDX 10 1 11 2 12 3 13 4 14 5 27 6 28 7 8 8 7 9 9 11 6 12 2 13
REMARK SMILES IDX 3 14 4 15 5 16 1 17 15 18 16 19 26 20 17 21 25 22 18 23
REMARK SMILES IDX 23 24 19 25 21 26 20 27 24 29 22 30
REMARK H PARENT 7 10 26 28
ROOT
ATOM      1  N   UNL     1      43.730 129.775  23.498  1.00  0.00    -0.293 N 
ATOM      2  C   UNL     1      42.505 129.734  24.311  1.00  0.00     0.124 C 
ATOM      3  C   UNL     1      41.955 131.139  24.594  1.00  0.00     0.023 C 
ATOM      4  C   UNL     1      41.968 131.994  23.320  1.00  0.00     0.021 C 
ATOM      5  C   UNL     1      43.374 132.079  22.657  1.00  0.00     0.140 C 
ATOM      6  C   UNL     1      44.387 131.065  23.239  1.00  0.00     0.280 C 
ATOM      7  F   UNL     1      44.904 131.553  24.428  1.00  0.00    -0.223 F 
ENDROOT
BRANCH   1   8
ATOM      8  C   UNL     1      44.274 128.538  22.997  1.00  0.00     0.326 C 
ATOM      9  N   UNL     1      43.941 127.283  23.616  1.00  0.00    -0.278 N 
ATOM     10  H   UNL     1      43.383 127.284  24.496  1.00  0.00     0.175 HD
ATOM     11  O   UNL     1      45.096 128.569  22.041  1.00  0.00    -0.248 OA
BRANCH   9  12
ATOM     12  C   UNL     1      44.433 126.021  23.145  1.00  0.00     0.203 A 
ATOM     13  C   UNL     1      45.687 125.503  23.404  1.00  0.00     0.013 A 
ATOM     14  C   UNL     1      45.736 124.292  22.744  1.00  0.00     0.047 A 
ATOM     15  C   UNL     1      44.503 124.143  22.138  1.00  0.00     0.198 A 
ATOM     16  O   UNL     1      43.747 125.190  22.395  1.00  0.00    -0.448 OA
ATOM     17  C   UNL     1      46.799 126.147  24.168  1.00  0.00     0.050 C 
ENDBRANCH   9  12
ENDBRANCH   1   8
BRANCH   5  18
ATOM     18  C   UNL     1      43.286 131.921  21.148  1.00  0.00     0.188 A 
ATOM     19  C   UNL     1      42.177 132.429  20.453  1.00  0.00     0.075 A 
ATOM     20  N   UNL     1      44.318 131.360  20.447  1.00  0.00    -0.205 N 
ATOM     21  C   UNL     1      42.139 132.362  19.062  1.00  0.00     0.021 A 
ATOM     22  C   UNL     1      44.316 131.294  19.083  1.00  0.00     0.247 A 
ATOM     23  C   UNL     1      43.212 131.802  18.361  1.00  0.00     0.049 A 
ATOM     24  C   UNL     1      45.408 130.746  18.386  1.00  0.00     0.197 A 
ATOM     25  C   UNL     1      43.210 131.756  16.961  1.00  0.00     0.015 A 
ATOM     26  C   UNL     1      45.399 130.697  16.982  1.00  0.00    -0.008 A 
ATOM     27  C   UNL     1      44.300 131.212  16.276  1.00  0.00     0.007 A 
ATOM     28  H   UNL     1      45.144 130.993  20.972  1.00  0.00     0.454 HD
ATOM     29  F   UNL     1      46.485 130.277  19.069  1.00  0.00    -0.199 F 
ATOM     30  C   UNL     1      46.584 130.152  16.240  1.00  0.00     0.048 C 
ENDBRANCH   5  18
TORSDOF 3
ENDMDL
MODEL 3
REMARK VINA RESULT:      -6.8      1.486      2.161
REMARK SMILES Cc1ccoc1NC(=O)N1CCC[C@H](c2ccc3ccc(C)c(F)c3[nH+]2)[C@H]1F
REMARK SMILES IDX 10 1 11 2 12 3 13 4 14 5 27 6 28 7 8 8 7 9 9 11 6 12 2 13
REMARK SMILES IDX 3 14 4 15 5 16 1 17 15 18 16 19 26 20 17 21 25 22 18 23
REMARK SMILES IDX 23 24 19 25 21 26 20 27 24 29 22 30
REMARK H PARENT 7 10 26 28
ROOT
ATOM      1  N   UNL     1      43.790 130.042  23.479  1.00  0.00    -0.293 N 
ATOM      2  C   UNL     1      42.331 130.117  23.645  1.00  0.00     0.124 C 
ATOM      3  C   UNL     1      41.794 131.530  23.374  1.00  0.00     0.023 C 
ATOM      4  C   UNL     1      42.425 132.117  22.104  1.00  0.00     0.021 C 
ATOM      5  C   UNL     1      43.981 132.121  22.142  1.00  0.00     0.140 C 
ATOM      6  C   UNL     1      44.567 131.278  23.301  1.00  0.00     0.280 C 
ATOM      7  F   UNL     1      44.523 132.009  24.477  1.00  0.00    -0.223 F 
ENDROOT
BRANCH   1   8
ATOM      8  C   UNL     1      44.429 128.750  23.525  1.00  0.00     0.326 C 
ATOM      9  N   UNL     1      44.929 128.134  22.326  1.00  0.00    -0.278 N 
ATOM     10  H   UNL     1      44.735 128.582  21.406  1.00  0.00     0.175 HD
ATOM     11  O   UNL     1      44.495 128.135  24.624  1.00  0.00    -0.248 OA
BRANCH   9  12
ATOM     12  C   UNL     1      45.594 126.863  22.316  1.00  0.00     0.203 A 
ATOM     13  C   UNL     1      44.974 125.633  22.425  1.00  0.00     0.013 A 
ATOM     14  C   UNL     1      45.988 124.698  22.391  1.00  0.00     0.047 A 
ATOM     15  C   UNL     1      47.160 125.417  22.247  1.00  0.00     0.198 A 
ATOM     16  O   UNL     1      46.893 126.705  22.206  1.00  0.00    -0.448 OA
ATOM     17  C   UNL     1      43.517 125.362  22.624  1.00  0.00     0.050 C 
ENDBRANCH   9  12
ENDBRANCH   1   8
BRANCH   5  18
ATOM     18  C   UNL     1      44.569 131.665  20.817  1.00  0.00     0.188 A 
ATOM     19  C   UNL     1      45.734 130.881  20.800  1.00  0.00     0.075 A 
ATOM     20  N   UNL     1      43.929 131.944  19.640  1.00  0.00    -0.205 N 
ATOM     21  C   UNL     1      46.222 130.391  19.590  1.00  0.00     0.021 A 
ATOM     22  C   UNL     1      44.377 131.465  18.443  1.00  0.00     0.247 A 
ATOM     23  C   UNL     1      45.544 130.669  18.400  1.00  0.00     0.049 A 
ATOM     24  C   UNL     1      43.678 131.734  17.252  1.00  0.00     0.197 A 
ATOM     25  C   UNL     1      45.999 130.158  17.177  1.00  0.00     0.015 A 
ATOM     26  C   UNL     1      44.141 131.223  16.027  1.00  0.00    -0.008 A 
ATOM     27  C   UNL     1      45.298 130.429  16.000  1.00  0.00     0.007 A 
ATOM     28  H   UNL     1      43.059 132.521  19.663  1.00  0.00     0.454 HD
ATOM     29  F   UNL     1      42.541 132.478  17.284  1.00  0.00    -0.199 F 
ATOM     30  C   UNL     1      43.368 131.477  14.765  1.00  0.00     0.048 C 
ENDBRANCH   5  18
TORSDOF 3
ENDMDL
MODEL 4
REMARK VINA RESULT:      -6.4      1.611      2.323
REMARK SMILES Cc1ccoc1NC(=O)N1CCC[C@H](c2ccc3ccc(C)c(F)c3[nH+]2)[C@H]1F
REMARK SMILES IDX 10 1 11 2 12 3 13 4 14 5 27 6 28 7 8 8 7 9 9 11 6 12 2 13
REMARK SMILES IDX 3 14 4 15 5 16 1 17 15 18 16 19 26 20 17 21 25 22 18 23
REMARK SMILES IDX 23 24 19 25 21 26 20 27 24 29 22 30
REMARK H PARENT 7 10 26 28
ROOT
ATOM      1  N   UNL     1      44.018 129.942  22.998  1.00  0.00    -0.293 N 
ATOM      2  C   UNL     1      42.561 129.975  23.197  1.00  0.00     0.124 C 
ATOM      3  C   UNL     1      41.973 131.365  22.911  1.00  0.00     0.023 C 
ATOM      4  C   UNL     1      42.556 131.945  21.615  1.00  0.00     0.021 C 
ATOM      5  C   UNL     1      44.112 131.998  21.617  1.00  0.00     0.140 C 
ATOM      6  C   UNL     1      44.750 131.198  22.778  1.00  0.00     0.280 C 
ATOM      7  F   UNL     1      44.710 131.951  23.940  1.00  0.00    -0.223 F 
ENDROOT
BRANCH   1   8
ATOM      8  C   UNL     1      44.698 128.672  23.054  1.00  0.00     0.326 C 
ATOM      9  N   UNL     1      44.697 127.889  24.260  1.00  0.00    -0.278 N 
ATOM     10  H   UNL     1      44.286 128.294  25.128  1.00  0.00     0.175 HD
ATOM     11  O   UNL     1      45.348 128.277  22.048  1.00  0.00    -0.248 OA
BRANCH   9  12
ATOM     12  C   UNL     1      45.336 126.609  24.365  1.00  0.00     0.203 A 
ATOM     13  C   UNL     1      44.696 125.387  24.306  1.00  0.00     0.013 A 
ATOM     14  C   UNL     1      45.684 124.438  24.471  1.00  0.00     0.047 A 
ATOM     15  C   UNL     1      46.865 125.143  24.606  1.00  0.00     0.198 A 
ATOM     16  O   UNL     1      46.626 126.435  24.539  1.00  0.00    -0.448 OA
ATOM     17  C   UNL     1      43.229 125.132  24.173  1.00  0.00     0.050 C 
ENDBRANCH   9  12
ENDBRANCH   1   8
BRANCH   5  18
ATOM     18  C   UNL     1      44.684 131.534  20.288  1.00  0.00     0.188 A 
ATOM     19  C   UNL     1      45.828 130.720  20.262  1.00  0.00     0.075 A 
ATOM     20  N   UNL     1      44.048 131.836  19.114  1.00  0.00    -0.205 N 
ATOM     21  C   UNL     1      46.300 130.224  19.049  1.00  0.00     0.021 A 
ATOM     22  C   UNL     1      44.479 131.351  17.913  1.00  0.00     0.247 A 
ATOM     23  C   UNL     1      45.625 130.526  17.862  1.00  0.00     0.049 A 
ATOM     24  C   UNL     1      43.783 131.645  16.726  1.00  0.00     0.197 A 
ATOM     25  C   UNL     1      46.062 130.010  16.635  1.00  0.00     0.015 A 
ATOM     26  C   UNL     1      44.228 131.129  15.497  1.00  0.00    -0.008 A 
ATOM     27  C   UNL     1      45.364 130.305  15.461  1.00  0.00     0.007 A 
ATOM     28  H   UNL     1      43.192 132.435  19.143  1.00  0.00     0.454 HD
ATOM     29  F   UNL     1      42.665 132.417  16.766  1.00  0.00    -0.199 F 
ATOM     30  C   UNL     1      43.458 131.409  14.239  1.00  0.00     0.048 C 
ENDBRANCH   5  18
TORSDOF 3
ENDMDL
MODEL 5
REMARK VINA RESULT:      -6.4      1.556      2.456
REMARK SMILES Cc1ccoc1NC(=O)N1CCC[C@H](c2ccc3ccc(C)c(F)c3[nH+]2)[C@H]1F
REMARK SMILES IDX 10 1 11 2 12 3 13 4 14 5 27 6 28 7 8 8 7 9 9 11 6 12 2 13
REMARK SMILES IDX 3 14 4 15 5 16 1 17 15 18 16 19 26 20 17 21 25 22 18 23
REMARK SMILES IDX 23 24 19 25 21 26 20 27 24 29 22 30
REMARK H PARENT 7 10 26 28
ROOT
ATOM      1  N   UNL     1      43.772 129.666  22.931  1.00  0.00    -0.293 N 
ATOM      2  C   UNL     1      42.323 129.857  23.088  1.00  0.00     0.124 C 
ATOM      3  C   UNL     1      41.919 131.332  22.949  1.00  0.00     0.023 C 
ATOM      4  C   UNL     1      42.624 131.978  21.748  1.00  0.00     0.021 C 
ATOM      5  C   UNL     1      44.173 131.836  21.803  1.00  0.00     0.140 C 
ATOM      6  C   UNL     1      44.659 130.838  22.881  1.00  0.00     0.280 C 
ATOM      7  F   UNL     1      44.658 131.455  24.122  1.00  0.00    -0.223 F 
ENDROOT
BRANCH   1   8
ATOM      8  C   UNL     1      44.293 128.323  22.859  1.00  0.00     0.326 C 
ATOM      9  N   UNL     1      43.846 127.311  23.777  1.00  0.00    -0.278 N 
ATOM     10  H   UNL     1      43.218 127.579  24.563  1.00  0.00     0.175 HD
ATOM     11  O   UNL     1      45.192 128.056  22.015  1.00  0.00    -0.248 OA
BRANCH   9  12
ATOM     12  C   UNL     1      44.311 125.954  23.736  1.00  0.00     0.203 A 
ATOM     13  C   UNL     1      45.563 125.524  24.129  1.00  0.00     0.013 A 
ATOM     14  C   UNL     1      45.582 124.164  23.900  1.00  0.00     0.047 A 
ATOM     15  C   UNL     1      44.334 123.850  23.394  1.00  0.00     0.198 A 
ATOM     16  O   UNL     1      43.598 124.937  23.308  1.00  0.00    -0.448 OA
ATOM     17  C   UNL     1      46.700 126.360  24.624  1.00  0.00     0.050 C 
ENDBRANCH   9  12
ENDBRANCH   1   8
BRANCH   5  18
ATOM     18  C   UNL     1      44.744 131.457  20.446  1.00  0.00     0.188 A 
ATOM     19  C   UNL     1      45.920 130.694  20.369  1.00  0.00     0.075 A 
ATOM     20  N   UNL     1      44.078 131.784  19.297  1.00  0.00    -0.205 N 
ATOM     21  C   UNL     1      46.393 130.273  19.128  1.00  0.00     0.021 A 
ATOM     22  C   UNL     1      44.510 131.373  18.069  1.00  0.00     0.247 A 
ATOM     23  C   UNL     1      45.689 130.600  17.965  1.00  0.00     0.049 A 
ATOM     24  C   UNL     1      43.785 131.690  16.906  1.00  0.00     0.197 A 
ATOM     25  C   UNL     1      46.128 130.158  16.710  1.00  0.00     0.015 A 
ATOM     26  C   UNL     1      44.232 131.249  15.649  1.00  0.00    -0.008 A 
ATOM     27  C   UNL     1      45.401 130.476  15.560  1.00  0.00     0.007 A 
ATOM     28  H   UNL     1      43.198 132.345  19.364  1.00  0.00     0.454 HD
ATOM     29  F   UNL     1      42.637 132.412  16.995  1.00  0.00    -0.199 F 
ATOM     30  C   UNL     1      43.433 131.552  14.415  1.00  0.00     0.048 C 
ENDBRANCH   5  18
TORSDOF 3
ENDMDL
MODEL 6
REMARK VINA RESULT:      -6.4      1.417      2.149
REMARK SMILES Cc1ccoc1NC(=O)N1CCC[C@H](c2ccc3ccc(C)c(F)c3[nH+]2)[C@H]1F
REMARK SMILES IDX 10 1 11 2 12 3 13 4 14 5 27 6 28 7 8 8 7 9 9 11 6 12 2 13
REMARK SMILES IDX 3 14 4 15 5 16 1 17 15 18 16 19 26 20 17 21 25 22 18 23
REMARK SMILES IDX 23 24 19 25 21 26 20 27 24 29 22 30
REMARK H PARENT 7 10 26 28
ROOT
ATOM      1  N   UNL     1      43.610 129.628  23.382  1.00  0.00    -0.293 N 
ATOM      2  C   UNL     1      42.167 129.871  23.534  1.00  0.00     0.124 C 
ATOM      3  C   UNL     1      41.818 131.361  23.404  1.00  0.00     0.023 C 
ATOM      4  C   UNL     1      42.551 131.989  22.211  1.00  0.00     0.021 C 
ATOM      5  C   UNL     1      44.094 131.791  22.272  1.00  0.00     0.140 C 
ATOM      6  C   UNL     1      44.539 130.768  23.345  1.00  0.00     0.280 C 
ATOM      7  F   UNL     1      44.554 131.375  24.590  1.00  0.00    -0.223 F 
ENDROOT
BRANCH   1   8
ATOM      8  C   UNL     1      44.081 128.268  23.302  1.00  0.00     0.326 C 
ATOM      9  N   UNL     1      43.155 127.168  23.289  1.00  0.00    -0.278 N 
ATOM     10  H   UNL     1      42.142 127.355  23.443  1.00  0.00     0.175 HD
ATOM     11  O   UNL     1      45.323 128.046  23.301  1.00  0.00    -0.248 OA
BRANCH   9  12
ATOM     12  C   UNL     1      43.567 125.798  23.187  1.00  0.00     0.203 A 
ATOM     13  C   UNL     1      42.742 124.734  22.876  1.00  0.00     0.013 A 
ATOM     14  C   UNL     1      43.546 123.614  22.909  1.00  0.00     0.047 A 
ATOM     15  C   UNL     1      44.813 124.068  23.223  1.00  0.00     0.198 A 
ATOM     16  O   UNL     1      44.794 125.374  23.383  1.00  0.00    -0.448 OA
ATOM     17  C   UNL     1      41.267 124.767  22.633  1.00  0.00     0.050 C 
ENDBRANCH   9  12
ENDBRANCH   1   8
BRANCH   5  18
ATOM     18  C   UNL     1      44.657 131.402  20.915  1.00  0.00     0.188 A 
ATOM     19  C   UNL     1      45.806 130.598  20.837  1.00  0.00     0.075 A 
ATOM     20  N   UNL     1      44.008 131.759  19.765  1.00  0.00    -0.205 N 
ATOM     21  C   UNL     1      46.270 130.170  19.595  1.00  0.00     0.021 A 
ATOM     22  C   UNL     1      44.431 131.342  18.536  1.00  0.00     0.247 A 
ATOM     23  C   UNL     1      45.583 130.529  18.432  1.00  0.00     0.049 A 
ATOM     24  C   UNL     1      43.723 131.692  17.372  1.00  0.00     0.197 A 
ATOM     25  C   UNL     1      46.012 130.080  17.176  1.00  0.00     0.015 A 
ATOM     26  C   UNL     1      44.160 131.244  16.114  1.00  0.00    -0.008 A 
ATOM     27  C   UNL     1      45.301 130.431  16.025  1.00  0.00     0.007 A 
ATOM     28  H   UNL     1      43.149 132.350  19.833  1.00  0.00     0.454 HD
ATOM     29  F   UNL     1      42.600 132.453  17.462  1.00  0.00    -0.199 F 
ATOM     30  C   UNL     1      43.377 131.584  14.880  1.00  0.00     0.048 C 
ENDBRANCH   5  18
TORSDOF 3
ENDMDL
MODEL 7
REMARK VINA RESULT:      -6.0      1.866      6.156
REMARK SMILES Cc1ccoc1NC(=O)N1CCC[C@H](c2ccc3ccc(C)c(F)c3[nH+]2)[C@H]1F
REMARK SMILES IDX 10 1 11 2 12 3 13 4 14 5 27 6 28 7 8 8 7 9 9 11 6 12 2 13
REMARK SMILES IDX 3 14 4 15 5 16 1 17 15 18 16 19 26 20 17 21 25 22 18 23
REMARK SMILES IDX 23 24 19 25 21 26 20 27 24 29 22 30
REMARK H PARENT 7 10 26 28
ROOT
ATOM      1  N   UNL     1      44.142 131.436  21.841  1.00  0.00    -0.293 N 
ATOM      2  C   UNL     1      45.006 132.222  22.735  1.00  0.00     0.124 C 
ATOM      3  C   UNL     1      44.305 132.562  24.058  1.00  0.00     0.023 C 
ATOM      4  C   UNL     1      43.583 131.331  24.623  1.00  0.00     0.021 C 
ATOM      5  C   UNL     1      42.576 130.700  23.617  1.00  0.00     0.140 C 
ATOM      6  C   UNL     1      42.722 131.252  22.178  1.00  0.00     0.280 C 
ATOM      7  F   UNL     1      42.076 132.473  22.080  1.00  0.00    -0.223 F 
ENDROOT
BRANCH   1   8
ATOM      8  C   UNL     1      44.707 130.886  20.634  1.00  0.00     0.326 C 
ATOM      9  N   UNL     1      44.499 131.528  19.365  1.00  0.00    -0.278 N 
ATOM     10  H   UNL     1      43.849 132.340  19.307  1.00  0.00     0.175 HD
ATOM     11  O   UNL     1      45.342 129.797  20.692  1.00  0.00    -0.248 OA
BRANCH   9  12
ATOM     12  C   UNL     1      45.057 131.039  18.137  1.00  0.00     0.203 A 
ATOM     13  C   UNL     1      44.504 131.206  16.883  1.00  0.00     0.013 A 
ATOM     14  C   UNL     1      45.356 130.563  16.008  1.00  0.00     0.047 A 
ATOM     15  C   UNL     1      46.382 130.059  16.785  1.00  0.00     0.198 A 
ATOM     16  O   UNL     1      46.177 130.358  18.050  1.00  0.00    -0.448 OA
ATOM     17  C   UNL     1      43.209 131.869  16.540  1.00  0.00     0.050 C 
ENDBRANCH   9  12
ENDBRANCH   1   8
BRANCH   5  18
ATOM     18  C   UNL     1      42.679 129.184  23.607  1.00  0.00     0.188 A 
ATOM     19  C   UNL     1      41.550 128.403  23.903  1.00  0.00     0.075 A 
ATOM     20  N   UNL     1      43.842 128.569  23.231  1.00  0.00    -0.205 N 
ATOM     21  C   UNL     1      41.622 127.015  23.808  1.00  0.00     0.021 A 
ATOM     22  C   UNL     1      43.937 127.212  23.115  1.00  0.00     0.247 A 
ATOM     23  C   UNL     1      42.813 126.404  23.403  1.00  0.00     0.049 A 
ATOM     24  C   UNL     1      45.133 126.607  22.689  1.00  0.00     0.197 A 
ATOM     25  C   UNL     1      42.897 125.013  23.268  1.00  0.00     0.015 A 
ATOM     26  C   UNL     1      45.214 125.210  22.559  1.00  0.00    -0.008 A 
ATOM     27  C   UNL     1      44.089 124.420  22.843  1.00  0.00     0.007 A 
ATOM     28  H   UNL     1      44.674 129.158  23.004  1.00  0.00     0.454 HD
ATOM     29  F   UNL     1      46.213 127.374  22.385  1.00  0.00    -0.199 F 
ATOM     30  C   UNL     1      46.479 124.572  22.063  1.00  0.00     0.048 C 
ENDBRANCH   5  18
TORSDOF 3
ENDMDL
MODEL 8
REMARK VINA RESULT:      -4.7      1.698      2.668
REMARK SMILES Cc1ccoc1NC(=O)N1CCC[C@H](c2ccc3ccc(C)c(F)c3[nH+]2)[C@H]1F
REMARK SMILES IDX 10 1 11 2 12 3 13 4 14 5 27 6 28 7 8 8 7 9 9 11 6 12 2 13
REMARK SMILES IDX 3 14 4 15 5 16 1 17 15 18 16 19 26 20 17 21 25 22 18 23
REMARK SMILES IDX 23 24 19 25 21 26 20 27 24 29 22 30
REMARK H PARENT 7 10 26 28
ROOT
ATOM      1  N   UNL     1      44.440 129.144  22.592  1.00  0.00    -0.293 N 
ATOM      2  C   UNL     1      43.001 129.092  22.895  1.00  0.00     0.124 C 
ATOM      3  C   UNL     1      42.359 130.486  22.875  1.00  0.00     0.023 C 
ATOM      4  C   UNL     1      42.828 131.283  21.649  1.00  0.00     0.021 C 
ATOM      5  C   UNL     1      44.377 131.392  21.550  1.00  0.00     0.140 C 
ATOM      6  C   UNL     1      45.121 130.445  22.523  1.00  0.00     0.280 C 
ATOM      7  F   UNL     1      45.150 131.005  23.789  1.00  0.00    -0.223 F 
ENDROOT
BRANCH   1   8
ATOM      8  C   UNL     1      45.155 127.907  22.398  1.00  0.00     0.326 C 
ATOM      9  N   UNL     1      45.140 126.883  23.408  1.00  0.00    -0.278 N 
ATOM     10  H   UNL     1      44.693 127.082  24.327  1.00  0.00     0.175 HD
ATOM     11  O   UNL     1      45.845 127.752  21.354  1.00  0.00    -0.248 OA
BRANCH   9  12
ATOM     12  C   UNL     1      45.813 125.625  23.259  1.00  0.00     0.203 A 
ATOM     13  C   UNL     1      47.036 125.300  23.811  1.00  0.00     0.013 A 
ATOM     14  C   UNL     1      47.306 124.012  23.396  1.00  0.00     0.047 A 
ATOM     15  C   UNL     1      46.221 123.629  22.628  1.00  0.00     0.198 A 
ATOM     16  O   UNL     1      45.348 124.612  22.564  1.00  0.00    -0.448 OA
ATOM     17  C   UNL     1      47.931 126.180  24.624  1.00  0.00     0.050 C 
ENDBRANCH   9  12
ENDBRANCH   1   8
BRANCH   5  18
ATOM     18  C   UNL     1      44.860 131.163  20.128  1.00  0.00     0.188 A 
ATOM     19  C   UNL     1      46.039 130.438  19.895  1.00  0.00     0.075 A 
ATOM     20  N   UNL     1      44.112 131.588  19.064  1.00  0.00    -0.205 N 
ATOM     21  C   UNL     1      46.433 130.153  18.590  1.00  0.00     0.021 A 
ATOM     22  C   UNL     1      44.466 131.311  17.774  1.00  0.00     0.247 A 
ATOM     23  C   UNL     1      45.646 130.578  17.515  1.00  0.00     0.049 A 
ATOM     24  C   UNL     1      43.658 131.726  16.700  1.00  0.00     0.197 A 
ATOM     25  C   UNL     1      46.006 130.274  16.196  1.00  0.00     0.015 A 
ATOM     26  C   UNL     1      44.026 131.423  15.378  1.00  0.00    -0.008 A 
ATOM     27  C   UNL     1      45.197 130.689  15.135  1.00  0.00     0.007 A 
ATOM     28  H   UNL     1      43.231 132.120  19.245  1.00  0.00     0.454 HD
ATOM     29  F   UNL     1      42.508 132.410  16.938  1.00  0.00    -0.199 F 
ATOM     30  C   UNL     1      43.139 131.830  14.237  1.00  0.00     0.048 C 
ENDBRANCH   5  18
TORSDOF 3
ENDMDL
MODEL 9
REMARK VINA RESULT:      -4.5      1.579      2.423
REMARK SMILES Cc1ccoc1NC(=O)N1CCC[C@H](c2ccc3ccc(C)c(F)c3[nH+]2)[C@H]1F
REMARK SMILES IDX 10 1 11 2 12 3 13 4 14 5 27 6 28 7 8 8 7 9 9 11 6 12 2 13
REMARK SMILES IDX 3 14 4 15 5 16 1 17 15 18 16 19 26 20 17 21 25 22 18 23
REMARK SMILES IDX 23 24 19 25 21 26 20 27 24 29 22 30
REMARK H PARENT 7 10 26 28
ROOT
ATOM      1  N   UNL     1      43.253 129.828  23.350  1.00  0.00    -0.293 N 
ATOM      2  C   UNL     1      41.867 130.309  23.446  1.00  0.00     0.124 C 
ATOM      3  C   UNL     1      41.779 131.837  23.321  1.00  0.00     0.023 C 
ATOM      4  C   UNL     1      42.658 132.340  22.167  1.00  0.00     0.021 C 
ATOM      5  C   UNL     1      44.141 131.884  22.289  1.00  0.00     0.140 C 
ATOM      6  C   UNL     1      44.361 130.795  23.366  1.00  0.00     0.280 C 
ATOM      7  F   UNL     1      44.425 131.384  24.618  1.00  0.00    -0.223 F 
ENDROOT
BRANCH   1   8
ATOM      8  C   UNL     1      43.493 128.408  23.272  1.00  0.00     0.326 C 
ATOM      9  N   UNL     1      44.808 127.871  23.493  1.00  0.00    -0.278 N 
ATOM     10  H   UNL     1      45.611 128.525  23.608  1.00  0.00     0.175 HD
ATOM     11  O   UNL     1      42.545 127.641  22.950  1.00  0.00    -0.248 OA
BRANCH   9  12
ATOM     12  C   UNL     1      45.099 126.467  23.451  1.00  0.00     0.203 A 
ATOM     13  C   UNL     1      46.206 125.895  22.855  1.00  0.00     0.013 A 
ATOM     14  C   UNL     1      46.068 124.534  23.036  1.00  0.00     0.047 A 
ATOM     15  C   UNL     1      44.893 124.365  23.744  1.00  0.00     0.198 A 
ATOM     16  O   UNL     1      44.337 125.535  23.977  1.00  0.00    -0.448 OA
ATOM     17  C   UNL     1      47.291 126.588  22.096  1.00  0.00     0.050 C 
ENDBRANCH   9  12
ENDBRANCH   1   8
BRANCH   5  18
ATOM     18  C   UNL     1      44.689 131.414  20.952  1.00  0.00     0.188 A 
ATOM     19  C   UNL     1      45.779 130.530  20.912  1.00  0.00     0.075 A 
ATOM     20  N   UNL     1      44.077 131.779  19.783  1.00  0.00    -0.205 N 
ATOM     21  C   UNL     1      46.223 130.031  19.690  1.00  0.00     0.021 A 
ATOM     22  C   UNL     1      44.481 131.293  18.573  1.00  0.00     0.247 A 
ATOM     23  C   UNL     1      45.574 130.399  18.507  1.00  0.00     0.049 A 
ATOM     24  C   UNL     1      43.810 131.655  17.391  1.00  0.00     0.197 A 
ATOM     25  C   UNL     1      45.982 129.882  17.271  1.00  0.00     0.015 A 
ATOM     26  C   UNL     1      44.227 131.137  16.153  1.00  0.00    -0.008 A 
ATOM     27  C   UNL     1      45.309 130.245  16.102  1.00  0.00     0.007 A 
ATOM     28  H   UNL     1      43.260 132.430  19.823  1.00  0.00     0.454 HD
ATOM     29  F   UNL     1      42.743 132.495  17.444  1.00  0.00    -0.199 F 
ATOM     30  C   UNL     1      43.481 131.491  14.899  1.00  0.00     0.048 C 
ENDBRANCH   5  18
TORSDOF 3
ENDMDL


