MODEL 1
REMARK VINA RESULT:      -9.4      0.000      0.000
REMARK SMILES Cc1cc2cc(F)c(C3CC3)cc2[nH]1
REMARK SMILES IDX 1 1 2 2 3 3 4 4 5 5 6 6 7 7 8 8 12 9 13 10 14 11 9 13 10 14
REMARK SMILES IDX 11 15
REMARK H PARENT 14 12
ROOT
ATOM      1  C   UNL     1      45.143 131.340  21.135  1.00  0.00     0.064 C 
ATOM      2  C   UNL     1      45.087 131.161  19.654  1.00  0.00     0.013 A 
ATOM      3  C   UNL     1      44.135 131.736  18.815  1.00  0.00     0.031 A 
ATOM      4  C   UNL     1      44.515 131.363  17.544  1.00  0.00     0.003 A 
ATOM      5  C   UNL     1      43.949 131.659  16.308  1.00  0.00     0.049 A 
ATOM      6  C   UNL     1      44.577 131.149  15.157  1.00  0.00     0.127 A 
ATOM      7  F   UNL     1      44.058 131.442  13.937  1.00  0.00    -0.207 F 
ATOM      8  C   UNL     1      45.743 130.346  15.266  1.00  0.00    -0.007 A 
ATOM      9  C   UNL     1      46.303 130.092  16.538  1.00  0.00     0.033 A 
ATOM     10  C   UNL     1      45.654 130.610  17.657  1.00  0.00     0.046 A 
ATOM     11  N   UNL     1      46.018 130.483  18.943  1.00  0.00    -0.359 N 
ATOM     12  H   UNL     1      46.855 129.979  19.315  1.00  0.00     0.166 HD
ENDROOT
BRANCH   8  13
ATOM     13  C   UNL     1      46.437 129.842  14.028  1.00  0.00     0.022 C 
ATOM     14  C   UNL     1      47.253 130.881  13.269  1.00  0.00     0.009 C 
ATOM     15  C   UNL     1      47.959 129.830  14.104  1.00  0.00     0.009 C 
ENDBRANCH   8  13
TORSDOF 1
ENDMDL
MODEL 2
REMARK VINA RESULT:      -9.0      1.619      4.851
REMARK SMILES Cc1cc2cc(F)c(C3CC3)cc2[nH]1
REMARK SMILES IDX 1 1 2 2 3 3 4 4 5 5 6 6 7 7 8 8 12 9 13 10 14 11 9 13 10 14
REMARK SMILES IDX 11 15
REMARK H PARENT 14 12
ROOT
ATOM      1  C   UNL     1      47.904 129.526  13.462  1.00  0.00     0.064 C 
ATOM      2  C   UNL     1      47.009 130.049  14.536  1.00  0.00     0.013 A 
ATOM      3  C   UNL     1      45.791 130.689  14.320  1.00  0.00     0.031 A 
ATOM      4  C   UNL     1      45.288 130.924  15.581  1.00  0.00     0.003 A 
ATOM      5  C   UNL     1      44.096 131.520  15.983  1.00  0.00     0.049 A 
ATOM      6  C   UNL     1      43.835 131.606  17.362  1.00  0.00     0.127 A 
ATOM      7  F   UNL     1      42.669 132.161  17.780  1.00  0.00    -0.207 F 
ATOM      8  C   UNL     1      44.773 131.110  18.308  1.00  0.00    -0.007 A 
ATOM      9  C   UNL     1      45.958 130.487  17.858  1.00  0.00     0.033 A 
ATOM     10  C   UNL     1      46.186 130.422  16.485  1.00  0.00     0.046 A 
ATOM     11  N   UNL     1      47.242 129.877  15.858  1.00  0.00    -0.359 N 
ATOM     12  H   UNL     1      48.064 129.406  16.300  1.00  0.00     0.166 HD
ENDROOT
BRANCH   8  13
ATOM     13  C   UNL     1      44.466 131.163  19.781  1.00  0.00     0.022 C 
ATOM     14  C   UNL     1      45.567 130.639  20.695  1.00  0.00     0.009 C 
ATOM     15  C   UNL     1      45.326 132.133  20.582  1.00  0.00     0.009 C 
ENDBRANCH   8  13
TORSDOF 1
ENDMDL
MODEL 3
REMARK VINA RESULT:      -8.3      1.776      5.075
REMARK SMILES Cc1cc2cc(F)c(C3CC3)cc2[nH]1
REMARK SMILES IDX 1 1 2 2 3 3 4 4 5 5 6 6 7 7 8 8 12 9 13 10 14 11 9 13 10 14
REMARK SMILES IDX 11 15
REMARK H PARENT 14 12
ROOT
ATOM      1  C   UNL     1      47.298 129.282  14.335  1.00  0.00     0.064 C 
ATOM      2  C   UNL     1      46.480 129.943  15.395  1.00  0.00     0.013 A 
ATOM      3  C   UNL     1      45.232 130.527  15.194  1.00  0.00     0.031 A 
ATOM      4  C   UNL     1      44.828 130.935  16.446  1.00  0.00     0.003 A 
ATOM      5  C   UNL     1      43.658 131.565  16.859  1.00  0.00     0.049 A 
ATOM      6  C   UNL     1      43.509 131.847  18.229  1.00  0.00     0.127 A 
ATOM      7  F   UNL     1      42.367 132.440  18.661  1.00  0.00    -0.207 F 
ATOM      8  C   UNL     1      44.535 131.508  19.152  1.00  0.00    -0.007 A 
ATOM      9  C   UNL     1      45.696 130.844  18.696  1.00  0.00     0.033 A 
ATOM     10  C   UNL     1      45.811 130.583  17.333  1.00  0.00     0.046 A 
ATOM     11  N   UNL     1      46.826 129.968  16.703  1.00  0.00    -0.359 N 
ATOM     12  H   UNL     1      47.694 129.579  17.136  1.00  0.00     0.166 HD
ENDROOT
BRANCH   8  13
ATOM     13  C   UNL     1      44.350 131.770  20.623  1.00  0.00     0.022 C 
ATOM     14  C   UNL     1      43.164 131.064  21.267  1.00  0.00     0.009 C 
ATOM     15  C   UNL     1      44.572 130.562  21.525  1.00  0.00     0.009 C 
ENDBRANCH   8  13
TORSDOF 1
ENDMDL
MODEL 4
REMARK VINA RESULT:      -7.9      1.998      2.584
REMARK SMILES Cc1cc2cc(F)c(C3CC3)cc2[nH]1
REMARK SMILES IDX 1 1 2 2 3 3 4 4 5 5 6 6 7 7 8 8 12 9 13 10 14 11 9 13 10 14
REMARK SMILES IDX 11 15
REMARK H PARENT 14 12
ROOT
ATOM      1  C   UNL     1      41.738 133.025  20.267  1.00  0.00     0.064 C 
ATOM      2  C   UNL     1      42.745 132.422  19.344  1.00  0.00     0.013 A 
ATOM      3  C   UNL     1      43.936 131.821  19.744  1.00  0.00     0.031 A 
ATOM      4  C   UNL     1      44.499 131.347  18.579  1.00  0.00     0.003 A 
ATOM      5  C   UNL     1      45.683 130.646  18.366  1.00  0.00     0.049 A 
ATOM      6  C   UNL     1      45.996 130.268  17.048  1.00  0.00     0.127 A 
ATOM      7  F   UNL     1      47.133 129.563  16.816  1.00  0.00    -0.207 F 
ATOM      8  C   UNL     1      45.132 130.609  15.973  1.00  0.00    -0.007 A 
ATOM      9  C   UNL     1      43.926 131.296  16.235  1.00  0.00     0.033 A 
ATOM     10  C   UNL     1      43.648 131.658  17.552  1.00  0.00     0.046 A 
ATOM     11  N   UNL     1      42.566 132.311  18.008  1.00  0.00    -0.359 N 
ATOM     12  H   UNL     1      41.751 132.650  17.448  1.00  0.00     0.166 HD
ENDROOT
BRANCH   8  13
ATOM     13  C   UNL     1      45.449 130.161  14.571  1.00  0.00     0.022 C 
ATOM     14  C   UNL     1      46.234 131.160  13.729  1.00  0.00     0.009 C 
ATOM     15  C   UNL     1      46.929 129.932  14.288  1.00  0.00     0.009 C 
ENDBRANCH   8  13
TORSDOF 1
ENDMDL
MODEL 5
REMARK VINA RESULT:      -7.8      2.136      5.508
REMARK SMILES Cc1cc2cc(F)c(C3CC3)cc2[nH]1
REMARK SMILES IDX 1 1 2 2 3 3 4 4 5 5 6 6 7 7 8 8 12 9 13 10 14 11 9 13 10 14
REMARK SMILES IDX 11 15
REMARK H PARENT 14 12
ROOT
ATOM      1  C   UNL     1      46.401 130.086  14.741  1.00  0.00     0.064 C 
ATOM      2  C   UNL     1      45.797 130.531  16.032  1.00  0.00     0.013 A 
ATOM      3  C   UNL     1      44.571 131.179  16.159  1.00  0.00     0.031 A 
ATOM      4  C   UNL     1      44.389 131.324  17.517  1.00  0.00     0.003 A 
ATOM      5  C   UNL     1      43.336 131.885  18.234  1.00  0.00     0.049 A 
ATOM      6  C   UNL     1      43.416 131.875  19.639  1.00  0.00     0.127 A 
ATOM      7  F   UNL     1      42.392 132.395  20.361  1.00  0.00    -0.207 F 
ATOM      8  C   UNL     1      44.548 131.320  20.294  1.00  0.00    -0.007 A 
ATOM      9  C   UNL     1      45.582 130.735  19.530  1.00  0.00     0.033 A 
ATOM     10  C   UNL     1      45.472 130.765  18.142  1.00  0.00     0.046 A 
ATOM     11  N   UNL     1      46.340 130.270  17.243  1.00  0.00    -0.359 N 
ATOM     12  H   UNL     1      47.238 129.773  17.441  1.00  0.00     0.166 HD
ENDROOT
BRANCH   8  13
ATOM     13  C   UNL     1      44.606 131.270  21.798  1.00  0.00     0.022 C 
ATOM     14  C   UNL     1      43.314 130.850  22.487  1.00  0.00     0.009 C 
ATOM     15  C   UNL     1      44.475 129.877  22.400  1.00  0.00     0.009 C 
ENDBRANCH   8  13
TORSDOF 1
ENDMDL
MODEL 6
REMARK VINA RESULT:      -7.8      1.909      2.514
REMARK SMILES Cc1cc2cc(F)c(C3CC3)cc2[nH]1
REMARK SMILES IDX 1 1 2 2 3 3 4 4 5 5 6 6 7 7 8 8 12 9 13 10 14 11 9 13 10 14
REMARK SMILES IDX 11 15
REMARK H PARENT 14 12
ROOT
ATOM      1  C   UNL     1      41.855 132.365  18.920  1.00  0.00     0.064 C 
ATOM      2  C   UNL     1      43.009 131.925  18.082  1.00  0.00     0.013 A 
ATOM      3  C   UNL     1      44.122 131.233  18.554  1.00  0.00     0.031 A 
ATOM      4  C   UNL     1      44.879 130.975  17.432  1.00  0.00     0.003 A 
ATOM      5  C   UNL     1      46.088 130.301  17.291  1.00  0.00     0.049 A 
ATOM      6  C   UNL     1      46.624 130.172  15.997  1.00  0.00     0.127 A 
ATOM      7  F   UNL     1      47.791 129.499  15.830  1.00  0.00    -0.207 F 
ATOM      8  C   UNL     1      45.951 130.730  14.877  1.00  0.00    -0.007 A 
ATOM      9  C   UNL     1      44.711 131.382  15.059  1.00  0.00     0.033 A 
ATOM     10  C   UNL     1      44.211 131.495  16.354  1.00  0.00     0.046 A 
ATOM     11  N   UNL     1      43.061 132.074  16.738  1.00  0.00    -0.359 N 
ATOM     12  H   UNL     1      42.349 132.530  16.124  1.00  0.00     0.166 HD
ENDROOT
BRANCH   8  13
ATOM     13  C   UNL     1      46.506 130.549  13.489  1.00  0.00     0.022 C 
ATOM     14  C   UNL     1      47.745 131.376  13.169  1.00  0.00     0.009 C 
ATOM     15  C   UNL     1      47.877 129.886  13.426  1.00  0.00     0.009 C 
ENDBRANCH   8  13
TORSDOF 1
ENDMDL
MODEL 7
REMARK VINA RESULT:      -7.8      1.395      2.139
REMARK SMILES Cc1cc2cc(F)c(C3CC3)cc2[nH]1
REMARK SMILES IDX 1 1 2 2 3 3 4 4 5 5 6 6 7 7 8 8 12 9 13 10 14 11 9 13 10 14
REMARK SMILES IDX 11 15
REMARK H PARENT 14 12
ROOT
ATOM      1  C   UNL     1      44.192 131.412  22.907  1.00  0.00     0.064 C 
ATOM      2  C   UNL     1      44.184 131.382  21.415  1.00  0.00     0.013 A 
ATOM      3  C   UNL     1      43.112 131.766  20.613  1.00  0.00     0.031 A 
ATOM      4  C   UNL     1      43.577 131.645  19.322  1.00  0.00     0.003 A 
ATOM      5  C   UNL     1      42.951 131.908  18.107  1.00  0.00     0.049 A 
ATOM      6  C   UNL     1      43.692 131.709  16.927  1.00  0.00     0.127 A 
ATOM      7  F   UNL     1      43.112 131.979  15.730  1.00  0.00    -0.207 F 
ATOM      8  C   UNL     1      45.032 131.240  16.986  1.00  0.00    -0.007 A 
ATOM      9  C   UNL     1      45.640 131.013  18.241  1.00  0.00     0.033 A 
ATOM     10  C   UNL     1      44.876 131.217  19.388  1.00  0.00     0.046 A 
ATOM     11  N   UNL     1      45.263 131.057  20.665  1.00  0.00    -0.359 N 
ATOM     12  H   UNL     1      46.204 130.759  21.006  1.00  0.00     0.166 HD
ENDROOT
BRANCH   8  13
ATOM     13  C   UNL     1      45.834 131.073  15.723  1.00  0.00     0.022 C 
ATOM     14  C   UNL     1      46.842 129.931  15.737  1.00  0.00     0.009 C 
ATOM     15  C   UNL     1      45.554 129.792  14.947  1.00  0.00     0.009 C 
ENDBRANCH   8  13
TORSDOF 1
ENDMDL
MODEL 8
REMARK VINA RESULT:      -7.7      1.185      1.548
REMARK SMILES Cc1cc2cc(F)c(C3CC3)cc2[nH]1
REMARK SMILES IDX 1 1 2 2 3 3 4 4 5 5 6 6 7 7 8 8 12 9 13 10 14 11 9 13 10 14
REMARK SMILES IDX 11 15
REMARK H PARENT 14 12
ROOT
ATOM      1  C   UNL     1      44.546 131.503  22.448  1.00  0.00     0.064 C 
ATOM      2  C   UNL     1      44.504 131.360  20.962  1.00  0.00     0.013 A 
ATOM      3  C   UNL     1      43.492 131.851  20.141  1.00  0.00     0.031 A 
ATOM      4  C   UNL     1      43.905 131.558  18.860  1.00  0.00     0.003 A 
ATOM      5  C   UNL     1      43.305 131.824  17.632  1.00  0.00     0.049 A 
ATOM      6  C   UNL     1      43.980 131.418  16.467  1.00  0.00     0.127 A 
ATOM      7  F   UNL     1      43.428 131.687  15.257  1.00  0.00    -0.207 F 
ATOM      8  C   UNL     1      45.228 130.743  16.553  1.00  0.00    -0.007 A 
ATOM      9  C   UNL     1      45.816 130.517  17.817  1.00  0.00     0.033 A 
ATOM     10  C   UNL     1      45.119 130.930  18.950  1.00  0.00     0.046 A 
ATOM     11  N   UNL     1      45.500 130.808  20.232  1.00  0.00    -0.359 N 
ATOM     12  H   UNL     1      46.388 130.388  20.589  1.00  0.00     0.166 HD
ENDROOT
BRANCH   8  13
ATOM     13  C   UNL     1      45.968 130.352  15.301  1.00  0.00     0.022 C 
ATOM     14  C   UNL     1      45.473 131.010  14.018  1.00  0.00     0.009 C 
ATOM     15  C   UNL     1      46.772 131.473  14.653  1.00  0.00     0.009 C 
ENDBRANCH   8  13
TORSDOF 1
ENDMDL
MODEL 9
REMARK VINA RESULT:      -7.6      2.414      5.491
REMARK SMILES Cc1cc2cc(F)c(C3CC3)cc2[nH]1
REMARK SMILES IDX 1 1 2 2 3 3 4 4 5 5 6 6 7 7 8 8 12 9 13 10 14 11 9 13 10 14
REMARK SMILES IDX 11 15
REMARK H PARENT 14 12
ROOT
ATOM      1  C   UNL     1      46.559 131.005  13.364  1.00  0.00     0.064 C 
ATOM      2  C   UNL     1      46.155 130.952  14.800  1.00  0.00     0.013 A 
ATOM      3  C   UNL     1      46.642 130.042  15.734  1.00  0.00     0.031 A 
ATOM      4  C   UNL     1      46.056 130.412  16.925  1.00  0.00     0.003 A 
ATOM      5  C   UNL     1      46.186 129.874  18.203  1.00  0.00     0.049 A 
ATOM      6  C   UNL     1      45.470 130.483  19.250  1.00  0.00     0.127 A 
ATOM      7  F   UNL     1      45.597 129.993  20.509  1.00  0.00    -0.207 F 
ATOM      8  C   UNL     1      44.633 131.603  18.997  1.00  0.00    -0.007 A 
ATOM      9  C   UNL     1      44.551 132.136  17.691  1.00  0.00     0.033 A 
ATOM     10  C   UNL     1      45.271 131.506  16.678  1.00  0.00     0.046 A 
ATOM     11  N   UNL     1      45.327 131.852  15.381  1.00  0.00    -0.359 N 
ATOM     12  H   UNL     1      44.843 132.656  14.921  1.00  0.00     0.166 HD
ENDROOT
BRANCH   8  13
ATOM     13  C   UNL     1      43.906 132.279  20.129  1.00  0.00     0.022 C 
ATOM     14  C   UNL     1      42.440 132.599  19.865  1.00  0.00     0.009 C 
ATOM     15  C   UNL     1      42.809 131.445  20.779  1.00  0.00     0.009 C 
ENDBRANCH   8  13
TORSDOF 1
ENDMDL


