MODEL 1
REMARK VINA RESULT:      -8.0      0.000      0.000
REMARK SMILES Nc1cc(F)c[n-]/c1=N\c1ccc2nc(Nc3cc4cccc(F)c4[nH]3)cn2c1
REMARK SMILES IDX 10 1 11 2 12 3 13 4 14 5 15 6 27 7 28 8 29 9 9 10 8 11 6 12
REMARK SMILES IDX 7 13 4 14 3 15 2 16 5 17 1 18 16 21 17 23 18 24 26 25 19 26
REMARK SMILES IDX 25 27 20 28 23 29 21 30 22 31 24 33
REMARK H PARENT 1 19 1 20 16 22 26 32
ROOT
ATOM      1  C   UNL     1      43.705 127.890  23.977  1.00  0.00    -0.024 A 
ATOM      2  C   UNL     1      42.968 128.962  24.526  1.00  0.00     0.009 A 
ATOM      3  C   UNL     1      42.962 130.220  23.904  1.00  0.00     0.048 A 
ATOM      4  C   UNL     1      43.691 130.365  22.727  1.00  0.00     0.139 A 
ATOM      5  N   UNL     1      43.778 131.488  21.986  1.00  0.00    -0.211 NA
ATOM      6  C   UNL     1      44.573 131.108  20.956  1.00  0.00     0.150 A 
ATOM      7  C   UNL     1      44.928 129.772  21.074  1.00  0.00     0.139 A 
ATOM      8  N   UNL     1      44.367 129.328  22.206  1.00  0.00    -0.305 N 
ATOM      9  C   UNL     1      44.399 128.092  22.764  1.00  0.00     0.096 A 
ENDROOT
BRANCH   1  10
ATOM     10  N   UNL     1      43.649 126.607  24.625  1.00  0.00    -0.433 NA
BRANCH  10  11
ATOM     11  C   UNL     1      42.877 125.604  24.315  1.00  0.00    -0.035 A 
ATOM     12  C   UNL     1      42.555 123.252  24.083  1.00  0.00     0.018 A 
ATOM     13  N   UNL     1      43.340 124.321  24.376  1.00  0.00    -0.438 NA
ATOM     14  C   UNL     1      41.224 123.445  23.712  1.00  0.00     0.121 A 
ATOM     15  C   UNL     1      40.714 124.742  23.650  1.00  0.00     0.064 A 
ATOM     16  C   UNL     1      41.534 125.837  23.956  1.00  0.00     0.033 A 
ATOM     17  F   UNL     1      40.434 122.384  23.419  1.00  0.00    -0.207 F 
BRANCH  16  18
ATOM     18  N   UNL     1      40.998 127.165  23.892  1.00  0.00    -0.399 N 
ATOM     19  H   UNL     1      41.274 127.832  23.138  1.00  0.00     0.156 HD
ATOM     20  H   UNL     1      40.312 127.496  24.608  1.00  0.00     0.156 HD
ENDBRANCH  16  18
ENDBRANCH  10  11
ENDBRANCH   1  10
BRANCH   6  21
ATOM     21  N   UNL     1      44.891 131.977  19.860  1.00  0.00    -0.325 N 
ATOM     22  H   UNL     1      44.973 132.999  20.057  1.00  0.00     0.170 HD
BRANCH  21  23
ATOM     23  C   UNL     1      45.100 131.533  18.512  1.00  0.00     0.110 A 
ATOM     24  C   UNL     1      46.180 130.772  18.062  1.00  0.00     0.055 A 
ATOM     25  N   UNL     1      44.294 131.898  17.490  1.00  0.00    -0.339 N 
ATOM     26  C   UNL     1      45.986 130.666  16.701  1.00  0.00     0.005 A 
ATOM     27  C   UNL     1      44.841 131.354  16.389  1.00  0.00     0.083 A 
ATOM     28  C   UNL     1      46.749 130.028  15.727  1.00  0.00     0.010 A 
ATOM     29  C   UNL     1      44.381 131.448  15.076  1.00  0.00     0.147 A 
ATOM     30  C   UNL     1      46.307 130.102  14.393  1.00  0.00     0.004 A 
ATOM     31  C   UNL     1      45.126 130.809  14.068  1.00  0.00     0.041 A 
ATOM     32  H   UNL     1      43.432 132.486  17.545  1.00  0.00     0.168 HD
ATOM     33  F   UNL     1      43.250 132.134  14.776  1.00  0.00    -0.205 F 
ENDBRANCH  21  23
ENDBRANCH   6  21
TORSDOF 5
ENDMDL
MODEL 2
REMARK VINA RESULT:      -6.2      5.480      7.543
REMARK SMILES Nc1cc(F)c[n-]/c1=N\c1ccc2nc(Nc3cc4cccc(F)c4[nH]3)cn2c1
REMARK SMILES IDX 10 1 11 2 12 3 13 4 14 5 15 6 27 7 28 8 29 9 9 10 8 11 6 12
REMARK SMILES IDX 7 13 4 14 3 15 2 16 5 17 1 18 16 21 17 23 18 24 26 25 19 26
REMARK SMILES IDX 25 27 20 28 23 29 21 30 22 31 24 33
REMARK H PARENT 1 19 1 20 16 22 26 32
ROOT
ATOM      1  C   UNL     1      49.069 124.250  22.681  1.00  0.00    -0.024 A 
ATOM      2  C   UNL     1      48.638 123.750  23.930  1.00  0.00     0.009 A 
ATOM      3  C   UNL     1      47.586 124.366  24.624  1.00  0.00     0.048 A 
ATOM      4  C   UNL     1      46.976 125.469  24.032  1.00  0.00     0.139 A 
ATOM      5  N   UNL     1      45.940 126.166  24.541  1.00  0.00    -0.211 NA
ATOM      6  C   UNL     1      45.715 127.108  23.592  1.00  0.00     0.150 A 
ATOM      7  C   UNL     1      46.590 126.951  22.525  1.00  0.00     0.139 A 
ATOM      8  N   UNL     1      47.383 125.916  22.833  1.00  0.00    -0.305 N 
ATOM      9  C   UNL     1      48.389 125.352  22.120  1.00  0.00     0.096 A 
ENDROOT
BRANCH   1  10
ATOM     10  N   UNL     1      50.124 123.562  21.986  1.00  0.00    -0.433 NA
BRANCH  10  11
ATOM     11  C   UNL     1      50.638 123.878  20.831  1.00  0.00    -0.035 A 
ATOM     12  C   UNL     1      52.354 124.951  19.569  1.00  0.00     0.018 A 
ATOM     13  N   UNL     1      51.778 124.625  20.755  1.00  0.00    -0.438 NA
ATOM     14  C   UNL     1      51.783 124.513  18.373  1.00  0.00     0.121 A 
ATOM     15  C   UNL     1      50.624 123.739  18.413  1.00  0.00     0.064 A 
ATOM     16  C   UNL     1      50.040 123.408  19.644  1.00  0.00     0.033 A 
ATOM     17  F   UNL     1      52.352 124.834  17.185  1.00  0.00    -0.207 F 
BRANCH  16  18
ATOM     18  N   UNL     1      48.850 122.608  19.674  1.00  0.00    -0.399 N 
ATOM     19  H   UNL     1      48.593 121.981  18.880  1.00  0.00     0.156 HD
ATOM     20  H   UNL     1      48.211 122.637  20.500  1.00  0.00     0.156 HD
ENDBRANCH  16  18
ENDBRANCH  10  11
ENDBRANCH   1  10
BRANCH   6  21
ATOM     21  N   UNL     1      44.639 128.051  23.675  1.00  0.00    -0.325 N 
ATOM     22  H   UNL     1      43.957 127.944  24.458  1.00  0.00     0.170 HD
BRANCH  21  23
ATOM     23  C   UNL     1      44.436 129.128  22.750  1.00  0.00     0.110 A 
ATOM     24  C   UNL     1      43.320 129.965  22.703  1.00  0.00     0.055 A 
ATOM     25  N   UNL     1      45.292 129.391  21.735  1.00  0.00    -0.339 N 
ATOM     26  C   UNL     1      43.543 130.780  21.613  1.00  0.00     0.005 A 
ATOM     27  C   UNL     1      44.739 130.408  21.054  1.00  0.00     0.083 A 
ATOM     28  C   UNL     1      42.765 131.801  21.074  1.00  0.00     0.010 A 
ATOM     29  C   UNL     1      45.240 131.039  19.915  1.00  0.00     0.147 A 
ATOM     30  C   UNL     1      43.247 132.459  19.928  1.00  0.00     0.004 A 
ATOM     31  C   UNL     1      44.480 132.081  19.350  1.00  0.00     0.041 A 
ATOM     32  H   UNL     1      46.189 128.899  21.524  1.00  0.00     0.168 HD
ATOM     33  F   UNL     1      46.422 130.663  19.366  1.00  0.00    -0.205 F 
ENDBRANCH  21  23
ENDBRANCH   6  21
TORSDOF 5
ENDMDL
MODEL 3
REMARK VINA RESULT:      -6.0      4.103      4.854
REMARK SMILES Nc1cc(F)c[n-]/c1=N\c1ccc2nc(Nc3cc4cccc(F)c4[nH]3)cn2c1
REMARK SMILES IDX 10 1 11 2 12 3 13 4 14 5 15 6 27 7 28 8 29 9 9 10 8 11 6 12
REMARK SMILES IDX 7 13 4 14 3 15 2 16 5 17 1 18 16 21 17 23 18 24 26 25 19 26
REMARK SMILES IDX 25 27 20 28 23 29 21 30 22 31 24 33
REMARK H PARENT 1 19 1 20 16 22 26 32
ROOT
ATOM      1  C   UNL     1      46.076 125.958  22.830  1.00  0.00    -0.024 A 
ATOM      2  C   UNL     1      45.118 126.433  23.752  1.00  0.00     0.009 A 
ATOM      3  C   UNL     1      44.513 127.687  23.576  1.00  0.00     0.048 A 
ATOM      4  C   UNL     1      44.877 128.431  22.457  1.00  0.00     0.139 A 
ATOM      5  N   UNL     1      44.382 129.638  22.116  1.00  0.00    -0.211 NA
ATOM      6  C   UNL     1      45.034 129.915  20.960  1.00  0.00     0.150 A 
ATOM      7  C   UNL     1      45.881 128.873  20.609  1.00  0.00     0.139 A 
ATOM      8  N   UNL     1      45.772 127.953  21.576  1.00  0.00    -0.305 N 
ATOM      9  C   UNL     1      46.379 126.746  21.699  1.00  0.00     0.096 A 
ENDROOT
BRANCH   1  10
ATOM     10  N   UNL     1      46.640 124.650  23.028  1.00  0.00    -0.433 NA
BRANCH  10  11
ATOM     11  C   UNL     1      47.895 124.358  23.224  1.00  0.00    -0.035 A 
ATOM     12  C   UNL     1      49.924 124.706  24.429  1.00  0.00     0.018 A 
ATOM     13  N   UNL     1      48.621 125.003  24.183  1.00  0.00    -0.438 NA
ATOM     14  C   UNL     1      50.562 123.707  23.694  1.00  0.00     0.121 A 
ATOM     15  C   UNL     1      49.847 123.019  22.712  1.00  0.00     0.064 A 
ATOM     16  C   UNL     1      48.503 123.335  22.469  1.00  0.00     0.033 A 
ATOM     17  F   UNL     1      51.861 123.404  23.933  1.00  0.00    -0.207 F 
BRANCH  16  18
ATOM     18  N   UNL     1      47.777 122.619  21.460  1.00  0.00    -0.399 N 
ATOM     19  H   UNL     1      48.189 122.430  20.520  1.00  0.00     0.156 HD
ATOM     20  H   UNL     1      46.812 122.268  21.650  1.00  0.00     0.156 HD
ENDBRANCH  16  18
ENDBRANCH  10  11
ENDBRANCH   1  10
BRANCH   6  21
ATOM     21  N   UNL     1      44.771 131.092  20.184  1.00  0.00    -0.325 N 
ATOM     22  H   UNL     1      44.422 131.938  20.686  1.00  0.00     0.170 HD
BRANCH  21  23
ATOM     23  C   UNL     1      44.954 131.181  18.764  1.00  0.00     0.110 A 
ATOM     24  C   UNL     1      44.066 131.767  17.862  1.00  0.00     0.055 A 
ATOM     25  N   UNL     1      45.996 130.602  18.125  1.00  0.00    -0.339 N 
ATOM     26  C   UNL     1      44.628 131.540  16.623  1.00  0.00     0.005 A 
ATOM     27  C   UNL     1      45.790 130.837  16.818  1.00  0.00     0.083 A 
ATOM     28  C   UNL     1      44.183 131.888  15.351  1.00  0.00     0.010 A 
ATOM     29  C   UNL     1      46.589 130.437  15.746  1.00  0.00     0.147 A 
ATOM     30  C   UNL     1      44.971 131.502  14.251  1.00  0.00     0.004 A 
ATOM     31  C   UNL     1      46.170 130.780  14.447  1.00  0.00     0.041 A 
ATOM     32  H   UNL     1      46.789 130.077  18.557  1.00  0.00     0.168 HD
ATOM     33  F   UNL     1      47.734 129.739  15.947  1.00  0.00    -0.205 F 
ENDBRANCH  21  23
ENDBRANCH   6  21
TORSDOF 5
ENDMDL
MODEL 4
REMARK VINA RESULT:      -5.9      1.336      1.995
REMARK SMILES Nc1cc(F)c[n-]/c1=N\c1ccc2nc(Nc3cc4cccc(F)c4[nH]3)cn2c1
REMARK SMILES IDX 10 1 11 2 12 3 13 4 14 5 15 6 27 7 28 8 29 9 9 10 8 11 6 12
REMARK SMILES IDX 7 13 4 14 3 15 2 16 5 17 1 18 16 21 17 23 18 24 26 25 19 26
REMARK SMILES IDX 25 27 20 28 23 29 21 30 22 31 24 33
REMARK H PARENT 1 19 1 20 16 22 26 32
ROOT
ATOM      1  C   UNL     1      42.849 128.942  23.879  1.00  0.00    -0.024 A 
ATOM      2  C   UNL     1      42.490 130.282  24.136  1.00  0.00     0.009 A 
ATOM      3  C   UNL     1      43.068 131.333  23.406  1.00  0.00     0.048 A 
ATOM      4  C   UNL     1      43.987 131.003  22.414  1.00  0.00     0.139 A 
ATOM      5  N   UNL     1      44.618 131.875  21.601  1.00  0.00    -0.211 NA
ATOM      6  C   UNL     1      45.374 131.065  20.820  1.00  0.00     0.150 A 
ATOM      7  C   UNL     1      45.171 129.732  21.149  1.00  0.00     0.139 A 
ATOM      8  N   UNL     1      44.299 129.720  22.165  1.00  0.00    -0.305 N 
ATOM      9  C   UNL     1      43.764 128.671  22.838  1.00  0.00     0.096 A 
ENDROOT
BRANCH   1  10
ATOM     10  N   UNL     1      42.202 127.895  24.624  1.00  0.00    -0.433 NA
BRANCH  10  11
ATOM     11  C   UNL     1      41.883 126.707  24.193  1.00  0.00    -0.035 A 
ATOM     12  C   UNL     1      40.267 125.227  23.253  1.00  0.00     0.018 A 
ATOM     13  N   UNL     1      40.626 126.447  23.730  1.00  0.00    -0.438 NA
ATOM     14  C   UNL     1      41.199 124.191  23.217  1.00  0.00     0.121 A 
ATOM     15  C   UNL     1      42.497 124.424  23.672  1.00  0.00     0.064 A 
ATOM     16  C   UNL     1      42.855 125.687  24.162  1.00  0.00     0.033 A 
ATOM     17  F   UNL     1      40.849 122.971  22.741  1.00  0.00    -0.207 F 
BRANCH  16  18
ATOM     18  N   UNL     1      44.193 125.916  24.624  1.00  0.00    -0.399 N 
ATOM     19  H   UNL     1      44.597 126.878  24.675  1.00  0.00     0.156 HD
ATOM     20  H   UNL     1      44.797 125.117  24.920  1.00  0.00     0.156 HD
ENDBRANCH  16  18
ENDBRANCH  10  11
ENDBRANCH   1  10
BRANCH   6  21
ATOM     21  N   UNL     1      46.179 131.559  19.741  1.00  0.00    -0.325 N 
ATOM     22  H   UNL     1      47.069 132.049  19.982  1.00  0.00     0.170 HD
BRANCH  21  23
ATOM     23  C   UNL     1      45.840 131.426  18.354  1.00  0.00     0.110 A 
ATOM     24  C   UNL     1      45.157 132.371  17.587  1.00  0.00     0.055 A 
ATOM     25  N   UNL     1      46.072 130.295  17.650  1.00  0.00    -0.339 N 
ATOM     26  C   UNL     1      44.997 131.770  16.357  1.00  0.00     0.005 A 
ATOM     27  C   UNL     1      45.561 130.521  16.428  1.00  0.00     0.083 A 
ATOM     28  C   UNL     1      44.382 132.233  15.197  1.00  0.00     0.010 A 
ATOM     29  C   UNL     1      45.547 129.651  15.339  1.00  0.00     0.147 A 
ATOM     30  C   UNL     1      44.357 131.379  14.080  1.00  0.00     0.004 A 
ATOM     31  C   UNL     1      44.938 130.092  14.149  1.00  0.00     0.041 A 
ATOM     32  H   UNL     1      46.543 129.427  17.990  1.00  0.00     0.168 HD
ATOM     33  F   UNL     1      46.103 128.416  15.419  1.00  0.00    -0.205 F 
ENDBRANCH  21  23
ENDBRANCH   6  21
TORSDOF 5
ENDMDL


