REMARK SMILES C#CCOCn1[nH+]c2cc(-c3c[nH+]c(F)cc3C)ccc2c1C
REMARK SMILES IDX 4 1 3 2 2 3 1 4 5 5 6 6 7 7 22 8 8 9 21 10 9 11 20 12 10 13
REMARK SMILES IDX 19 14 23 16 11 17 12 18 17 19 13 20 16 21 14 22 18 23 15 25
REMARK H PARENT 7 15 13 24
ROOT
ATOM      1  O   UNL     1       4.482   0.431   0.683  1.00  0.00    -0.342 OA
ENDROOT
BRANCH   1   2
ATOM      2  C   UNL     1       5.835   0.218   1.022  1.00  0.00     0.251 C 
BRANCH   2   3
ATOM      3  C   UNL     1       6.515   1.512   1.083  1.00  0.00    -0.078 C 
ATOM      4  C   UNL     1       7.075   2.578   1.133  1.00  0.00     0.006 C 
ENDBRANCH   2   3
ENDBRANCH   1   2
BRANCH   1   5
ATOM      5  C   UNL     1       3.809  -0.809   0.634  1.00  0.00     0.351 C 
BRANCH   5   6
ATOM      6  N   UNL     1       2.425  -0.585   0.222  1.00  0.00    -0.133 N 
ATOM      7  N   UNL     1       1.384  -0.682   1.042  1.00  0.00    -0.121 N 
ATOM      8  C   UNL     1       2.000  -0.173  -1.002  1.00  0.00     0.090 A 
ATOM      9  C   UNL     1       0.286  -0.332   0.352  1.00  0.00     0.236 A 
ATOM     10  C   UNL     1       0.629   0.002  -0.931  1.00  0.00     0.073 A 
ATOM     11  C   UNL     1      -1.027  -0.257   0.808  1.00  0.00     0.091 A 
ATOM     12  C   UNL     1      -0.315   0.447  -1.853  1.00  0.00     0.018 A 
ATOM     13  C   UNL     1      -2.020   0.169  -0.104  1.00  0.00    -0.005 A 
ATOM     14  C   UNL     1      -1.654   0.530  -1.428  1.00  0.00     0.010 A 
ATOM     15  H   UNL     1       1.429  -0.958   2.049  1.00  0.00     0.489 HD
ATOM     16  C   UNL     1       2.887   0.167  -2.162  1.00  0.00     0.071 C 
BRANCH  13  17
ATOM     17  C   UNL     1      -3.429   0.274   0.337  1.00  0.00     0.049 A 
ATOM     18  C   UNL     1      -3.741   1.112   1.420  1.00  0.00     0.317 A 
ATOM     19  C   UNL     1      -4.473  -0.445  -0.290  1.00  0.00    -0.028 A 
ATOM     20  N   UNL     1      -5.027   1.254   1.837  1.00  0.00    -0.186 N 
ATOM     21  C   UNL     1      -5.790  -0.259   0.155  1.00  0.00     0.118 A 
ATOM     22  C   UNL     1      -6.048   0.596   1.227  1.00  0.00     0.358 A 
ATOM     23  C   UNL     1      -4.217  -1.392  -1.433  1.00  0.00     0.045 C 
ATOM     24  H   UNL     1      -5.235   1.888   2.640  1.00  0.00     0.456 HD
ATOM     25  F   UNL     1      -7.321   0.767   1.662  1.00  0.00    -0.136 F 
ENDBRANCH  13  17
ENDBRANCH   5   6
ENDBRANCH   1   5
TORSDOF 5


