REMARK SMILES Cc1ccc([NH2+]c2cccc(N=[N+]=[N-])c2O)cc1
REMARK SMILES IDX 15 1 11 2 10 3 9 4 8 5 7 6 16 7 12 9 13 10 14 11 6 12 5 15
REMARK SMILES IDX 4 16 17 17 3 18 18 19 2 20 1 21
REMARK H PARENT 16 8 6 13 6 14
ROOT
ATOM      1  C   UNL     1       0.498  -1.220  -2.248  1.00  0.00     0.187 A 
ATOM      2  C   UNL     1       0.854  -0.487  -3.409  1.00  0.00     0.086 A 
ATOM      3  C   UNL     1       2.030   0.271  -3.413  1.00  0.00     0.014 A 
ATOM      4  C   UNL     1       2.851   0.318  -2.291  1.00  0.00     0.007 A 
ATOM      5  C   UNL     1       2.508  -0.392  -1.144  1.00  0.00     0.072 A 
ATOM      6  C   UNL     1       1.335  -1.168  -1.099  1.00  0.00     0.177 A 
ENDROOT
BRANCH   1   7
ATOM      7  O   UNL     1      -0.672  -1.983  -2.257  1.00  0.00    -0.502 OA
ATOM      8  H   UNL     1      -0.979  -2.555  -1.485  1.00  0.00     0.293 HD
ENDBRANCH   1   7
BRANCH   2   9
ATOM      9  N   UNL     1       0.061  -0.481  -4.609  1.00  0.00    -0.057 NA
BRANCH   9  10
ATOM     10  N   UNL     1      -1.000  -1.095  -4.730  1.00  0.00     0.005 N 
ATOM     11  N   UNL     1      -2.061  -1.705  -4.858  1.00  0.00    -0.003 NA
ENDBRANCH   9  10
ENDBRANCH   2   9
BRANCH   6  12
ATOM     12  N   UNL     1       1.000  -1.867   0.125  1.00  0.00    -0.278 N 
ATOM     13  H   UNL     1       1.843  -1.952   0.740  1.00  0.00     0.358 HD
ATOM     14  H   UNL     1       0.711  -2.847  -0.097  1.00  0.00     0.358 HD
BRANCH  12  15
ATOM     15  C   UNL     1      -0.021  -1.159   0.863  1.00  0.00     0.134 A 
ATOM     16  C   UNL     1       0.214   0.145   1.340  1.00  0.00     0.068 A 
ATOM     17  C   UNL     1      -1.244  -1.783   1.172  1.00  0.00     0.068 A 
ATOM     18  C   UNL     1      -0.765   0.821   2.072  1.00  0.00     0.009 A 
ATOM     19  C   UNL     1      -2.222  -1.105   1.905  1.00  0.00     0.009 A 
ATOM     20  C   UNL     1      -1.984   0.197   2.369  1.00  0.00    -0.051 A 
ATOM     21  C   UNL     1      -3.050   0.937   3.122  1.00  0.00     0.044 C 
ENDBRANCH  12  15
ENDBRANCH   6  12
TORSDOF 5


