REMARK SMILES CC(C)(C)COC(=O)N(c1ccc2cc[nH]c2c1)c1c2o[nH]cc-2cc(-n2nc3ccccc3n2)c1=O
REMARK SMILES IDX 6 1 5 2 2 3 1 4 3 5 4 6 7 7 8 8 9 9 10 10 11 11 18 12 12 13
REMARK SMILES IDX 17 14 13 15 16 16 14 17 15 18 19 20 20 21 36 22 21 23 24 24
REMARK SMILES IDX 26 25 22 26 23 27 25 28 37 29 27 31 28 32 35 33 29 34 34 35
REMARK SMILES IDX 30 36 33 37 31 38 32 39
REMARK H PARENT 16 19 22 30
ROOT
ATOM      1  O   UNL     1       0.403  -2.320  -0.772  1.00  0.00    -0.448 OA
ENDROOT
BRANCH   1   2
ATOM      2  C   UNL     1       1.074  -3.372  -1.460  1.00  0.00     0.241 C 
BRANCH   2   3
ATOM      3  C   UNL     1       2.578  -3.378  -1.105  1.00  0.00    -0.004 C 
ATOM      4  C   UNL     1       3.272  -4.529  -1.863  1.00  0.00     0.014 C 
ATOM      5  C   UNL     1       3.223  -2.038  -1.519  1.00  0.00     0.014 C 
ATOM      6  C   UNL     1       2.757  -3.589   0.412  1.00  0.00     0.014 C 
ENDBRANCH   2   3
ENDBRANCH   1   2
BRANCH   1   7
ATOM      7  C   UNL     1      -0.965  -2.067  -0.919  1.00  0.00     0.419 C 
ATOM      8  O   UNL     1      -1.676  -2.821  -1.641  1.00  0.00    -0.224 OA
BRANCH   7   9
ATOM      9  N   UNL     1      -1.557  -0.953  -0.227  1.00  0.00    -0.238 N 
BRANCH   9  10
ATOM     10  C   UNL     1      -2.850  -0.429  -0.601  1.00  0.00     0.055 A 
ATOM     11  C   UNL     1      -3.211  -0.318  -1.969  1.00  0.00     0.027 A 
ATOM     12  C   UNL     1      -3.772  -0.023   0.397  1.00  0.00     0.053 A 
ATOM     13  C   UNL     1      -4.476   0.169  -2.343  1.00  0.00     0.012 A 
ATOM     14  C   UNL     1      -5.014   0.459  -0.011  1.00  0.00     0.047 A 
ATOM     15  C   UNL     1      -5.353   0.548  -1.333  1.00  0.00    -0.000 A 
ATOM     16  N   UNL     1      -6.026   0.873   0.770  1.00  0.00    -0.361 N 
ATOM     17  C   UNL     1      -6.638   1.041  -1.397  1.00  0.00     0.028 A 
ATOM     18  C   UNL     1      -7.024   1.226  -0.073  1.00  0.00     0.083 A 
ATOM     19  H   UNL     1      -6.046   0.913   1.813  1.00  0.00     0.166 HD
ENDBRANCH   9  10
BRANCH   9  20
ATOM     20  C   UNL     1      -0.844  -0.378   0.878  1.00  0.00     0.148 A 
ATOM     21  C   UNL     1      -0.700  -1.076   2.069  1.00  0.00     0.192 A 
ATOM     22  C   UNL     1      -0.243   0.901   0.789  1.00  0.00     0.234 A 
ATOM     23  O   UNL     1      -1.143  -2.259   2.412  1.00  0.00    -0.380 OA
ATOM     24  C   UNL     1       0.008  -0.525   3.173  1.00  0.00     0.044 A 
ATOM     25  C   UNL     1       0.494   1.452   1.892  1.00  0.00     0.136 A 
ATOM     26  N   UNL     1      -0.786  -2.526   3.642  1.00  0.00    -0.229 N 
ATOM     27  C   UNL     1      -0.077  -1.490   4.151  1.00  0.00     0.132 A 
ATOM     28  C   UNL     1       0.604   0.722   3.106  1.00  0.00     0.048 A 
ATOM     29  O   UNL     1      -0.358   1.548  -0.288  1.00  0.00    -0.285 OA
ATOM     30  H   UNL     1      -1.020  -3.409   4.146  1.00  0.00     0.208 HD
BRANCH  25  31
ATOM     31  N   UNL     1       1.154   2.732   1.784  1.00  0.00    -0.146 N 
ATOM     32  N   UNL     1       1.818   3.302   2.792  1.00  0.00    -0.148 NA
ATOM     33  N   UNL     1       1.210   3.455   0.664  1.00  0.00    -0.148 NA
ATOM     34  C   UNL     1       2.311   4.441   2.285  1.00  0.00     0.113 A 
ATOM     35  C   UNL     1       1.939   4.535   0.982  1.00  0.00     0.113 A 
ATOM     36  C   UNL     1       3.099   5.407   2.904  1.00  0.00     0.032 A 
ATOM     37  C   UNL     1       2.320   5.603   0.176  1.00  0.00     0.032 A 
ATOM     38  C   UNL     1       3.506   6.508   2.123  1.00  0.00     0.002 A 
ATOM     39  C   UNL     1       3.119   6.605   0.764  1.00  0.00     0.002 A 
ENDBRANCH  25  31
ENDBRANCH   9  20
ENDBRANCH   7   9
ENDBRANCH   1   7
TORSDOF 7


