REMARK SMILES O=C(C(=O)c1cc2cc(-c3[nH+]cncc3F)[nH]c2cc1F)c1ccccc1
REMARK SMILES IDX 5 1 6 2 7 3 8 4 9 5 17 6 18 7 19 8 20 9 21 10 3 12 4 13 2 14
REMARK SMILES IDX 1 15 22 16 23 17 27 18 24 19 26 20 25 21 10 22 11 23 15 24
REMARK SMILES IDX 12 25 14 26 13 27 16 29
REMARK H PARENT 17 11 11 28
ROOT
ATOM      1  C   UNL     1      -1.120  -1.176   0.343  1.00  0.00     0.063 A 
ATOM      2  C   UNL     1      -0.503  -0.845  -0.884  1.00  0.00     0.025 A 
ATOM      3  C   UNL     1      -0.206   0.493  -1.131  1.00  0.00     0.001 A 
ATOM      4  C   UNL     1       0.383   1.093  -2.222  1.00  0.00     0.041 A 
ATOM      5  C   UNL     1       0.417   2.453  -1.914  1.00  0.00     0.090 A 
ATOM      6  N   UNL     1      -0.133   2.682  -0.695  1.00  0.00    -0.351 N 
ATOM      7  C   UNL     1      -0.505   1.478  -0.231  1.00  0.00     0.049 A 
ATOM      8  C   UNL     1      -1.135   1.197   0.979  1.00  0.00     0.066 A 
ATOM      9  C   UNL     1      -1.450  -0.144   1.265  1.00  0.00     0.136 A 
ATOM     10  F   UNL     1      -2.115  -0.429   2.413  1.00  0.00    -0.206 F 
ATOM     11  H   UNL     1      -0.282   3.601  -0.223  1.00  0.00     0.167 HD
ENDROOT
BRANCH   1  12
ATOM     12  C   UNL     1      -1.451  -2.589   0.622  1.00  0.00     0.236 C 
ATOM     13  O   UNL     1      -2.065  -3.247  -0.261  1.00  0.00    -0.285 OA
BRANCH  12  14
ATOM     14  C   UNL     1      -1.069  -3.239   1.901  1.00  0.00     0.233 C 
ATOM     15  O   UNL     1      -0.455  -2.570   2.775  1.00  0.00    -0.285 OA
BRANCH  14  16
ATOM     16  C   UNL     1      -1.388  -4.656   2.192  1.00  0.00     0.026 A 
ATOM     17  C   UNL     1      -1.242  -5.655   1.212  1.00  0.00     0.012 A 
ATOM     18  C   UNL     1      -1.800  -5.024   3.485  1.00  0.00     0.012 A 
ATOM     19  C   UNL     1      -1.532  -6.990   1.514  1.00  0.00     0.001 A 
ATOM     20  C   UNL     1      -2.090  -6.359   3.782  1.00  0.00     0.001 A 
ATOM     21  C   UNL     1      -1.959  -7.341   2.797  1.00  0.00     0.000 A 
ENDBRANCH  14  16
ENDBRANCH  12  14
ENDBRANCH   1  12
BRANCH   5  22
ATOM     22  C   UNL     1       0.948   3.512  -2.805  1.00  0.00     0.188 A 
ATOM     23  N   UNL     1       0.881   3.358  -4.160  1.00  0.00    -0.239 N 
ATOM     24  C   UNL     1       1.534   4.676  -2.280  1.00  0.00     0.215 A 
ATOM     25  C   UNL     1       1.358   4.314  -5.001  1.00  0.00     0.449 A 
ATOM     26  C   UNL     1       2.017   5.640  -3.163  1.00  0.00     0.297 A 
ATOM     27  N   UNL     1       1.919   5.444  -4.502  1.00  0.00    -0.054 NA
ATOM     28  H   UNL     1       0.441   2.507  -4.577  1.00  0.00     0.312 HD
ATOM     29  F   UNL     1       1.684   4.862  -0.944  1.00  0.00    -0.198 F 
ENDBRANCH   5  22
TORSDOF 4


