REMARK SMILES CC(=O)c1c(-c2cccc3[nH+]coc23)cc(/C(O)=N/[C@@H]2C=CCC2)c(F)c1[O-]
REMARK SMILES IDX 16 1 15 2 5 3 4 4 27 5 28 6 25 7 26 8 17 9 18 10 19 12 20 13
REMARK SMILES IDX 21 14 24 15 22 16 23 17 6 18 7 19 14 20 8 21 10 22 13 23
REMARK SMILES IDX 9 24 11 25 12 26 2 28 3 29 1 30
REMARK H PARENT 18 11 11 27
ROOT
ATOM      1  C   UNL     1      -0.657  -0.874   1.083  1.00  0.00     0.072 A 
ATOM      2  C   UNL     1       0.401  -0.739   0.169  1.00  0.00     0.026 A 
ATOM      3  C   UNL     1       0.378   0.242  -0.835  1.00  0.00    -0.003 A 
ATOM      4  C   UNL     1      -0.716   1.139  -0.912  1.00  0.00     0.020 A 
ATOM      5  C   UNL     1      -1.782   0.998  -0.004  1.00  0.00    -0.059 A 
ATOM      6  O   UNL     1      -2.871   1.863  -0.058  1.00  0.00    -0.870 OA
ATOM      7  C   UNL     1      -1.756   0.003   0.979  1.00  0.00     0.128 A 
ATOM      8  F   UNL     1      -2.807  -0.084   1.835  1.00  0.00    -0.207 F 
ENDROOT
BRANCH   1   9
ATOM      9  C   UNL     1      -0.590  -1.935   2.124  1.00  0.00     0.217 C 
BRANCH   9  10
ATOM     10  O   UNL     1       0.550  -2.744   2.193  1.00  0.00    -0.493 OA
ATOM     11  H   UNL     1       0.669  -3.485   2.872  1.00  0.00     0.295 HD
ENDBRANCH   9  10
BRANCH   9  12
ATOM     12  N   UNL     1      -1.584  -2.100   2.952  1.00  0.00    -0.244 NA
BRANCH  12  13
ATOM     13  C   UNL     1      -1.655  -3.093   4.024  1.00  0.00     0.132 C 
ATOM     14  C   UNL     1      -3.021  -3.082   4.610  1.00  0.00    -0.005 C 
ATOM     15  C   UNL     1      -0.737  -2.722   5.203  1.00  0.00     0.036 C 
ATOM     16  C   UNL     1      -3.022  -2.743   5.887  1.00  0.00    -0.029 C 
ATOM     17  C   UNL     1      -1.657  -2.458   6.398  1.00  0.00     0.029 C 
ENDBRANCH  12  13
ENDBRANCH   9  12
ENDBRANCH   1   9
BRANCH   3  18
ATOM     18  C   UNL     1       1.485   0.262  -1.817  1.00  0.00     0.032 A 
ATOM     19  C   UNL     1       2.829   0.413  -1.404  1.00  0.00     0.013 A 
ATOM     20  C   UNL     1       1.255   0.103  -3.187  1.00  0.00     0.212 A 
ATOM     21  C   UNL     1       3.877   0.424  -2.354  1.00  0.00     0.008 A 
ATOM     22  C   UNL     1       2.268   0.115  -4.098  1.00  0.00     0.249 A 
ATOM     23  O   UNL     1       0.120  -0.076  -3.820  1.00  0.00    -0.403 OA
ATOM     24  C   UNL     1       3.599   0.275  -3.726  1.00  0.00     0.083 A 
ATOM     25  N   UNL     1       1.758  -0.057  -5.326  1.00  0.00    -0.176 N 
ATOM     26  C   UNL     1       0.426  -0.170  -5.105  1.00  0.00     0.521 A 
ATOM     27  H   UNL     1       2.264  -0.098  -6.238  1.00  0.00     0.457 HD
ENDBRANCH   3  18
BRANCH   4  28
ATOM     28  C   UNL     1      -0.752   2.250  -1.895  1.00  0.00     0.159 C 
ATOM     29  O   UNL     1      -1.784   2.426  -2.596  1.00  0.00    -0.295 OA
ATOM     30  C   UNL     1       0.406   3.186  -2.065  1.00  0.00     0.093 C 
ENDBRANCH   4  28
TORSDOF 6


