REMARK SMILES Nc1cc(NC2CC(=O)C2)c(C=O)cc1-c1ccc2c(c1)[N-]C(=O)C2
REMARK SMILES IDX 2 1 3 2 4 3 11 4 14 5 15 6 1 7 16 10 17 11 21 12 18 13 20 14
REMARK SMILES IDX 19 15 22 16 25 17 23 18 24 19 5 20 6 22 7 23 10 24 8 25 9 26
REMARK SMILES IDX 12 27 13 28
REMARK H PARENT 1 8 1 9 5 21
ROOT
ATOM      1  C   UNL     1       0.762   0.317  -0.270  1.00  0.00     0.041 A 
ATOM      2  C   UNL     1      -0.106  -0.326  -1.162  1.00  0.00     0.052 A 
ATOM      3  C   UNL     1      -1.359  -0.807  -0.744  1.00  0.00     0.047 A 
ATOM      4  C   UNL     1      -1.734  -0.664   0.615  1.00  0.00     0.038 A 
ATOM      5  C   UNL     1      -0.876   0.010   1.497  1.00  0.00     0.024 A 
ATOM      6  C   UNL     1       0.362   0.511   1.070  1.00  0.00     0.005 A 
ENDROOT
BRANCH   1   7
ATOM      7  N   UNL     1       2.052   0.737  -0.738  1.00  0.00    -0.398 N 
ATOM      8  H   UNL     1       2.308   0.640  -1.746  1.00  0.00     0.156 HD
ATOM      9  H   UNL     1       2.792   1.078  -0.087  1.00  0.00     0.156 HD
ENDBRANCH   1   7
BRANCH   6  10
ATOM     10  C   UNL     1       1.206   1.243   2.041  1.00  0.00    -0.018 A 
ATOM     11  C   UNL     1       1.611   0.617   3.243  1.00  0.00     0.009 A 
ATOM     12  C   UNL     1       1.574   2.583   1.793  1.00  0.00    -0.007 A 
ATOM     13  C   UNL     1       2.393   1.310   4.181  1.00  0.00     0.003 A 
ATOM     14  C   UNL     1       2.351   3.248   2.740  1.00  0.00    -0.130 A 
ATOM     15  C   UNL     1       2.752   2.628   3.903  1.00  0.00    -0.057 A 
ATOM     16  N   UNL     1       2.808   4.586   2.643  1.00  0.00    -0.626 NA
ATOM     17  C   UNL     1       3.563   3.557   4.737  1.00  0.00     0.089 C 
ATOM     18  C   UNL     1       3.540   4.767   3.854  1.00  0.00     0.059 C 
ATOM     19  O   UNL     1       4.111   5.851   4.141  1.00  0.00    -0.320 OA
ENDBRANCH   6  10
BRANCH   3  20
ATOM     20  N   UNL     1      -2.262  -1.387  -1.705  1.00  0.00    -0.381 N 
ATOM     21  H   UNL     1      -3.284  -1.197  -1.603  1.00  0.00     0.160 HD
BRANCH  20  22
ATOM     22  C   UNL     1      -1.802  -2.122  -2.889  1.00  0.00     0.094 C 
ATOM     23  C   UNL     1      -1.044  -3.370  -2.540  1.00  0.00     0.100 C 
ATOM     24  C   UNL     1      -2.854  -3.024  -3.470  1.00  0.00     0.100 C 
ATOM     25  C   UNL     1      -2.092  -4.293  -3.133  1.00  0.00     0.137 C 
ATOM     26  O   UNL     1      -2.249  -5.495  -3.274  1.00  0.00    -0.300 OA
ENDBRANCH  20  22
ENDBRANCH   3  20
BRANCH   4  27
ATOM     27  C   UNL     1      -2.982  -1.231   1.172  1.00  0.00     0.262 C 
ATOM     28  O   UNL     1      -3.592  -2.176   0.607  1.00  0.00    -0.298 OA
ENDBRANCH   4  27
TORSDOF 5


