REMARK SMILES C=Cc1ccc([C@@H]2CCC[C@@]3(Cl)C=CO[C@@H]23)[nH+]c1
REMARK SMILES IDX 3 1 4 2 5 3 6 4 17 5 18 6 2 8 1 9 7 10 8 11 16 12 9 13 15 14
REMARK SMILES IDX 11 15 10 16 14 17 13 18 12 19
REMARK H PARENT 17 7
ROOT
ATOM      1  C   UNL     1       3.067   0.254   0.577  1.00  0.00     0.038 A 
ATOM      2  C   UNL     1       2.205   1.018   1.383  1.00  0.00     0.021 A 
ATOM      3  C   UNL     1       0.831   0.781   1.361  1.00  0.00     0.075 A 
ATOM      4  C   UNL     1       0.308  -0.220   0.530  1.00  0.00     0.186 A 
ATOM      5  N   UNL     1       1.159  -0.944  -0.258  1.00  0.00    -0.214 N 
ATOM      6  C   UNL     1       2.502  -0.727  -0.251  1.00  0.00     0.314 A 
ATOM      7  H   UNL     1       0.788  -1.686  -0.891  1.00  0.00     0.453 HD
ENDROOT
BRANCH   1   8
ATOM      8  C   UNL     1       4.536   0.459   0.544  1.00  0.00     0.006 C 
ATOM      9  C   UNL     1       5.221   1.137   1.466  1.00  0.00     0.009 C 
ENDBRANCH   1   8
BRANCH   4  10
ATOM     10  C   UNL     1      -1.188  -0.475   0.501  1.00  0.00     0.128 C 
ATOM     11  C   UNL     1      -1.518  -1.925   0.907  1.00  0.00     0.019 C 
ATOM     12  C   UNL     1      -1.782  -0.164  -0.890  1.00  0.00     0.211 C 
ATOM     13  C   UNL     1      -3.036  -2.221   0.910  1.00  0.00     0.003 C 
ATOM     14  O   UNL     1      -1.785   1.239  -1.121  1.00  0.00    -0.495 OA
ATOM     15  C   UNL     1      -3.277  -0.579  -1.034  1.00  0.00     0.103 C 
ATOM     16  C   UNL     1      -3.893  -1.110   0.278  1.00  0.00     0.031 C 
ATOM     17  C   UNL     1      -3.050   1.685  -1.449  1.00  0.00     0.185 C 
ATOM     18  C   UNL     1      -3.931   0.707  -1.428  1.00  0.00     0.038 C 
ATOM     19  Cl  UNL     1      -3.494  -1.773  -2.351  1.00  0.00    -0.111 Cl
ENDBRANCH   4  10
TORSDOF 2


