MODEL 1
REMARK VINA RESULT:      -9.2      0.000      0.000
REMARK SMILES Cn1cnc2cc(-c3ccc(CC[NH3+])cc3)cnc21
REMARK SMILES IDX 12 1 11 2 8 3 9 4 16 5 10 6 15 7 7 8 2 9 3 10 19 11 4 12
REMARK SMILES IDX 18 13 5 14 17 15 6 16 1 17 13 18 14 19
REMARK H PARENT 14 20 14 21 14 22
ROOT
ATOM      1  C   UNL     1      46.635 130.774  13.412  1.00  0.00     0.096 C 
ENDROOT
BRANCH   1   2
ATOM      2  C   UNL     1      46.232 130.850  14.862  1.00  0.00    -0.042 A 
ATOM      3  C   UNL     1      45.430 130.969  17.564  1.00  0.00    -0.017 A 
ATOM      4  C   UNL     1      45.961 129.783  17.028  1.00  0.00     0.009 A 
ATOM      5  C   UNL     1      45.302 132.094  16.729  1.00  0.00     0.009 A 
ATOM      6  C   UNL     1      46.355 129.723  15.688  1.00  0.00     0.004 A 
ATOM      7  C   UNL     1      45.698 132.034  15.391  1.00  0.00     0.004 A 
BRANCH   3   8
ATOM      8  C   UNL     1      45.008 131.032  18.987  1.00  0.00     0.002 A 
ATOM      9  N   UNL     1      43.717 131.275  22.841  1.00  0.00    -0.318 N 
ATOM     10  C   UNL     1      42.584 131.983  22.604  1.00  0.00     0.201 A 
ATOM     11  C   UNL     1      44.262 131.122  21.630  1.00  0.00     0.159 A 
ATOM     12  N   UNL     1      42.412 132.296  21.289  1.00  0.00    -0.235 NA
ATOM     13  N   UNL     1      45.395 130.450  21.312  1.00  0.00    -0.236 NA
ATOM     14  C   UNL     1      43.489 131.739  20.704  1.00  0.00     0.108 A 
ATOM     15  C   UNL     1      45.780 130.396  20.002  1.00  0.00     0.122 A 
ATOM     16  C   UNL     1      43.828 131.721  19.357  1.00  0.00     0.042 A 
ATOM     17  C   UNL     1      44.155 130.696  24.105  1.00  0.00     0.153 C 
ENDBRANCH   3   8
ENDBRANCH   1   2
BRANCH   1  18
ATOM     18  C   UNL     1      48.155 130.616  13.248  1.00  0.00     0.263 C 
BRANCH  18  19
ATOM     19  N   UNL     1      48.578 129.221  13.390  1.00  0.00    -0.357 N 
ATOM     20  H   UNL     1      49.619 129.172  13.311  1.00  0.00     0.344 HD
ATOM     21  H   UNL     1      48.154 128.635  12.635  1.00  0.00     0.344 HD
ATOM     22  H   UNL     1      48.298 128.852  14.327  1.00  0.00     0.344 HD
ENDBRANCH  18  19
ENDBRANCH   1  18
TORSDOF 4
ENDMDL
MODEL 2
REMARK VINA RESULT:      -8.7      0.269      1.143
REMARK SMILES Cn1cnc2cc(-c3ccc(CC[NH3+])cc3)cnc21
REMARK SMILES IDX 12 1 11 2 8 3 9 4 16 5 10 6 15 7 7 8 2 9 3 10 19 11 4 12
REMARK SMILES IDX 18 13 5 14 17 15 6 16 1 17 13 18 14 19
REMARK H PARENT 14 20 14 21 14 22
ROOT
ATOM      1  C   UNL     1      46.839 130.991  13.425  1.00  0.00     0.096 C 
ENDROOT
BRANCH   1   2
ATOM      2  C   UNL     1      46.355 130.991  14.851  1.00  0.00    -0.042 A 
ATOM      3  C   UNL     1      45.495 131.013  17.539  1.00  0.00    -0.017 A 
ATOM      4  C   UNL     1      45.406 132.174  16.750  1.00  0.00     0.009 A 
ATOM      5  C   UNL     1      46.023 129.841  16.965  1.00  0.00     0.009 A 
ATOM      6  C   UNL     1      45.836 132.164  15.420  1.00  0.00     0.004 A 
ATOM      7  C   UNL     1      46.450 129.832  15.635  1.00  0.00     0.004 A 
BRANCH   3   8
ATOM      8  C   UNL     1      45.042 131.024  18.953  1.00  0.00     0.002 A 
ATOM      9  N   UNL     1      43.669 131.141  22.785  1.00  0.00    -0.318 N 
ATOM     10  C   UNL     1      42.595 131.940  22.563  1.00  0.00     0.201 A 
ATOM     11  C   UNL     1      44.233 131.018  21.579  1.00  0.00     0.159 A 
ATOM     12  N   UNL     1      42.480 132.339  21.266  1.00  0.00    -0.235 NA
ATOM     13  N   UNL     1      45.324 130.286  21.249  1.00  0.00    -0.236 NA
ATOM     14  C   UNL     1      43.531 131.741  20.674  1.00  0.00     0.108 A 
ATOM     15  C   UNL     1      45.739 130.279  19.946  1.00  0.00     0.122 A 
ATOM     16  C   UNL     1      43.903 131.774  19.336  1.00  0.00     0.042 A 
ATOM     17  C   UNL     1      44.031 130.462  24.022  1.00  0.00     0.153 C 
ENDBRANCH   3   8
ENDBRANCH   1   2
BRANCH   1  18
ATOM     18  C   UNL     1      48.127 130.169  13.257  1.00  0.00     0.263 C 
BRANCH  18  19
ATOM     19  N   UNL     1      48.105 128.950  14.069  1.00  0.00    -0.357 N 
ATOM     20  H   UNL     1      47.260 128.389  13.816  1.00  0.00     0.344 HD
ATOM     21  H   UNL     1      48.058 129.192  15.085  1.00  0.00     0.344 HD
ATOM     22  H   UNL     1      48.956 128.373  13.878  1.00  0.00     0.344 HD
ENDBRANCH  18  19
ENDBRANCH   1  18
TORSDOF 4
ENDMDL
MODEL 3
REMARK VINA RESULT:      -8.0      0.929      2.014
REMARK SMILES Cn1cnc2cc(-c3ccc(CC[NH3+])cc3)cnc21
REMARK SMILES IDX 12 1 11 2 8 3 9 4 16 5 10 6 15 7 7 8 2 9 3 10 19 11 4 12
REMARK SMILES IDX 18 13 5 14 17 15 6 16 1 17 13 18 14 19
REMARK H PARENT 14 20 14 21 14 22
ROOT
ATOM      1  C   UNL     1      46.591 130.783  13.105  1.00  0.00     0.096 C 
ENDROOT
BRANCH   1   2
ATOM      2  C   UNL     1      45.992 130.950  14.477  1.00  0.00    -0.042 A 
ATOM      3  C   UNL     1      44.916 131.245  17.069  1.00  0.00    -0.017 A 
ATOM      4  C   UNL     1      45.708 132.260  16.503  1.00  0.00     0.009 A 
ATOM      5  C   UNL     1      44.673 130.078  16.321  1.00  0.00     0.009 A 
ATOM      6  C   UNL     1      46.243 132.112  15.221  1.00  0.00     0.004 A 
ATOM      7  C   UNL     1      45.207 129.932  15.039  1.00  0.00     0.004 A 
BRANCH   3   8
ATOM      8  C   UNL     1      44.350 131.401  18.432  1.00  0.00     0.002 A 
ATOM      9  N   UNL     1      42.942 131.802  22.233  1.00  0.00    -0.318 N 
ATOM     10  C   UNL     1      44.089 131.477  22.881  1.00  0.00     0.201 A 
ATOM     11  C   UNL     1      43.264 131.705  20.939  1.00  0.00     0.159 A 
ATOM     12  N   UNL     1      45.111 131.159  22.038  1.00  0.00    -0.235 NA
ATOM     13  N   UNL     1      42.474 131.964  19.869  1.00  0.00    -0.236 NA
ATOM     14  C   UNL     1      44.555 131.311  20.822  1.00  0.00     0.108 A 
ATOM     15  C   UNL     1      42.999 131.817  18.615  1.00  0.00     0.122 A 
ATOM     16  C   UNL     1      45.145 131.143  19.575  1.00  0.00     0.042 A 
ATOM     17  C   UNL     1      41.697 132.285  22.816  1.00  0.00     0.153 C 
ENDBRANCH   3   8
ENDBRANCH   1   2
BRANCH   1  18
ATOM     18  C   UNL     1      48.076 130.392  13.172  1.00  0.00     0.263 C 
BRANCH  18  19
ATOM     19  N   UNL     1      48.272 129.113  13.859  1.00  0.00    -0.357 N 
ATOM     20  H   UNL     1      48.548 128.390  13.156  1.00  0.00     0.344 HD
ATOM     21  H   UNL     1      47.385 128.811  14.323  1.00  0.00     0.344 HD
ATOM     22  H   UNL     1      49.036 129.196  14.568  1.00  0.00     0.344 HD
ENDBRANCH  18  19
ENDBRANCH   1  18
TORSDOF 4
ENDMDL
MODEL 4
REMARK VINA RESULT:      -7.9      0.875      2.005
REMARK SMILES Cn1cnc2cc(-c3ccc(CC[NH3+])cc3)cnc21
REMARK SMILES IDX 12 1 11 2 8 3 9 4 16 5 10 6 15 7 7 8 2 9 3 10 19 11 4 12
REMARK SMILES IDX 18 13 5 14 17 15 6 16 1 17 13 18 14 19
REMARK H PARENT 14 20 14 21 14 22
ROOT
ATOM      1  C   UNL     1      46.140 130.814  13.554  1.00  0.00     0.096 C 
ENDROOT
BRANCH   1   2
ATOM      2  C   UNL     1      45.636 130.916  14.970  1.00  0.00    -0.042 A 
ATOM      3  C   UNL     1      44.712 131.156  17.625  1.00  0.00    -0.017 A 
ATOM      4  C   UNL     1      43.968 131.691  16.557  1.00  0.00     0.009 A 
ATOM      5  C   UNL     1      45.926 130.502  17.346  1.00  0.00     0.009 A 
ATOM      6  C   UNL     1      44.428 131.575  15.243  1.00  0.00     0.004 A 
ATOM      7  C   UNL     1      46.383 130.385  16.031  1.00  0.00     0.004 A 
BRANCH   3   8
ATOM      8  C   UNL     1      44.225 131.282  19.022  1.00  0.00     0.002 A 
ATOM      9  N   UNL     1      43.020 131.551  22.903  1.00  0.00    -0.318 N 
ATOM     10  C   UNL     1      44.029 130.828  23.451  1.00  0.00     0.201 A 
ATOM     11  C   UNL     1      43.291 131.541  21.594  1.00  0.00     0.159 A 
ATOM     12  N   UNL     1      44.909 130.348  22.529  1.00  0.00    -0.235 NA
ATOM     13  N   UNL     1      42.602 132.158  20.603  1.00  0.00    -0.236 NA
ATOM     14  C   UNL     1      44.413 130.815  21.369  1.00  0.00     0.108 A 
ATOM     15  C   UNL     1      43.054 132.038  19.318  1.00  0.00     0.122 A 
ATOM     16  C   UNL     1      44.920 130.656  20.085  1.00  0.00     0.042 A 
ATOM     17  C   UNL     1      41.972 132.286  23.600  1.00  0.00     0.153 C 
ENDBRANCH   3   8
ENDBRANCH   1   2
BRANCH   1  18
ATOM     18  C   UNL     1      47.667 130.973  13.477  1.00  0.00     0.263 C 
BRANCH  18  19
ATOM     19  N   UNL     1      48.342 129.683  13.316  1.00  0.00    -0.357 N 
ATOM     20  H   UNL     1      49.157 129.804  12.673  1.00  0.00     0.344 HD
ATOM     21  H   UNL     1      47.687 128.980  12.902  1.00  0.00     0.344 HD
ATOM     22  H   UNL     1      48.694 129.341  14.239  1.00  0.00     0.344 HD
ENDBRANCH  18  19
ENDBRANCH   1  18
TORSDOF 4
ENDMDL
MODEL 5
REMARK VINA RESULT:      -7.7      1.503      7.623
REMARK SMILES Cn1cnc2cc(-c3ccc(CC[NH3+])cc3)cnc21
REMARK SMILES IDX 12 1 11 2 8 3 9 4 16 5 10 6 15 7 7 8 2 9 3 10 19 11 4 12
REMARK SMILES IDX 18 13 5 14 17 15 6 16 1 17 13 18 14 19
REMARK H PARENT 14 20 14 21 14 22
ROOT
ATOM      1  C   UNL     1      42.190 132.184  21.735  1.00  0.00     0.096 C 
ENDROOT
BRANCH   1   2
ATOM      2  C   UNL     1      43.020 131.977  20.494  1.00  0.00    -0.042 A 
ATOM      3  C   UNL     1      44.558 131.537  18.170  1.00  0.00    -0.017 A 
ATOM      4  C   UNL     1      43.187 131.837  18.074  1.00  0.00     0.009 A 
ATOM      5  C   UNL     1      45.148 131.457  19.444  1.00  0.00     0.009 A 
ATOM      6  C   UNL     1      42.425 132.051  19.226  1.00  0.00     0.004 A 
ATOM      7  C   UNL     1      44.386 131.673  20.594  1.00  0.00     0.004 A 
BRANCH   3   8
ATOM      8  C   UNL     1      45.366 131.306  16.946  1.00  0.00     0.002 A 
ATOM      9  N   UNL     1      47.584 130.517  13.623  1.00  0.00    -0.318 N 
ATOM     10  C   UNL     1      47.760 129.189  13.838  1.00  0.00     0.201 A 
ATOM     11  C   UNL     1      46.856 130.921  14.669  1.00  0.00     0.159 A 
ATOM     12  N   UNL     1      47.185 128.752  14.994  1.00  0.00    -0.235 NA
ATOM     13  N   UNL     1      46.378 132.165  14.912  1.00  0.00    -0.236 NA
ATOM     14  C   UNL     1      46.626 129.870  15.493  1.00  0.00     0.108 A 
ATOM     15  C   UNL     1      45.635 132.373  16.041  1.00  0.00     0.122 A 
ATOM     16  C   UNL     1      45.880 130.019  16.655  1.00  0.00     0.042 A 
ATOM     17  C   UNL     1      47.977 131.287  12.448  1.00  0.00     0.153 C 
ENDBRANCH   3   8
ENDBRANCH   1   2
BRANCH   1  18
ATOM     18  C   UNL     1      42.984 131.874  23.013  1.00  0.00     0.263 C 
BRANCH  18  19
ATOM     19  N   UNL     1      42.502 130.657  23.673  1.00  0.00    -0.357 N 
ATOM     20  H   UNL     1      42.814 130.666  24.670  1.00  0.00     0.344 HD
ATOM     21  H   UNL     1      42.896 129.810  23.203  1.00  0.00     0.344 HD
ATOM     22  H   UNL     1      41.458 130.624  23.652  1.00  0.00     0.344 HD
ENDBRANCH  18  19
ENDBRANCH   1  18
TORSDOF 4
ENDMDL
MODEL 6
REMARK VINA RESULT:      -7.6      0.800      1.717
REMARK SMILES Cn1cnc2cc(-c3ccc(CC[NH3+])cc3)cnc21
REMARK SMILES IDX 12 1 11 2 8 3 9 4 16 5 10 6 15 7 7 8 2 9 3 10 19 11 4 12
REMARK SMILES IDX 18 13 5 14 17 15 6 16 1 17 13 18 14 19
REMARK H PARENT 14 20 14 21 14 22
ROOT
ATOM      1  C   UNL     1      47.308 130.838  13.273  1.00  0.00     0.096 C 
ENDROOT
BRANCH   1   2
ATOM      2  C   UNL     1      46.672 130.952  14.634  1.00  0.00    -0.042 A 
ATOM      3  C   UNL     1      45.433 131.152  17.161  1.00  0.00    -0.017 A 
ATOM      4  C   UNL     1      45.849 129.903  16.665  1.00  0.00     0.009 A 
ATOM      5  C   UNL     1      45.642 132.299  16.374  1.00  0.00     0.009 A 
ATOM      6  C   UNL     1      46.459 129.805  15.412  1.00  0.00     0.004 A 
ATOM      7  C   UNL     1      46.254 132.199  15.122  1.00  0.00     0.004 A 
BRANCH   3   8
ATOM      8  C   UNL     1      44.782 131.256  18.492  1.00  0.00     0.002 A 
ATOM      9  N   UNL     1      43.129 131.480  22.207  1.00  0.00    -0.318 N 
ATOM     10  C   UNL     1      44.135 130.871  22.885  1.00  0.00     0.201 A 
ATOM     11  C   UNL     1      43.545 131.471  20.937  1.00  0.00     0.159 A 
ATOM     12  N   UNL     1      45.156 130.463  22.080  1.00  0.00    -0.235 NA
ATOM     13  N   UNL     1      42.916 131.997  19.857  1.00  0.00    -0.236 NA
ATOM     14  C   UNL     1      44.749 130.856  20.858  1.00  0.00     0.108 A 
ATOM     15  C   UNL     1      43.518 131.897  18.634  1.00  0.00     0.122 A 
ATOM     16  C   UNL     1      45.411 130.723  19.643  1.00  0.00     0.042 A 
ATOM     17  C   UNL     1      41.943 132.120  22.762  1.00  0.00     0.153 C 
ENDBRANCH   3   8
ENDBRANCH   1   2
BRANCH   1  18
ATOM     18  C   UNL     1      48.072 129.516  13.107  1.00  0.00     0.263 C 
BRANCH  18  19
ATOM     19  N   UNL     1      49.233 129.441  13.997  1.00  0.00    -0.357 N 
ATOM     20  H   UNL     1      50.105 129.498  13.424  1.00  0.00     0.344 HD
ATOM     21  H   UNL     1      49.231 128.534  14.519  1.00  0.00     0.344 HD
ATOM     22  H   UNL     1      49.225 130.240  14.671  1.00  0.00     0.344 HD
ENDBRANCH  18  19
ENDBRANCH   1  18
TORSDOF 4
ENDMDL
MODEL 7
REMARK VINA RESULT:      -7.5      2.110      7.407
REMARK SMILES Cn1cnc2cc(-c3ccc(CC[NH3+])cc3)cnc21
REMARK SMILES IDX 12 1 11 2 8 3 9 4 16 5 10 6 15 7 7 8 2 9 3 10 19 11 4 12
REMARK SMILES IDX 18 13 5 14 17 15 6 16 1 17 13 18 14 19
REMARK H PARENT 14 20 14 21 14 22
ROOT
ATOM      1  C   UNL     1      43.132 132.000  23.779  1.00  0.00     0.096 C 
ENDROOT
BRANCH   1   2
ATOM      2  C   UNL     1      43.552 131.759  22.352  1.00  0.00    -0.042 A 
ATOM      3  C   UNL     1      44.353 131.359  19.677  1.00  0.00    -0.017 A 
ATOM      4  C   UNL     1      45.296 131.316  20.720  1.00  0.00     0.009 A 
ATOM      5  C   UNL     1      43.004 131.609  19.991  1.00  0.00     0.009 A 
ATOM      6  C   UNL     1      44.899 131.517  22.044  1.00  0.00     0.004 A 
ATOM      7  C   UNL     1      42.609 131.808  21.315  1.00  0.00     0.004 A 
BRANCH   3   8
ATOM      8  C   UNL     1      44.775 131.147  18.269  1.00  0.00     0.002 A 
ATOM      9  N   UNL     1      45.807 130.655  14.360  1.00  0.00    -0.318 N 
ATOM     10  C   UNL     1      44.736 131.283  13.814  1.00  0.00     0.201 A 
ATOM     11  C   UNL     1      45.593 130.738  15.677  1.00  0.00     0.159 A 
ATOM     12  N   UNL     1      43.848 131.738  14.742  1.00  0.00    -0.235 NA
ATOM     13  N   UNL     1      46.395 130.293  16.675  1.00  0.00    -0.236 NA
ATOM     14  C   UNL     1      44.420 131.375  15.906  1.00  0.00     0.108 A 
ATOM     15  C   UNL     1      46.002 130.488  17.969  1.00  0.00     0.122 A 
ATOM     16  C   UNL     1      43.966 131.603  17.200  1.00  0.00     0.042 A 
ATOM     17  C   UNL     1      46.984 130.141  13.670  1.00  0.00     0.153 C 
ENDBRANCH   3   8
ENDBRANCH   1   2
BRANCH   1  18
ATOM     18  C   UNL     1      42.931 130.685  24.547  1.00  0.00     0.263 C 
BRANCH  18  19
ATOM     19  N   UNL     1      41.829 129.893  23.994  1.00  0.00    -0.357 N 
ATOM     20  H   UNL     1      40.938 130.429  24.103  1.00  0.00     0.344 HD
ATOM     21  H   UNL     1      41.742 128.986  24.507  1.00  0.00     0.344 HD
ATOM     22  H   UNL     1      41.987 129.714  22.976  1.00  0.00     0.344 HD
ENDBRANCH  18  19
ENDBRANCH   1  18
TORSDOF 4
ENDMDL
MODEL 8
REMARK VINA RESULT:      -7.3      1.122      1.955
REMARK SMILES Cn1cnc2cc(-c3ccc(CC[NH3+])cc3)cnc21
REMARK SMILES IDX 12 1 11 2 8 3 9 4 16 5 10 6 15 7 7 8 2 9 3 10 19 11 4 12
REMARK SMILES IDX 18 13 5 14 17 15 6 16 1 17 13 18 14 19
REMARK H PARENT 14 20 14 21 14 22
ROOT
ATOM      1  C   UNL     1      45.852 130.931  13.909  1.00  0.00     0.096 C 
ENDROOT
BRANCH   1   2
ATOM      2  C   UNL     1      45.394 131.054  15.339  1.00  0.00    -0.042 A 
ATOM      3  C   UNL     1      44.521 131.231  18.016  1.00  0.00    -0.017 A 
ATOM      4  C   UNL     1      45.795 130.719  17.712  1.00  0.00     0.009 A 
ATOM      5  C   UNL     1      43.688 131.650  16.963  1.00  0.00     0.009 A 
ATOM      6  C   UNL     1      46.225 130.628  16.385  1.00  0.00     0.004 A 
ATOM      7  C   UNL     1      44.120 131.561  15.637  1.00  0.00     0.004 A 
BRANCH   3   8
ATOM      8  C   UNL     1      44.063 131.325  19.426  1.00  0.00     0.002 A 
ATOM      9  N   UNL     1      42.935 131.496  23.335  1.00  0.00    -0.318 N 
ATOM     10  C   UNL     1      43.904 130.689  23.834  1.00  0.00     0.201 A 
ATOM     11  C   UNL     1      43.185 131.527  22.022  1.00  0.00     0.159 A 
ATOM     12  N   UNL     1      44.740 130.197  22.877  1.00  0.00    -0.235 NA
ATOM     13  N   UNL     1      42.522 132.228  21.071  1.00  0.00    -0.236 NA
ATOM     14  C   UNL     1      44.256 130.744  21.746  1.00  0.00     0.108 A 
ATOM     15  C   UNL     1      42.946 132.138  19.774  1.00  0.00     0.122 A 
ATOM     16  C   UNL     1      44.734 130.611  20.448  1.00  0.00     0.042 A 
ATOM     17  C   UNL     1      41.944 132.262  24.081  1.00  0.00     0.153 C 
ENDBRANCH   3   8
ENDBRANCH   1   2
BRANCH   1  18
ATOM     18  C   UNL     1      47.335 131.300  13.749  1.00  0.00     0.263 C 
BRANCH  18  19
ATOM     19  N   UNL     1      47.922 130.694  12.551  1.00  0.00    -0.357 N 
ATOM     20  H   UNL     1      48.395 131.439  11.991  1.00  0.00     0.344 HD
ATOM     21  H   UNL     1      47.176 130.254  11.965  1.00  0.00     0.344 HD
ATOM     22  H   UNL     1      48.634 129.978  12.820  1.00  0.00     0.344 HD
ENDBRANCH  18  19
ENDBRANCH   1  18
TORSDOF 4
ENDMDL
MODEL 9
REMARK VINA RESULT:      -7.0      2.299      7.473
REMARK SMILES Cn1cnc2cc(-c3ccc(CC[NH3+])cc3)cnc21
REMARK SMILES IDX 12 1 11 2 8 3 9 4 16 5 10 6 15 7 7 8 2 9 3 10 19 11 4 12
REMARK SMILES IDX 18 13 5 14 17 15 6 16 1 17 13 18 14 19
REMARK H PARENT 14 20 14 21 14 22
ROOT
ATOM      1  C   UNL     1      42.894 131.637  23.971  1.00  0.00     0.096 C 
ENDROOT
BRANCH   1   2
ATOM      2  C   UNL     1      43.326 131.536  22.531  1.00  0.00    -0.042 A 
ATOM      3  C   UNL     1      44.104 131.302  19.829  1.00  0.00    -0.017 A 
ATOM      4  C   UNL     1      42.887 131.918  20.172  1.00  0.00     0.009 A 
ATOM      5  C   UNL     1      44.925 130.801  20.856  1.00  0.00     0.009 A 
ATOM      6  C   UNL     1      42.501 132.030  21.510  1.00  0.00     0.004 A 
ATOM      7  C   UNL     1      44.538 130.916  22.194  1.00  0.00     0.004 A 
BRANCH   3   8
ATOM      8  C   UNL     1      44.514 131.180  18.407  1.00  0.00     0.002 A 
ATOM      9  N   UNL     1      45.498 130.917  14.464  1.00  0.00    -0.318 N 
ATOM     10  C   UNL     1      44.340 131.412  13.959  1.00  0.00     0.201 A 
ATOM     11  C   UNL     1      45.310 130.941  15.787  1.00  0.00     0.159 A 
ATOM     12  N   UNL     1      43.426 131.724  14.919  1.00  0.00    -0.235 NA
ATOM     13  N   UNL     1      46.189 130.582  16.754  1.00  0.00    -0.236 NA
ATOM     14  C   UNL     1      44.070 131.413  16.060  1.00  0.00     0.108 A 
ATOM     15  C   UNL     1      45.808 130.695  18.062  1.00  0.00     0.122 A 
ATOM     16  C   UNL     1      43.624 131.550  17.369  1.00  0.00     0.042 A 
ATOM     17  C   UNL     1      46.714 130.578  13.734  1.00  0.00     0.153 C 
ENDBRANCH   3   8
ENDBRANCH   1   2
BRANCH   1  18
ATOM     18  C   UNL     1      41.617 130.827  24.244  1.00  0.00     0.263 C 
BRANCH  18  19
ATOM     19  N   UNL     1      41.763 129.426  23.843  1.00  0.00    -0.357 N 
ATOM     20  H   UNL     1      41.011 129.189  23.156  1.00  0.00     0.344 HD
ATOM     21  H   UNL     1      41.670 128.799  24.675  1.00  0.00     0.344 HD
ATOM     22  H   UNL     1      42.691 129.276  23.385  1.00  0.00     0.344 HD
ENDBRANCH  18  19
ENDBRANCH   1  18
TORSDOF 4
ENDMDL


