REMARK SMILES C=C[C@H]1CCC[C@@](F)(c2ccc3c(c2)[C@H](N)CC3)[C@@H]1Cl
REMARK SMILES IDX 9 1 10 2 11 3 12 4 13 5 14 6 15 7 17 8 18 9 7 10 3 11 4 12
REMARK SMILES IDX 19 13 5 14 6 15 20 16 8 17 2 18 1 19 16 20
REMARK H PARENT 16 21 16 22
ROOT
ATOM      1  C   UNL     1       0.133  -0.061   0.182  1.00  0.00    -0.009 A 
ATOM      2  C   UNL     1      -0.031  -0.547   1.504  1.00  0.00     0.007 A 
ATOM      3  C   UNL     1      -1.288  -0.966   1.962  1.00  0.00     0.004 A 
ATOM      4  C   UNL     1      -2.379  -0.897   1.097  1.00  0.00    -0.043 A 
ATOM      5  C   UNL     1      -2.242  -0.421  -0.179  1.00  0.00    -0.028 A 
ATOM      6  C   UNL     1      -1.000  -0.002  -0.664  1.00  0.00     0.012 A 
ATOM      7  C   UNL     1      -3.530  -0.427  -0.920  1.00  0.00     0.081 C 
ATOM      8  C   UNL     1      -4.506  -1.127   0.056  1.00  0.00     0.028 C 
ATOM      9  C   UNL     1      -3.772  -1.295   1.400  1.00  0.00     0.038 C 
ENDROOT
BRANCH   1  10
ATOM     10  C   UNL     1       1.504   0.390  -0.322  1.00  0.00     0.152 C 
ATOM     11  C   UNL     1       3.304   0.059  -2.114  1.00  0.00     0.033 C 
ATOM     12  C   UNL     1       3.230   1.562  -2.449  1.00  0.00     0.009 C 
ATOM     13  C   UNL     1       1.955  -0.454  -1.546  1.00  0.00     0.130 C 
ATOM     14  C   UNL     1       2.807   2.380  -1.226  1.00  0.00     0.004 C 
ATOM     15  C   UNL     1       1.459   1.892  -0.684  1.00  0.00     0.048 C 
ATOM     16  Cl  UNL     1       2.104  -2.180  -1.079  1.00  0.00    -0.118 Cl
ATOM     17  F   UNL     1       2.450   0.230   0.684  1.00  0.00    -0.237 F 
BRANCH  11  18
ATOM     18  C   UNL     1       3.754  -0.736  -3.321  1.00  0.00    -0.030 C 
ATOM     19  C   UNL     1       3.050  -0.802  -4.458  1.00  0.00     0.004 C 
ENDBRANCH  11  18
ENDBRANCH   1  10
BRANCH   7  20
ATOM     20  N   UNL     1      -3.964   0.943  -1.197  1.00  0.00    -0.324 NA
ATOM     21  H   UNL     1      -4.875   0.895  -1.710  1.00  0.00     0.119 HD
ATOM     22  H   UNL     1      -3.283   1.374  -1.865  1.00  0.00     0.119 HD
ENDBRANCH   7  20
TORSDOF 3


