MODEL 1
REMARK VINA RESULT:      -7.2      0.000      0.000
REMARK SMILES C=C/C=C(\O)N1Cc2[nH+]cc(-c3ccc4[nH]ccc4c3)cc2C1=O
REMARK SMILES IDX 4 1 5 2 3 4 2 5 1 6 6 7 23 8 7 9 22 10 8 11 21 12 9 13 11 14
REMARK SMILES IDX 10 15 24 16 12 18 13 19 20 20 14 21 19 22 15 23 18 24 16 25
REMARK SMILES IDX 17 26
REMARK H PARENT 5 3 9 17 16 27
ROOT
ATOM      1  C   UNL     1      42.968 131.355  23.670  1.00  0.00     0.194 C 
ENDROOT
BRANCH   1   2
ATOM      2  O   UNL     1      43.687 132.076  24.624  1.00  0.00    -0.494 OA
ATOM      3  H   UNL     1      44.120 131.632  25.423  1.00  0.00     0.295 HD
ENDBRANCH   1   2
BRANCH   1   4
ATOM      4  C   UNL     1      41.994 130.524  24.067  1.00  0.00     0.066 C 
BRANCH   4   5
ATOM      5  C   UNL     1      42.136 129.057  24.006  1.00  0.00    -0.002 C 
ATOM      6  C   UNL     1      43.249 128.457  24.417  1.00  0.00     0.009 C 
ENDBRANCH   4   5
ENDBRANCH   1   4
BRANCH   1   7
ATOM      7  N   UNL     1      43.281 131.494  22.270  1.00  0.00    -0.268 N 
ATOM      8  C   UNL     1      44.347 130.845  21.575  1.00  0.00     0.267 C 
ATOM      9  C   UNL     1      42.469 132.227  21.284  1.00  0.00     0.238 C 
ATOM     10  C   UNL     1      44.239 131.109  20.163  1.00  0.00     0.110 A 
ATOM     11  C   UNL     1      43.142 131.909  19.982  1.00  0.00     0.212 A 
ATOM     12  C   UNL     1      45.023 130.700  19.090  1.00  0.00     0.035 A 
ATOM     13  N   UNL     1      42.777 132.334  18.746  1.00  0.00    -0.212 N 
ATOM     14  C   UNL     1      44.654 131.132  17.798  1.00  0.00     0.046 A 
ATOM     15  C   UNL     1      43.510 131.960  17.655  1.00  0.00     0.315 A 
ATOM     16  O   UNL     1      45.276 130.198  22.127  1.00  0.00    -0.268 OA
ATOM     17  H   UNL     1      41.941 132.949  18.629  1.00  0.00     0.453 HD
BRANCH  14  18
ATOM     18  C   UNL     1      45.449 130.726  16.611  1.00  0.00    -0.012 A 
ATOM     19  C   UNL     1      45.683 129.350  16.338  1.00  0.00     0.011 A 
ATOM     20  C   UNL     1      45.981 131.706  15.738  1.00  0.00     0.019 A 
ATOM     21  C   UNL     1      46.434 128.955  15.217  1.00  0.00     0.027 A 
ATOM     22  C   UNL     1      46.719 131.277  14.638  1.00  0.00    -0.000 A 
ATOM     23  C   UNL     1      46.937 129.951  14.385  1.00  0.00     0.045 A 
ATOM     24  C   UNL     1      47.339 131.994  13.639  1.00  0.00     0.028 A 
ATOM     25  N   UNL     1      47.671 129.791  13.271  1.00  0.00    -0.361 N 
ATOM     26  C   UNL     1      47.919 131.039  12.811  1.00  0.00     0.083 A 
ATOM     27  H   UNL     1      47.984 128.892  12.844  1.00  0.00     0.166 HD
ENDBRANCH  14  18
ENDBRANCH   1   7
TORSDOF 5
ENDMDL
MODEL 2
REMARK VINA RESULT:      -6.8      1.126      1.236
REMARK SMILES C=C/C=C(\O)N1Cc2[nH+]cc(-c3ccc4[nH]ccc4c3)cc2C1=O
REMARK SMILES IDX 4 1 5 2 3 4 2 5 1 6 6 7 23 8 7 9 22 10 8 11 21 12 9 13 11 14
REMARK SMILES IDX 10 15 24 16 12 18 13 19 20 20 14 21 19 22 15 23 18 24 16 25
REMARK SMILES IDX 17 26
REMARK H PARENT 5 3 9 17 16 27
ROOT
ATOM      1  C   UNL     1      42.237 132.195  22.651  1.00  0.00     0.194 C 
ENDROOT
BRANCH   1   2
ATOM      2  O   UNL     1      40.986 132.744  22.937  1.00  0.00    -0.494 OA
ATOM      3  H   UNL     1      40.166 132.171  23.085  1.00  0.00     0.295 HD
ENDBRANCH   1   2
BRANCH   1   4
ATOM      4  C   UNL     1      43.007 131.750  23.654  1.00  0.00     0.066 C 
BRANCH   4   5
ATOM      5  C   UNL     1      42.831 130.411  24.248  1.00  0.00    -0.002 C 
ATOM      6  C   UNL     1      41.944 129.552  23.754  1.00  0.00     0.009 C 
ENDBRANCH   4   5
ENDBRANCH   1   4
BRANCH   1   7
ATOM      7  N   UNL     1      42.700 132.120  21.288  1.00  0.00    -0.268 N 
ATOM      8  C   UNL     1      43.929 131.541  20.846  1.00  0.00     0.267 C 
ATOM      9  C   UNL     1      41.920 132.507  20.101  1.00  0.00     0.238 C 
ATOM     10  C   UNL     1      43.963 131.513  19.406  1.00  0.00     0.110 A 
ATOM     11  C   UNL     1      42.792 132.069  18.962  1.00  0.00     0.212 A 
ATOM     12  C   UNL     1      44.927 131.048  18.519  1.00  0.00     0.035 A 
ATOM     13  N   UNL     1      42.527 132.186  17.636  1.00  0.00    -0.212 N 
ATOM     14  C   UNL     1      44.665 131.161  17.137  1.00  0.00     0.046 A 
ATOM     15  C   UNL     1      43.440 131.742  16.719  1.00  0.00     0.315 A 
ATOM     16  O   UNL     1      44.866 131.175  21.604  1.00  0.00    -0.268 OA
ATOM     17  H   UNL     1      41.632 132.618  17.316  1.00  0.00     0.453 HD
BRANCH  14  18
ATOM     18  C   UNL     1      45.654 130.679  16.139  1.00  0.00    -0.012 A 
ATOM     19  C   UNL     1      46.250 129.395  16.278  1.00  0.00     0.011 A 
ATOM     20  C   UNL     1      46.013 131.494  15.039  1.00  0.00     0.019 A 
ATOM     21  C   UNL     1      47.186 128.929  15.340  1.00  0.00     0.027 A 
ATOM     22  C   UNL     1      46.944 130.999  14.129  1.00  0.00    -0.000 A 
ATOM     23  C   UNL     1      47.510 129.762  14.272  1.00  0.00     0.045 A 
ATOM     24  C   UNL     1      47.467 131.561  12.985  1.00  0.00     0.028 A 
ATOM     25  N   UNL     1      48.371 129.512  13.273  1.00  0.00    -0.361 N 
ATOM     26  C   UNL     1      48.348 130.609  12.483  1.00  0.00     0.083 A 
ATOM     27  H   UNL     1      48.941 128.649  13.130  1.00  0.00     0.166 HD
ENDBRANCH  14  18
ENDBRANCH   1   7
TORSDOF 5
ENDMDL
MODEL 3
REMARK VINA RESULT:      -6.8      0.983      1.461
REMARK SMILES C=C/C=C(\O)N1Cc2[nH+]cc(-c3ccc4[nH]ccc4c3)cc2C1=O
REMARK SMILES IDX 4 1 5 2 3 4 2 5 1 6 6 7 23 8 7 9 22 10 8 11 21 12 9 13 11 14
REMARK SMILES IDX 10 15 24 16 12 18 13 19 20 20 14 21 19 22 15 23 18 24 16 25
REMARK SMILES IDX 17 26
REMARK H PARENT 5 3 9 17 16 27
ROOT
ATOM      1  C   UNL     1      42.863 131.558  23.159  1.00  0.00     0.194 C 
ENDROOT
BRANCH   1   2
ATOM      2  O   UNL     1      42.039 132.474  23.813  1.00  0.00    -0.494 OA
ATOM      3  H   UNL     1      42.131 132.674  24.800  1.00  0.00     0.295 HD
ENDBRANCH   1   2
BRANCH   1   4
ATOM      4  C   UNL     1      43.442 130.573  23.859  1.00  0.00     0.066 C 
BRANCH   4   5
ATOM      5  C   UNL     1      43.151 129.149  23.606  1.00  0.00    -0.002 C 
ATOM      6  C   UNL     1      42.927 128.305  24.609  1.00  0.00     0.009 C 
ENDBRANCH   4   5
ENDBRANCH   1   4
BRANCH   1   7
ATOM      7  N   UNL     1      43.098 131.679  21.742  1.00  0.00    -0.268 N 
ATOM      8  C   UNL     1      44.275 131.269  21.044  1.00  0.00     0.267 C 
ATOM      9  C   UNL     1      42.105 132.123  20.748  1.00  0.00     0.238 C 
ATOM     10  C   UNL     1      44.071 131.406  19.624  1.00  0.00     0.110 A 
ATOM     11  C   UNL     1      42.805 131.897  19.442  1.00  0.00     0.212 A 
ATOM     12  C   UNL     1      44.905 131.134  18.546  1.00  0.00     0.035 A 
ATOM     13  N   UNL     1      42.316 132.137  18.199  1.00  0.00    -0.212 N 
ATOM     14  C   UNL     1      44.410 131.376  17.247  1.00  0.00     0.046 A 
ATOM     15  C   UNL     1      43.093 131.885  17.102  1.00  0.00     0.315 A 
ATOM     16  O   UNL     1      45.349 130.908  21.594  1.00  0.00    -0.268 OA
ATOM     17  H   UNL     1      41.351 132.518  18.079  1.00  0.00     0.453 HD
BRANCH  14  18
ATOM     18  C   UNL     1      45.252 131.103  16.055  1.00  0.00    -0.012 A 
ATOM     19  C   UNL     1      45.043 131.823  14.846  1.00  0.00     0.011 A 
ATOM     20  C   UNL     1      46.272 130.123  16.110  1.00  0.00     0.019 A 
ATOM     21  C   UNL     1      45.835 131.573  13.712  1.00  0.00     0.027 A 
ATOM     22  C   UNL     1      47.036 129.903  14.967  1.00  0.00    -0.000 A 
ATOM     23  C   UNL     1      46.827 130.602  13.810  1.00  0.00     0.045 A 
ATOM     24  C   UNL     1      48.078 129.031  14.738  1.00  0.00     0.028 A 
ATOM     25  N   UNL     1      47.687 130.213  12.854  1.00  0.00    -0.361 N 
ATOM     26  C   UNL     1      48.454 129.253  13.418  1.00  0.00     0.083 A 
ATOM     27  H   UNL     1      47.754 130.577  11.878  1.00  0.00     0.166 HD
ENDBRANCH  14  18
ENDBRANCH   1   7
TORSDOF 5
ENDMDL
MODEL 4
REMARK VINA RESULT:      -6.1      1.346      1.643
REMARK SMILES C=C/C=C(\O)N1Cc2[nH+]cc(-c3ccc4[nH]ccc4c3)cc2C1=O
REMARK SMILES IDX 4 1 5 2 3 4 2 5 1 6 6 7 23 8 7 9 22 10 8 11 21 12 9 13 11 14
REMARK SMILES IDX 10 15 24 16 12 18 13 19 20 20 14 21 19 22 15 23 18 24 16 25
REMARK SMILES IDX 17 26
REMARK H PARENT 5 3 9 17 16 27
ROOT
ATOM      1  C   UNL     1      42.063 132.165  22.958  1.00  0.00     0.194 C 
ENDROOT
BRANCH   1   2
ATOM      2  O   UNL     1      40.740 132.521  23.224  1.00  0.00    -0.494 OA
ATOM      3  H   UNL     1      40.077 131.872  23.626  1.00  0.00     0.295 HD
ENDBRANCH   1   2
BRANCH   1   4
ATOM      4  C   UNL     1      42.883 131.865  23.975  1.00  0.00     0.066 C 
BRANCH   4   5
ATOM      5  C   UNL     1      43.825 132.848  24.544  1.00  0.00    -0.002 C 
ATOM      6  C   UNL     1      45.136 132.631  24.529  1.00  0.00     0.009 C 
ENDBRANCH   4   5
ENDBRANCH   1   4
BRANCH   1   7
ATOM      7  N   UNL     1      42.544 132.133  21.600  1.00  0.00    -0.268 N 
ATOM      8  C   UNL     1      43.747 131.509  21.146  1.00  0.00     0.267 C 
ATOM      9  C   UNL     1      41.808 132.622  20.423  1.00  0.00     0.238 C 
ATOM     10  C   UNL     1      43.803 131.552  19.707  1.00  0.00     0.110 A 
ATOM     11  C   UNL     1      42.673 132.194  19.275  1.00  0.00     0.212 A 
ATOM     12  C   UNL     1      44.755 131.079  18.811  1.00  0.00     0.035 A 
ATOM     13  N   UNL     1      42.438 132.392  17.954  1.00  0.00    -0.212 N 
ATOM     14  C   UNL     1      44.523 131.275  17.433  1.00  0.00     0.046 A 
ATOM     15  C   UNL     1      43.339 131.945  17.028  1.00  0.00     0.315 A 
ATOM     16  O   UNL     1      44.649 131.053  21.898  1.00  0.00    -0.268 OA
ATOM     17  H   UNL     1      41.573 132.890  17.643  1.00  0.00     0.453 HD
BRANCH  14  18
ATOM     18  C   UNL     1      45.501 130.790  16.426  1.00  0.00    -0.012 A 
ATOM     19  C   UNL     1      46.204 129.571  16.635  1.00  0.00     0.011 A 
ATOM     20  C   UNL     1      45.743 131.536  15.247  1.00  0.00     0.019 A 
ATOM     21  C   UNL     1      47.131 129.102  15.688  1.00  0.00     0.027 A 
ATOM     22  C   UNL     1      46.668 131.040  14.332  1.00  0.00    -0.000 A 
ATOM     23  C   UNL     1      47.338 129.866  14.543  1.00  0.00     0.045 A 
ATOM     24  C   UNL     1      47.091 131.544  13.121  1.00  0.00     0.028 A 
ATOM     25  N   UNL     1      48.169 129.601  13.522  1.00  0.00    -0.361 N 
ATOM     26  C   UNL     1      48.021 130.624  12.650  1.00  0.00     0.083 A 
ATOM     27  H   UNL     1      48.800 128.775  13.419  1.00  0.00     0.166 HD
ENDBRANCH  14  18
ENDBRANCH   1   7
TORSDOF 5
ENDMDL
MODEL 5
REMARK VINA RESULT:      -5.6      1.354      1.818
REMARK SMILES C=C/C=C(\O)N1Cc2[nH+]cc(-c3ccc4[nH]ccc4c3)cc2C1=O
REMARK SMILES IDX 4 1 5 2 3 4 2 5 1 6 6 7 23 8 7 9 22 10 8 11 21 12 9 13 11 14
REMARK SMILES IDX 10 15 24 16 12 18 13 19 20 20 14 21 19 22 15 23 18 24 16 25
REMARK SMILES IDX 17 26
REMARK H PARENT 5 3 9 17 16 27
ROOT
ATOM      1  C   UNL     1      44.395 129.542  23.539  1.00  0.00     0.194 C 
ENDROOT
BRANCH   1   2
ATOM      2  O   UNL     1      44.148 130.384  24.624  1.00  0.00    -0.494 OA
ATOM      3  H   UNL     1      43.233 130.466  25.046  1.00  0.00     0.295 HD
ENDBRANCH   1   2
BRANCH   1   4
ATOM      4  C   UNL     1      44.539 128.225  23.743  1.00  0.00     0.066 C 
BRANCH   4   5
ATOM      5  C   UNL     1      43.385 127.309  23.824  1.00  0.00    -0.002 C 
ATOM      6  C   UNL     1      42.139 127.768  23.762  1.00  0.00     0.009 C 
ENDBRANCH   4   5
ENDBRANCH   1   4
BRANCH   1   7
ATOM      7  N   UNL     1      44.507 130.089  22.210  1.00  0.00    -0.268 N 
ATOM      8  C   UNL     1      45.373 129.621  21.175  1.00  0.00     0.267 C 
ATOM      9  C   UNL     1      43.645 131.141  21.646  1.00  0.00     0.238 C 
ATOM     10  C   UNL     1      45.084 130.316  19.947  1.00  0.00     0.110 A 
ATOM     11  C   UNL     1      44.072 131.201  20.210  1.00  0.00     0.212 A 
ATOM     12  C   UNL     1      45.643 130.211  18.678  1.00  0.00     0.035 A 
ATOM     13  N   UNL     1      43.576 132.011  19.241  1.00  0.00    -0.212 N 
ATOM     14  C   UNL     1      45.136 131.045  17.659  1.00  0.00     0.046 A 
ATOM     15  C   UNL     1      44.087 131.948  17.974  1.00  0.00     0.315 A 
ATOM     16  O   UNL     1      46.294 128.776  21.335  1.00  0.00    -0.268 OA
ATOM     17  H   UNL     1      42.808 132.684  19.462  1.00  0.00     0.453 HD
BRANCH  14  18
ATOM     18  C   UNL     1      45.689 130.978  16.283  1.00  0.00    -0.012 A 
ATOM     19  C   UNL     1      45.102 131.737  15.233  1.00  0.00     0.011 A 
ATOM     20  C   UNL     1      46.809 130.158  16.002  1.00  0.00     0.019 A 
ATOM     21  C   UNL     1      45.618 131.682  13.927  1.00  0.00     0.027 A 
ATOM     22  C   UNL     1      47.293 130.129  14.697  1.00  0.00    -0.000 A 
ATOM     23  C   UNL     1      46.720 130.863  13.695  1.00  0.00     0.045 A 
ATOM     24  C   UNL     1      48.350 129.438  14.147  1.00  0.00     0.028 A 
ATOM     25  N   UNL     1      47.364 130.669  12.533  1.00  0.00    -0.361 N 
ATOM     26  C   UNL     1      48.362 129.799  12.804  1.00  0.00     0.083 A 
ATOM     27  H   UNL     1      47.144 131.102  11.608  1.00  0.00     0.166 HD
ENDBRANCH  14  18
ENDBRANCH   1   7
TORSDOF 5
ENDMDL
MODEL 6
REMARK VINA RESULT:      -5.4      6.043      9.518
REMARK SMILES C=C/C=C(\O)N1Cc2[nH+]cc(-c3ccc4[nH]ccc4c3)cc2C1=O
REMARK SMILES IDX 4 1 5 2 3 4 2 5 1 6 6 7 23 8 7 9 22 10 8 11 21 12 9 13 11 14
REMARK SMILES IDX 10 15 24 16 12 18 13 19 20 20 14 21 19 22 15 23 18 24 16 25
REMARK SMILES IDX 17 26
REMARK H PARENT 5 3 9 17 16 27
ROOT
ATOM      1  C   UNL     1      50.700 123.098  21.941  1.00  0.00     0.194 C 
ENDROOT
BRANCH   1   2
ATOM      2  O   UNL     1      51.716 123.293  22.879  1.00  0.00    -0.494 OA
ATOM      3  H   UNL     1      52.185 122.522  23.335  1.00  0.00     0.295 HD
ENDBRANCH   1   2
BRANCH   1   4
ATOM      4  C   UNL     1      50.965 122.428  20.811  1.00  0.00     0.066 C 
BRANCH   4   5
ATOM      5  C   UNL     1      51.394 123.108  19.574  1.00  0.00    -0.002 C 
ATOM      6  C   UNL     1      50.506 123.644  18.742  1.00  0.00     0.009 C 
ENDBRANCH   4   5
ENDBRANCH   1   4
BRANCH   1   7
ATOM      7  N   UNL     1      49.381 123.625  22.183  1.00  0.00    -0.268 N 
ATOM      8  C   UNL     1      49.057 124.985  22.478  1.00  0.00     0.267 C 
ATOM      9  C   UNL     1      48.123 122.874  22.034  1.00  0.00     0.238 C 
ATOM     10  C   UNL     1      47.626 125.151  22.497  1.00  0.00     0.110 A 
ATOM     11  C   UNL     1      47.072 123.926  22.232  1.00  0.00     0.212 A 
ATOM     12  C   UNL     1      46.834 126.270  22.727  1.00  0.00     0.035 A 
ATOM     13  N   UNL     1      45.726 123.758  22.185  1.00  0.00    -0.212 N 
ATOM     14  C   UNL     1      45.433 126.112  22.677  1.00  0.00     0.046 A 
ATOM     15  C   UNL     1      44.900 124.826  22.400  1.00  0.00     0.315 A 
ATOM     16  O   UNL     1      49.898 125.883  22.745  1.00  0.00    -0.268 OA
ATOM     17  H   UNL     1      45.322 122.815  21.988  1.00  0.00     0.453 HD
BRANCH  14  18
ATOM     18  C   UNL     1      44.534 127.270  22.911  1.00  0.00    -0.012 A 
ATOM     19  C   UNL     1      43.298 127.095  23.595  1.00  0.00     0.011 A 
ATOM     20  C   UNL     1      44.897 128.560  22.456  1.00  0.00     0.019 A 
ATOM     21  C   UNL     1      42.440 128.185  23.822  1.00  0.00     0.027 A 
ATOM     22  C   UNL     1      44.022 129.615  22.700  1.00  0.00    -0.000 A 
ATOM     23  C   UNL     1      42.837 129.436  23.359  1.00  0.00     0.045 A 
ATOM     24  C   UNL     1      44.117 130.952  22.381  1.00  0.00     0.028 A 
ATOM     25  N   UNL     1      42.172 130.598  23.472  1.00  0.00    -0.361 N 
ATOM     26  C   UNL     1      42.952 131.528  22.876  1.00  0.00     0.083 A 
ATOM     27  H   UNL     1      41.246 130.755  23.928  1.00  0.00     0.166 HD
ENDBRANCH  14  18
ENDBRANCH   1   7
TORSDOF 5
ENDMDL
MODEL 7
REMARK VINA RESULT:      -5.3      1.091      1.346
REMARK SMILES C=C/C=C(\O)N1Cc2[nH+]cc(-c3ccc4[nH]ccc4c3)cc2C1=O
REMARK SMILES IDX 4 1 5 2 3 4 2 5 1 6 6 7 23 8 7 9 22 10 8 11 21 12 9 13 11 14
REMARK SMILES IDX 10 15 24 16 12 18 13 19 20 20 14 21 19 22 15 23 18 24 16 25
REMARK SMILES IDX 17 26
REMARK H PARENT 5 3 9 17 16 27
ROOT
ATOM      1  C   UNL     1      43.944 130.989  23.556  1.00  0.00     0.194 C 
ENDROOT
BRANCH   1   2
ATOM      2  O   UNL     1      44.413 131.940  24.462  1.00  0.00    -0.494 OA
ATOM      3  H   UNL     1      44.130 131.946  25.434  1.00  0.00     0.295 HD
ENDBRANCH   1   2
BRANCH   1   4
ATOM      4  C   UNL     1      43.552 129.787  24.003  1.00  0.00     0.066 C 
BRANCH   4   5
ATOM      5  C   UNL     1      42.201 129.252  23.745  1.00  0.00    -0.002 C 
ATOM      6  C   UNL     1      41.179 129.559  24.537  1.00  0.00     0.009 C 
ENDBRANCH   4   5
ENDBRANCH   1   4
BRANCH   1   7
ATOM      7  N   UNL     1      43.893 131.294  22.148  1.00  0.00    -0.268 N 
ATOM      8  C   UNL     1      44.860 130.912  21.167  1.00  0.00     0.267 C 
ATOM      9  C   UNL     1      42.764 131.937  21.455  1.00  0.00     0.238 C 
ATOM     10  C   UNL     1      44.383 131.260  19.853  1.00  0.00     0.110 A 
ATOM     11  C   UNL     1      43.158 131.853  20.010  1.00  0.00     0.212 A 
ATOM     12  C   UNL     1      44.950 131.091  18.596  1.00  0.00     0.035 A 
ATOM     13  N   UNL     1      42.450 132.298  18.942  1.00  0.00    -0.212 N 
ATOM     14  C   UNL     1      44.224 131.546  17.474  1.00  0.00     0.046 A 
ATOM     15  C   UNL     1      42.959 132.154  17.681  1.00  0.00     0.315 A 
ATOM     16  O   UNL     1      45.985 130.408  21.425  1.00  0.00    -0.268 OA
ATOM     17  H   UNL     1      41.520 132.753  19.081  1.00  0.00     0.453 HD
BRANCH  14  18
ATOM     18  C   UNL     1      44.775 131.390  16.104  1.00  0.00    -0.012 A 
ATOM     19  C   UNL     1      43.903 131.288  14.985  1.00  0.00     0.011 A 
ATOM     20  C   UNL     1      46.175 131.343  15.898  1.00  0.00     0.019 A 
ATOM     21  C   UNL     1      44.414 131.141  13.684  1.00  0.00     0.027 A 
ATOM     22  C   UNL     1      46.644 131.197  14.595  1.00  0.00    -0.000 A 
ATOM     23  C   UNL     1      45.796 131.100  13.526  1.00  0.00     0.045 A 
ATOM     24  C   UNL     1      47.931 131.126  14.107  1.00  0.00     0.028 A 
ATOM     25  N   UNL     1      46.485 130.968  12.381  1.00  0.00    -0.361 N 
ATOM     26  C   UNL     1      47.791 130.985  12.731  1.00  0.00     0.083 A 
ATOM     27  H   UNL     1      46.095 130.876  11.416  1.00  0.00     0.166 HD
ENDBRANCH  14  18
ENDBRANCH   1   7
TORSDOF 5
ENDMDL
MODEL 8
REMARK VINA RESULT:      -5.2      1.568      2.107
REMARK SMILES C=C/C=C(\O)N1Cc2[nH+]cc(-c3ccc4[nH]ccc4c3)cc2C1=O
REMARK SMILES IDX 4 1 5 2 3 4 2 5 1 6 6 7 23 8 7 9 22 10 8 11 21 12 9 13 11 14
REMARK SMILES IDX 10 15 24 16 12 18 13 19 20 20 14 21 19 22 15 23 18 24 16 25
REMARK SMILES IDX 17 26
REMARK H PARENT 5 3 9 17 16 27
ROOT
ATOM      1  C   UNL     1      43.026 131.962  23.914  1.00  0.00     0.194 C 
ENDROOT
BRANCH   1   2
ATOM      2  O   UNL     1      43.685 132.967  24.625  1.00  0.00    -0.494 OA
ATOM      3  H   UNL     1      43.213 133.540  25.312  1.00  0.00     0.295 HD
ENDBRANCH   1   2
BRANCH   1   4
ATOM      4  C   UNL     1      41.877 131.463  24.388  1.00  0.00     0.066 C 
BRANCH   4   5
ATOM      5  C   UNL     1      41.511 130.042  24.231  1.00  0.00    -0.002 C 
ATOM      6  C   UNL     1      42.352 129.074  24.580  1.00  0.00     0.009 C 
ENDBRANCH   4   5
ENDBRANCH   1   4
BRANCH   1   7
ATOM      7  N   UNL     1      43.588 131.458  22.686  1.00  0.00    -0.268 N 
ATOM      8  C   UNL     1      43.402 132.015  21.383  1.00  0.00     0.267 C 
ATOM      9  C   UNL     1      44.564 130.361  22.582  1.00  0.00     0.238 C 
ATOM     10  C   UNL     1      44.247 131.332  20.438  1.00  0.00     0.110 A 
ATOM     11  C   UNL     1      44.934 130.369  21.129  1.00  0.00     0.212 A 
ATOM     12  C   UNL     1      44.427 131.509  19.070  1.00  0.00     0.035 A 
ATOM     13  N   UNL     1      45.818 129.550  20.504  1.00  0.00    -0.212 N 
ATOM     14  C   UNL     1      45.344 130.667  18.407  1.00  0.00     0.046 A 
ATOM     15  C   UNL     1      46.035 129.683  19.161  1.00  0.00     0.315 A 
ATOM     16  O   UNL     1      42.573 132.920  21.099  1.00  0.00    -0.268 OA
ATOM     17  H   UNL     1      46.328 128.817  21.047  1.00  0.00     0.453 HD
BRANCH  14  18
ATOM     18  C   UNL     1      45.582 130.809  16.949  1.00  0.00    -0.012 A 
ATOM     19  C   UNL     1      44.659 131.523  16.135  1.00  0.00     0.011 A 
ATOM     20  C   UNL     1      46.731 130.236  16.352  1.00  0.00     0.019 A 
ATOM     21  C   UNL     1      44.874 131.664  14.753  1.00  0.00     0.027 A 
ATOM     22  C   UNL     1      46.911 130.397  14.981  1.00  0.00    -0.000 A 
ATOM     23  C   UNL     1      46.017 131.086  14.209  1.00  0.00     0.045 A 
ATOM     24  C   UNL     1      47.920 129.958  14.151  1.00  0.00     0.028 A 
ATOM     25  N   UNL     1      46.410 131.104  12.924  1.00  0.00    -0.361 N 
ATOM     26  C   UNL     1      47.573 130.416  12.885  1.00  0.00     0.083 A 
ATOM     27  H   UNL     1      45.921 131.557  12.121  1.00  0.00     0.166 HD
ENDBRANCH  14  18
ENDBRANCH   1   7
TORSDOF 5
ENDMDL
MODEL 9
REMARK VINA RESULT:      -5.1      1.448      2.257
REMARK SMILES C=C/C=C(\O)N1Cc2[nH+]cc(-c3ccc4[nH]ccc4c3)cc2C1=O
REMARK SMILES IDX 4 1 5 2 3 4 2 5 1 6 6 7 23 8 7 9 22 10 8 11 21 12 9 13 11 14
REMARK SMILES IDX 10 15 24 16 12 18 13 19 20 20 14 21 19 22 15 23 18 24 16 25
REMARK SMILES IDX 17 26
REMARK H PARENT 5 3 9 17 16 27
ROOT
ATOM      1  C   UNL     1      43.252 131.301  22.774  1.00  0.00     0.194 C 
ENDROOT
BRANCH   1   2
ATOM      2  O   UNL     1      42.736 130.110  23.288  1.00  0.00    -0.494 OA
ATOM      3  H   UNL     1      42.452 130.017  24.254  1.00  0.00     0.295 HD
ENDBRANCH   1   2
BRANCH   1   4
ATOM      4  C   UNL     1      43.523 132.316  23.607  1.00  0.00     0.066 C 
BRANCH   4   5
ATOM      5  C   UNL     1      44.845 132.971  23.647  1.00  0.00    -0.002 C 
ATOM      6  C   UNL     1      45.164 133.813  24.624  1.00  0.00     0.009 C 
ENDBRANCH   4   5
ENDBRANCH   1   4
BRANCH   1   7
ATOM      7  N   UNL     1      43.479 131.440  21.358  1.00  0.00    -0.268 N 
ATOM      8  C   UNL     1      44.664 131.065  20.653  1.00  0.00     0.267 C 
ATOM      9  C   UNL     1      42.473 131.868  20.371  1.00  0.00     0.238 C 
ATOM     10  C   UNL     1      44.452 131.208  19.235  1.00  0.00     0.110 A 
ATOM     11  C   UNL     1      43.174 131.670  19.060  1.00  0.00     0.212 A 
ATOM     12  C   UNL     1      45.289 130.966  18.152  1.00  0.00     0.035 A 
ATOM     13  N   UNL     1      42.675 131.909  17.821  1.00  0.00    -0.212 N 
ATOM     14  C   UNL     1      44.784 131.207  16.857  1.00  0.00     0.046 A 
ATOM     15  C   UNL     1      43.454 131.685  16.720  1.00  0.00     0.315 A 
ATOM     16  O   UNL     1      45.748 130.726  21.197  1.00  0.00    -0.268 OA
ATOM     17  H   UNL     1      41.701 132.267  17.708  1.00  0.00     0.453 HD
BRANCH  14  18
ATOM     18  C   UNL     1      45.628 130.964  15.660  1.00  0.00    -0.012 A 
ATOM     19  C   UNL     1      45.415 131.707  14.466  1.00  0.00     0.011 A 
ATOM     20  C   UNL     1      46.655 129.990  15.695  1.00  0.00     0.019 A 
ATOM     21  C   UNL     1      46.209 131.487  13.327  1.00  0.00     0.027 A 
ATOM     22  C   UNL     1      47.421 129.800  14.548  1.00  0.00    -0.000 A 
ATOM     23  C   UNL     1      47.208 130.520  13.406  1.00  0.00     0.045 A 
ATOM     24  C   UNL     1      48.470 128.940  14.302  1.00  0.00     0.028 A 
ATOM     25  N   UNL     1      48.071 130.157  12.443  1.00  0.00    -0.361 N 
ATOM     26  C   UNL     1      48.845 129.191  12.987  1.00  0.00     0.083 A 
ATOM     27  H   UNL     1      48.136 130.541  11.474  1.00  0.00     0.166 HD
ENDBRANCH  14  18
ENDBRANCH   1   7
TORSDOF 5
ENDMDL


