REMARK SMILES Cc1ccc([NH2+][C@@H]2CCC[C@@H](NN)[C@@]2(O)c2nc3ccccc3[n-]2)cc1F
REMARK SMILES IDX 7 1 8 2 9 3 10 4 11 5 14 6 6 7 5 10 2 11 3 12 26 13 4 14
REMARK SMILES IDX 25 15 1 16 27 17 15 18 16 20 17 21 24 22 18 23 23 24 19 25
REMARK SMILES IDX 22 26 20 27 21 28 12 29 13 31
REMARK H PARENT 6 8 6 9 15 19 12 30 13 32 13 33
ROOT
ATOM      1  C   UNL     1      -1.538   0.020  -1.401  1.00  0.00     0.225 C 
ATOM      2  C   UNL     1      -1.947  -0.913  -2.570  1.00  0.00     0.069 C 
ATOM      3  C   UNL     1      -0.787  -1.768  -3.082  1.00  0.00     0.008 C 
ATOM      4  C   UNL     1      -0.162  -2.587  -1.951  1.00  0.00     0.024 C 
ATOM      5  C   UNL     1       0.278  -1.708  -0.757  1.00  0.00     0.111 C 
ATOM      6  C   UNL     1      -0.907  -0.825  -0.231  1.00  0.00     0.150 C 
ENDROOT
BRANCH   1   7
ATOM      7  N   UNL     1      -2.739   0.797  -0.984  1.00  0.00    -0.309 N 
ATOM      8  H   UNL     1      -3.248   1.138  -1.833  1.00  0.00     0.352 HD
ATOM      9  H   UNL     1      -3.408   0.176  -0.473  1.00  0.00     0.352 HD
BRANCH   7  10
ATOM     10  C   UNL     1      -2.430   1.971  -0.198  1.00  0.00     0.132 A 
ATOM     11  C   UNL     1      -1.796   4.242   1.349  1.00  0.00    -0.015 A 
ATOM     12  C   UNL     1      -1.419   4.176  -0.002  1.00  0.00     0.012 A 
ATOM     13  C   UNL     1      -2.537   3.189   1.909  1.00  0.00     0.132 A 
ATOM     14  C   UNL     1      -1.739   3.054  -0.770  1.00  0.00     0.068 A 
ATOM     15  C   UNL     1      -2.854   2.065   1.140  1.00  0.00     0.107 A 
ATOM     16  C   UNL     1      -1.448   5.445   2.176  1.00  0.00     0.047 C 
ATOM     17  F   UNL     1      -2.938   3.242   3.204  1.00  0.00    -0.206 F 
ENDBRANCH   7  10
ENDBRANCH   1   7
BRANCH   6  18
ATOM     18  O   UNL     1      -1.919  -1.663   0.289  1.00  0.00    -0.378 OA
ATOM     19  H   UNL     1      -1.521  -2.256   0.979  1.00  0.00     0.212 HD
ENDBRANCH   6  18
BRANCH   6  20
ATOM     20  C   UNL     1      -0.382   0.076   0.877  1.00  0.00    -0.042 A 
ATOM     21  N   UNL     1      -0.694  -0.103   2.190  1.00  0.00    -0.437 NA
ATOM     22  N   UNL     1       0.443   1.133   0.640  1.00  0.00    -0.437 NA
ATOM     23  C   UNL     1      -0.038   0.901   2.789  1.00  0.00    -0.038 A 
ATOM     24  C   UNL     1       0.638   1.637   1.866  1.00  0.00    -0.038 A 
ATOM     25  C   UNL     1      -0.037   1.233   4.141  1.00  0.00     0.004 A 
ATOM     26  C   UNL     1       1.373   2.767   2.216  1.00  0.00     0.004 A 
ATOM     27  C   UNL     1       0.696   2.369   4.534  1.00  0.00     0.000 A 
ATOM     28  C   UNL     1       1.398   3.134   3.574  1.00  0.00     0.000 A 
ENDBRANCH   6  20
BRANCH   5  29
ATOM     29  N   UNL     1       1.465  -0.890  -1.079  1.00  0.00    -0.254 NA
ATOM     30  H   UNL     1       1.321  -0.372  -1.975  1.00  0.00     0.141 HD
BRANCH  29  31
ATOM     31  N   UNL     1       2.584  -1.731  -1.230  1.00  0.00    -0.271 NA
ATOM     32  H   UNL     1       2.923  -1.969  -0.269  1.00  0.00     0.137 HD
ATOM     33  H   UNL     1       3.350  -1.166  -1.664  1.00  0.00     0.137 HD
ENDBRANCH  29  31
ENDBRANCH   5  29
TORSDOF 6


