MODEL 1
REMARK VINA RESULT:      -4.2      0.000      0.000
REMARK SMILES C/C=C(\C)C(=O)N1CC[C@@H](C)[C@H](F)[C@H]1c1ccc(C(C)=O)cc1
REMARK SMILES IDX 7 1 8 2 9 3 10 4 11 5 12 6 13 7 14 8 5 9 6 10 3 11 4 12 2 13
REMARK SMILES IDX 1 14 15 15 16 16 23 17 17 18 22 19 18 20 19 21 21 22 20 23
REMARK H PARENT
ROOT
ATOM      1  N   UNL     1      44.528 125.868  23.273  1.00  0.00    -0.329 N 
ATOM      2  C   UNL     1      43.108 125.553  23.454  1.00  0.00     0.121 C 
ATOM      3  C   UNL     1      42.668 124.560  22.370  1.00  0.00     0.028 C 
ATOM      4  C   UNL     1      43.588 123.317  22.344  1.00  0.00     0.024 C 
ATOM      5  C   UNL     1      43.173 122.376  21.206  1.00  0.00     0.011 C 
ATOM      6  C   UNL     1      45.074 123.727  22.206  1.00  0.00     0.196 C 
ATOM      7  F   UNL     1      45.880 122.603  22.296  1.00  0.00    -0.245 F 
ATOM      8  C   UNL     1      45.451 124.723  23.324  1.00  0.00     0.150 C 
ENDROOT
BRANCH   1   9
ATOM      9  C   UNL     1      44.874 127.092  22.595  1.00  0.00     0.249 C 
ATOM     10  O   UNL     1      45.709 127.061  21.652  1.00  0.00    -0.269 OA
BRANCH   9  11
ATOM     11  C   UNL     1      44.255 128.383  22.990  1.00  0.00     0.010 C 
ATOM     12  C   UNL     1      44.514 129.610  22.150  1.00  0.00     0.050 C 
BRANCH  11  13
ATOM     13  C   UNL     1      43.546 128.462  24.134  1.00  0.00    -0.021 C 
ATOM     14  C   UNL     1      42.906 129.727  24.624  1.00  0.00     0.036 C 
ENDBRANCH  11  13
ENDBRANCH   9  11
ENDBRANCH   1   9
BRANCH   8  15
ATOM     15  C   UNL     1      46.910 125.166  23.352  1.00  0.00    -0.022 A 
ATOM     16  C   UNL     1      47.515 125.742  24.486  1.00  0.00     0.007 A 
ATOM     17  C   UNL     1      47.704 124.918  22.221  1.00  0.00     0.007 A 
ATOM     18  C   UNL     1      48.869 126.084  24.473  1.00  0.00     0.012 A 
ATOM     19  C   UNL     1      49.059 125.258  22.208  1.00  0.00     0.012 A 
ATOM     20  C   UNL     1      49.661 125.848  23.334  1.00  0.00     0.017 A 
BRANCH  20  21
ATOM     21  C   UNL     1      51.103 126.213  23.340  1.00  0.00     0.159 C 
ATOM     22  O   UNL     1      51.738 126.271  22.253  1.00  0.00    -0.295 OA
ATOM     23  C   UNL     1      51.839 126.516  24.612  1.00  0.00     0.093 C 
ENDBRANCH  20  21
ENDBRANCH   8  15
TORSDOF 5
ENDMDL
MODEL 2
REMARK VINA RESULT:      -3.7      6.476      8.456
REMARK SMILES C/C=C(\C)C(=O)N1CC[C@@H](C)[C@H](F)[C@H]1c1ccc(C(C)=O)cc1
REMARK SMILES IDX 7 1 8 2 9 3 10 4 11 5 12 6 13 7 14 8 5 9 6 10 3 11 4 12 2 13
REMARK SMILES IDX 1 14 15 15 16 16 23 17 17 18 22 19 18 20 19 21 21 22 20 23
REMARK H PARENT
ROOT
ATOM      1  N   UNL     1      44.727 130.867  20.493  1.00  0.00    -0.329 N 
ATOM      2  C   UNL     1      43.941 130.733  21.723  1.00  0.00     0.121 C 
ATOM      3  C   UNL     1      43.019 131.951  21.868  1.00  0.00     0.028 C 
ATOM      4  C   UNL     1      42.164 132.161  20.596  1.00  0.00     0.024 C 
ATOM      5  C   UNL     1      41.307 133.425  20.737  1.00  0.00     0.011 C 
ATOM      6  C   UNL     1      43.055 132.237  19.333  1.00  0.00     0.196 C 
ATOM      7  F   UNL     1      42.259 132.315  18.202  1.00  0.00    -0.245 F 
ATOM      8  C   UNL     1      43.954 130.985  19.246  1.00  0.00     0.150 C 
ENDROOT
BRANCH   1   9
ATOM      9  C   UNL     1      46.078 131.356  20.598  1.00  0.00     0.249 C 
ATOM     10  O   UNL     1      47.037 130.590  20.312  1.00  0.00    -0.269 OA
BRANCH   9  11
ATOM     11  C   UNL     1      46.352 132.750  21.032  1.00  0.00     0.010 C 
ATOM     12  C   UNL     1      45.651 133.889  20.333  1.00  0.00     0.050 C 
BRANCH  11  13
ATOM     13  C   UNL     1      47.283 132.985  21.978  1.00  0.00    -0.021 C 
ATOM     14  C   UNL     1      48.204 134.168  21.956  1.00  0.00     0.036 C 
ENDBRANCH  11  13
ENDBRANCH   9  11
ENDBRANCH   1   9
BRANCH   8  15
ATOM     15  C   UNL     1      44.844 130.893  18.011  1.00  0.00    -0.022 A 
ATOM     16  C   UNL     1      45.515 129.713  17.636  1.00  0.00     0.007 A 
ATOM     17  C   UNL     1      44.937 132.014  17.171  1.00  0.00     0.007 A 
ATOM     18  C   UNL     1      46.278 129.670  16.467  1.00  0.00     0.012 A 
ATOM     19  C   UNL     1      45.698 131.971  16.000  1.00  0.00     0.012 A 
ATOM     20  C   UNL     1      46.381 130.798  15.633  1.00  0.00     0.017 A 
BRANCH  20  21
ATOM     21  C   UNL     1      47.194 130.733  14.388  1.00  0.00     0.159 C 
ATOM     22  O   UNL     1      47.339 131.766  13.680  1.00  0.00    -0.295 OA
ATOM     23  C   UNL     1      47.854 129.463  13.938  1.00  0.00     0.093 C 
ENDBRANCH  20  21
ENDBRANCH   8  15
TORSDOF 5
ENDMDL
MODEL 3
REMARK VINA RESULT:      -3.5      6.468      8.480
REMARK SMILES C/C=C(\C)C(=O)N1CC[C@@H](C)[C@H](F)[C@H]1c1ccc(C(C)=O)cc1
REMARK SMILES IDX 7 1 8 2 9 3 10 4 11 5 12 6 13 7 14 8 5 9 6 10 3 11 4 12 2 13
REMARK SMILES IDX 1 14 15 15 16 16 23 17 17 18 22 19 18 20 19 21 21 22 20 23
REMARK H PARENT
ROOT
ATOM      1  N   UNL     1      44.809 130.819  20.273  1.00  0.00    -0.329 N 
ATOM      2  C   UNL     1      44.084 130.642  21.534  1.00  0.00     0.121 C 
ATOM      3  C   UNL     1      43.170 131.852  21.765  1.00  0.00     0.028 C 
ATOM      4  C   UNL     1      42.254 132.103  20.545  1.00  0.00     0.024 C 
ATOM      5  C   UNL     1      41.404 133.360  20.771  1.00  0.00     0.011 C 
ATOM      6  C   UNL     1      43.082 132.225  19.243  1.00  0.00     0.196 C 
ATOM      7  F   UNL     1      42.231 132.339  18.155  1.00  0.00    -0.245 F 
ATOM      8  C   UNL     1      43.977 130.979  19.070  1.00  0.00     0.150 C 
ENDROOT
BRANCH   1   9
ATOM      9  C   UNL     1      46.164 131.308  20.328  1.00  0.00     0.249 C 
ATOM     10  O   UNL     1      47.102 130.580  19.904  1.00  0.00    -0.269 OA
BRANCH   9  11
ATOM     11  C   UNL     1      46.466 132.657  20.871  1.00  0.00     0.010 C 
ATOM     12  C   UNL     1      45.553 133.809  20.528  1.00  0.00     0.050 C 
BRANCH  11  13
ATOM     13  C   UNL     1      47.591 132.853  21.587  1.00  0.00    -0.021 C 
ATOM     14  C   UNL     1      47.978 134.178  22.173  1.00  0.00     0.036 C 
ENDBRANCH  11  13
ENDBRANCH   9  11
ENDBRANCH   1   9
BRANCH   8  15
ATOM     15  C   UNL     1      44.805 130.931  17.790  1.00  0.00    -0.022 A 
ATOM     16  C   UNL     1      45.066 132.069  17.003  1.00  0.00     0.007 A 
ATOM     17  C   UNL     1      45.395 129.710  17.423  1.00  0.00     0.007 A 
ATOM     18  C   UNL     1      45.873 131.977  15.866  1.00  0.00     0.012 A 
ATOM     19  C   UNL     1      46.203 129.618  16.287  1.00  0.00     0.012 A 
ATOM     20  C   UNL     1      46.452 130.751  15.491  1.00  0.00     0.017 A 
BRANCH  20  21
ATOM     21  C   UNL     1      47.314 130.673  14.281  1.00  0.00     0.159 C 
ATOM     22  O   UNL     1      47.499 131.704  13.577  1.00  0.00    -0.295 OA
ATOM     23  C   UNL     1      47.977 129.395  13.860  1.00  0.00     0.093 C 
ENDBRANCH  20  21
ENDBRANCH   8  15
TORSDOF 5
ENDMDL
MODEL 4
REMARK VINA RESULT:      -2.9      1.843      2.416
REMARK SMILES C/C=C(\C)C(=O)N1CC[C@@H](C)[C@H](F)[C@H]1c1ccc(C(C)=O)cc1
REMARK SMILES IDX 7 1 8 2 9 3 10 4 11 5 12 6 13 7 14 8 5 9 6 10 3 11 4 12 2 13
REMARK SMILES IDX 1 14 15 15 16 16 23 17 17 18 22 19 18 20 19 21 21 22 20 23
REMARK H PARENT
ROOT
ATOM      1  N   UNL     1      44.597 125.018  23.972  1.00  0.00    -0.329 N 
ATOM      2  C   UNL     1      43.291 124.893  24.623  1.00  0.00     0.121 C 
ATOM      3  C   UNL     1      42.191 124.886  23.553  1.00  0.00     0.028 C 
ATOM      4  C   UNL     1      42.463 123.807  22.479  1.00  0.00     0.024 C 
ATOM      5  C   UNL     1      41.391 123.871  21.383  1.00  0.00     0.011 C 
ATOM      6  C   UNL     1      43.879 123.968  21.875  1.00  0.00     0.196 C 
ATOM      7  F   UNL     1      44.134 122.926  20.997  1.00  0.00    -0.245 F 
ATOM      8  C   UNL     1      44.935 123.965  23.001  1.00  0.00     0.150 C 
ENDROOT
BRANCH   1   9
ATOM      9  C   UNL     1      45.213 126.320  23.924  1.00  0.00     0.249 C 
ATOM     10  O   UNL     1      46.241 126.544  24.619  1.00  0.00    -0.269 OA
BRANCH   9  11
ATOM     11  C   UNL     1      44.656 127.395  23.064  1.00  0.00     0.010 C 
ATOM     12  C   UNL     1      43.394 128.102  23.494  1.00  0.00     0.050 C 
BRANCH  11  13
ATOM     13  C   UNL     1      45.232 127.665  21.875  1.00  0.00    -0.021 C 
ATOM     14  C   UNL     1      45.495 129.056  21.381  1.00  0.00     0.036 C 
ENDBRANCH  11  13
ENDBRANCH   9  11
ENDBRANCH   1   9
BRANCH   8  15
ATOM     15  C   UNL     1      46.388 124.050  22.546  1.00  0.00    -0.022 A 
ATOM     16  C   UNL     1      47.108 125.260  22.502  1.00  0.00     0.007 A 
ATOM     17  C   UNL     1      47.058 122.858  22.228  1.00  0.00     0.007 A 
ATOM     18  C   UNL     1      48.453 125.274  22.125  1.00  0.00     0.012 A 
ATOM     19  C   UNL     1      48.404 122.871  21.852  1.00  0.00     0.012 A 
ATOM     20  C   UNL     1      49.120 124.081  21.794  1.00  0.00     0.017 A 
BRANCH  20  21
ATOM     21  C   UNL     1      50.554 124.114  21.399  1.00  0.00     0.159 C 
ATOM     22  O   UNL     1      51.449 124.033  22.284  1.00  0.00    -0.295 OA
ATOM     23  C   UNL     1      50.979 124.244  19.967  1.00  0.00     0.093 C 
ENDBRANCH  20  21
ENDBRANCH   8  15
TORSDOF 5
ENDMDL
MODEL 5
REMARK VINA RESULT:      -2.8      2.615      5.600
REMARK SMILES C/C=C(\C)C(=O)N1CC[C@@H](C)[C@H](F)[C@H]1c1ccc(C(C)=O)cc1
REMARK SMILES IDX 7 1 8 2 9 3 10 4 11 5 12 6 13 7 14 8 5 9 6 10 3 11 4 12 2 13
REMARK SMILES IDX 1 14 15 15 16 16 23 17 17 18 22 19 18 20 19 21 21 22 20 23
REMARK H PARENT
ROOT
ATOM      1  N   UNL     1      45.912 124.120  22.814  1.00  0.00    -0.329 N 
ATOM      2  C   UNL     1      46.671 122.867  22.831  1.00  0.00     0.121 C 
ATOM      3  C   UNL     1      47.782 122.934  21.775  1.00  0.00     0.028 C 
ATOM      4  C   UNL     1      48.653 124.198  21.959  1.00  0.00     0.024 C 
ATOM      5  C   UNL     1      49.708 124.280  20.848  1.00  0.00     0.011 C 
ATOM      6  C   UNL     1      47.781 125.476  21.986  1.00  0.00     0.196 C 
ATOM      7  F   UNL     1      48.574 126.579  22.261  1.00  0.00    -0.245 F 
ATOM      8  C   UNL     1      46.687 125.344  23.068  1.00  0.00     0.150 C 
ENDROOT
BRANCH   1   9
ATOM      9  C   UNL     1      44.661 124.149  22.100  1.00  0.00     0.249 C 
ATOM     10  O   UNL     1      44.645 124.522  20.895  1.00  0.00    -0.269 OA
BRANCH   9  11
ATOM     11  C   UNL     1      43.395 123.740  22.762  1.00  0.00     0.010 C 
ATOM     12  C   UNL     1      43.336 122.412  23.476  1.00  0.00     0.050 C 
BRANCH  11  13
ATOM     13  C   UNL     1      42.298 124.513  22.642  1.00  0.00    -0.021 C 
ATOM     14  C   UNL     1      41.536 125.053  23.815  1.00  0.00     0.036 C 
ENDBRANCH  11  13
ENDBRANCH   9  11
ENDBRANCH   1   9
BRANCH   8  15
ATOM     15  C   UNL     1      45.789 126.563  23.253  1.00  0.00    -0.022 A 
ATOM     16  C   UNL     1      45.765 127.642  22.349  1.00  0.00     0.007 A 
ATOM     17  C   UNL     1      44.892 126.572  24.333  1.00  0.00     0.007 A 
ATOM     18  C   UNL     1      44.887 128.711  22.540  1.00  0.00     0.012 A 
ATOM     19  C   UNL     1      44.012 127.640  24.524  1.00  0.00     0.012 A 
ATOM     20  C   UNL     1      43.998 128.726  23.630  1.00  0.00     0.017 A 
BRANCH  20  21
ATOM     21  C   UNL     1      43.065 129.870  23.816  1.00  0.00     0.159 C 
ATOM     22  O   UNL     1      42.099 129.766  24.620  1.00  0.00    -0.295 OA
ATOM     23  C   UNL     1      43.232 131.159  23.068  1.00  0.00     0.093 C 
ENDBRANCH  20  21
ENDBRANCH   8  15
TORSDOF 5
ENDMDL
MODEL 6
REMARK VINA RESULT:      -2.3      4.999      7.642
REMARK SMILES C/C=C(\C)C(=O)N1CC[C@@H](C)[C@H](F)[C@H]1c1ccc(C(C)=O)cc1
REMARK SMILES IDX 7 1 8 2 9 3 10 4 11 5 12 6 13 7 14 8 5 9 6 10 3 11 4 12 2 13
REMARK SMILES IDX 1 14 15 15 16 16 23 17 17 18 22 19 18 20 19 21 21 22 20 23
REMARK H PARENT
ROOT
ATOM      1  N   UNL     1      43.632 131.447  21.147  1.00  0.00    -0.329 N 
ATOM      2  C   UNL     1      43.343 131.628  22.572  1.00  0.00     0.121 C 
ATOM      3  C   UNL     1      43.403 130.266  23.276  1.00  0.00     0.028 C 
ATOM      4  C   UNL     1      44.744 129.549  22.994  1.00  0.00     0.024 C 
ATOM      5  C   UNL     1      44.749 128.161  23.647  1.00  0.00     0.011 C 
ATOM      6  C   UNL     1      45.010 129.443  21.473  1.00  0.00     0.196 C 
ATOM      7  F   UNL     1      46.264 128.897  21.253  1.00  0.00    -0.245 F 
ATOM      8  C   UNL     1      44.936 130.844  20.827  1.00  0.00     0.150 C 
ENDROOT
BRANCH   1   9
ATOM      9  C   UNL     1      42.524 131.389  20.228  1.00  0.00     0.249 C 
ATOM     10  O   UNL     1      42.054 130.266  19.898  1.00  0.00    -0.269 OA
BRANCH   9  11
ATOM     11  C   UNL     1      41.927 132.630  19.673  1.00  0.00     0.010 C 
ATOM     12  C   UNL     1      41.757 132.760  18.179  1.00  0.00     0.050 C 
BRANCH  11  13
ATOM     13  C   UNL     1      41.628 133.654  20.497  1.00  0.00    -0.021 C 
ATOM     14  C   UNL     1      40.581 133.574  21.568  1.00  0.00     0.036 C 
ENDBRANCH  11  13
ENDBRANCH   9  11
ENDBRANCH   1   9
BRANCH   8  15
ATOM     15  C   UNL     1      45.243 130.902  19.335  1.00  0.00    -0.022 A 
ATOM     16  C   UNL     1      45.724 129.796  18.608  1.00  0.00     0.007 A 
ATOM     17  C   UNL     1      44.963 132.091  18.642  1.00  0.00     0.007 A 
ATOM     18  C   UNL     1      45.942 129.891  17.231  1.00  0.00     0.012 A 
ATOM     19  C   UNL     1      45.179 132.185  17.264  1.00  0.00     0.012 A 
ATOM     20  C   UNL     1      45.673 131.086  16.540  1.00  0.00     0.017 A 
BRANCH  20  21
ATOM     21  C   UNL     1      45.906 131.167  15.072  1.00  0.00     0.159 C 
ATOM     22  O   UNL     1      47.085 131.155  14.624  1.00  0.00    -0.295 OA
ATOM     23  C   UNL     1      44.773 131.266  14.094  1.00  0.00     0.093 C 
ENDBRANCH  20  21
ENDBRANCH   8  15
TORSDOF 5
ENDMDL
MODEL 7
REMARK VINA RESULT:      -2.2      5.068      8.043
REMARK SMILES C/C=C(\C)C(=O)N1CC[C@@H](C)[C@H](F)[C@H]1c1ccc(C(C)=O)cc1
REMARK SMILES IDX 7 1 8 2 9 3 10 4 11 5 12 6 13 7 14 8 5 9 6 10 3 11 4 12 2 13
REMARK SMILES IDX 1 14 15 15 16 16 23 17 17 18 22 19 18 20 19 21 21 22 20 23
REMARK H PARENT
ROOT
ATOM      1  N   UNL     1      44.073 131.323  22.662  1.00  0.00    -0.329 N 
ATOM      2  C   UNL     1      43.822 131.815  24.020  1.00  0.00     0.121 C 
ATOM      3  C   UNL     1      45.136 132.328  24.623  1.00  0.00     0.028 C 
ATOM      4  C   UNL     1      45.811 133.365  23.695  1.00  0.00     0.024 C 
ATOM      5  C   UNL     1      47.157 133.805  24.284  1.00  0.00     0.011 C 
ATOM      6  C   UNL     1      45.994 132.797  22.266  1.00  0.00     0.196 C 
ATOM      7  F   UNL     1      46.499 133.781  21.432  1.00  0.00    -0.245 F 
ATOM      8  C   UNL     1      44.638 132.301  21.719  1.00  0.00     0.150 C 
ENDROOT
BRANCH   1   9
ATOM      9  C   UNL     1      44.232 129.904  22.470  1.00  0.00     0.249 C 
ATOM     10  O   UNL     1      45.093 129.484  21.651  1.00  0.00    -0.269 OA
BRANCH   9  11
ATOM     11  C   UNL     1      43.401 128.934  23.229  1.00  0.00     0.010 C 
ATOM     12  C   UNL     1      44.009 127.619  23.651  1.00  0.00     0.050 C 
BRANCH  11  13
ATOM     13  C   UNL     1      42.099 129.201  23.452  1.00  0.00    -0.021 C 
ATOM     14  C   UNL     1      41.065 128.139  23.679  1.00  0.00     0.036 C 
ENDBRANCH  11  13
ENDBRANCH   9  11
ENDBRANCH   1   9
BRANCH   8  15
ATOM     15  C   UNL     1      44.655 131.773  20.289  1.00  0.00    -0.022 A 
ATOM     16  C   UNL     1      43.576 131.936  19.399  1.00  0.00     0.007 A 
ATOM     17  C   UNL     1      45.829 131.162  19.817  1.00  0.00     0.007 A 
ATOM     18  C   UNL     1      43.664 131.475  18.083  1.00  0.00     0.012 A 
ATOM     19  C   UNL     1      45.918 130.703  18.500  1.00  0.00     0.012 A 
ATOM     20  C   UNL     1      44.835 130.852  17.615  1.00  0.00     0.017 A 
BRANCH  20  21
ATOM     21  C   UNL     1      44.913 130.372  16.208  1.00  0.00     0.159 C 
ATOM     22  O   UNL     1      45.333 129.208  15.967  1.00  0.00    -0.295 OA
ATOM     23  C   UNL     1      44.507 131.237  15.052  1.00  0.00     0.093 C 
ENDBRANCH  20  21
ENDBRANCH   8  15
TORSDOF 5
ENDMDL
MODEL 8
REMARK VINA RESULT:      -2.2      5.046      7.674
REMARK SMILES C/C=C(\C)C(=O)N1CC[C@@H](C)[C@H](F)[C@H]1c1ccc(C(C)=O)cc1
REMARK SMILES IDX 7 1 8 2 9 3 10 4 11 5 12 6 13 7 14 8 5 9 6 10 3 11 4 12 2 13
REMARK SMILES IDX 1 14 15 15 16 16 23 17 17 18 22 19 18 20 19 21 21 22 20 23
REMARK H PARENT
ROOT
ATOM      1  N   UNL     1      43.620 131.439  21.105  1.00  0.00    -0.329 N 
ATOM      2  C   UNL     1      43.397 131.562  22.548  1.00  0.00     0.121 C 
ATOM      3  C   UNL     1      43.531 130.179  23.200  1.00  0.00     0.028 C 
ATOM      4  C   UNL     1      44.875 129.512  22.827  1.00  0.00     0.024 C 
ATOM      5  C   UNL     1      44.952 128.103  23.429  1.00  0.00     0.011 C 
ATOM      6  C   UNL     1      45.068 129.467  21.292  1.00  0.00     0.196 C 
ATOM      7  F   UNL     1      46.325 128.966  20.992  1.00  0.00    -0.245 F 
ATOM      8  C   UNL     1      44.923 130.886  20.701  1.00  0.00     0.150 C 
ENDROOT
BRANCH   1   9
ATOM      9  C   UNL     1      42.469 131.379  20.241  1.00  0.00     0.249 C 
ATOM     10  O   UNL     1      41.923 130.265  20.014  1.00  0.00    -0.269 OA
BRANCH   9  11
ATOM     11  C   UNL     1      41.917 132.610  19.620  1.00  0.00     0.010 C 
ATOM     12  C   UNL     1      41.771 132.674  18.119  1.00  0.00     0.050 C 
BRANCH  11  13
ATOM     13  C   UNL     1      41.636 133.679  20.391  1.00  0.00    -0.021 C 
ATOM     14  C   UNL     1      40.639 133.652  21.511  1.00  0.00     0.036 C 
ENDBRANCH  11  13
ENDBRANCH   9  11
ENDBRANCH   1   9
BRANCH   8  15
ATOM     15  C   UNL     1      45.153 131.004  19.198  1.00  0.00    -0.022 A 
ATOM     16  C   UNL     1      44.985 132.209  18.490  1.00  0.00     0.007 A 
ATOM     17  C   UNL     1      45.626 129.878  18.505  1.00  0.00     0.007 A 
ATOM     18  C   UNL     1      45.258 132.273  17.121  1.00  0.00     0.012 A 
ATOM     19  C   UNL     1      45.901 129.942  17.137  1.00  0.00     0.012 A 
ATOM     20  C   UNL     1      45.719 131.141  16.425  1.00  0.00     0.017 A 
BRANCH  20  21
ATOM     21  C   UNL     1      46.010 131.229  14.969  1.00  0.00     0.159 C 
ATOM     22  O   UNL     1      47.159 131.572  14.579  1.00  0.00    -0.295 OA
ATOM     23  C   UNL     1      44.970 130.922  13.932  1.00  0.00     0.093 C 
ENDBRANCH  20  21
ENDBRANCH   8  15
TORSDOF 5
ENDMDL
MODEL 9
REMARK VINA RESULT:      -2.2      4.940      7.567
REMARK SMILES C/C=C(\C)C(=O)N1CC[C@@H](C)[C@H](F)[C@H]1c1ccc(C(C)=O)cc1
REMARK SMILES IDX 7 1 8 2 9 3 10 4 11 5 12 6 13 7 14 8 5 9 6 10 3 11 4 12 2 13
REMARK SMILES IDX 1 14 15 15 16 16 23 17 17 18 22 19 18 20 19 21 21 22 20 23
REMARK H PARENT
ROOT
ATOM      1  N   UNL     1      43.700 131.440  21.545  1.00  0.00    -0.329 N 
ATOM      2  C   UNL     1      43.531 131.547  22.996  1.00  0.00     0.121 C 
ATOM      3  C   UNL     1      43.603 130.146  23.618  1.00  0.00     0.028 C 
ATOM      4  C   UNL     1      44.893 129.409  23.190  1.00  0.00     0.024 C 
ATOM      5  C   UNL     1      44.904 127.986  23.764  1.00  0.00     0.011 C 
ATOM      6  C   UNL     1      45.032 129.383  21.648  1.00  0.00     0.196 C 
ATOM      7  F   UNL     1      46.247 128.815  21.298  1.00  0.00    -0.245 F 
ATOM      8  C   UNL     1      44.953 130.819  21.088  1.00  0.00     0.150 C 
ENDROOT
BRANCH   1   9
ATOM      9  C   UNL     1      42.520 131.465  20.718  1.00  0.00     0.249 C 
ATOM     10  O   UNL     1      42.008 130.377  20.339  1.00  0.00    -0.269 OA
BRANCH   9  11
ATOM     11  C   UNL     1      41.900 132.752  20.313  1.00  0.00     0.010 C 
ATOM     12  C   UNL     1      41.090 133.528  21.324  1.00  0.00     0.050 C 
BRANCH  11  13
ATOM     13  C   UNL     1      41.993 133.166  19.034  1.00  0.00    -0.021 C 
ATOM     14  C   UNL     1      41.795 132.260  17.856  1.00  0.00     0.036 C 
ENDBRANCH  11  13
ENDBRANCH   9  11
ENDBRANCH   1   9
BRANCH   8  15
ATOM     15  C   UNL     1      45.142 130.953  19.581  1.00  0.00    -0.022 A 
ATOM     16  C   UNL     1      45.064 132.186  18.905  1.00  0.00     0.007 A 
ATOM     17  C   UNL     1      45.483 129.805  18.846  1.00  0.00     0.007 A 
ATOM     18  C   UNL     1      45.294 132.259  17.529  1.00  0.00     0.012 A 
ATOM     19  C   UNL     1      45.716 129.878  17.471  1.00  0.00     0.012 A 
ATOM     20  C   UNL     1      45.623 131.106  16.792  1.00  0.00     0.017 A 
BRANCH  20  21
ATOM     21  C   UNL     1      45.870 131.203  15.328  1.00  0.00     0.159 C 
ATOM     22  O   UNL     1      45.067 131.847  14.599  1.00  0.00    -0.295 OA
ATOM     23  C   UNL     1      47.056 130.552  14.680  1.00  0.00     0.093 C 
ENDBRANCH  20  21
ENDBRANCH   8  15
TORSDOF 5
ENDMDL


