REMARK SMILES C=CC(=O)N1CCC[C@@H](c2ccc3ccc(C)c(F)c3n2)[C@@H]1F
REMARK SMILES IDX 5 1 6 2 7 3 8 4 9 5 22 6 23 7 3 8 4 9 2 10 1 11 10 12 11 13
REMARK SMILES IDX 21 14 12 15 20 16 13 17 18 18 14 19 16 20 15 21 19 22 17 23
REMARK H PARENT
ROOT
ATOM      1  N   UNL     1      -0.469  -1.046   1.798  1.00  0.00    -0.308 N 
ATOM      2  C   UNL     1      -0.718   0.148   2.622  1.00  0.00     0.123 C 
ATOM      3  C   UNL     1       0.506   1.068   2.598  1.00  0.00     0.022 C 
ATOM      4  C   UNL     1       0.951   1.450   1.171  1.00  0.00     0.017 C 
ATOM      5  C   UNL     1       0.341   0.552   0.072  1.00  0.00     0.093 C 
ATOM      6  C   UNL     1       0.249  -0.922   0.518  1.00  0.00     0.274 C 
ATOM      7  F   UNL     1      -0.418  -1.643  -0.460  1.00  0.00    -0.223 F 
ENDROOT
BRANCH   1   8
ATOM      8  C   UNL     1      -0.903  -2.350   2.237  1.00  0.00     0.248 C 
ATOM      9  O   UNL     1      -0.275  -3.374   1.850  1.00  0.00    -0.270 OA
BRANCH   8  10
ATOM     10  C   UNL     1      -2.091  -2.506   3.105  1.00  0.00     0.063 C 
ATOM     11  C   UNL     1      -2.456  -3.683   3.611  1.00  0.00     0.014 C 
ENDBRANCH   8  10
ENDBRANCH   1   8
BRANCH   5  12
ATOM     12  C   UNL     1       1.084   0.699  -1.237  1.00  0.00     0.049 A 
ATOM     13  C   UNL     1       2.423   0.290  -1.375  1.00  0.00     0.025 A 
ATOM     14  N   UNL     1       0.440   1.245  -2.306  1.00  0.00    -0.249 NA
ATOM     15  C   UNL     1       3.070   0.445  -2.602  1.00  0.00     0.012 A 
ATOM     16  C   UNL     1       1.045   1.409  -3.513  1.00  0.00     0.106 A 
ATOM     17  C   UNL     1       2.386   1.007  -3.686  1.00  0.00     0.003 A 
ATOM     18  C   UNL     1       0.340   1.974  -4.583  1.00  0.00     0.152 A 
ATOM     19  C   UNL     1       3.008   1.172  -4.931  1.00  0.00     0.011 A 
ATOM     20  C   UNL     1       0.969   2.150  -5.828  1.00  0.00    -0.013 A 
ATOM     21  C   UNL     1       2.301   1.736  -5.996  1.00  0.00     0.007 A 
ATOM     22  F   UNL     1      -0.955   2.351  -4.413  1.00  0.00    -0.204 F 
ATOM     23  C   UNL     1       0.205   2.733  -6.982  1.00  0.00     0.047 C 
ENDBRANCH   5  12
TORSDOF 3


