REMARK SMILES Cc1c(CCC(O)=C2CCC2)c(F)cc2[nH]c(-c3nc[nH+]cc3F)cc12
REMARK SMILES IDX 4 1 3 2 2 3 26 4 12 5 25 6 15 7 14 8 17 9 16 10 1 11 13 12
REMARK SMILES IDX 18 14 19 15 23 16 20 17 22 18 21 19 24 20 5 22 6 23 7 24
REMARK SMILES IDX 8 26 9 27 11 28 10 29
REMARK H PARENT 16 13 21 21 7 25
ROOT
ATOM      1  C   UNL     1      -0.745  -3.570   0.911  1.00  0.00     0.047 C 
ENDROOT
BRANCH   1   2
ATOM      2  C   UNL     1      -0.575  -2.556  -0.204  1.00  0.00    -0.008 A 
ATOM      3  C   UNL     1       0.677  -1.918  -0.467  1.00  0.00    -0.036 A 
ATOM      4  C   UNL     1       0.705  -0.948  -1.486  1.00  0.00     0.004 A 
ATOM      5  C   UNL     1      -1.719  -2.204  -0.974  1.00  0.00     0.128 A 
ATOM      6  C   UNL     1       1.729  -0.148  -1.964  1.00  0.00     0.041 A 
ATOM      7  C   UNL     1      -0.414  -0.623  -2.210  1.00  0.00     0.049 A 
ATOM      8  C   UNL     1      -1.640  -1.232  -1.980  1.00  0.00     0.066 A 
ATOM      9  C   UNL     1       1.163   0.625  -2.974  1.00  0.00     0.095 A 
ATOM     10  N   UNL     1      -0.152   0.334  -3.115  1.00  0.00    -0.351 N 
ATOM     11  C   UNL     1       1.933  -2.287   0.284  1.00  0.00     0.045 C 
ATOM     12  F   UNL     1      -2.916  -2.799  -0.739  1.00  0.00    -0.207 F 
ATOM     13  H   UNL     1      -0.846   0.782  -3.753  1.00  0.00     0.167 HD
BRANCH   9  14
ATOM     14  C   UNL     1       1.891   1.660  -3.740  1.00  0.00     0.237 A 
ATOM     15  N   UNL     1       3.021   2.198  -3.203  1.00  0.00    -0.044 NA
ATOM     16  C   UNL     1       1.470   2.094  -5.009  1.00  0.00     0.215 A 
ATOM     17  C   UNL     1       3.733   3.153  -3.855  1.00  0.00     0.449 A 
ATOM     18  C   UNL     1       2.216   3.076  -5.661  1.00  0.00     0.241 A 
ATOM     19  N   UNL     1       3.328   3.590  -5.075  1.00  0.00    -0.247 N 
ATOM     20  F   UNL     1       0.395   1.553  -5.634  1.00  0.00    -0.198 F 
ATOM     21  H   UNL     1       3.882   4.324  -5.571  1.00  0.00     0.311 HD
ENDBRANCH   9  14
ENDBRANCH   1   2
BRANCH   1  22
ATOM     22  C   UNL     1      -1.430  -2.959   2.144  1.00  0.00     0.079 C 
BRANCH  22  23
ATOM     23  C   UNL     1      -0.523  -2.003   2.871  1.00  0.00     0.092 C 
BRANCH  23  24
ATOM     24  O   UNL     1       0.436  -2.491   3.754  1.00  0.00    -0.512 OA
ATOM     25  H   UNL     1       0.537  -3.485   3.921  1.00  0.00     0.293 HD
ENDBRANCH  23  24
BRANCH  23  26
ATOM     26  C   UNL     1      -0.599  -0.690   2.664  1.00  0.00    -0.033 C 
ATOM     27  C   UNL     1       0.128   0.547   3.152  1.00  0.00     0.035 C 
ATOM     28  C   UNL     1      -1.429   0.279   1.841  1.00  0.00     0.035 C 
ATOM     29  C   UNL     1      -0.699   1.485   2.335  1.00  0.00     0.009 C 
ENDBRANCH  23  26
ENDBRANCH  22  23
ENDBRANCH   1  22
TORSDOF 6


