REMARK SMILES N[NH2+]c1ccc2cc[nH]c2c1
REMARK SMILES IDX 2 1 1 4 3 7 4 8 11 9 5 10 10 11 6 12 9 13 7 14 8 15
REMARK H PARENT 2 2 2 3 1 5 1 6 9 16
ROOT
ATOM      1  N   UNL     1       2.592   0.545  -0.428  1.00  0.00    -0.239 N 
ATOM      2  H   UNL     1       3.080   0.102  -1.241  1.00  0.00     0.376 HD
ATOM      3  H   UNL     1       2.671   1.584  -0.526  1.00  0.00     0.376 HD
ENDROOT
BRANCH   1   4
ATOM      4  N   UNL     1       3.249   0.153   0.758  1.00  0.00    -0.178 NA
ATOM      5  H   UNL     1       3.181  -0.887   0.862  1.00  0.00     0.183 HD
ATOM      6  H   UNL     1       2.771   0.597   1.579  1.00  0.00     0.183 HD
ENDBRANCH   1   4
BRANCH   1   7
ATOM      7  C   UNL     1       1.207   0.142  -0.387  1.00  0.00     0.150 A 
ATOM      8  C   UNL     1       0.822  -1.141  -0.860  1.00  0.00     0.070 A 
ATOM      9  C   UNL     1       0.232   1.002   0.170  1.00  0.00     0.096 A 
ATOM     10  C   UNL     1      -0.521  -1.557  -0.798  1.00  0.00     0.016 A 
ATOM     11  C   UNL     1      -1.088   0.559   0.215  1.00  0.00     0.051 A 
ATOM     12  C   UNL     1      -1.450  -0.675  -0.253  1.00  0.00    -0.000 A 
ATOM     13  N   UNL     1      -2.154   1.217   0.697  1.00  0.00    -0.361 N 
ATOM     14  C   UNL     1      -2.808  -0.808  -0.062  1.00  0.00     0.028 A 
ATOM     15  C   UNL     1      -3.209   0.386   0.529  1.00  0.00     0.083 A 
ATOM     16  H   UNL     1      -2.171   2.174   1.116  1.00  0.00     0.166 HD
ENDBRANCH   1   7
TORSDOF 2


