REMARK SMILES CC(F)(F)COC(=O)N(c1cn2ccccc2n1)c1cc2cccc(F)c2[n-]1
REMARK SMILES IDX 6 1 5 2 2 3 1 4 3 5 4 6 7 7 8 8 9 9 10 10 11 11 18 12 12 13
REMARK SMILES IDX 17 14 13 15 16 16 14 17 15 18 19 19 20 20 28 21 21 22 27 23
REMARK SMILES IDX 22 24 25 25 23 26 24 27 26 28
REMARK H PARENT
ROOT
ATOM      1  O   UNL     1      -1.361   1.487  -0.055  1.00  0.00    -0.458 OA
ENDROOT
BRANCH   1   2
ATOM      2  C   UNL     1      -2.251   2.598  -0.001  1.00  0.00     0.309 C 
BRANCH   2   3
ATOM      3  C   UNL     1      -2.951   2.776  -1.351  1.00  0.00     0.278 C 
ATOM      4  C   UNL     1      -3.789   1.550  -1.719  1.00  0.00     0.091 C 
ATOM      5  F   UNL     1      -3.780   3.883  -1.286  1.00  0.00    -0.203 F 
ATOM      6  F   UNL     1      -2.002   2.992  -2.335  1.00  0.00    -0.203 F 
ENDBRANCH   2   3
ENDBRANCH   1   2
BRANCH   1   7
ATOM      7  C   UNL     1      -0.518   1.133   1.006  1.00  0.00     0.334 C 
ATOM      8  O   UNL     1      -0.501   1.834   2.055  1.00  0.00    -0.250 OA
BRANCH   7   9
ATOM      9  N   UNL     1       0.327  -0.029   0.894  1.00  0.00    -0.337 N 
BRANCH   9  10
ATOM     10  C   UNL     1       0.474  -0.681  -0.381  1.00  0.00     0.079 A 
ATOM     11  C   UNL     1       0.666  -2.042  -0.576  1.00  0.00     0.117 A 
ATOM     12  N   UNL     1       0.394  -0.033  -1.572  1.00  0.00    -0.233 NA
ATOM     13  N   UNL     1       0.708  -2.236  -1.901  1.00  0.00    -0.307 N 
ATOM     14  C   UNL     1       0.545  -1.028  -2.469  1.00  0.00     0.136 A 
ATOM     15  C   UNL     1       0.860  -3.383  -2.609  1.00  0.00     0.093 A 
ATOM     16  C   UNL     1       0.526  -0.887  -3.856  1.00  0.00     0.048 A 
ATOM     17  C   UNL     1       0.847  -3.302  -4.010  1.00  0.00     0.018 A 
ATOM     18  C   UNL     1       0.679  -2.049  -4.631  1.00  0.00     0.005 A 
ENDBRANCH   9  10
BRANCH   9  19
ATOM     19  C   UNL     1       1.001  -0.550   2.058  1.00  0.00    -0.046 A 
ATOM     20  C   UNL     1       2.246  -1.177   2.043  1.00  0.00     0.008 A 
ATOM     21  N   UNL     1       0.496  -0.450   3.313  1.00  0.00    -0.433 NA
ATOM     22  C   UNL     1       2.497  -1.475   3.358  1.00  0.00    -0.020 A 
ATOM     23  C   UNL     1       1.430  -1.027   4.092  1.00  0.00     0.002 A 
ATOM     24  C   UNL     1       3.593  -2.098   3.953  1.00  0.00     0.008 A 
ATOM     25  C   UNL     1       1.388  -1.175   5.477  1.00  0.00     0.127 A 
ATOM     26  C   UNL     1       3.577  -2.259   5.350  1.00  0.00     0.004 A 
ATOM     27  C   UNL     1       2.478  -1.800   6.110  1.00  0.00     0.039 A 
ATOM     28  F   UNL     1       0.328  -0.729   6.196  1.00  0.00    -0.207 F 
ENDBRANCH   9  19
ENDBRANCH   7   9
ENDBRANCH   1   7
TORSDOF 6


