REMARK SMILES N#Cc1cnc(N(c2cn3ccccc3n2)c2cc3ccccc3[nH]2)cn1
REMARK SMILES IDX 3 1 4 2 5 3 6 4 26 5 27 6 2 7 1 8 7 9 8 10 9 11 16 12 10 13
REMARK SMILES IDX 15 14 11 15 14 16 12 17 13 18 17 19 18 20 25 21 19 22 24 23
REMARK SMILES IDX 20 24 23 25 21 26 22 27
REMARK H PARENT 25 28
ROOT
ATOM      1  C   UNL     1      -0.340   4.798   0.179  1.00  0.00     0.158 A 
ATOM      2  C   UNL     1       0.730   4.130   0.781  1.00  0.00     0.153 A 
ATOM      3  N   UNL     1       0.768   2.772   0.754  1.00  0.00    -0.234 NA
ATOM      4  C   UNL     1      -0.214   2.042   0.157  1.00  0.00     0.158 A 
ATOM      5  C   UNL     1      -1.283   2.719  -0.453  1.00  0.00     0.160 A 
ATOM      6  N   UNL     1      -1.319   4.077  -0.426  1.00  0.00    -0.240 NA
ENDROOT
BRANCH   1   7
ATOM      7  C   UNL     1      -0.408   6.233   0.190  1.00  0.00     0.121 C 
ATOM      8  N   UNL     1      -0.464   7.389   0.199  1.00  0.00    -0.191 NA
ENDBRANCH   1   7
BRANCH   4   9
ATOM      9  N   UNL     1      -0.133   0.603   0.142  1.00  0.00    -0.261 N 
BRANCH   9  10
ATOM     10  C   UNL     1      -1.325  -0.192   0.301  1.00  0.00     0.159 A 
ATOM     11  C   UNL     1      -1.526  -1.462  -0.221  1.00  0.00     0.140 A 
ATOM     12  N   UNL     1      -2.424   0.231   0.975  1.00  0.00    -0.211 NA
ATOM     13  N   UNL     1      -2.762  -1.831   0.140  1.00  0.00    -0.305 N 
ATOM     14  C   UNL     1      -3.273  -0.809   0.848  1.00  0.00     0.139 A 
ATOM     15  C   UNL     1      -3.440  -2.978  -0.119  1.00  0.00     0.093 A 
ATOM     16  C   UNL     1      -4.563  -0.877   1.370  1.00  0.00     0.048 A 
ATOM     17  C   UNL     1      -4.744  -3.102   0.383  1.00  0.00     0.018 A 
ATOM     18  C   UNL     1      -5.303  -2.046   1.129  1.00  0.00     0.005 A 
ENDBRANCH   9  10
BRANCH   9  19
ATOM     19  C   UNL     1       1.157  -0.029   0.031  1.00  0.00     0.118 A 
ATOM     20  C   UNL     1       1.521  -1.230   0.642  1.00  0.00     0.056 A 
ATOM     21  N   UNL     1       2.190   0.498  -0.670  1.00  0.00    -0.341 N 
ATOM     22  C   UNL     1       2.835  -1.423   0.278  1.00  0.00     0.002 A 
ATOM     23  C   UNL     1       3.207  -0.365  -0.512  1.00  0.00     0.047 A 
ATOM     24  C   UNL     1       3.720  -2.452   0.593  1.00  0.00     0.010 A 
ATOM     25  C   UNL     1       4.491  -0.265  -1.045  1.00  0.00     0.027 A 
ATOM     26  C   UNL     1       5.024  -2.378   0.069  1.00  0.00     0.001 A 
ATOM     27  C   UNL     1       5.408  -1.290  -0.746  1.00  0.00     0.002 A 
ATOM     28  H   UNL     1       2.196   1.382  -1.226  1.00  0.00     0.168 HD
ENDBRANCH   9  19
ENDBRANCH   4   9
TORSDOF 4


