REMARK SMILES Cc1ccc(-c2ccc(N=[N+]=[N-])cc2)c2cn[nH]c12
REMARK SMILES IDX 8 1 7 2 6 3 14 4 13 5 9 6 10 7 11 8 12 9 5 10 4 11 15 12
REMARK SMILES IDX 3 13 19 14 16 15 2 16 18 17 17 18 1 19
REMARK H PARENT 18 20
ROOT
ATOM      1  C   UNL     1      -3.019  -2.420  -0.398  1.00  0.00     0.011 A 
ATOM      2  C   UNL     1      -1.785  -1.804  -0.172  1.00  0.00     0.009 A 
ATOM      3  C   UNL     1      -1.724  -0.456   0.217  1.00  0.00    -0.018 A 
ATOM      4  C   UNL     1      -2.920   0.259   0.394  1.00  0.00     0.009 A 
ATOM      5  C   UNL     1      -4.154  -0.357   0.167  1.00  0.00     0.011 A 
ATOM      6  C   UNL     1      -4.211  -1.705  -0.233  1.00  0.00     0.038 A 
ENDROOT
BRANCH   6   7
ATOM      7  N   UNL     1      -5.458  -2.371  -0.473  1.00  0.00    -0.061 NA
BRANCH   7   8
ATOM      8  N   UNL     1      -6.543  -1.802  -0.346  1.00  0.00     0.005 N 
ATOM      9  N   UNL     1      -7.628  -1.236  -0.220  1.00  0.00    -0.003 NA
ENDBRANCH   7   8
ENDBRANCH   6   7
BRANCH   3  10
ATOM     10  C   UNL     1      -0.419   0.199   0.468  1.00  0.00    -0.007 A 
ATOM     11  C   UNL     1      -0.201   0.951   1.645  1.00  0.00     0.010 A 
ATOM     12  C   UNL     1       0.649   0.112  -0.436  1.00  0.00     0.028 A 
ATOM     13  C   UNL     1       1.045   1.569   1.890  1.00  0.00     0.006 A 
ATOM     14  C   UNL     1       1.855   0.713  -0.199  1.00  0.00     0.069 A 
ATOM     15  C   UNL     1       0.777  -0.474  -1.681  1.00  0.00     0.144 A 
ATOM     16  C   UNL     1       2.102   1.453   0.962  1.00  0.00    -0.025 A 
ATOM     17  N   UNL     1       2.676   0.493  -1.240  1.00  0.00    -0.278 N 
ATOM     18  N   UNL     1       2.025  -0.228  -2.145  1.00  0.00    -0.183 NA
ATOM     19  C   UNL     1       3.426   2.117   1.199  1.00  0.00     0.046 C 
ATOM     20  H   UNL     1       3.658   0.830  -1.351  1.00  0.00     0.190 HD
ENDBRANCH   3  10
TORSDOF 3


