REMARK SMILES Cc1c(CCC([O-])=C2CCC2)c(F)cc2[nH]c(-c3ncncc3F)cc12
REMARK SMILES IDX 4 1 3 2 2 3 26 4 12 5 25 6 15 7 14 8 17 9 16 10 1 11 13 12
REMARK SMILES IDX 18 14 19 15 23 16 20 17 22 18 21 19 24 20 5 21 6 22 7 23
REMARK SMILES IDX 8 24 9 25 11 26 10 27
REMARK H PARENT 16 13
ROOT
ATOM      1  C   UNL     1      -1.174   1.771  -1.015  1.00  0.00     0.042 C 
ENDROOT
BRANCH   1   2
ATOM      2  C   UNL     1      -1.173   0.497  -0.198  1.00  0.00    -0.008 A 
ATOM      3  C   UNL     1       0.043  -0.126   0.221  1.00  0.00    -0.036 A 
ATOM      4  C   UNL     1      -0.065  -1.295   0.994  1.00  0.00     0.003 A 
ATOM      5  C   UNL     1      -2.420  -0.110   0.119  1.00  0.00     0.128 A 
ATOM      6  C   UNL     1       0.901  -2.102   1.573  1.00  0.00     0.039 A 
ATOM      7  C   UNL     1      -1.279  -1.853   1.299  1.00  0.00     0.049 A 
ATOM      8  C   UNL     1      -2.474  -1.292   0.872  1.00  0.00     0.066 A 
ATOM      9  C   UNL     1       0.200  -3.126   2.212  1.00  0.00     0.068 A 
ATOM     10  N   UNL     1      -1.132  -2.969   2.031  1.00  0.00    -0.353 N 
ATOM     11  C   UNL     1       1.393   0.470  -0.096  1.00  0.00     0.045 C 
ATOM     12  F   UNL     1      -3.583   0.447  -0.303  1.00  0.00    -0.207 F 
ATOM     13  H   UNL     1      -1.896  -3.585   2.390  1.00  0.00     0.167 HD
BRANCH   9  14
ATOM     14  C   UNL     1       0.780  -4.269   2.954  1.00  0.00     0.126 A 
ATOM     15  N   UNL     1       0.010  -5.375   3.146  1.00  0.00    -0.232 NA
ATOM     16  C   UNL     1       2.086  -4.251   3.479  1.00  0.00     0.169 A 
ATOM     17  C   UNL     1       0.478  -6.460   3.816  1.00  0.00     0.222 A 
ATOM     18  C   UNL     1       2.546  -5.378   4.163  1.00  0.00     0.154 A 
ATOM     19  N   UNL     1       1.739  -6.457   4.318  1.00  0.00    -0.242 NA
ATOM     20  F   UNL     1       2.889  -3.164   3.379  1.00  0.00    -0.203 F 
ENDBRANCH   9  14
ENDBRANCH   1   2
BRANCH   1  21
ATOM     21  C   UNL     1      -1.198   1.453  -2.514  1.00  0.00     0.023 C 
BRANCH  21  22
ATOM     22  C   UNL     1      -1.161   2.716  -3.324  1.00  0.00    -0.133 C 
ATOM     23  O   UNL     1      -2.352   3.293  -3.748  1.00  0.00    -0.875 OA
BRANCH  22  24
ATOM     24  C   UNL     1      -0.007   3.308  -3.619  1.00  0.00    -0.082 C 
ATOM     25  C   UNL     1       1.471   3.075  -3.366  1.00  0.00     0.030 C 
ATOM     26  C   UNL     1       0.446   4.546  -4.368  1.00  0.00     0.030 C 
ATOM     27  C   UNL     1       1.897   4.298  -4.112  1.00  0.00     0.009 C 
ENDBRANCH  22  24
ENDBRANCH  21  22
ENDBRANCH   1  21
TORSDOF 5


