REMARK SMILES O=C(N[C@H]1CCCOC1)N1C[NH2+]C[C@H](F)[C@@H]1c1cc2ccc(F)cc2[nH]1
REMARK SMILES IDX 10 1 11 2 12 3 13 4 14 5 15 6 16 7 2 10 3 11 1 12 4 14 5 15
REMARK SMILES IDX 9 16 6 17 8 18 7 19 17 20 18 21 26 22 19 23 25 24 20 25
REMARK SMILES IDX 24 26 21 27 22 28 23 30
REMARK H PARENT 12 8 12 9 3 13 26 29
ROOT
ATOM      1  N   UNL     1       2.007  -0.312   1.510  1.00  0.00    -0.266 N 
ATOM      2  C   UNL     1       3.341   0.059   2.002  1.00  0.00     0.393 C 
ATOM      3  N   UNL     1       4.193  -1.135   2.072  1.00  0.00    -0.327 N 
ATOM      4  C   UNL     1       4.386  -1.798   0.763  1.00  0.00     0.302 C 
ATOM      5  C   UNL     1       3.267  -1.513  -0.262  1.00  0.00     0.250 C 
ATOM      6  F   UNL     1       3.606  -0.386  -0.996  1.00  0.00    -0.238 F 
ATOM      7  C   UNL     1       1.904  -1.308   0.427  1.00  0.00     0.179 C 
ATOM      8  H   UNL     1       3.757  -1.814   2.740  1.00  0.00     0.347 HD
ATOM      9  H   UNL     1       5.126  -0.862   2.460  1.00  0.00     0.347 HD
ENDROOT
BRANCH   1  10
ATOM     10  C   UNL     1       0.834   0.255   2.131  1.00  0.00     0.322 C 
ATOM     11  N   UNL     1      -0.414  -0.457   2.127  1.00  0.00    -0.333 N 
ATOM     12  O   UNL     1       0.903   1.390   2.678  1.00  0.00    -0.248 OA
ATOM     13  H   UNL     1      -0.405  -1.481   1.920  1.00  0.00     0.165 HD
BRANCH  11  14
ATOM     14  C   UNL     1      -1.689   0.205   2.415  1.00  0.00     0.109 C 
ATOM     15  C   UNL     1      -2.088   1.118   1.246  1.00  0.00     0.030 C 
ATOM     16  C   UNL     1      -2.800  -0.837   2.647  1.00  0.00     0.185 C 
ATOM     17  C   UNL     1      -3.500   1.667   1.456  1.00  0.00     0.031 C 
ATOM     18  O   UNL     1      -4.038  -0.203   2.913  1.00  0.00    -0.379 OA
ATOM     19  C   UNL     1      -4.466   0.519   1.772  1.00  0.00     0.160 C 
ENDBRANCH  11  14
ENDBRANCH   1  10
BRANCH   7  20
ATOM     20  C   UNL     1       0.871  -0.899  -0.595  1.00  0.00     0.042 A 
ATOM     21  C   UNL     1      -0.101  -1.742  -1.129  1.00  0.00     0.034 A 
ATOM     22  N   UNL     1       0.758   0.355  -1.097  1.00  0.00    -0.356 N 
ATOM     23  C   UNL     1      -0.835  -0.942  -1.977  1.00  0.00    -0.000 A 
ATOM     24  C   UNL     1      -0.290   0.315  -1.935  1.00  0.00     0.049 A 
ATOM     25  C   UNL     1      -1.957  -1.232  -2.751  1.00  0.00     0.013 A 
ATOM     26  C   UNL     1      -0.832   1.372  -2.665  1.00  0.00     0.065 A 
ATOM     27  C   UNL     1      -2.523  -0.186  -3.502  1.00  0.00     0.040 A 
ATOM     28  C   UNL     1      -1.964   1.111  -3.459  1.00  0.00     0.125 A 
ATOM     29  H   UNL     1       1.343   1.187  -0.861  1.00  0.00     0.166 HD
ATOM     30  F   UNL     1      -2.524   2.111  -4.183  1.00  0.00    -0.207 F 
ENDBRANCH   7  20
TORSDOF 3


