REMARK SMILES O=C([N-][C@H]1CC12CCC2)c1ccc(C(=O)N[C@@H]2C=CCC2)c(F)c1[O-]
REMARK SMILES IDX 10 1 11 2 12 3 13 4 22 5 23 6 24 7 25 8 2 9 1 10 3 11 4 12
REMARK SMILES IDX 5 13 6 14 7 15 9 16 8 17 14 18 16 19 15 20 17 22 18 23 21 24
REMARK SMILES IDX 19 25 20 26
REMARK H PARENT 16 21
ROOT
ATOM      1  C   UNL     1       0.980  -0.262   0.655  1.00  0.00    -0.006 A 
ATOM      2  C   UNL     1       0.460  -0.839  -0.518  1.00  0.00     0.010 A 
ATOM      3  C   UNL     1      -0.829  -0.531  -0.955  1.00  0.00     0.017 A 
ATOM      4  C   UNL     1      -1.639   0.354  -0.229  1.00  0.00     0.074 A 
ATOM      5  C   UNL     1      -1.122   0.950   0.937  1.00  0.00     0.128 A 
ATOM      6  F   UNL     1      -1.849   1.867   1.626  1.00  0.00    -0.207 F 
ATOM      7  C   UNL     1       0.172   0.645   1.378  1.00  0.00    -0.062 A 
ATOM      8  O   UNL     1       0.642   1.258   2.535  1.00  0.00    -0.870 OA
ENDROOT
BRANCH   1   9
ATOM      9  C   UNL     1       2.357  -0.610   1.096  1.00  0.00     0.082 C 
ATOM     10  O   UNL     1       2.854  -0.082   2.128  1.00  0.00    -0.315 OA
BRANCH   9  11
ATOM     11  N   UNL     1       3.136  -1.547   0.344  1.00  0.00    -0.646 NA
BRANCH  11  12
ATOM     12  C   UNL     1       4.501  -1.899   0.710  1.00  0.00    -0.100 C 
ATOM     13  C   UNL     1       5.346  -2.360  -0.484  1.00  0.00    -0.010 C 
ATOM     14  C   UNL     1       5.533  -0.972   0.117  1.00  0.00    -0.044 C 
ATOM     15  C   UNL     1       6.901  -0.609   0.613  1.00  0.00     0.006 C 
ATOM     16  C   UNL     1       5.400   0.208  -0.802  1.00  0.00     0.006 C 
ATOM     17  C   UNL     1       6.807   0.619  -0.318  1.00  0.00     0.001 C 
ENDBRANCH  11  12
ENDBRANCH   9  11
ENDBRANCH   1   9
BRANCH   4  18
ATOM     18  C   UNL     1      -3.005   0.658  -0.712  1.00  0.00     0.254 C 
ATOM     19  N   UNL     1      -4.075   0.916   0.211  1.00  0.00    -0.346 N 
ATOM     20  O   UNL     1      -3.236   0.660  -1.953  1.00  0.00    -0.269 OA
ATOM     21  H   UNL     1      -3.948   0.646   1.213  1.00  0.00     0.164 HD
BRANCH  19  22
ATOM     22  C   UNL     1      -5.411   1.305  -0.245  1.00  0.00     0.105 C 
ATOM     23  C   UNL     1      -6.154   1.988   0.849  1.00  0.00    -0.007 C 
ATOM     24  C   UNL     1      -6.266   0.070  -0.574  1.00  0.00     0.033 C 
ATOM     25  C   UNL     1      -7.248   1.334   1.198  1.00  0.00    -0.029 C 
ATOM     26  C   UNL     1      -7.442   0.091   0.408  1.00  0.00     0.029 C 
ENDBRANCH  19  22
ENDBRANCH   4  18
TORSDOF 5


