REMARK SMILES C[C@H]1NN(/C(O)=C/c2ccn[nH+]c2)[C@@H](c2cc3ccc(F)cc3[nH]2)O1
REMARK SMILES IDX 5 1 6 2 7 4 8 5 9 6 13 7 10 8 12 9 11 10 4 12 3 13 14 14
REMARK SMILES IDX 2 15 25 16 1 18 15 19 16 20 24 21 17 22 23 23 18 24 22 25
REMARK SMILES IDX 19 26 20 27 21 29
REMARK H PARENT 6 3 12 11 3 17 24 28
ROOT
ATOM      1  C   UNL     1      -1.089  -1.438   1.500  1.00  0.00     0.205 C 
ENDROOT
BRANCH   1   2
ATOM      2  O   UNL     1      -2.444  -1.232   1.766  1.00  0.00    -0.494 OA
ATOM      3  H   UNL     1      -2.757  -0.725   2.584  1.00  0.00     0.295 HD
ENDBRANCH   1   2
BRANCH   1   4
ATOM      4  C   UNL     1      -0.722  -2.100   0.389  1.00  0.00     0.082 C 
BRANCH   4   5
ATOM      5  C   UNL     1      -1.670  -2.579  -0.642  1.00  0.00     0.048 A 
ATOM      6  C   UNL     1      -1.430  -3.802  -1.277  1.00  0.00     0.041 A 
ATOM      7  C   UNL     1      -2.767  -1.813  -1.066  1.00  0.00     0.343 A 
ATOM      8  C   UNL     1      -2.302  -4.242  -2.270  1.00  0.00     0.185 A 
ATOM      9  N   UNL     1      -3.586  -2.289  -2.042  1.00  0.00    -0.106 N 
ATOM     10  N   UNL     1      -3.361  -3.469  -2.623  1.00  0.00    -0.011 NA
ATOM     11  H   UNL     1      -4.402  -1.716  -2.351  1.00  0.00     0.490 HD
ENDBRANCH   4   5
ENDBRANCH   1   4
BRANCH   1  12
ATOM     12  N   UNL     1      -0.104  -0.961   2.442  1.00  0.00    -0.242 N 
ATOM     13  N   UNL     1      -0.454  -0.526   3.715  1.00  0.00    -0.201 NA
ATOM     14  C   UNL     1       1.312  -0.807   2.194  1.00  0.00     0.283 C 
ATOM     15  C   UNL     1       0.830  -0.151   4.312  1.00  0.00     0.204 C 
ATOM     16  O   UNL     1       1.869  -0.241   3.351  1.00  0.00    -0.332 OA
ATOM     17  H   UNL     1      -0.833  -1.354   4.232  1.00  0.00     0.151 HD
ATOM     18  C   UNL     1       0.750   1.274   4.844  1.00  0.00     0.058 C 
BRANCH  14  19
ATOM     19  C   UNL     1       1.558   0.104   1.025  1.00  0.00     0.068 A 
ATOM     20  C   UNL     1       0.988   1.363   0.849  1.00  0.00     0.036 A 
ATOM     21  N   UNL     1       2.383  -0.205  -0.004  1.00  0.00    -0.355 N 
ATOM     22  C   UNL     1       1.494   1.817  -0.349  1.00  0.00     0.000 A 
ATOM     23  C   UNL     1       2.332   0.847  -0.836  1.00  0.00     0.049 A 
ATOM     24  C   UNL     1       1.269   3.007  -1.035  1.00  0.00     0.013 A 
ATOM     25  C   UNL     1       3.005   1.002  -2.047  1.00  0.00     0.065 A 
ATOM     26  C   UNL     1       1.935   3.193  -2.261  1.00  0.00     0.040 A 
ATOM     27  C   UNL     1       2.799   2.195  -2.766  1.00  0.00     0.125 A 
ATOM     28  H   UNL     1       2.937  -1.082  -0.129  1.00  0.00     0.166 HD
ATOM     29  F   UNL     1       3.433   2.387  -3.948  1.00  0.00    -0.207 F 
ENDBRANCH  14  19
ENDBRANCH   1  12
TORSDOF 5


