REMARK SMILES Cc1cc(-c2cccc3[nH+]coc23)cc(O/C(S)=N/c2ccc(-n3ccc[nH+]3)cc2)c1F
REMARK SMILES IDX 17 1 18 2 19 4 20 5 21 6 30 7 22 8 29 9 23 10 24 11 25 12
REMARK SMILES IDX 28 13 26 14 27 15 16 17 15 18 14 19 31 20 4 21 2 22 3 23
REMARK SMILES IDX 32 24 1 25 5 26 6 27 13 28 7 29 9 30 12 31 8 32 10 33 11 34
REMARK H PARENT 18 3 28 16 10 35
ROOT
ATOM      1  C   UNL     1      -2.356  -0.044  -2.498  1.00  0.00     0.253 C 
ENDROOT
BRANCH   1   2
ATOM      2  S   UNL     1      -3.036   0.816  -3.921  1.00  0.00    -0.084 SA
ATOM      3  H   UNL     1      -3.862   1.620  -3.114  1.00  0.00     0.113 HD
ENDBRANCH   1   2
BRANCH   1   4
ATOM      4  N   UNL     1      -1.219   0.299  -1.961  1.00  0.00    -0.208 NA
BRANCH   4   5
ATOM      5  C   UNL     1      -0.419   1.440  -2.302  1.00  0.00     0.068 A 
ATOM      6  C   UNL     1      -0.967   2.731  -2.348  1.00  0.00     0.031 A 
ATOM      7  C   UNL     1       0.958   1.274  -2.484  1.00  0.00     0.031 A 
ATOM      8  C   UNL     1      -0.156   3.833  -2.634  1.00  0.00     0.035 A 
ATOM      9  C   UNL     1       1.772   2.373  -2.770  1.00  0.00     0.035 A 
ATOM     10  C   UNL     1       1.222   3.666  -2.855  1.00  0.00     0.104 A 
BRANCH  10  11
ATOM     11  N   UNL     1       2.058   4.803  -3.150  1.00  0.00    -0.130 N 
ATOM     12  C   UNL     1       3.373   4.927  -2.872  1.00  0.00     0.163 A 
ATOM     13  N   UNL     1       1.645   5.910  -3.749  1.00  0.00    -0.126 N 
ATOM     14  C   UNL     1       3.804   6.164  -3.313  1.00  0.00     0.097 A 
ATOM     15  C   UNL     1       2.684   6.756  -3.863  1.00  0.00     0.335 A 
ATOM     16  H   UNL     1       0.678   6.086  -4.101  1.00  0.00     0.488 HD
ENDBRANCH  10  11
ENDBRANCH   4   5
ENDBRANCH   1   4
BRANCH   1  17
ATOM     17  O   UNL     1      -3.047  -1.169  -2.031  1.00  0.00    -0.431 OA
BRANCH  17  18
ATOM     18  C   UNL     1      -2.876  -1.762  -0.771  1.00  0.00     0.166 A 
ATOM     19  C   UNL     1      -2.535  -1.008   0.366  1.00  0.00     0.059 A 
ATOM     20  C   UNL     1      -3.089  -3.140  -0.644  1.00  0.00     0.168 A 
ATOM     21  C   UNL     1      -2.363  -1.630   1.614  1.00  0.00    -0.010 A 
ATOM     22  C   UNL     1      -2.938  -3.773   0.600  1.00  0.00    -0.011 A 
ATOM     23  C   UNL     1      -2.562  -3.017   1.720  1.00  0.00     0.015 A 
ATOM     24  F   UNL     1      -3.433  -3.864  -1.741  1.00  0.00    -0.203 F 
ATOM     25  C   UNL     1      -3.140  -5.256   0.719  1.00  0.00     0.048 C 
BRANCH  21  26
ATOM     26  C   UNL     1      -1.987  -0.829   2.804  1.00  0.00     0.032 A 
ATOM     27  C   UNL     1      -2.575   0.434   3.060  1.00  0.00     0.013 A 
ATOM     28  C   UNL     1      -1.031  -1.276   3.725  1.00  0.00     0.212 A 
ATOM     29  C   UNL     1      -2.204   1.188   4.198  1.00  0.00     0.008 A 
ATOM     30  C   UNL     1      -0.678  -0.545   4.821  1.00  0.00     0.249 A 
ATOM     31  O   UNL     1      -0.325  -2.382   3.716  1.00  0.00    -0.403 OA
ATOM     32  C   UNL     1      -1.241   0.697   5.098  1.00  0.00     0.083 A 
ATOM     33  N   UNL     1       0.260  -1.208   5.511  1.00  0.00    -0.176 N 
ATOM     34  C   UNL     1       0.447  -2.339   4.790  1.00  0.00     0.521 A 
ATOM     35  H   UNL     1       0.740  -0.920   6.393  1.00  0.00     0.457 HD
ENDBRANCH  21  26
ENDBRANCH  17  18
ENDBRANCH   1  17
TORSDOF 7


