MODEL 1
REMARK VINA RESULT:      -9.5      0.000      0.000
REMARK SMILES Cc1cc(F)[nH+]cc1-c1ccc2c(C)[n-]nc2c1
REMARK SMILES IDX 9 1 10 2 11 3 12 4 13 5 14 6 15 7 16 8 17 9 18 10 8 11 2 12
REMARK SMILES IDX 3 13 4 14 7 15 6 16 1 17 5 18
REMARK H PARENT 6 19
ROOT
ATOM      1  C   UNL     1      45.047 131.304  17.168  1.00  0.00    -0.010 A 
ATOM      2  C   UNL     1      45.702 130.969  18.383  1.00  0.00     0.010 A 
ATOM      3  C   UNL     1      45.050 131.130  19.620  1.00  0.00     0.009 A 
ATOM      4  C   UNL     1      43.747 131.620  19.599  1.00  0.00    -0.020 A 
ATOM      5  C   UNL     1      42.832 131.887  20.590  1.00  0.00    -0.139 A 
ATOM      6  C   UNL     1      43.013 131.677  22.058  1.00  0.00     0.019 C 
ATOM      7  N   UNL     1      41.690 132.329  20.014  1.00  0.00    -0.578 NA
ATOM      8  N   UNL     1      41.855 132.360  18.694  1.00  0.00    -0.367 NA
ATOM      9  C   UNL     1      43.104 131.932  18.438  1.00  0.00     0.048 A 
ATOM     10  C   UNL     1      43.717 131.785  17.196  1.00  0.00     0.036 A 
ENDROOT
BRANCH   1  11
ATOM     11  C   UNL     1      45.745 131.116  15.876  1.00  0.00     0.049 A 
ATOM     12  C   UNL     1      45.792 129.865  15.215  1.00  0.00    -0.028 A 
ATOM     13  C   UNL     1      46.511 129.756  14.017  1.00  0.00     0.118 A 
ATOM     14  C   UNL     1      47.134 130.880  13.474  1.00  0.00     0.358 A 
ATOM     15  C   UNL     1      46.378 132.219  15.280  1.00  0.00     0.317 A 
ATOM     16  N   UNL     1      47.051 132.079  14.107  1.00  0.00    -0.186 N 
ATOM     17  C   UNL     1      45.106 128.643  15.770  1.00  0.00     0.045 C 
ATOM     18  F   UNL     1      47.821 130.774  12.310  1.00  0.00    -0.136 F 
ATOM     19  H   UNL     1      47.520 132.913  13.687  1.00  0.00     0.456 HD
ENDBRANCH   1  11
TORSDOF 1
ENDMDL
MODEL 2
REMARK VINA RESULT:      -9.1      1.393      1.842
REMARK SMILES Cc1cc(F)[nH+]cc1-c1ccc2c(C)[n-]nc2c1
REMARK SMILES IDX 9 1 10 2 11 3 12 4 13 5 14 6 15 7 16 8 17 9 18 10 8 11 2 12
REMARK SMILES IDX 3 13 4 14 7 15 6 16 1 17 5 18
REMARK H PARENT 6 19
ROOT
ATOM      1  C   UNL     1      45.077 131.224  17.304  1.00  0.00    -0.010 A 
ATOM      2  C   UNL     1      43.757 131.739  17.405  1.00  0.00     0.010 A 
ATOM      3  C   UNL     1      43.136 131.884  18.659  1.00  0.00     0.009 A 
ATOM      4  C   UNL     1      43.867 131.510  19.784  1.00  0.00    -0.020 A 
ATOM      5  C   UNL     1      43.586 131.525  21.130  1.00  0.00    -0.139 A 
ATOM      6  C   UNL     1      42.331 132.008  21.779  1.00  0.00     0.019 C 
ATOM      7  N   UNL     1      44.671 131.074  21.802  1.00  0.00    -0.578 NA
ATOM      8  N   UNL     1      45.625 130.766  20.925  1.00  0.00    -0.367 NA
ATOM      9  C   UNL     1      45.140 131.028  19.699  1.00  0.00     0.048 A 
ATOM     10  C   UNL     1      45.786 130.871  18.475  1.00  0.00     0.036 A 
ENDROOT
BRANCH   1  11
ATOM     11  C   UNL     1      45.717 131.090  15.975  1.00  0.00     0.049 A 
ATOM     12  C   UNL     1      45.730 129.870  15.260  1.00  0.00    -0.028 A 
ATOM     13  C   UNL     1      46.396 129.810  14.028  1.00  0.00     0.118 A 
ATOM     14  C   UNL     1      47.000 130.956  13.507  1.00  0.00     0.358 A 
ATOM     15  C   UNL     1      46.328 132.217  15.401  1.00  0.00     0.317 A 
ATOM     16  N   UNL     1      46.950 132.127  14.194  1.00  0.00    -0.186 N 
ATOM     17  C   UNL     1      45.064 128.626  15.790  1.00  0.00     0.045 C 
ATOM     18  F   UNL     1      47.635 130.898  12.311  1.00  0.00    -0.136 F 
ATOM     19  H   UNL     1      47.403 132.976  13.791  1.00  0.00     0.456 HD
ENDBRANCH   1  11
TORSDOF 1
ENDMDL
MODEL 3
REMARK VINA RESULT:      -9.0      1.089      1.364
REMARK SMILES Cc1cc(F)[nH+]cc1-c1ccc2c(C)[n-]nc2c1
REMARK SMILES IDX 9 1 10 2 11 3 12 4 13 5 14 6 15 7 16 8 17 9 18 10 8 11 2 12
REMARK SMILES IDX 3 13 4 14 7 15 6 16 1 17 5 18
REMARK H PARENT 6 19
ROOT
ATOM      1  C   UNL     1      45.039 131.041  17.383  1.00  0.00    -0.010 A 
ATOM      2  C   UNL     1      45.600 130.781  18.662  1.00  0.00     0.010 A 
ATOM      3  C   UNL     1      44.892 131.103  19.835  1.00  0.00     0.009 A 
ATOM      4  C   UNL     1      43.630 131.673  19.688  1.00  0.00    -0.020 A 
ATOM      5  C   UNL     1      42.682 132.093  20.591  1.00  0.00    -0.139 A 
ATOM      6  C   UNL     1      42.764 132.013  22.080  1.00  0.00     0.019 C 
ATOM      7  N   UNL     1      41.609 132.552  19.906  1.00  0.00    -0.578 NA
ATOM      8  N   UNL     1      41.851 132.446  18.601  1.00  0.00    -0.367 NA
ATOM      9  C   UNL     1      43.078 131.914  18.465  1.00  0.00     0.048 A 
ATOM     10  C   UNL     1      43.748 131.609  17.283  1.00  0.00     0.036 A 
ENDROOT
BRANCH   1  11
ATOM     11  C   UNL     1      45.794 130.685  16.160  1.00  0.00     0.049 A 
ATOM     12  C   UNL     1      45.352 131.045  14.865  1.00  0.00    -0.028 A 
ATOM     13  C   UNL     1      46.098 130.633  13.752  1.00  0.00     0.118 A 
ATOM     14  C   UNL     1      47.279 129.911  13.934  1.00  0.00     0.358 A 
ATOM     15  C   UNL     1      46.996 129.970  16.289  1.00  0.00     0.317 A 
ATOM     16  N   UNL     1      47.704 129.601  15.187  1.00  0.00    -0.186 N 
ATOM     17  C   UNL     1      44.094 131.845  14.645  1.00  0.00     0.045 C 
ATOM     18  F   UNL     1      48.004 129.521  12.857  1.00  0.00    -0.136 F 
ATOM     19  H   UNL     1      48.590 129.064  15.308  1.00  0.00     0.456 HD
ENDBRANCH   1  11
TORSDOF 1
ENDMDL
MODEL 4
REMARK VINA RESULT:      -9.0      3.018      6.585
REMARK SMILES Cc1cc(F)[nH+]cc1-c1ccc2c(C)[n-]nc2c1
REMARK SMILES IDX 9 1 10 2 11 3 12 4 13 5 14 6 15 7 16 8 17 9 18 10 8 11 2 12
REMARK SMILES IDX 3 13 4 14 7 15 6 16 1 17 5 18
REMARK H PARENT 6 19
ROOT
ATOM      1  C   UNL     1      45.130 131.316  17.367  1.00  0.00    -0.010 A 
ATOM      2  C   UNL     1      45.440 132.424  16.535  1.00  0.00     0.010 A 
ATOM      3  C   UNL     1      46.155 132.245  15.336  1.00  0.00     0.009 A 
ATOM      4  C   UNL     1      46.534 130.948  15.002  1.00  0.00    -0.020 A 
ATOM      5  C   UNL     1      47.215 130.418  13.932  1.00  0.00    -0.139 A 
ATOM      6  C   UNL     1      47.741 131.160  12.748  1.00  0.00     0.019 C 
ATOM      7  N   UNL     1      47.290 129.076  14.090  1.00  0.00    -0.578 NA
ATOM      8  N   UNL     1      46.688 128.741  15.229  1.00  0.00    -0.367 NA
ATOM      9  C   UNL     1      46.229 129.875  15.787  1.00  0.00     0.048 A 
ATOM     10  C   UNL     1      45.523 130.014  16.979  1.00  0.00     0.036 A 
ENDROOT
BRANCH   1  11
ATOM     11  C   UNL     1      44.366 131.522  18.619  1.00  0.00     0.049 A 
ATOM     12  C   UNL     1      44.937 131.315  19.897  1.00  0.00    -0.028 A 
ATOM     13  C   UNL     1      44.137 131.488  21.035  1.00  0.00     0.118 A 
ATOM     14  C   UNL     1      42.809 131.897  20.897  1.00  0.00     0.358 A 
ATOM     15  C   UNL     1      43.030 131.946  18.536  1.00  0.00     0.317 A 
ATOM     16  N   UNL     1      42.289 132.122  19.663  1.00  0.00    -0.186 N 
ATOM     17  C   UNL     1      46.374 130.898  20.072  1.00  0.00     0.045 C 
ATOM     18  F   UNL     1      42.041 132.073  22.000  1.00  0.00    -0.136 F 
ATOM     19  H   UNL     1      41.295 132.430  19.575  1.00  0.00     0.456 HD
ENDBRANCH   1  11
TORSDOF 1
ENDMDL
MODEL 5
REMARK VINA RESULT:      -8.9      3.209      6.610
REMARK SMILES Cc1cc(F)[nH+]cc1-c1ccc2c(C)[n-]nc2c1
REMARK SMILES IDX 9 1 10 2 11 3 12 4 13 5 14 6 15 7 16 8 17 9 18 10 8 11 2 12
REMARK SMILES IDX 3 13 4 14 7 15 6 16 1 17 5 18
REMARK H PARENT 6 19
ROOT
ATOM      1  C   UNL     1      45.371 131.201  17.644  1.00  0.00    -0.010 A 
ATOM      2  C   UNL     1      45.488 132.332  16.793  1.00  0.00     0.010 A 
ATOM      3  C   UNL     1      46.059 132.212  15.512  1.00  0.00     0.009 A 
ATOM      4  C   UNL     1      46.493 130.948  15.118  1.00  0.00    -0.020 A 
ATOM      5  C   UNL     1      47.073 130.476  13.965  1.00  0.00    -0.139 A 
ATOM      6  C   UNL     1      47.389 131.260  12.733  1.00  0.00     0.019 C 
ATOM      7  N   UNL     1      47.271 129.144  14.097  1.00  0.00    -0.578 NA
ATOM      8  N   UNL     1      46.845 128.760  15.298  1.00  0.00    -0.367 NA
ATOM      9  C   UNL     1      46.372 129.854  15.922  1.00  0.00     0.048 A 
ATOM     10  C   UNL     1      45.813 129.934  17.195  1.00  0.00     0.036 A 
ENDROOT
BRANCH   1  11
ATOM     11  C   UNL     1      44.757 131.345  18.983  1.00  0.00     0.049 A 
ATOM     12  C   UNL     1      43.398 131.699  19.159  1.00  0.00    -0.028 A 
ATOM     13  C   UNL     1      42.900 131.860  20.459  1.00  0.00     0.118 A 
ATOM     14  C   UNL     1      43.732 131.633  21.556  1.00  0.00     0.358 A 
ATOM     15  C   UNL     1      45.548 131.114  20.121  1.00  0.00     0.317 A 
ATOM     16  N   UNL     1      45.025 131.263  21.368  1.00  0.00    -0.186 N 
ATOM     17  C   UNL     1      42.474 131.925  17.990  1.00  0.00     0.045 C 
ATOM     18  F   UNL     1      43.245 131.780  22.813  1.00  0.00    -0.136 F 
ATOM     19  H   UNL     1      45.635 131.093  22.198  1.00  0.00     0.456 HD
ENDBRANCH   1  11
TORSDOF 1
ENDMDL
MODEL 6
REMARK VINA RESULT:      -8.8      2.872      6.410
REMARK SMILES Cc1cc(F)[nH+]cc1-c1ccc2c(C)[n-]nc2c1
REMARK SMILES IDX 9 1 10 2 11 3 12 4 13 5 14 6 15 7 16 8 17 9 18 10 8 11 2 12
REMARK SMILES IDX 3 13 4 14 7 15 6 16 1 17 5 18
REMARK H PARENT 6 19
ROOT
ATOM      1  C   UNL     1      44.732 131.251  17.237  1.00  0.00    -0.010 A 
ATOM      2  C   UNL     1      45.757 130.330  17.578  1.00  0.00     0.010 A 
ATOM      3  C   UNL     1      46.645 129.847  16.599  1.00  0.00     0.009 A 
ATOM      4  C   UNL     1      46.480 130.313  15.297  1.00  0.00    -0.020 A 
ATOM      5  C   UNL     1      47.153 130.068  14.124  1.00  0.00    -0.139 A 
ATOM      6  C   UNL     1      48.345 129.187  13.940  1.00  0.00     0.019 C 
ATOM      7  N   UNL     1      46.591 130.810  13.141  1.00  0.00    -0.578 NA
ATOM      8  N   UNL     1      45.579 131.508  13.653  1.00  0.00    -0.367 NA
ATOM      9  C   UNL     1      45.507 131.207  14.962  1.00  0.00     0.048 A 
ATOM     10  C   UNL     1      44.611 131.707  15.903  1.00  0.00     0.036 A 
ENDROOT
BRANCH   1  11
ATOM     11  C   UNL     1      43.815 131.757  18.283  1.00  0.00     0.049 A 
ATOM     12  C   UNL     1      44.179 131.808  19.650  1.00  0.00    -0.028 A 
ATOM     13  C   UNL     1      43.240 132.258  20.588  1.00  0.00     0.118 A 
ATOM     14  C   UNL     1      41.981 132.684  20.163  1.00  0.00     0.358 A 
ATOM     15  C   UNL     1      42.540 132.211  17.907  1.00  0.00     0.317 A 
ATOM     16  N   UNL     1      41.660 132.658  18.843  1.00  0.00    -0.186 N 
ATOM     17  C   UNL     1      45.541 131.377  20.129  1.00  0.00     0.045 C 
ATOM     18  F   UNL     1      41.078 133.128  21.072  1.00  0.00    -0.136 F 
ATOM     19  H   UNL     1      40.716 132.983  18.540  1.00  0.00     0.456 HD
ENDBRANCH   1  11
TORSDOF 1
ENDMDL
MODEL 7
REMARK VINA RESULT:      -8.6      3.274      6.471
REMARK SMILES Cc1cc(F)[nH+]cc1-c1ccc2c(C)[n-]nc2c1
REMARK SMILES IDX 9 1 10 2 11 3 12 4 13 5 14 6 15 7 16 8 17 9 18 10 8 11 2 12
REMARK SMILES IDX 3 13 4 14 7 15 6 16 1 17 5 18
REMARK H PARENT 6 19
ROOT
ATOM      1  C   UNL     1      44.376 131.297  18.344  1.00  0.00    -0.010 A 
ATOM      2  C   UNL     1      45.672 130.745  18.158  1.00  0.00     0.010 A 
ATOM      3  C   UNL     1      46.186 130.539  16.864  1.00  0.00     0.009 A 
ATOM      4  C   UNL     1      45.380 130.901  15.788  1.00  0.00    -0.020 A 
ATOM      5  C   UNL     1      45.560 130.849  14.425  1.00  0.00    -0.139 A 
ATOM      6  C   UNL     1      46.775 130.376  13.698  1.00  0.00     0.019 C 
ATOM      7  N   UNL     1      44.458 131.359  13.826  1.00  0.00    -0.578 NA
ATOM      8  N   UNL     1      43.585 131.722  14.763  1.00  0.00    -0.367 NA
ATOM      9  C   UNL     1      44.141 131.443  15.956  1.00  0.00     0.048 A 
ATOM     10  C   UNL     1      43.600 131.663  17.220  1.00  0.00     0.036 A 
ENDROOT
BRANCH   1  11
ATOM     11  C   UNL     1      43.858 131.518  19.713  1.00  0.00     0.049 A 
ATOM     12  C   UNL     1      44.533 131.047  20.864  1.00  0.00    -0.028 A 
ATOM     13  C   UNL     1      43.957 131.257  22.125  1.00  0.00     0.118 A 
ATOM     14  C   UNL     1      42.753 131.955  22.232  1.00  0.00     0.358 A 
ATOM     15  C   UNL     1      42.657 132.227  19.877  1.00  0.00     0.317 A 
ATOM     16  N   UNL     1      42.136 132.427  21.118  1.00  0.00    -0.186 N 
ATOM     17  C   UNL     1      45.846 130.312  20.775  1.00  0.00     0.045 C 
ATOM     18  F   UNL     1      42.202 132.165  23.453  1.00  0.00    -0.136 F 
ATOM     19  H   UNL     1      41.238 132.951  21.214  1.00  0.00     0.456 HD
ENDBRANCH   1  11
TORSDOF 1
ENDMDL
MODEL 8
REMARK VINA RESULT:      -8.4      3.421      6.498
REMARK SMILES Cc1cc(F)[nH+]cc1-c1ccc2c(C)[n-]nc2c1
REMARK SMILES IDX 9 1 10 2 11 3 12 4 13 5 14 6 15 7 16 8 17 9 18 10 8 11 2 12
REMARK SMILES IDX 3 13 4 14 7 15 6 16 1 17 5 18
REMARK H PARENT 6 19
ROOT
ATOM      1  C   UNL     1      44.651 131.157  18.455  1.00  0.00    -0.010 A 
ATOM      2  C   UNL     1      45.878 130.473  18.243  1.00  0.00     0.010 A 
ATOM      3  C   UNL     1      46.354 130.240  16.940  1.00  0.00     0.009 A 
ATOM      4  C   UNL     1      45.582 130.710  15.880  1.00  0.00    -0.020 A 
ATOM      5  C   UNL     1      45.743 130.668  14.516  1.00  0.00    -0.139 A 
ATOM      6  C   UNL     1      46.893 130.082  13.765  1.00  0.00     0.019 C 
ATOM      7  N   UNL     1      44.698 131.307  13.939  1.00  0.00    -0.578 NA
ATOM      8  N   UNL     1      43.877 131.741  14.893  1.00  0.00    -0.367 NA
ATOM      9  C   UNL     1      44.411 131.379  16.074  1.00  0.00     0.048 A 
ATOM     10  C   UNL     1      43.908 131.629  17.348  1.00  0.00     0.036 A 
ENDROOT
BRANCH   1  11
ATOM     11  C   UNL     1      44.172 131.404  19.835  1.00  0.00     0.049 A 
ATOM     12  C   UNL     1      42.883 131.920  20.108  1.00  0.00    -0.028 A 
ATOM     13  C   UNL     1      42.518 132.170  21.438  1.00  0.00     0.118 A 
ATOM     14  C   UNL     1      43.408 131.872  22.472  1.00  0.00     0.358 A 
ATOM     15  C   UNL     1      45.024 131.109  20.912  1.00  0.00     0.317 A 
ATOM     16  N   UNL     1      44.629 131.347  22.191  1.00  0.00    -0.186 N 
ATOM     17  C   UNL     1      41.897 132.227  19.011  1.00  0.00     0.045 C 
ATOM     18  F   UNL     1      43.049 132.105  23.758  1.00  0.00    -0.136 F 
ATOM     19  H   UNL     1      45.283 131.126  22.975  1.00  0.00     0.456 HD
ENDBRANCH   1  11
TORSDOF 1
ENDMDL
MODEL 9
REMARK VINA RESULT:      -8.4      1.572      2.178
REMARK SMILES Cc1cc(F)[nH+]cc1-c1ccc2c(C)[n-]nc2c1
REMARK SMILES IDX 9 1 10 2 11 3 12 4 13 5 14 6 15 7 16 8 17 9 18 10 8 11 2 12
REMARK SMILES IDX 3 13 4 14 7 15 6 16 1 17 5 18
REMARK H PARENT 6 19
ROOT
ATOM      1  C   UNL     1      44.915 131.054  17.261  1.00  0.00    -0.010 A 
ATOM      2  C   UNL     1      43.616 131.591  17.058  1.00  0.00     0.010 A 
ATOM      3  C   UNL     1      42.820 131.982  18.151  1.00  0.00     0.009 A 
ATOM      4  C   UNL     1      43.360 131.826  19.425  1.00  0.00    -0.020 A 
ATOM      5  C   UNL     1      42.881 132.103  20.684  1.00  0.00    -0.139 A 
ATOM      6  C   UNL     1      41.562 132.715  21.028  1.00  0.00     0.019 C 
ATOM      7  N   UNL     1      43.835 131.781  21.589  1.00  0.00    -0.578 NA
ATOM      8  N   UNL     1      44.896 131.299  20.945  1.00  0.00    -0.367 NA
ATOM      9  C   UNL     1      44.611 131.324  19.630  1.00  0.00     0.048 A 
ATOM     10  C   UNL     1      45.426 130.928  18.574  1.00  0.00     0.036 A 
ENDROOT
BRANCH   1  11
ATOM     11  C   UNL     1      45.741 130.660  16.098  1.00  0.00     0.049 A 
ATOM     12  C   UNL     1      45.385 130.991  14.769  1.00  0.00    -0.028 A 
ATOM     13  C   UNL     1      46.196 130.544  13.716  1.00  0.00     0.118 A 
ATOM     14  C   UNL     1      47.355 129.817  13.990  1.00  0.00     0.358 A 
ATOM     15  C   UNL     1      46.926 129.939  16.320  1.00  0.00     0.317 A 
ATOM     16  N   UNL     1      47.697 129.537  15.275  1.00  0.00    -0.186 N 
ATOM     17  C   UNL     1      44.151 131.795  14.449  1.00  0.00     0.045 C 
ATOM     18  F   UNL     1      48.143 129.394  12.971  1.00  0.00    -0.136 F 
ATOM     19  H   UNL     1      48.570 128.995  15.465  1.00  0.00     0.456 HD
ENDBRANCH   1  11
TORSDOF 1
ENDMDL


