REMARK SMILES CC(=O)c1ccc(-c2cccc([C@H]3CO3)c2)cc1
REMARK SMILES IDX 4 1 5 2 6 3 7 4 17 5 18 6 2 7 1 8 3 9 8 10 9 11 16 12 10 13
REMARK SMILES IDX 12 14 11 15 13 16 14 17 15 18
REMARK H PARENT
ROOT
ATOM      1  C   UNL     1       3.056   0.228   1.580  1.00  0.00     0.017 A 
ATOM      2  C   UNL     1       2.776   0.506   0.229  1.00  0.00     0.012 A 
ATOM      3  C   UNL     1       1.458   0.674  -0.206  1.00  0.00     0.009 A 
ATOM      4  C   UNL     1       0.388   0.567   0.697  1.00  0.00    -0.018 A 
ATOM      5  C   UNL     1       0.664   0.288   2.046  1.00  0.00     0.009 A 
ATOM      6  C   UNL     1       1.981   0.121   2.483  1.00  0.00     0.012 A 
ENDROOT
BRANCH   1   7
ATOM      7  C   UNL     1       4.464   0.053   2.027  1.00  0.00     0.159 C 
ATOM      8  C   UNL     1       4.811  -0.249   3.455  1.00  0.00     0.093 C 
ATOM      9  O   UNL     1       5.404   0.159   1.193  1.00  0.00    -0.295 OA
ENDBRANCH   1   7
BRANCH   4  10
ATOM     10  C   UNL     1      -1.013   0.744   0.234  1.00  0.00    -0.018 A 
ATOM     11  C   UNL     1      -1.336   1.750  -0.695  1.00  0.00     0.009 A 
ATOM     12  C   UNL     1      -2.036  -0.093   0.716  1.00  0.00     0.015 A 
ATOM     13  C   UNL     1      -2.653   1.912  -1.134  1.00  0.00     0.001 A 
ATOM     14  C   UNL     1      -3.362   0.081   0.289  1.00  0.00    -0.016 A 
ATOM     15  C   UNL     1      -3.662   1.077  -0.649  1.00  0.00     0.006 A 
BRANCH  14  16
ATOM     16  C   UNL     1      -4.437  -0.842   0.783  1.00  0.00     0.174 C 
ATOM     17  C   UNL     1      -4.731  -0.781   2.233  1.00  0.00     0.198 C 
ATOM     18  O   UNL     1      -5.544  -0.130   1.286  1.00  0.00    -0.368 OA
ENDBRANCH  14  16
ENDBRANCH   4  10
TORSDOF 3


