REMARK SMILES Cc1ccc(-c2ccc(NC3CC(=O)C3)c(C=O)c2)cc1
REMARK SMILES IDX 6 1 7 2 8 3 9 4 16 5 19 6 5 7 2 8 3 9 21 10 4 11 20 12 1 13
REMARK SMILES IDX 17 14 18 15 10 16 11 18 12 19 15 20 13 21 14 22
REMARK H PARENT 10 17
ROOT
ATOM      1  C   UNL     1      -0.253   0.305  -1.416  1.00  0.00    -0.018 A 
ATOM      2  C   UNL     1      -1.498   0.766  -0.962  1.00  0.00     0.011 A 
ATOM      3  C   UNL     1      -1.790   0.788   0.402  1.00  0.00     0.027 A 
ATOM      4  C   UNL     1      -0.851   0.343   1.340  1.00  0.00     0.045 A 
ATOM      5  C   UNL     1       0.421  -0.095   0.905  1.00  0.00     0.038 A 
ATOM      6  C   UNL     1       0.702  -0.120  -0.474  1.00  0.00     0.022 A 
ENDROOT
BRANCH   1   7
ATOM      7  C   UNL     1       0.056   0.275  -2.868  1.00  0.00    -0.018 A 
ATOM      8  C   UNL     1       0.655   0.222  -5.624  1.00  0.00    -0.051 A 
ATOM      9  C   UNL     1      -0.047   1.304  -5.073  1.00  0.00     0.004 A 
ATOM     10  C   UNL     1       1.034  -0.844  -4.797  1.00  0.00     0.004 A 
ATOM     11  C   UNL     1      -0.339   1.334  -3.706  1.00  0.00     0.009 A 
ATOM     12  C   UNL     1       0.744  -0.816  -3.430  1.00  0.00     0.009 A 
ATOM     13  C   UNL     1       0.932   0.173  -7.098  1.00  0.00     0.044 C 
ENDBRANCH   1   7
BRANCH   5  14
ATOM     14  C   UNL     1       1.474  -0.468   1.876  1.00  0.00     0.262 C 
ATOM     15  O   UNL     1       2.570  -0.955   1.491  1.00  0.00    -0.298 OA
ENDBRANCH   5  14
BRANCH   4  16
ATOM     16  N   UNL     1      -1.210   0.346   2.728  1.00  0.00    -0.381 N 
ATOM     17  H   UNL     1      -1.710   1.190   3.093  1.00  0.00     0.160 HD
BRANCH  16  18
ATOM     18  C   UNL     1      -1.353  -0.915   3.462  1.00  0.00     0.094 C 
ATOM     19  C   UNL     1      -2.788  -1.271   3.712  1.00  0.00     0.100 C 
ATOM     20  C   UNL     1      -1.218  -0.740   4.945  1.00  0.00     0.100 C 
ATOM     21  C   UNL     1      -2.669  -1.097   5.216  1.00  0.00     0.137 C 
ATOM     22  O   UNL     1      -3.397  -1.199   6.189  1.00  0.00    -0.300 OA
ENDBRANCH  16  18
ENDBRANCH   4  16
TORSDOF 4


