MODEL 1
REMARK VINA RESULT:      -6.0      0.000      0.000
REMARK SMILES N#C[C@H]1c2ccccc2C[C@@H]1NC(=O)C1CCCC1
REMARK SMILES IDX 3 1 4 2 5 3 6 4 7 5 8 6 9 7 10 8 11 9 2 10 1 11 12 12 13 13
REMARK SMILES IDX 14 15 15 16 16 17 19 18 17 19 18 20
REMARK H PARENT 12 14
ROOT
ATOM      1  C   UNL     1      45.783 131.322  20.533  1.00  0.00     0.145 C 
ATOM      2  C   UNL     1      44.749 130.804  21.464  1.00  0.00    -0.025 A 
ATOM      3  C   UNL     1      44.963 130.044  22.619  1.00  0.00     0.005 A 
ATOM      4  C   UNL     1      43.853 129.644  23.379  1.00  0.00     0.000 A 
ATOM      5  C   UNL     1      42.555 130.006  22.979  1.00  0.00     0.000 A 
ATOM      6  C   UNL     1      42.363 130.766  21.815  1.00  0.00     0.004 A 
ATOM      7  C   UNL     1      43.481 131.148  21.069  1.00  0.00    -0.041 A 
ATOM      8  C   UNL     1      43.482 131.956  19.829  1.00  0.00     0.062 C 
ATOM      9  C   UNL     1      44.957 131.908  19.353  1.00  0.00     0.108 C 
ENDROOT
BRANCH   1  10
ATOM     10  C   UNL     1      46.582 132.365  21.197  1.00  0.00     0.073 C 
ATOM     11  N   UNL     1      47.210 133.186  21.718  1.00  0.00    -0.198 NA
ENDBRANCH   1  10
BRANCH   9  12
ATOM     12  N   UNL     1      45.102 131.054  18.168  1.00  0.00    -0.351 N 
ATOM     13  C   UNL     1      45.442 131.597  16.883  1.00  0.00     0.223 C 
ATOM     14  H   UNL     1      44.973 130.020  18.252  1.00  0.00     0.163 HD
ATOM     15  O   UNL     1      45.599 132.841  16.745  1.00  0.00    -0.275 OA
BRANCH  13  16
ATOM     16  C   UNL     1      45.632 130.681  15.700  1.00  0.00     0.078 C 
ATOM     17  C   UNL     1      46.844 129.772  15.857  1.00  0.00     0.013 C 
ATOM     18  C   UNL     1      45.875 131.435  14.399  1.00  0.00     0.013 C 
ATOM     19  C   UNL     1      47.276 129.423  14.438  1.00  0.00     0.001 C 
ATOM     20  C   UNL     1      46.647 130.466  13.511  1.00  0.00     0.001 C 
ENDBRANCH  13  16
ENDBRANCH   9  12
TORSDOF 3
ENDMDL
MODEL 2
REMARK VINA RESULT:      -5.8      2.830      6.601
REMARK SMILES N#C[C@H]1c2ccccc2C[C@@H]1NC(=O)C1CCCC1
REMARK SMILES IDX 3 1 4 2 5 3 6 4 7 5 8 6 9 7 10 8 11 9 2 10 1 11 12 12 13 13
REMARK SMILES IDX 14 15 15 16 16 17 19 18 17 19 18 20
REMARK H PARENT 12 14
ROOT
ATOM      1  C   UNL     1      43.015 131.439  20.194  1.00  0.00     0.145 C 
ATOM      2  C   UNL     1      43.596 131.538  18.831  1.00  0.00    -0.025 A 
ATOM      3  C   UNL     1      42.911 131.436  17.616  1.00  0.00     0.005 A 
ATOM      4  C   UNL     1      43.635 131.559  16.420  1.00  0.00     0.000 A 
ATOM      5  C   UNL     1      45.023 131.782  16.454  1.00  0.00     0.000 A 
ATOM      6  C   UNL     1      45.691 131.879  17.685  1.00  0.00     0.004 A 
ATOM      7  C   UNL     1      44.952 131.745  18.863  1.00  0.00    -0.041 A 
ATOM      8  C   UNL     1      45.472 131.830  20.247  1.00  0.00     0.062 C 
ATOM      9  C   UNL     1      44.259 131.430  21.127  1.00  0.00     0.108 C 
ENDROOT
BRANCH   1  10
ATOM     10  C   UNL     1      42.154 132.603  20.461  1.00  0.00     0.073 C 
ATOM     11  N   UNL     1      41.477 133.517  20.671  1.00  0.00    -0.198 NA
ENDBRANCH   1  10
BRANCH   9  12
ATOM     12  N   UNL     1      44.443 130.092  21.702  1.00  0.00    -0.351 N 
ATOM     13  C   UNL     1      44.125 129.810  23.073  1.00  0.00     0.223 C 
ATOM     14  H   UNL     1      44.799 129.312  21.104  1.00  0.00     0.163 HD
ATOM     15  O   UNL     1      43.698 130.730  23.824  1.00  0.00    -0.275 OA
BRANCH  13  16
ATOM     16  C   UNL     1      44.279 128.410  23.614  1.00  0.00     0.078 C 
ATOM     17  C   UNL     1      45.041 127.499  22.662  1.00  0.00     0.013 C 
ATOM     18  C   UNL     1      42.943 127.711  23.839  1.00  0.00     0.013 C 
ATOM     19  C   UNL     1      44.571 126.086  22.988  1.00  0.00     0.001 C 
ATOM     20  C   UNL     1      43.251 126.221  23.751  1.00  0.00     0.001 C 
ENDBRANCH  13  16
ENDBRANCH   9  12
TORSDOF 3
ENDMDL
MODEL 3
REMARK VINA RESULT:      -5.8      4.544      6.524
REMARK SMILES N#C[C@H]1c2ccccc2C[C@@H]1NC(=O)C1CCCC1
REMARK SMILES IDX 3 1 4 2 5 3 6 4 7 5 8 6 9 7 10 8 11 9 2 10 1 11 12 12 13 13
REMARK SMILES IDX 14 15 15 16 16 17 19 18 17 19 18 20
REMARK H PARENT 12 14
ROOT
ATOM      1  C   UNL     1      44.977 126.014  22.564  1.00  0.00     0.145 C 
ATOM      2  C   UNL     1      43.695 125.273  22.448  1.00  0.00    -0.025 A 
ATOM      3  C   UNL     1      43.463 124.103  21.717  1.00  0.00     0.005 A 
ATOM      4  C   UNL     1      42.177 123.543  21.730  1.00  0.00     0.000 A 
ATOM      5  C   UNL     1      41.147 124.153  22.468  1.00  0.00     0.000 A 
ATOM      6  C   UNL     1      41.401 125.328  23.193  1.00  0.00     0.004 A 
ATOM      7  C   UNL     1      42.687 125.873  23.160  1.00  0.00    -0.041 A 
ATOM      8  C   UNL     1      43.149 127.090  23.865  1.00  0.00     0.062 C 
ATOM      9  C   UNL     1      44.586 127.312  23.326  1.00  0.00     0.108 C 
ENDROOT
BRANCH   1  10
ATOM     10  C   UNL     1      45.952 125.218  23.328  1.00  0.00     0.073 C 
ATOM     11  N   UNL     1      46.718 124.591  23.927  1.00  0.00    -0.198 NA
ENDBRANCH   1  10
BRANCH   9  12
ATOM     12  N   UNL     1      44.635 128.461  22.414  1.00  0.00    -0.351 N 
ATOM     13  C   UNL     1      44.449 129.805  22.883  1.00  0.00     0.223 C 
ATOM     14  H   UNL     1      44.827 128.312  21.397  1.00  0.00     0.163 HD
ATOM     15  O   UNL     1      44.210 130.021  24.103  1.00  0.00    -0.275 OA
BRANCH  13  16
ATOM     16  C   UNL     1      44.558 130.964  21.923  1.00  0.00     0.078 C 
ATOM     17  C   UNL     1      43.217 131.340  21.309  1.00  0.00     0.013 C 
ATOM     18  C   UNL     1      45.464 130.666  20.735  1.00  0.00     0.013 C 
ATOM     19  C   UNL     1      43.552 132.002  19.977  1.00  0.00     0.001 C 
ATOM     20  C   UNL     1      44.983 131.590  19.623  1.00  0.00     0.001 C 
ENDBRANCH  13  16
ENDBRANCH   9  12
TORSDOF 3
ENDMDL
MODEL 4
REMARK VINA RESULT:      -5.7      3.673      5.634
REMARK SMILES N#C[C@H]1c2ccccc2C[C@@H]1NC(=O)C1CCCC1
REMARK SMILES IDX 3 1 4 2 5 3 6 4 7 5 8 6 9 7 10 8 11 9 2 10 1 11 12 12 13 13
REMARK SMILES IDX 14 15 15 16 16 17 19 18 17 19 18 20
REMARK H PARENT 12 14
ROOT
ATOM      1  C   UNL     1      44.865 127.226  23.109  1.00  0.00     0.145 C 
ATOM      2  C   UNL     1      43.613 126.480  23.394  1.00  0.00    -0.025 A 
ATOM      3  C   UNL     1      43.350 125.137  23.104  1.00  0.00     0.005 A 
ATOM      4  C   UNL     1      42.100 124.603  23.454  1.00  0.00     0.000 A 
ATOM      5  C   UNL     1      41.137 125.411  24.084  1.00  0.00     0.000 A 
ATOM      6  C   UNL     1      41.421 126.757  24.364  1.00  0.00     0.004 A 
ATOM      7  C   UNL     1      42.669 127.271  24.001  1.00  0.00    -0.041 A 
ATOM      8  C   UNL     1      43.155 128.651  24.222  1.00  0.00     0.062 C 
ATOM      9  C   UNL     1      44.508 128.697  23.466  1.00  0.00     0.108 C 
ENDROOT
BRANCH   1  10
ATOM     10  C   UNL     1      45.957 126.720  23.957  1.00  0.00     0.073 C 
ATOM     11  N   UNL     1      46.817 126.323  24.622  1.00  0.00    -0.198 NA
ENDBRANCH   1  10
BRANCH   9  12
ATOM     12  N   UNL     1      44.399 129.496  22.239  1.00  0.00    -0.351 N 
ATOM     13  C   UNL     1      44.319 130.929  22.277  1.00  0.00     0.223 C 
ATOM     14  H   UNL     1      44.395 129.023  21.307  1.00  0.00     0.163 HD
ATOM     15  O   UNL     1      44.316 131.532  23.385  1.00  0.00    -0.275 OA
BRANCH  13  16
ATOM     16  C   UNL     1      44.261 131.718  20.992  1.00  0.00     0.078 C 
ATOM     17  C   UNL     1      42.875 131.703  20.362  1.00  0.00     0.013 C 
ATOM     18  C   UNL     1      45.186 131.167  19.915  1.00  0.00     0.013 C 
ATOM     19  C   UNL     1      43.103 131.934  18.873  1.00  0.00     0.001 C 
ATOM     20  C   UNL     1      44.573 131.613  18.593  1.00  0.00     0.001 C 
ENDBRANCH  13  16
ENDBRANCH   9  12
TORSDOF 3
ENDMDL
MODEL 5
REMARK VINA RESULT:      -5.1      4.011      6.959
REMARK SMILES N#C[C@H]1c2ccccc2C[C@@H]1NC(=O)C1CCCC1
REMARK SMILES IDX 3 1 4 2 5 3 6 4 7 5 8 6 9 7 10 8 11 9 2 10 1 11 12 12 13 13
REMARK SMILES IDX 14 15 15 16 16 17 19 18 17 19 18 20
REMARK H PARENT 12 14
ROOT
ATOM      1  C   UNL     1      42.730 130.501  22.950  1.00  0.00     0.145 C 
ATOM      2  C   UNL     1      43.410 130.939  21.705  1.00  0.00    -0.025 A 
ATOM      3  C   UNL     1      42.912 131.820  20.740  1.00  0.00     0.005 A 
ATOM      4  C   UNL     1      43.707 132.119  19.623  1.00  0.00     0.000 A 
ATOM      5  C   UNL     1      44.981 131.538  19.486  1.00  0.00     0.000 A 
ATOM      6  C   UNL     1      45.461 130.655  20.465  1.00  0.00     0.004 A 
ATOM      7  C   UNL     1      44.650 130.365  21.566  1.00  0.00    -0.041 A 
ATOM      8  C   UNL     1      44.983 129.475  22.700  1.00  0.00     0.062 C 
ATOM      9  C   UNL     1      43.664 129.391  23.511  1.00  0.00     0.108 C 
ENDROOT
BRANCH   1  10
ATOM     10  C   UNL     1      42.618 131.630  23.887  1.00  0.00     0.073 C 
ATOM     11  N   UNL     1      42.529 132.517  24.625  1.00  0.00    -0.198 NA
ENDBRANCH   1  10
BRANCH   9  12
ATOM     12  N   UNL     1      43.030 128.077  23.352  1.00  0.00    -0.351 N 
ATOM     13  C   UNL     1      43.786 126.859  23.436  1.00  0.00     0.223 C 
ATOM     14  H   UNL     1      42.000 128.011  23.190  1.00  0.00     0.163 HD
ATOM     15  O   UNL     1      45.033 126.902  23.626  1.00  0.00    -0.275 OA
BRANCH  13  16
ATOM     16  C   UNL     1      43.090 125.526  23.319  1.00  0.00     0.078 C 
ATOM     17  C   UNL     1      43.572 124.720  22.121  1.00  0.00     0.013 C 
ATOM     18  C   UNL     1      41.585 125.659  23.122  1.00  0.00     0.013 C 
ATOM     19  C   UNL     1      42.416 123.794  21.762  1.00  0.00     0.001 C 
ATOM     20  C   UNL     1      41.160 124.378  22.412  1.00  0.00     0.001 C 
ENDBRANCH  13  16
ENDBRANCH   9  12
TORSDOF 3
ENDMDL
MODEL 6
REMARK VINA RESULT:      -5.1      1.098      1.316
REMARK SMILES N#C[C@H]1c2ccccc2C[C@@H]1NC(=O)C1CCCC1
REMARK SMILES IDX 3 1 4 2 5 3 6 4 7 5 8 6 9 7 10 8 11 9 2 10 1 11 12 12 13 13
REMARK SMILES IDX 14 15 15 16 16 17 19 18 17 19 18 20
REMARK H PARENT 12 14
ROOT
ATOM      1  C   UNL     1      45.377 131.464  20.536  1.00  0.00     0.145 C 
ATOM      2  C   UNL     1      44.603 130.643  21.501  1.00  0.00    -0.025 A 
ATOM      3  C   UNL     1      45.084 129.590  22.285  1.00  0.00     0.005 A 
ATOM      4  C   UNL     1      44.196 128.928  23.147  1.00  0.00     0.000 A 
ATOM      5  C   UNL     1      42.848 129.325  23.213  1.00  0.00     0.000 A 
ATOM      6  C   UNL     1      42.385 130.384  22.416  1.00  0.00     0.004 A 
ATOM      7  C   UNL     1      43.285 131.024  21.559  1.00  0.00    -0.041 A 
ATOM      8  C   UNL     1      42.991 132.159  20.657  1.00  0.00     0.062 C 
ATOM      9  C   UNL     1      44.294 132.328  19.832  1.00  0.00     0.108 C 
ENDROOT
BRANCH   1  10
ATOM     10  C   UNL     1      46.348 132.305  21.256  1.00  0.00     0.073 C 
ATOM     11  N   UNL     1      47.112 132.966  21.819  1.00  0.00    -0.198 NA
ENDBRANCH   1  10
BRANCH   9  12
ATOM     12  N   UNL     1      44.106 131.868  18.451  1.00  0.00    -0.351 N 
ATOM     13  C   UNL     1      45.106 131.093  17.771  1.00  0.00     0.223 C 
ATOM     14  H   UNL     1      43.220 132.091  17.943  1.00  0.00     0.163 HD
ATOM     15  O   UNL     1      46.190 130.812  18.353  1.00  0.00    -0.275 OA
BRANCH  13  16
ATOM     16  C   UNL     1      44.855 130.595  16.369  1.00  0.00     0.078 C 
ATOM     17  C   UNL     1      46.129 130.529  15.538  1.00  0.00     0.013 C 
ATOM     18  C   UNL     1      43.918 131.500  15.578  1.00  0.00     0.013 C 
ATOM     19  C   UNL     1      45.675 130.658  14.089  1.00  0.00     0.001 C 
ATOM     20  C   UNL     1      44.266 131.255  14.115  1.00  0.00     0.001 C 
ENDBRANCH  13  16
ENDBRANCH   9  12
TORSDOF 3
ENDMDL
MODEL 7
REMARK VINA RESULT:      -5.0      4.200      7.747
REMARK SMILES N#C[C@H]1c2ccccc2C[C@@H]1NC(=O)C1CCCC1
REMARK SMILES IDX 3 1 4 2 5 3 6 4 7 5 8 6 9 7 10 8 11 9 2 10 1 11 12 12 13 13
REMARK SMILES IDX 14 15 15 16 16 17 19 18 17 19 18 20
REMARK H PARENT 12 14
ROOT
ATOM      1  C   UNL     1      42.626 130.580  22.994  1.00  0.00     0.145 C 
ATOM      2  C   UNL     1      43.508 130.831  21.826  1.00  0.00    -0.025 A 
ATOM      3  C   UNL     1      43.306 131.766  20.806  1.00  0.00     0.005 A 
ATOM      4  C   UNL     1      44.257 131.861  19.778  1.00  0.00     0.000 A 
ATOM      5  C   UNL     1      45.388 131.026  19.783  1.00  0.00     0.000 A 
ATOM      6  C   UNL     1      45.570 130.092  20.815  1.00  0.00     0.004 A 
ATOM      7  C   UNL     1      44.608 130.009  21.825  1.00  0.00    -0.041 A 
ATOM      8  C   UNL     1      44.629 129.104  22.995  1.00  0.00     0.062 C 
ATOM      9  C   UNL     1      43.245 129.319  23.660  1.00  0.00     0.108 C 
ENDROOT
BRANCH   1  10
ATOM     10  C   UNL     1      42.657 131.736  23.905  1.00  0.00     0.073 C 
ATOM     11  N   UNL     1      42.679 132.644  24.623  1.00  0.00    -0.198 NA
ENDBRANCH   1  10
BRANCH   9  12
ATOM     12  N   UNL     1      42.371 128.159  23.445  1.00  0.00    -0.351 N 
ATOM     13  C   UNL     1      42.834 126.816  23.651  1.00  0.00     0.223 C 
ATOM     14  H   UNL     1      41.378 128.303  23.151  1.00  0.00     0.163 HD
ATOM     15  O   UNL     1      44.028 126.607  24.001  1.00  0.00    -0.275 OA
BRANCH  13  16
ATOM     16  C   UNL     1      41.890 125.654  23.469  1.00  0.00     0.078 C 
ATOM     17  C   UNL     1      40.432 126.090  23.416  1.00  0.00     0.013 C 
ATOM     18  C   UNL     1      41.956 124.652  24.616  1.00  0.00     0.013 C 
ATOM     19  C   UNL     1      39.629 124.880  23.878  1.00  0.00     0.001 C 
ATOM     20  C   UNL     1      40.599 123.960  24.622  1.00  0.00     0.001 C 
ENDBRANCH  13  16
ENDBRANCH   9  12
TORSDOF 3
ENDMDL
MODEL 8
REMARK VINA RESULT:      -4.9      3.675      6.777
REMARK SMILES N#C[C@H]1c2ccccc2C[C@@H]1NC(=O)C1CCCC1
REMARK SMILES IDX 3 1 4 2 5 3 6 4 7 5 8 6 9 7 10 8 11 9 2 10 1 11 12 12 13 13
REMARK SMILES IDX 14 15 15 16 16 17 19 18 17 19 18 20
REMARK H PARENT 12 14
ROOT
ATOM      1  C   UNL     1      43.194 130.584  22.080  1.00  0.00     0.145 C 
ATOM      2  C   UNL     1      43.273 131.074  20.681  1.00  0.00    -0.025 A 
ATOM      3  C   UNL     1      42.220 131.558  19.899  1.00  0.00     0.005 A 
ATOM      4  C   UNL     1      42.491 131.982  18.589  1.00  0.00     0.000 A 
ATOM      5  C   UNL     1      43.800 131.916  18.081  1.00  0.00     0.000 A 
ATOM      6  C   UNL     1      44.843 131.424  18.882  1.00  0.00     0.004 A 
ATOM      7  C   UNL     1      44.550 131.001  20.181  1.00  0.00    -0.041 A 
ATOM      8  C   UNL     1      45.509 130.468  21.175  1.00  0.00     0.062 C 
ATOM      9  C   UNL     1      44.610 130.001  22.349  1.00  0.00     0.108 C 
ENDROOT
BRANCH   1  10
ATOM     10  C   UNL     1      42.895 131.702  22.990  1.00  0.00     0.073 C 
ATOM     11  N   UNL     1      42.659 132.581  23.704  1.00  0.00    -0.198 NA
ENDBRANCH   1  10
BRANCH   9  12
ATOM     12  N   UNL     1      44.544 128.535  22.411  1.00  0.00    -0.351 N 
ATOM     13  C   UNL     1      44.101 127.849  23.592  1.00  0.00     0.223 C 
ATOM     14  H   UNL     1      44.808 127.966  21.575  1.00  0.00     0.163 HD
ATOM     15  O   UNL     1      43.780 128.506  24.621  1.00  0.00    -0.275 OA
BRANCH  13  16
ATOM     16  C   UNL     1      43.998 126.344  23.600  1.00  0.00     0.078 C 
ATOM     17  C   UNL     1      44.223 125.739  22.221  1.00  0.00     0.013 C 
ATOM     18  C   UNL     1      42.622 125.847  24.026  1.00  0.00     0.013 C 
ATOM     19  C   UNL     1      43.482 124.406  22.238  1.00  0.00     0.001 C 
ATOM     20  C   UNL     1      42.481 124.468  23.393  1.00  0.00     0.001 C 
ENDBRANCH  13  16
ENDBRANCH   9  12
TORSDOF 3
ENDMDL
MODEL 9
REMARK VINA RESULT:      -4.7      2.989      6.532
REMARK SMILES N#C[C@H]1c2ccccc2C[C@@H]1NC(=O)C1CCCC1
REMARK SMILES IDX 3 1 4 2 5 3 6 4 7 5 8 6 9 7 10 8 11 9 2 10 1 11 12 12 13 13
REMARK SMILES IDX 14 15 15 16 16 17 19 18 17 19 18 20
REMARK H PARENT 12 14
ROOT
ATOM      1  C   UNL     1      43.187 131.281  20.454  1.00  0.00     0.145 C 
ATOM      2  C   UNL     1      43.671 131.487  19.066  1.00  0.00    -0.025 A 
ATOM      3  C   UNL     1      42.900 131.494  17.899  1.00  0.00     0.005 A 
ATOM      4  C   UNL     1      43.539 131.709  16.668  1.00  0.00     0.000 A 
ATOM      5  C   UNL     1      44.930 131.914  16.620  1.00  0.00     0.000 A 
ATOM      6  C   UNL     1      45.685 131.901  17.803  1.00  0.00     0.004 A 
ATOM      7  C   UNL     1      45.030 131.677  19.017  1.00  0.00    -0.041 A 
ATOM      8  C   UNL     1      45.647 131.640  20.361  1.00  0.00     0.062 C 
ATOM      9  C   UNL     1      44.494 131.181  21.290  1.00  0.00     0.108 C 
ENDROOT
BRANCH   1  10
ATOM     10  C   UNL     1      42.367 132.428  20.878  1.00  0.00     0.073 C 
ATOM     11  N   UNL     1      41.722 133.328  21.212  1.00  0.00    -0.198 NA
ENDBRANCH   1  10
BRANCH   9  12
ATOM     12  N   UNL     1      44.697 129.798  21.739  1.00  0.00    -0.351 N 
ATOM     13  C   UNL     1      44.243 129.347  23.024  1.00  0.00     0.223 C 
ATOM     14  H   UNL     1      45.168 129.110  21.109  1.00  0.00     0.163 HD
ATOM     15  O   UNL     1      43.675 130.153  23.812  1.00  0.00    -0.275 OA
BRANCH  13  16
ATOM     16  C   UNL     1      44.424 127.905  23.428  1.00  0.00     0.078 C 
ATOM     17  C   UNL     1      45.429 127.739  24.560  1.00  0.00     0.013 C 
ATOM     18  C   UNL     1      44.961 127.036  22.297  1.00  0.00     0.013 C 
ATOM     19  C   UNL     1      45.974 126.323  24.414  1.00  0.00     0.001 C 
ATOM     20  C   UNL     1      45.661 125.870  22.986  1.00  0.00     0.001 C 
ENDBRANCH  13  16
ENDBRANCH   9  12
TORSDOF 3
ENDMDL


