REMARK SMILES Cc1ccc2ccc([C@@H]3CCCN(c4ccc(F)c(F)n4)[C@@H]3F)nc2c1F
REMARK SMILES IDX 9 1 10 2 11 3 12 4 13 5 22 6 23 7 8 8 2 9 3 10 26 11 4 12
REMARK SMILES IDX 25 13 5 14 24 15 6 16 7 17 1 18 27 19 14 20 15 21 21 22
REMARK SMILES IDX 16 23 19 24 17 25 20 26 18 27
REMARK H PARENT
ROOT
ATOM      1  C   UNL     1       0.155   1.937  -1.202  1.00  0.00     0.093 C 
ATOM      2  C   UNL     1      -0.961   2.808  -0.592  1.00  0.00     0.017 C 
ATOM      3  C   UNL     1      -2.119   1.959  -0.056  1.00  0.00     0.022 C 
ATOM      4  C   UNL     1      -2.671   1.042  -1.148  1.00  0.00     0.121 C 
ATOM      5  N   UNL     1      -1.588   0.254  -1.754  1.00  0.00    -0.326 N 
ATOM      6  C   UNL     1      -0.420   0.985  -2.274  1.00  0.00     0.273 C 
ATOM      7  F   UNL     1       0.573   0.108  -2.689  1.00  0.00    -0.223 F 
ENDROOT
BRANCH   1   8
ATOM      8  C   UNL     1       0.923   1.206  -0.117  1.00  0.00     0.049 A 
ATOM      9  C   UNL     1       1.450  -2.709   2.639  1.00  0.00    -0.013 A 
ATOM     10  C   UNL     1       2.521  -2.095   3.311  1.00  0.00     0.007 A 
ATOM     11  C   UNL     1       0.781  -2.011   1.619  1.00  0.00     0.152 A 
ATOM     12  C   UNL     1       2.935  -0.808   2.957  1.00  0.00     0.011 A 
ATOM     13  C   UNL     1       1.193  -0.721   1.262  1.00  0.00     0.106 A 
ATOM     14  C   UNL     1       2.277  -0.116   1.932  1.00  0.00     0.003 A 
ATOM     15  N   UNL     1       0.550  -0.046   0.271  1.00  0.00    -0.249 NA
ATOM     16  C   UNL     1       2.669   1.175   1.560  1.00  0.00     0.012 A 
ATOM     17  C   UNL     1       1.990   1.840   0.537  1.00  0.00     0.025 A 
ATOM     18  C   UNL     1       0.993  -4.083   3.037  1.00  0.00     0.047 C 
ATOM     19  F   UNL     1      -0.267  -2.586   0.974  1.00  0.00    -0.204 F 
ENDBRANCH   1   8
BRANCH   5  20
ATOM     20  C   UNL     1      -1.857  -1.090  -2.196  1.00  0.00     0.134 A 
ATOM     21  C   UNL     1      -2.404  -2.036  -1.315  1.00  0.00     0.050 A 
ATOM     22  N   UNL     1      -1.564  -1.459  -3.475  1.00  0.00    -0.200 NA
ATOM     23  C   UNL     1      -2.643  -3.336  -1.765  1.00  0.00     0.048 A 
ATOM     24  C   UNL     1      -1.791  -2.719  -3.933  1.00  0.00     0.250 A 
ATOM     25  C   UNL     1      -2.338  -3.683  -3.082  1.00  0.00     0.178 A 
ATOM     26  F   UNL     1      -1.483  -3.036  -5.214  1.00  0.00    -0.182 F 
ATOM     27  F   UNL     1      -2.566  -4.943  -3.527  1.00  0.00    -0.202 F 
ENDBRANCH   5  20
TORSDOF 2


