REMARK SMILES CC(=O)c1ccc(-c2ccc3cc[nH]c3c2)c[nH+]1
REMARK SMILES IDX 4 1 5 2 6 3 7 4 17 5 18 6 2 8 1 9 3 10 8 11 9 12 16 13 10 14
REMARK SMILES IDX 15 15 11 16 14 17 12 18 13 19
REMARK H PARENT 18 7 14 20
ROOT
ATOM      1  C   UNL     1       0.934   3.135  -1.629  1.00  0.00     0.246 A 
ATOM      2  C   UNL     1       1.111   2.146  -2.610  1.00  0.00     0.084 A 
ATOM      3  C   UNL     1       1.451   0.847  -2.232  1.00  0.00     0.022 A 
ATOM      4  C   UNL     1       1.617   0.525  -0.878  1.00  0.00     0.046 A 
ATOM      5  C   UNL     1       1.432   1.540   0.074  1.00  0.00     0.315 A 
ATOM      6  N   UNL     1       1.101   2.803  -0.313  1.00  0.00    -0.208 N 
ATOM      7  H   UNL     1       0.981   3.518   0.438  1.00  0.00     0.454 HD
ENDROOT
BRANCH   1   8
ATOM      8  C   UNL     1       0.572   4.521  -2.030  1.00  0.00     0.223 C 
ATOM      9  C   UNL     1       0.369   5.607  -1.017  1.00  0.00     0.100 C 
ATOM     10  O   UNL     1       0.428   4.804  -3.250  1.00  0.00    -0.288 OA
ENDBRANCH   1   8
BRANCH   4  11
ATOM     11  C   UNL     1       1.978  -0.854  -0.462  1.00  0.00    -0.010 A 
ATOM     12  C   UNL     1       2.920  -1.609  -1.213  1.00  0.00     0.010 A 
ATOM     13  C   UNL     1       1.385  -1.432   0.687  1.00  0.00     0.035 A 
ATOM     14  C   UNL     1       3.269  -2.916  -0.829  1.00  0.00     0.011 A 
ATOM     15  C   UNL     1       1.754  -2.729   1.038  1.00  0.00     0.046 A 
ATOM     16  C   UNL     1       2.662  -3.443   0.306  1.00  0.00    -0.001 A 
ATOM     17  N   UNL     1       1.308  -3.450   2.080  1.00  0.00    -0.361 N 
ATOM     18  C   UNL     1       2.803  -4.674   0.910  1.00  0.00     0.028 A 
ATOM     19  C   UNL     1       1.947  -4.640   2.007  1.00  0.00     0.083 A 
ATOM     20  H   UNL     1       0.613  -3.156   2.801  1.00  0.00     0.166 HD
ENDBRANCH   4  11
TORSDOF 2


