REMARK SMILES O=C(CC(F)(F)F)[N-]c1cc(F)c[n-]/c1=N\c1c[n-]c2nccc-2c1
REMARK SMILES IDX 8 1 9 2 15 3 14 4 13 5 10 6 11 7 12 8 16 9 17 10 22 11 21 12
REMARK SMILES IDX 23 13 20 14 24 15 19 16 25 17 18 18 2 19 1 20 3 21 4 22 5 23
REMARK SMILES IDX 6 24 7 25
REMARK H PARENT
ROOT
ATOM      1  N   UNL     1       0.722  -0.609   2.784  1.00  0.00    -0.627 NA
ENDROOT
BRANCH   1   2
ATOM      2  C   UNL     1       1.559  -0.055   1.760  1.00  0.00    -0.132 A 
ATOM      3  C   UNL     1       1.024   0.642   0.657  1.00  0.00    -0.074 A 
ATOM      4  N   UNL     1       1.871   1.173  -0.272  1.00  0.00    -0.441 NA
ATOM      5  C   UNL     1       3.221   1.054  -0.172  1.00  0.00     0.017 A 
ATOM      6  C   UNL     1       2.948  -0.151   1.894  1.00  0.00     0.023 A 
ATOM      7  C   UNL     1       3.784   0.394   0.920  1.00  0.00     0.117 A 
ATOM      8  F   UNL     1       5.131   0.287   1.036  1.00  0.00    -0.207 F 
BRANCH   3   9
ATOM      9  N   UNL     1      -0.263   0.828   0.570  1.00  0.00    -0.437 NA
BRANCH   9  10
ATOM     10  C   UNL     1      -0.976   1.467  -0.502  1.00  0.00    -0.045 A 
ATOM     11  C   UNL     1      -2.414   2.735  -4.577  1.00  0.00    -0.022 A 
ATOM     12  N   UNL     1      -3.147   3.181  -3.522  1.00  0.00    -0.442 NA
ATOM     13  C   UNL     1      -1.325   1.951  -4.187  1.00  0.00     0.003 A 
ATOM     14  C   UNL     1      -2.515   2.683  -2.449  1.00  0.00    -0.052 A 
ATOM     15  C   UNL     1      -1.377   1.912  -2.818  1.00  0.00    -0.027 A 
ATOM     16  N   UNL     1      -2.888   2.824  -1.157  1.00  0.00    -0.442 NA
ATOM     17  C   UNL     1      -0.601   1.287  -1.856  1.00  0.00     0.011 A 
ATOM     18  C   UNL     1      -2.137   2.222  -0.184  1.00  0.00    -0.019 A 
ENDBRANCH   9  10
ENDBRANCH   3   9
ENDBRANCH   1   2
BRANCH   1  19
ATOM     19  C   UNL     1      -0.390  -1.487   2.563  1.00  0.00     0.064 C 
ATOM     20  O   UNL     1      -1.252  -1.615   3.471  1.00  0.00    -0.320 OA
BRANCH  19  21
ATOM     21  C   UNL     1      -0.488  -2.354   1.334  1.00  0.00     0.170 C 
BRANCH  21  22
ATOM     22  C   UNL     1       0.284  -3.660   1.517  1.00  0.00     0.394 C 
ATOM     23  F   UNL     1       1.626  -3.396   1.728  1.00  0.00    -0.171 F 
ATOM     24  F   UNL     1      -0.217  -4.366   2.597  1.00  0.00    -0.171 F 
ATOM     25  F   UNL     1       0.154  -4.433   0.378  1.00  0.00    -0.171 F 
ENDBRANCH  21  22
ENDBRANCH  19  21
ENDBRANCH   1  19
TORSDOF 6


