MODEL 1
REMARK VINA RESULT:      -5.1      0.000      0.000
REMARK SMILES Cc1cc(N)c(N[C@H]2CC[C@@H](C)N(c3cnc(CC#N)n3C)[C@@H]2F)cc1F
REMARK SMILES IDX 8 1 9 2 10 3 11 4 12 5 13 6 23 7 24 8 7 9 6 11 2 12 3 13
REMARK SMILES IDX 26 14 4 15 25 16 1 17 27 18 5 19 14 22 15 23 21 24 16 25
REMARK SMILES IDX 17 26 22 27 18 28 19 29 20 30
REMARK H PARENT 7 10 5 20 5 21
ROOT
ATOM      1  C   UNL     1      45.271 131.693  19.657  1.00  0.00     0.134 C 
ATOM      2  C   UNL     1      44.104 132.685  19.794  1.00  0.00     0.032 C 
ATOM      3  C   UNL     1      42.875 132.009  20.407  1.00  0.00     0.027 C 
ATOM      4  C   UNL     1      43.206 131.392  21.779  1.00  0.00     0.083 C 
ATOM      5  C   UNL     1      41.980 130.621  22.298  1.00  0.00     0.031 C 
ATOM      6  N   UNL     1      44.408 130.537  21.682  1.00  0.00    -0.322 N 
ATOM      7  C   UNL     1      45.607 131.084  21.032  1.00  0.00     0.286 C 
ATOM      8  F   UNL     1      46.167 132.055  21.846  1.00  0.00    -0.221 F 
ENDROOT
BRANCH   1   9
ATOM      9  N   UNL     1      44.950 130.638  18.682  1.00  0.00    -0.376 N 
ATOM     10  H   UNL     1      44.427 129.795  19.010  1.00  0.00     0.161 HD
BRANCH   9  11
ATOM     11  C   UNL     1      45.310 130.711  17.289  1.00  0.00     0.061 A 
ATOM     12  C   UNL     1      45.989 130.760  14.550  1.00  0.00    -0.013 A 
ATOM     13  C   UNL     1      44.803 131.361  14.996  1.00  0.00     0.034 A 
ATOM     14  C   UNL     1      46.836 130.140  15.477  1.00  0.00     0.128 A 
ATOM     15  C   UNL     1      44.458 131.348  16.357  1.00  0.00     0.055 A 
ATOM     16  C   UNL     1      46.499 130.114  16.832  1.00  0.00     0.067 A 
ATOM     17  C   UNL     1      46.356 130.783  13.094  1.00  0.00     0.047 C 
ATOM     18  F   UNL     1      47.988 129.549  15.067  1.00  0.00    -0.207 F 
BRANCH  15  19
ATOM     19  N   UNL     1      43.265 132.024  16.773  1.00  0.00    -0.397 N 
ATOM     20  H   UNL     1      43.153 132.340  17.763  1.00  0.00     0.156 HD
ATOM     21  H   UNL     1      42.448 132.153  16.138  1.00  0.00     0.156 HD
ENDBRANCH  15  19
ENDBRANCH   9  11
ENDBRANCH   1   9
BRANCH   6  22
ATOM     22  C   UNL     1      44.634 129.518  22.669  1.00  0.00     0.131 A 
ATOM     23  C   UNL     1      44.365 129.626  24.013  1.00  0.00     0.158 A 
ATOM     24  N   UNL     1      45.169 128.311  22.419  1.00  0.00    -0.317 N 
ATOM     25  N   UNL     1      44.734 128.481  24.624  1.00  0.00    -0.238 NA
ATOM     26  C   UNL     1      45.211 127.701  23.626  1.00  0.00     0.124 A 
ATOM     27  C   UNL     1      45.644 127.790  21.139  1.00  0.00     0.153 C 
BRANCH  26  28
ATOM     28  C   UNL     1      45.793 126.342  23.870  1.00  0.00     0.195 C 
BRANCH  28  29
ATOM     29  C   UNL     1      44.797 125.311  23.568  1.00  0.00     0.070 C 
ATOM     30  N   UNL     1      44.010 124.498  23.329  1.00  0.00    -0.198 NA
ENDBRANCH  28  29
ENDBRANCH  26  28
ENDBRANCH   6  22
TORSDOF 6
ENDMDL
MODEL 2
REMARK VINA RESULT:      -4.4      2.730      7.319
REMARK SMILES Cc1cc(N)c(N[C@H]2CC[C@@H](C)N(c3cnc(CC#N)n3C)[C@@H]2F)cc1F
REMARK SMILES IDX 8 1 9 2 10 3 11 4 12 5 13 6 23 7 24 8 7 9 6 11 2 12 3 13
REMARK SMILES IDX 26 14 4 15 25 16 1 17 27 18 5 19 14 22 15 23 21 24 16 25
REMARK SMILES IDX 17 26 22 27 18 28 19 29 20 30
REMARK H PARENT 7 10 5 20 5 21
ROOT
ATOM      1  C   UNL     1      42.533 130.461  23.791  1.00  0.00     0.134 C 
ATOM      2  C   UNL     1      42.901 131.703  24.623  1.00  0.00     0.032 C 
ATOM      3  C   UNL     1      44.342 132.141  24.348  1.00  0.00     0.027 C 
ATOM      4  C   UNL     1      44.561 132.426  22.851  1.00  0.00     0.083 C 
ATOM      5  C   UNL     1      46.047 132.743  22.607  1.00  0.00     0.031 C 
ATOM      6  N   UNL     1      44.088 131.287  22.036  1.00  0.00    -0.322 N 
ATOM      7  C   UNL     1      42.744 130.751  22.293  1.00  0.00     0.286 C 
ATOM      8  F   UNL     1      41.796 131.663  21.858  1.00  0.00    -0.221 F 
ENDROOT
BRANCH   1   9
ATOM      9  N   UNL     1      43.323 129.295  24.214  1.00  0.00    -0.376 N 
ATOM     10  H   UNL     1      44.150 129.447  24.835  1.00  0.00     0.161 HD
BRANCH   9  11
ATOM     11  C   UNL     1      43.009 127.943  23.827  1.00  0.00     0.061 A 
ATOM     12  C   UNL     1      42.351 125.330  22.987  1.00  0.00    -0.013 A 
ATOM     13  C   UNL     1      43.666 125.801  22.867  1.00  0.00     0.034 A 
ATOM     14  C   UNL     1      41.368 126.166  23.532  1.00  0.00     0.128 A 
ATOM     15  C   UNL     1      44.007 127.097  23.288  1.00  0.00     0.055 A 
ATOM     16  C   UNL     1      41.693 127.459  23.945  1.00  0.00     0.067 A 
ATOM     17  C   UNL     1      41.995 123.941  22.542  1.00  0.00     0.047 C 
ATOM     18  F   UNL     1      40.088 125.731  23.654  1.00  0.00    -0.207 F 
BRANCH  15  19
ATOM     19  N   UNL     1      45.375 127.515  23.199  1.00  0.00    -0.397 N 
ATOM     20  H   UNL     1      45.667 128.225  22.490  1.00  0.00     0.156 HD
ATOM     21  H   UNL     1      46.128 127.079  23.772  1.00  0.00     0.156 HD
ENDBRANCH  15  19
ENDBRANCH   9  11
ENDBRANCH   1   9
BRANCH   6  22
ATOM     22  C   UNL     1      44.593 131.112  20.702  1.00  0.00     0.131 A 
ATOM     23  C   UNL     1      45.694 130.367  20.350  1.00  0.00     0.158 A 
ATOM     24  N   UNL     1      44.070 131.677  19.602  1.00  0.00    -0.317 N 
ATOM     25  N   UNL     1      45.875 130.461  19.016  1.00  0.00    -0.238 NA
ATOM     26  C   UNL     1      44.867 131.258  18.593  1.00  0.00     0.124 A 
ATOM     27  C   UNL     1      42.926 132.582  19.519  1.00  0.00     0.153 C 
BRANCH  26  28
ATOM     28  C   UNL     1      44.718 131.682  17.163  1.00  0.00     0.195 C 
BRANCH  28  29
ATOM     29  C   UNL     1      44.953 130.540  16.276  1.00  0.00     0.070 C 
ATOM     30  N   UNL     1      45.139 129.639  15.576  1.00  0.00    -0.198 NA
ENDBRANCH  28  29
ENDBRANCH  26  28
ENDBRANCH   6  22
TORSDOF 6
ENDMDL
MODEL 3
REMARK VINA RESULT:      -2.6      1.117      1.395
REMARK SMILES Cc1cc(N)c(N[C@H]2CC[C@@H](C)N(c3cnc(CC#N)n3C)[C@@H]2F)cc1F
REMARK SMILES IDX 8 1 9 2 10 3 11 4 12 5 13 6 23 7 24 8 7 9 6 11 2 12 3 13
REMARK SMILES IDX 26 14 4 15 25 16 1 17 27 18 5 19 14 22 15 23 21 24 16 25
REMARK SMILES IDX 17 26 22 27 18 28 19 29 20 30
REMARK H PARENT 7 10 5 20 5 21
ROOT
ATOM      1  C   UNL     1      45.348 131.817  19.510  1.00  0.00     0.134 C 
ATOM      2  C   UNL     1      44.134 132.763  19.545  1.00  0.00     0.032 C 
ATOM      3  C   UNL     1      42.900 132.053  20.107  1.00  0.00     0.027 C 
ATOM      4  C   UNL     1      43.173 131.494  21.516  1.00  0.00     0.083 C 
ATOM      5  C   UNL     1      41.951 130.687  21.987  1.00  0.00     0.031 C 
ATOM      6  N   UNL     1      44.413 130.688  21.518  1.00  0.00    -0.322 N 
ATOM      7  C   UNL     1      45.625 131.267  20.922  1.00  0.00     0.286 C 
ATOM      8  F   UNL     1      46.095 132.285  21.735  1.00  0.00    -0.221 F 
ENDROOT
BRANCH   1   9
ATOM      9  N   UNL     1      45.130 130.721  18.554  1.00  0.00    -0.376 N 
ATOM     10  H   UNL     1      44.643 129.857  18.884  1.00  0.00     0.161 HD
BRANCH   9  11
ATOM     11  C   UNL     1      45.542 130.778  17.175  1.00  0.00     0.061 A 
ATOM     12  C   UNL     1      46.444 130.903  14.503  1.00  0.00    -0.013 A 
ATOM     13  C   UNL     1      46.087 129.673  15.073  1.00  0.00     0.034 A 
ATOM     14  C   UNL     1      46.344 132.071  15.271  1.00  0.00     0.128 A 
ATOM     15  C   UNL     1      45.631 129.599  16.399  1.00  0.00     0.055 A 
ATOM     16  C   UNL     1      45.900 132.008  16.593  1.00  0.00     0.067 A 
ATOM     17  C   UNL     1      46.923 130.976  13.082  1.00  0.00     0.047 C 
ATOM     18  F   UNL     1      46.687 133.272  14.741  1.00  0.00    -0.207 F 
BRANCH  15  19
ATOM     19  N   UNL     1      45.224 128.327  16.920  1.00  0.00    -0.397 N 
ATOM     20  H   UNL     1      44.219 128.142  17.139  1.00  0.00     0.156 HD
ATOM     21  H   UNL     1      45.910 127.583  17.170  1.00  0.00     0.156 HD
ENDBRANCH  15  19
ENDBRANCH   9  11
ENDBRANCH   1   9
BRANCH   6  22
ATOM     22  C   UNL     1      44.621 129.711  22.551  1.00  0.00     0.131 A 
ATOM     23  C   UNL     1      44.363 129.888  23.890  1.00  0.00     0.158 A 
ATOM     24  N   UNL     1      45.126 128.482  22.354  1.00  0.00    -0.317 N 
ATOM     25  N   UNL     1      44.709 128.764  24.551  1.00  0.00    -0.238 NA
ATOM     26  C   UNL     1      45.161 127.928  23.588  1.00  0.00     0.124 A 
ATOM     27  C   UNL     1      45.581 127.892  21.098  1.00  0.00     0.153 C 
BRANCH  26  28
ATOM     28  C   UNL     1      45.713 126.568  23.892  1.00  0.00     0.195 C 
BRANCH  28  29
ATOM     29  C   UNL     1      44.629 125.583  23.912  1.00  0.00     0.070 C 
ATOM     30  N   UNL     1      43.774 124.804  23.928  1.00  0.00    -0.198 NA
ENDBRANCH  28  29
ENDBRANCH  26  28
ENDBRANCH   6  22
TORSDOF 6
ENDMDL
MODEL 4
REMARK VINA RESULT:      -2.3      3.643      7.392
REMARK SMILES Cc1cc(N)c(N[C@H]2CC[C@@H](C)N(c3cnc(CC#N)n3C)[C@@H]2F)cc1F
REMARK SMILES IDX 8 1 9 2 10 3 11 4 12 5 13 6 23 7 24 8 7 9 6 11 2 12 3 13
REMARK SMILES IDX 26 14 4 15 25 16 1 17 27 18 5 19 14 22 15 23 21 24 16 25
REMARK SMILES IDX 17 26 22 27 18 28 19 29 20 30
REMARK H PARENT 7 10 5 20 5 21
ROOT
ATOM      1  C   UNL     1      46.016 131.817  21.371  1.00  0.00     0.134 C 
ATOM      2  C   UNL     1      44.534 131.921  21.771  1.00  0.00     0.032 C 
ATOM      3  C   UNL     1      43.673 132.363  20.585  1.00  0.00     0.027 C 
ATOM      4  C   UNL     1      43.831 131.400  19.394  1.00  0.00     0.083 C 
ATOM      5  C   UNL     1      43.047 131.950  18.189  1.00  0.00     0.031 C 
ATOM      6  N   UNL     1      45.262 131.193  19.086  1.00  0.00    -0.322 N 
ATOM      7  C   UNL     1      46.173 130.846  20.186  1.00  0.00     0.286 C 
ATOM      8  F   UNL     1      45.911 129.552  20.607  1.00  0.00    -0.221 F 
ENDROOT
BRANCH   1   9
ATOM      9  N   UNL     1      46.563 133.141  21.038  1.00  0.00    -0.376 N 
ATOM     10  H   UNL     1      46.127 133.683  20.257  1.00  0.00     0.161 HD
BRANCH   9  11
ATOM     11  C   UNL     1      47.666 133.743  21.742  1.00  0.00     0.061 A 
ATOM     12  C   UNL     1      49.891 134.868  23.066  1.00  0.00    -0.013 A 
ATOM     13  C   UNL     1      49.181 135.615  22.116  1.00  0.00     0.034 A 
ATOM     14  C   UNL     1      49.482 133.559  23.357  1.00  0.00     0.128 A 
ATOM     15  C   UNL     1      48.069 135.068  21.455  1.00  0.00     0.055 A 
ATOM     16  C   UNL     1      48.384 133.003  22.700  1.00  0.00     0.067 A 
ATOM     17  C   UNL     1      51.074 135.461  23.775  1.00  0.00     0.047 C 
ATOM     18  F   UNL     1      50.157 132.817  24.271  1.00  0.00    -0.207 F 
BRANCH  15  19
ATOM     19  N   UNL     1      47.340 135.889  20.533  1.00  0.00    -0.397 N 
ATOM     20  H   UNL     1      46.700 135.456  19.830  1.00  0.00     0.156 HD
ATOM     21  H   UNL     1      47.479 136.921  20.477  1.00  0.00     0.156 HD
ENDBRANCH  15  19
ENDBRANCH   9  11
ENDBRANCH   1   9
BRANCH   6  22
ATOM     22  C   UNL     1      45.646 130.735  17.779  1.00  0.00     0.131 A 
ATOM     23  C   UNL     1      45.969 129.442  17.442  1.00  0.00     0.158 A 
ATOM     24  N   UNL     1      45.770 131.520  16.695  1.00  0.00    -0.317 N 
ATOM     25  N   UNL     1      46.303 129.403  16.135  1.00  0.00    -0.238 NA
ATOM     26  C   UNL     1      46.164 130.680  15.711  1.00  0.00     0.124 A 
ATOM     27  C   UNL     1      45.571 132.965  16.610  1.00  0.00     0.153 C 
BRANCH  26  28
ATOM     28  C   UNL     1      46.496 131.109  14.314  1.00  0.00     0.195 C 
BRANCH  28  29
ATOM     29  C   UNL     1      47.539 130.241  13.760  1.00  0.00     0.070 C 
ATOM     30  N   UNL     1      48.363 129.557  13.324  1.00  0.00    -0.198 NA
ENDBRANCH  28  29
ENDBRANCH  26  28
ENDBRANCH   6  22
TORSDOF 6
ENDMDL


