REMARK SMILES CO[C@@H]1CCC[C@@H](c2cc3cc(F)ccc3[nH]2)N1[C@H]1C(=O)c2ccccc21
REMARK SMILES IDX 3 1 4 2 5 3 6 4 7 5 18 6 2 7 1 8 19 9 20 10 27 11 22 12
REMARK SMILES IDX 26 13 23 14 25 15 24 16 21 17 8 18 9 19 17 20 10 21 16 22
REMARK SMILES IDX 11 23 15 24 12 25 14 26 13 28
REMARK H PARENT 17 27
ROOT
ATOM      1  C   UNL     1      -2.472   0.425  -2.486  1.00  0.00     0.189 C 
ATOM      2  C   UNL     1      -3.655  -0.542  -2.645  1.00  0.00     0.049 C 
ATOM      3  C   UNL     1      -4.466  -0.618  -1.357  1.00  0.00     0.006 C 
ATOM      4  C   UNL     1      -3.561  -1.033  -0.205  1.00  0.00     0.026 C 
ATOM      5  C   UNL     1      -2.348  -0.086  -0.072  1.00  0.00     0.107 C 
ATOM      6  N   UNL     1      -1.591   0.010  -1.363  1.00  0.00    -0.255 NA
ENDROOT
BRANCH   1   7
ATOM      7  O   UNL     1      -2.956   1.744  -2.262  1.00  0.00    -0.366 OA
ATOM      8  C   UNL     1      -2.925   2.500  -3.452  1.00  0.00     0.197 C 
ENDBRANCH   1   7
BRANCH   6   9
ATOM      9  C   UNL     1      -0.369   0.879  -1.367  1.00  0.00     0.163 C 
ATOM     10  C   UNL     1      -0.364   1.989  -0.429  1.00  0.00     0.184 C 
ATOM     11  C   UNL     1       0.786   0.252  -0.743  1.00  0.00    -0.012 A 
ATOM     12  C   UNL     1       0.845   1.325   0.158  1.00  0.00     0.025 A 
ATOM     13  C   UNL     1       1.683  -0.798  -0.733  1.00  0.00     0.006 A 
ATOM     14  C   UNL     1       1.800   1.417   1.152  1.00  0.00     0.012 A 
ATOM     15  C   UNL     1       2.674  -0.739   0.278  1.00  0.00     0.000 A 
ATOM     16  C   UNL     1       2.730   0.349   1.205  1.00  0.00     0.001 A 
ATOM     17  O   UNL     1      -1.036   3.031  -0.220  1.00  0.00    -0.292 OA
ENDBRANCH   6   9
BRANCH   5  18
ATOM     18  C   UNL     1      -1.489  -0.611   1.054  1.00  0.00     0.033 A 
ATOM     19  C   UNL     1      -0.826  -1.839   1.065  1.00  0.00     0.033 A 
ATOM     20  N   UNL     1      -1.244   0.082   2.192  1.00  0.00    -0.357 N 
ATOM     21  C   UNL     1      -0.134  -1.857   2.256  1.00  0.00     0.003 A 
ATOM     22  C   UNL     1      -0.409  -0.686   2.911  1.00  0.00     0.046 A 
ATOM     23  C   UNL     1       0.744  -2.804   2.778  1.00  0.00     0.049 A 
ATOM     24  C   UNL     1       0.177  -0.378   4.138  1.00  0.00     0.029 A 
ATOM     25  C   UNL     1       1.349  -2.525   4.018  1.00  0.00     0.123 A 
ATOM     26  C   UNL     1       1.066  -1.317   4.694  1.00  0.00     0.041 A 
ATOM     27  H   UNL     1      -1.597   1.032   2.442  1.00  0.00     0.166 HD
ATOM     28  F   UNL     1       2.213  -3.416   4.562  1.00  0.00    -0.207 F 
ENDBRANCH   5  18
TORSDOF 3


