MODEL 1
REMARK VINA RESULT:      -9.7      0.000      0.000
REMARK SMILES Cc1cc(N)c([NH2+]c2c(F)[nH+]c(C)c(-c3ccc4c(C)[nH]nc4c3)c2C)cc1F
REMARK SMILES IDX 7 1 6 4 2 5 3 6 28 7 4 8 27 9 1 10 29 11 5 12 8 15 9 16
REMARK SMILES IDX 25 17 11 18 14 19 12 20 10 21 26 22 13 24 15 25 16 26 24 27
REMARK SMILES IDX 17 28 23 29 18 30 22 31 19 32 21 33 20 34
REMARK H PARENT 7 2 7 3 5 13 5 14 11 23 21 35
ROOT
ATOM      1  N   UNL     1      44.711 131.129  22.412  1.00  0.00    -0.271 N 
ATOM      2  H   UNL     1      45.756 131.122  22.374  1.00  0.00     0.358 HD
ATOM      3  H   UNL     1      44.457 131.950  22.998  1.00  0.00     0.358 HD
ENDROOT
BRANCH   1   4
ATOM      4  C   UNL     1      44.291 129.863  22.981  1.00  0.00     0.161 A 
ATOM      5  C   UNL     1      43.448 127.343  23.956  1.00  0.00    -0.013 A 
ATOM      6  C   UNL     1      42.878 128.522  24.455  1.00  0.00     0.038 A 
ATOM      7  C   UNL     1      44.485 127.426  23.019  1.00  0.00     0.132 A 
ATOM      8  C   UNL     1      43.301 129.782  24.000  1.00  0.00     0.094 A 
ATOM      9  C   UNL     1      44.902 128.670  22.543  1.00  0.00     0.110 A 
ATOM     10  C   UNL     1      43.010 126.008  24.486  1.00  0.00     0.047 C 
ATOM     11  F   UNL     1      45.091 126.302  22.560  1.00  0.00    -0.206 F 
BRANCH   8  12
ATOM     12  N   UNL     1      42.731 130.948  24.610  1.00  0.00    -0.394 N 
ATOM     13  H   UNL     1      43.345 131.643  25.090  1.00  0.00     0.156 HD
ATOM     14  H   UNL     1      41.739 131.231  24.459  1.00  0.00     0.156 HD
ENDBRANCH   8  12
ENDBRANCH   1   4
BRANCH   1  15
ATOM     15  C   UNL     1      44.132 131.340  21.097  1.00  0.00     0.243 A 
ATOM     16  C   UNL     1      42.820 131.840  20.985  1.00  0.00     0.421 A 
ATOM     17  C   UNL     1      44.861 131.073  19.905  1.00  0.00     0.034 A 
ATOM     18  N   UNL     1      42.274 132.091  19.770  1.00  0.00    -0.178 N 
ATOM     19  C   UNL     1      44.276 131.387  18.653  1.00  0.00     0.058 A 
ATOM     20  C   UNL     1      42.962 131.902  18.611  1.00  0.00     0.187 A 
ATOM     21  F   UNL     1      42.084 132.095  22.098  1.00  0.00    -0.131 F 
ATOM     22  C   UNL     1      46.275 130.528  19.968  1.00  0.00     0.052 C 
ATOM     23  H   UNL     1      41.297 132.461  19.740  1.00  0.00     0.456 HD
ATOM     24  C   UNL     1      42.298 132.242  17.301  1.00  0.00     0.124 C 
BRANCH  19  25
ATOM     25  C   UNL     1      45.038 131.211  17.395  1.00  0.00    -0.009 A 
ATOM     26  C   UNL     1      45.433 132.344  16.638  1.00  0.00     0.010 A 
ATOM     27  C   UNL     1      45.365 129.911  16.949  1.00  0.00     0.040 A 
ATOM     28  C   UNL     1      46.154 132.187  15.440  1.00  0.00     0.013 A 
ATOM     29  C   UNL     1      46.076 129.793  15.759  1.00  0.00     0.093 A 
ATOM     30  C   UNL     1      46.453 130.891  15.033  1.00  0.00     0.023 A 
ATOM     31  N   UNL     1      46.501 128.664  15.163  1.00  0.00    -0.175 NA
ATOM     32  C   UNL     1      47.127 130.383  13.946  1.00  0.00     0.040 A 
ATOM     33  N   UNL     1      47.146 129.036  14.061  1.00  0.00    -0.282 N 
ATOM     34  C   UNL     1      47.805 131.159  12.863  1.00  0.00     0.067 C 
ATOM     35  H   UNL     1      47.598 128.368  13.397  1.00  0.00     0.190 HD
ENDBRANCH  19  25
ENDBRANCH   1  15
TORSDOF 4
ENDMDL
MODEL 2
REMARK VINA RESULT:      -8.2      1.171      1.540
REMARK SMILES Cc1cc(N)c([NH2+]c2c(F)[nH+]c(C)c(-c3ccc4c(C)[nH]nc4c3)c2C)cc1F
REMARK SMILES IDX 7 1 6 4 2 5 3 6 28 7 4 8 27 9 1 10 29 11 5 12 8 15 9 16
REMARK SMILES IDX 25 17 11 18 14 19 12 20 10 21 26 22 13 24 15 25 16 26 24 27
REMARK SMILES IDX 17 28 23 29 18 30 22 31 19 32 21 33 20 34
REMARK H PARENT 7 2 7 3 5 13 5 14 11 23 21 35
ROOT
ATOM      1  N   UNL     1      44.165 131.870  21.977  1.00  0.00    -0.271 N 
ATOM      2  H   UNL     1      45.202 131.966  22.081  1.00  0.00     0.358 HD
ATOM      3  H   UNL     1      43.760 132.734  22.391  1.00  0.00     0.358 HD
ENDROOT
BRANCH   1   4
ATOM      4  C   UNL     1      43.771 130.659  22.671  1.00  0.00     0.161 A 
ATOM      5  C   UNL     1      43.001 128.228  23.897  1.00  0.00    -0.013 A 
ATOM      6  C   UNL     1      42.273 129.401  24.133  1.00  0.00     0.038 A 
ATOM      7  C   UNL     1      44.152 128.283  23.101  1.00  0.00     0.132 A 
ATOM      8  C   UNL     1      42.655 130.621  23.553  1.00  0.00     0.094 A 
ATOM      9  C   UNL     1      44.533 129.485  22.501  1.00  0.00     0.110 A 
ATOM     10  C   UNL     1      42.601 126.942  24.560  1.00  0.00     0.047 C 
ATOM     11  F   UNL     1      44.906 127.173  22.900  1.00  0.00    -0.206 F 
BRANCH   8  12
ATOM     12  N   UNL     1      41.911 131.798  23.900  1.00  0.00    -0.394 N 
ATOM     13  H   UNL     1      40.897 131.726  24.138  1.00  0.00     0.156 HD
ATOM     14  H   UNL     1      42.369 132.715  24.090  1.00  0.00     0.156 HD
ENDBRANCH   8  12
ENDBRANCH   1   4
BRANCH   1  15
ATOM     15  C   UNL     1      43.773 131.835  20.579  1.00  0.00     0.243 A 
ATOM     16  C   UNL     1      42.496 132.295  20.202  1.00  0.00     0.421 A 
ATOM     17  C   UNL     1      44.651 131.363  19.565  1.00  0.00     0.034 A 
ATOM     18  N   UNL     1      42.123 132.317  18.899  1.00  0.00    -0.178 N 
ATOM     19  C   UNL     1      44.246 131.441  18.209  1.00  0.00     0.058 A 
ATOM     20  C   UNL     1      42.957 131.927  17.897  1.00  0.00     0.187 A 
ATOM     21  F   UNL     1      41.621 132.740  21.140  1.00  0.00    -0.131 F 
ATOM     22  C   UNL     1      46.035 130.852  19.916  1.00  0.00     0.052 C 
ATOM     23  H   UNL     1      41.165 132.667  18.671  1.00  0.00     0.456 HD
ATOM     24  C   UNL     1      42.482 132.019  16.469  1.00  0.00     0.124 C 
BRANCH  19  25
ATOM     25  C   UNL     1      45.168 131.047  17.118  1.00  0.00    -0.009 A 
ATOM     26  C   UNL     1      45.671 129.722  17.056  1.00  0.00     0.010 A 
ATOM     27  C   UNL     1      45.547 131.997  16.144  1.00  0.00     0.040 A 
ATOM     28  C   UNL     1      46.549 129.339  16.026  1.00  0.00     0.013 A 
ATOM     29  C   UNL     1      46.419 131.584  15.140  1.00  0.00     0.093 A 
ATOM     30  C   UNL     1      46.902 130.304  15.087  1.00  0.00     0.023 A 
ATOM     31  N   UNL     1      46.895 132.311  14.113  1.00  0.00    -0.175 NA
ATOM     32  C   UNL     1      47.714 130.276  13.976  1.00  0.00     0.040 A 
ATOM     33  N   UNL     1      47.679 131.502  13.406  1.00  0.00    -0.282 N 
ATOM     34  C   UNL     1      48.444 129.096  13.423  1.00  0.00     0.067 C 
ATOM     35  H   UNL     1      48.181 131.791  12.537  1.00  0.00     0.190 HD
ENDBRANCH  19  25
ENDBRANCH   1  15
TORSDOF 4
ENDMDL
MODEL 3
REMARK VINA RESULT:      -7.7      2.053      2.793
REMARK SMILES Cc1cc(N)c([NH2+]c2c(F)[nH+]c(C)c(-c3ccc4c(C)[nH]nc4c3)c2C)cc1F
REMARK SMILES IDX 7 1 6 4 2 5 3 6 28 7 4 8 27 9 1 10 29 11 5 12 8 15 9 16
REMARK SMILES IDX 25 17 11 18 14 19 12 20 10 21 26 22 13 24 15 25 16 26 24 27
REMARK SMILES IDX 17 28 23 29 18 30 22 31 19 32 21 33 20 34
REMARK H PARENT 7 2 7 3 5 13 5 14 11 23 21 35
ROOT
ATOM      1  N   UNL     1      44.233 129.798  24.031  1.00  0.00    -0.271 N 
ATOM      2  H   UNL     1      45.267 129.682  23.924  1.00  0.00     0.358 HD
ATOM      3  H   UNL     1      44.100 130.348  24.903  1.00  0.00     0.358 HD
ENDROOT
BRANCH   1   4
ATOM      4  C   UNL     1      43.653 128.469  24.094  1.00  0.00     0.161 A 
ATOM      5  C   UNL     1      42.423 125.930  24.310  1.00  0.00    -0.013 A 
ATOM      6  C   UNL     1      43.802 126.069  24.517  1.00  0.00     0.038 A 
ATOM      7  C   UNL     1      41.671 127.049  23.930  1.00  0.00     0.132 A 
ATOM      8  C   UNL     1      44.433 127.316  24.390  1.00  0.00     0.094 A 
ATOM      9  C   UNL     1      42.280 128.300  23.820  1.00  0.00     0.110 A 
ATOM     10  C   UNL     1      41.774 124.580  24.409  1.00  0.00     0.047 C 
ATOM     11  F   UNL     1      40.344 126.931  23.670  1.00  0.00    -0.206 F 
BRANCH   8  12
ATOM     12  N   UNL     1      45.858 127.372  24.539  1.00  0.00    -0.394 N 
ATOM     13  H   UNL     1      46.285 127.951  25.297  1.00  0.00     0.156 HD
ATOM     14  H   UNL     1      46.501 126.729  24.029  1.00  0.00     0.156 HD
ENDBRANCH   8  12
ENDBRANCH   1   4
BRANCH   1  15
ATOM     15  C   UNL     1      43.670 130.573  22.940  1.00  0.00     0.243 A 
ATOM     16  C   UNL     1      42.611 131.467  23.195  1.00  0.00     0.421 A 
ATOM     17  C   UNL     1      44.168 130.473  21.612  1.00  0.00     0.034 A 
ATOM     18  N   UNL     1      42.099 132.238  22.204  1.00  0.00    -0.178 N 
ATOM     19  C   UNL     1      43.640 131.324  20.609  1.00  0.00     0.058 A 
ATOM     20  C   UNL     1      42.589 132.210  20.935  1.00  0.00     0.187 A 
ATOM     21  F   UNL     1      42.095 131.583  24.446  1.00  0.00    -0.131 F 
ATOM     22  C   UNL     1      45.303 129.522  21.281  1.00  0.00     0.052 C 
ATOM     23  H   UNL     1      41.314 132.885  22.444  1.00  0.00     0.456 HD
ATOM     24  C   UNL     1      41.991 133.127  19.898  1.00  0.00     0.124 C 
BRANCH  19  25
ATOM     25  C   UNL     1      44.196 131.315  19.237  1.00  0.00    -0.009 A 
ATOM     26  C   UNL     1      45.563 131.001  19.025  1.00  0.00     0.010 A 
ATOM     27  C   UNL     1      43.362 131.626  18.140  1.00  0.00     0.040 A 
ATOM     28  C   UNL     1      46.103 130.993  17.726  1.00  0.00     0.013 A 
ATOM     29  C   UNL     1      43.929 131.611  16.869  1.00  0.00     0.093 A 
ATOM     30  C   UNL     1      45.250 131.308  16.672  1.00  0.00     0.023 A 
ATOM     31  N   UNL     1      43.322 131.858  15.694  1.00  0.00    -0.175 NA
ATOM     32  C   UNL     1      45.435 131.391  15.311  1.00  0.00     0.040 A 
ATOM     33  N   UNL     1      44.248 131.716  14.750  1.00  0.00    -0.282 N 
ATOM     34  C   UNL     1      46.687 131.094  14.552  1.00  0.00     0.067 C 
ATOM     35  H   UNL     1      44.063 131.837  13.730  1.00  0.00     0.190 HD
ENDBRANCH  19  25
ENDBRANCH   1  15
TORSDOF 4
ENDMDL


