REMARK SMILES Cc1cc(O[C@@H]2C=CC(O)=CO2)ccc1C(=O)N[C@H]1CC12CCC2
REMARK SMILES IDX 5 1 4 2 2 3 3 4 15 5 14 6 13 7 1 8 16 9 18 10 17 11 19 13
REMARK SMILES IDX 20 14 21 15 22 16 24 17 23 18 6 19 7 20 12 21 8 22 11 23
REMARK SMILES IDX 9 24 10 25
REMARK H PARENT 18 12 10 26
ROOT
ATOM      1  O   UNL     1      -0.321  -3.975   0.433  1.00  0.00    -0.451 OA
ENDROOT
BRANCH   1   2
ATOM      2  C   UNL     1       0.218  -2.686   0.293  1.00  0.00     0.124 A 
ATOM      3  C   UNL     1       0.107  -0.511  -0.810  1.00  0.00    -0.035 A 
ATOM      4  C   UNL     1      -0.386  -1.812  -0.615  1.00  0.00     0.050 A 
ATOM      5  C   UNL     1       1.208  -0.064  -0.038  1.00  0.00     0.042 A 
ATOM      6  C   UNL     1       1.825  -0.954   0.855  1.00  0.00     0.018 A 
ATOM      7  C   UNL     1       1.337  -2.251   1.023  1.00  0.00     0.047 A 
ATOM      8  C   UNL     1      -0.561   0.363  -1.841  1.00  0.00     0.045 C 
BRANCH   5   9
ATOM      9  C   UNL     1       1.747   1.310  -0.145  1.00  0.00     0.251 C 
ATOM     10  N   UNL     1       0.870   2.443  -0.123  1.00  0.00    -0.349 N 
ATOM     11  O   UNL     1       2.995   1.482  -0.217  1.00  0.00    -0.269 OA
ATOM     12  H   UNL     1      -0.115   2.319   0.201  1.00  0.00     0.164 HD
BRANCH  10  13
ATOM     13  C   UNL     1       1.358   3.795  -0.369  1.00  0.00     0.089 C 
ATOM     14  C   UNL     1       1.740   4.057  -1.832  1.00  0.00     0.034 C 
ATOM     15  C   UNL     1       0.442   4.608  -1.255  1.00  0.00    -0.007 C 
ATOM     16  C   UNL     1       0.240   6.093  -1.339  1.00  0.00     0.009 C 
ATOM     17  C   UNL     1      -0.826   4.258  -1.982  1.00  0.00     0.009 C 
ATOM     18  C   UNL     1      -1.069   5.777  -2.091  1.00  0.00     0.001 C 
ENDBRANCH  10  13
ENDBRANCH   5   9
ENDBRANCH   1   2
BRANCH   1  19
ATOM     19  C   UNL     1       0.155  -4.965   1.342  1.00  0.00     0.388 C 
ATOM     20  C   UNL     1      -0.561  -6.264   1.074  1.00  0.00     0.066 C 
ATOM     21  O   UNL     1      -0.045  -4.518   2.691  1.00  0.00    -0.455 OA
ATOM     22  C   UNL     1      -0.951  -7.054   2.078  1.00  0.00     0.053 C 
ATOM     23  C   UNL     1      -0.374  -5.385   3.739  1.00  0.00     0.238 C 
ATOM     24  C   UNL     1      -0.806  -6.622   3.476  1.00  0.00     0.150 C 
BRANCH  24  25
ATOM     25  O   UNL     1      -1.146  -7.498   4.505  1.00  0.00    -0.505 OA
ATOM     26  H   UNL     1      -1.066  -7.233   5.481  1.00  0.00     0.293 HD
ENDBRANCH  24  25
ENDBRANCH   1  19
TORSDOF 5


