REMARK SMILES C=C([NH3+])/C(C=O)=C(/O)Oc1c(N)cc(-c2ccc(C(C)=O)[nH+]c2)cc1[NH2+]c1ccc(C)c(F)c1
REMARK SMILES IDX 7 1 8 2 9 4 10 5 11 6 25 7 13 8 24 9 14 10 12 11 26 14 27 17
REMARK SMILES IDX 28 18 34 19 29 20 32 21 30 22 33 23 31 24 15 25 16 26 23 27
REMARK SMILES IDX 17 28 22 29 18 30 19 32 21 33 20 34 4 35 5 36 6 37 2 38 1 39
REMARK SMILES IDX 3 40
REMARK H PARENT 8 3 12 12 12 13 26 15 26 16 22 31 3 41 3 42 3 43
ROOT
ATOM      1  C   UNL     1       3.114  -2.475   2.154  1.00  0.00     0.299 C 
ENDROOT
BRANCH   1   2
ATOM      2  O   UNL     1       2.604  -2.127   3.409  1.00  0.00    -0.480 OA
ATOM      3  H   UNL     1       1.917  -1.394   3.533  1.00  0.00     0.297 HD
ENDBRANCH   1   2
BRANCH   1   4
ATOM      4  O   UNL     1       2.687  -1.793   1.004  1.00  0.00    -0.417 OA
BRANCH   4   5
ATOM      5  C   UNL     1       1.807  -0.708   1.045  1.00  0.00     0.214 A 
ATOM      6  C   UNL     1       2.325   0.599   1.078  1.00  0.00     0.082 A 
ATOM      7  C   UNL     1       0.409  -0.917   1.056  1.00  0.00     0.180 A 
ATOM      8  C   UNL     1       1.452   1.692   1.143  1.00  0.00     0.039 A 
ATOM      9  C   UNL     1      -0.448   0.195   1.131  1.00  0.00     0.081 A 
ATOM     10  C   UNL     1       0.062   1.502   1.173  1.00  0.00    -0.004 A 
BRANCH   6  11
ATOM     11  N   UNL     1       3.739   0.824   1.056  1.00  0.00    -0.395 N 
ATOM     12  H   UNL     1       4.125   1.794   1.089  1.00  0.00     0.156 HD
ATOM     13  H   UNL     1       4.417   0.032   1.003  1.00  0.00     0.156 HD
ENDBRANCH   6  11
BRANCH   7  14
ATOM     14  N   UNL     1      -0.153  -2.244   0.962  1.00  0.00    -0.278 N 
ATOM     15  H   UNL     1      -0.900  -2.350   1.688  1.00  0.00     0.358 HD
ATOM     16  H   UNL     1       0.559  -2.983   1.161  1.00  0.00     0.358 HD
BRANCH  14  17
ATOM     17  C   UNL     1      -0.694  -2.454  -0.359  1.00  0.00     0.137 A 
ATOM     18  C   UNL     1      -2.080  -2.389  -0.583  1.00  0.00     0.068 A 
ATOM     19  C   UNL     1       0.163  -2.698  -1.446  1.00  0.00     0.107 A 
ATOM     20  C   UNL     1      -2.599  -2.575  -1.867  1.00  0.00     0.012 A 
ATOM     21  C   UNL     1      -0.355  -2.884  -2.731  1.00  0.00     0.132 A 
ATOM     22  C   UNL     1      -1.741  -2.820  -2.950  1.00  0.00    -0.015 A 
ATOM     23  F   UNL     1       0.494  -3.122  -3.762  1.00  0.00    -0.206 F 
ATOM     24  C   UNL     1      -2.295  -3.030  -4.330  1.00  0.00     0.047 C 
ENDBRANCH  14  17
ENDBRANCH   7  14
BRANCH  10  25
ATOM     25  C   UNL     1      -0.858   2.666   1.244  1.00  0.00     0.046 A 
ATOM     26  C   UNL     1      -1.997   2.634   2.060  1.00  0.00     0.022 A 
ATOM     27  C   UNL     1      -0.610   3.827   0.495  1.00  0.00     0.315 A 
ATOM     28  C   UNL     1      -2.852   3.733   2.119  1.00  0.00     0.084 A 
ATOM     29  N   UNL     1      -1.456   4.891   0.563  1.00  0.00    -0.208 N 
ATOM     30  C   UNL     1      -2.571   4.879   1.355  1.00  0.00     0.246 A 
ATOM     31  H   UNL     1      -1.224   5.726  -0.019  1.00  0.00     0.454 HD
BRANCH  30  32
ATOM     32  C   UNL     1      -3.482   6.053   1.416  1.00  0.00     0.223 C 
ATOM     33  O   UNL     1      -4.506   6.015   2.151  1.00  0.00    -0.288 OA
ATOM     34  C   UNL     1      -3.219   7.297   0.623  1.00  0.00     0.100 C 
ENDBRANCH  30  32
ENDBRANCH  10  25
ENDBRANCH   4   5
ENDBRANCH   1   4
BRANCH   1  35
ATOM     35  C   UNL     1       4.032  -3.459   2.043  1.00  0.00     0.155 C 
BRANCH  35  36
ATOM     36  C   UNL     1       4.560  -4.188   3.224  1.00  0.00     0.273 C 
ATOM     37  O   UNL     1       4.243  -3.876   4.403  1.00  0.00    -0.297 OA
ENDBRANCH  35  36
BRANCH  35  38
ATOM     38  C   UNL     1       4.555  -3.849   0.707  1.00  0.00     0.138 C 
ATOM     39  C   UNL     1       5.875  -3.891   0.494  1.00  0.00     0.083 C 
BRANCH  38  40
ATOM     40  N   UNL     1       3.652  -4.140  -0.373  1.00  0.00    -0.325 N 
ATOM     41  H   UNL     1       3.634  -3.331  -1.034  1.00  0.00     0.350 HD
ATOM     42  H   UNL     1       3.967  -4.999  -0.881  1.00  0.00     0.350 HD
ATOM     43  H   UNL     1       2.689  -4.319  -0.006  1.00  0.00     0.350 HD
ENDBRANCH  38  40
ENDBRANCH  35  38
ENDBRANCH   1  35
TORSDOF 12


