REMARK SMILES O/C(=N\c1cc2cc(-c3nc[nH+]cc3F)[nH]c2cc1F)c1cc(F)c[nH]1
REMARK SMILES IDX 3 1 2 2 1 3 21 5 22 6 26 7 23 8 25 9 24 11 4 12 19 13 5 14
REMARK SMILES IDX 18 15 6 16 17 17 7 18 16 19 8 20 20 21 9 23 10 24 14 25
REMARK SMILES IDX 11 26 13 27 12 28 15 29
REMARK H PARENT 1 4 26 10 16 22 12 30
ROOT
ATOM      1  N   UNL     1       2.928  -0.655   0.176  1.00  0.00    -0.209 NA
ENDROOT
BRANCH   1   2
ATOM      2  C   UNL     1       3.581   0.433  -0.110  1.00  0.00     0.235 C 
BRANCH   2   3
ATOM      3  O   UNL     1       2.930   1.509  -0.719  1.00  0.00    -0.492 OA
ATOM      4  H   UNL     1       3.406   2.366  -0.966  1.00  0.00     0.295 HD
ENDBRANCH   2   3
BRANCH   2   5
ATOM      5  C   UNL     1       5.028   0.495   0.186  1.00  0.00     0.104 A 
ATOM      6  C   UNL     1       5.871   1.568  -0.058  1.00  0.00     0.072 A 
ATOM      7  N   UNL     1       5.720  -0.520   0.748  1.00  0.00    -0.355 N 
ATOM      8  C   UNL     1       7.115   1.169   0.380  1.00  0.00     0.141 A 
ATOM      9  C   UNL     1       6.996  -0.112   0.868  1.00  0.00     0.122 A 
ATOM     10  H   UNL     1       5.346  -1.450   1.040  1.00  0.00     0.166 HD
ATOM     11  F   UNL     1       8.252   1.907   0.337  1.00  0.00    -0.205 F 
ENDBRANCH   2   5
ENDBRANCH   1   2
BRANCH   1  12
ATOM     12  C   UNL     1       1.518  -0.875   0.009  1.00  0.00     0.104 A 
ATOM     13  C   UNL     1       1.071  -2.174  -0.339  1.00  0.00     0.151 A 
ATOM     14  C   UNL     1       0.569   0.147   0.258  1.00  0.00     0.042 A 
ATOM     15  C   UNL     1      -0.302  -2.448  -0.483  1.00  0.00     0.068 A 
ATOM     16  C   UNL     1      -0.780  -0.162   0.108  1.00  0.00     0.003 A 
ATOM     17  C   UNL     1      -1.202  -1.412  -0.251  1.00  0.00     0.049 A 
ATOM     18  C   UNL     1      -1.901   0.623   0.267  1.00  0.00     0.041 A 
ATOM     19  N   UNL     1      -2.542  -1.464  -0.329  1.00  0.00    -0.351 N 
ATOM     20  C   UNL     1      -2.978  -0.220  -0.006  1.00  0.00     0.095 A 
ATOM     21  F   UNL     1       1.971  -3.167  -0.548  1.00  0.00    -0.205 F 
ATOM     22  H   UNL     1      -3.108  -2.290  -0.622  1.00  0.00     0.167 HD
BRANCH  20  23
ATOM     23  C   UNL     1      -4.394   0.208   0.007  1.00  0.00     0.237 A 
ATOM     24  N   UNL     1      -4.679   1.531  -0.136  1.00  0.00    -0.044 NA
ATOM     25  C   UNL     1      -5.454  -0.700   0.180  1.00  0.00     0.215 A 
ATOM     26  C   UNL     1      -5.958   1.988  -0.133  1.00  0.00     0.449 A 
ATOM     27  C   UNL     1      -6.760  -0.210   0.179  1.00  0.00     0.241 A 
ATOM     28  N   UNL     1      -6.991   1.119   0.019  1.00  0.00    -0.247 N 
ATOM     29  F   UNL     1      -5.242  -2.021   0.398  1.00  0.00    -0.198 F 
ATOM     30  H   UNL     1      -7.972   1.478   0.021  1.00  0.00     0.311 HD
ENDBRANCH  20  23
ENDBRANCH   1  12
TORSDOF 5


