REMARK SMILES Cn1n[nH+]c2cc([N-]C(=O)c3cc(F)cn3/C(S)=N\[C@H]3CCCO3)ccc21
REMARK SMILES IDX 16 1 15 2 13 3 14 4 12 5 11 6 17 7 18 8 19 10 20 11 24 12
REMARK SMILES IDX 21 13 23 14 22 15 9 16 10 17 8 18 7 19 25 20 6 21 26 22 5 23
REMARK SMILES IDX 27 24 4 25 2 26 3 27 1 29
REMARK H PARENT 18 9 4 28
ROOT
ATOM      1  N   UNL     1      -2.812  -1.155   1.644  1.00  0.00    -0.292 N 
ATOM      2  C   UNL     1      -3.596  -0.958   2.720  1.00  0.00     0.133 A 
ATOM      3  C   UNL     1      -2.817  -0.566   3.785  1.00  0.00     0.142 A 
ATOM      4  F   UNL     1      -3.258  -0.269   5.032  1.00  0.00    -0.205 F 
ATOM      5  C   UNL     1      -1.507  -0.530   3.355  1.00  0.00     0.069 A 
ATOM      6  C   UNL     1      -1.534  -0.906   2.023  1.00  0.00     0.076 A 
ENDROOT
BRANCH   1   7
ATOM      7  C   UNL     1      -3.292  -1.516   0.341  1.00  0.00     0.167 C 
BRANCH   7   8
ATOM      8  S   UNL     1      -3.869  -3.183   0.051  1.00  0.00    -0.105 SA
ATOM      9  H   UNL     1      -5.173  -2.859   0.470  1.00  0.00     0.111 HD
ENDBRANCH   7   8
BRANCH   7  10
ATOM     10  N   UNL     1      -3.364  -0.646  -0.623  1.00  0.00    -0.230 NA
BRANCH  10  11
ATOM     11  C   UNL     1      -2.977   0.761  -0.513  1.00  0.00     0.237 C 
ATOM     12  O   UNL     1      -3.743   1.401   0.480  1.00  0.00    -0.356 OA
ATOM     13  C   UNL     1      -3.216   1.472  -1.827  1.00  0.00     0.059 C 
ATOM     14  C   UNL     1      -3.994   2.716   0.036  1.00  0.00     0.163 C 
ATOM     15  C   UNL     1      -3.504   2.877  -1.393  1.00  0.00     0.033 C 
ENDBRANCH  10  11
ENDBRANCH   7  10
ENDBRANCH   1   7
BRANCH   6  16
ATOM     16  C   UNL     1      -0.340  -1.047   1.167  1.00  0.00     0.103 C 
ATOM     17  O   UNL     1      -0.432  -1.606   0.042  1.00  0.00    -0.313 OA
BRANCH  16  18
ATOM     18  N   UNL     1       0.931  -0.597   1.653  1.00  0.00    -0.621 NA
BRANCH  18  19
ATOM     19  C   UNL     1       2.132  -0.428   0.887  1.00  0.00    -0.129 A 
ATOM     20  C   UNL     1       2.105  -0.196  -0.520  1.00  0.00    -0.011 A 
ATOM     21  C   UNL     1       3.368  -0.443   1.569  1.00  0.00     0.042 A 
ATOM     22  C   UNL     1       3.301  -0.022  -1.244  1.00  0.00     0.057 A 
ATOM     23  C   UNL     1       4.523  -0.268   0.817  1.00  0.00     0.194 A 
ATOM     24  C   UNL     1       4.493  -0.071  -0.528  1.00  0.00     0.197 A 
ATOM     25  N   UNL     1       5.807  -0.240   1.215  1.00  0.00    -0.143 N 
ATOM     26  N   UNL     1       5.763   0.078  -0.943  1.00  0.00    -0.133 N 
ATOM     27  N   UNL     1       6.546  -0.030   0.128  1.00  0.00     0.088 NA
ATOM     28  H   UNL     1       6.179  -0.351   2.184  1.00  0.00     0.342 HD
ATOM     29  C   UNL     1       6.237   0.310  -2.300  1.00  0.00     0.327 C 
ENDBRANCH  18  19
ENDBRANCH  16  18
ENDBRANCH   6  16
TORSDOF 7


