REMARK SMILES C[C@@]1(N)CCC[C@@H]1C(=O)[N-]c1cc(F)c(F)cc1[NH2+]c1ccc(F)cc1
REMARK SMILES IDX 10 1 8 2 9 3 7 4 2 5 4 6 5 7 6 8 1 9 3 10 11 13 12 14 18 15
REMARK SMILES IDX 13 16 17 17 15 18 14 19 16 20 19 21 20 24 21 25 26 26 22 27
REMARK SMILES IDX 25 28 23 29 24 30
REMARK H PARENT 3 11 3 12 19 22 19 23
ROOT
ATOM      1  N   UNL     1      -0.423  -0.993   1.868  1.00  0.00    -0.622 NA
ENDROOT
BRANCH   1   2
ATOM      2  C   UNL     1      -0.716  -1.916   0.809  1.00  0.00     0.060 C 
ATOM      3  O   UNL     1      -1.586  -2.802   1.025  1.00  0.00    -0.320 OA
BRANCH   2   4
ATOM      4  C   UNL     1      -0.136  -1.760  -0.591  1.00  0.00     0.057 C 
ATOM      5  C   UNL     1      -0.925  -0.794  -1.513  1.00  0.00     0.021 C 
ATOM      6  C   UNL     1      -0.739  -1.358  -2.946  1.00  0.00     0.022 C 
ATOM      7  C   UNL     1       0.034  -2.668  -2.818  1.00  0.00     0.003 C 
ATOM      8  C   UNL     1      -0.070  -3.077  -1.361  1.00  0.00     0.012 C 
ATOM      9  C   UNL     1      -0.354   0.634  -1.413  1.00  0.00     0.028 C 
BRANCH   5  10
ATOM     10  N   UNL     1      -2.353  -0.769  -1.155  1.00  0.00    -0.325 NA
ATOM     11  H   UNL     1      -2.759  -1.727  -1.264  1.00  0.00     0.119 HD
ATOM     12  H   UNL     1      -2.866  -0.144  -1.819  1.00  0.00     0.119 HD
ENDBRANCH   5  10
ENDBRANCH   2   4
ENDBRANCH   1   2
BRANCH   1  13
ATOM     13  C   UNL     1       0.767  -0.212   2.045  1.00  0.00    -0.068 A 
ATOM     14  C   UNL     1       2.028  -0.738   1.714  1.00  0.00     0.032 A 
ATOM     15  C   UNL     1       0.684   1.062   2.656  1.00  0.00     0.123 A 
ATOM     16  C   UNL     1       3.183   0.027   1.887  1.00  0.00     0.158 A 
ATOM     17  C   UNL     1       1.857   1.823   2.816  1.00  0.00     0.109 A 
ATOM     18  C   UNL     1       3.096   1.312   2.424  1.00  0.00     0.164 A 
ATOM     19  F   UNL     1       4.391  -0.487   1.546  1.00  0.00    -0.204 F 
ATOM     20  F   UNL     1       4.217   2.056   2.591  1.00  0.00    -0.204 F 
BRANCH  15  21
ATOM     21  N   UNL     1      -0.582   1.587   3.121  1.00  0.00    -0.283 N 
ATOM     22  H   UNL     1      -0.428   2.339   3.832  1.00  0.00     0.358 HD
ATOM     23  H   UNL     1      -1.118   0.830   3.606  1.00  0.00     0.358 HD
BRANCH  21  24
ATOM     24  C   UNL     1      -1.339   2.136   2.023  1.00  0.00     0.134 A 
ATOM     25  C   UNL     1      -2.496   1.484   1.553  1.00  0.00     0.071 A 
ATOM     26  C   UNL     1      -0.937   3.338   1.411  1.00  0.00     0.071 A 
ATOM     27  C   UNL     1      -3.224   2.018   0.487  1.00  0.00     0.045 A 
ATOM     28  C   UNL     1      -1.667   3.865   0.341  1.00  0.00     0.045 A 
ATOM     29  C   UNL     1      -2.808   3.205  -0.122  1.00  0.00     0.123 A 
ATOM     30  F   UNL     1      -3.512   3.716  -1.162  1.00  0.00    -0.207 F 
ENDBRANCH  21  24
ENDBRANCH  15  21
ENDBRANCH   1  13
TORSDOF 6


