REMARK SMILES Cn1cc2ccc(-c3ccc4[nH]ccc4c3)cc2[nH+]1
REMARK SMILES IDX 1 1 2 2 3 3 4 4 5 5 6 6 7 7 17 8 18 9 19 10 8 12 9 13 16 14
REMARK SMILES IDX 10 15 15 16 11 17 14 18 12 19 13 20
REMARK H PARENT 19 11 12 21
ROOT
ATOM      1  C   UNL     1      -1.096   4.825  -3.123  1.00  0.00     0.223 C 
ATOM      2  N   UNL     1      -1.004   3.697  -2.205  1.00  0.00    -0.165 N 
ATOM      3  C   UNL     1      -0.923   3.780  -0.855  1.00  0.00     0.165 A 
ATOM      4  C   UNL     1      -0.939   2.491  -0.366  1.00  0.00     0.070 A 
ATOM      5  C   UNL     1      -0.884   1.986   0.927  1.00  0.00     0.017 A 
ATOM      6  C   UNL     1      -0.935   0.588   1.083  1.00  0.00     0.010 A 
ATOM      7  C   UNL     1      -1.044  -0.272  -0.047  1.00  0.00    -0.012 A 
ATOM      8  C   UNL     1      -1.102   0.291  -1.346  1.00  0.00     0.091 A 
ATOM      9  C   UNL     1      -1.044   1.677  -1.460  1.00  0.00     0.236 A 
ATOM     10  N   UNL     1      -1.089   2.424  -2.575  1.00  0.00    -0.124 N 
ATOM     11  H   UNL     1      -1.187   2.083  -3.559  1.00  0.00     0.488 HD
ENDROOT
BRANCH   7  12
ATOM     12  C   UNL     1      -1.098  -1.744   0.134  1.00  0.00    -0.017 A 
ATOM     13  C   UNL     1      -1.973  -2.534  -0.661  1.00  0.00     0.011 A 
ATOM     14  C   UNL     1      -0.278  -2.376   1.099  1.00  0.00     0.019 A 
ATOM     15  C   UNL     1      -2.032  -3.930  -0.499  1.00  0.00     0.027 A 
ATOM     16  C   UNL     1      -0.363  -3.760   1.231  1.00  0.00    -0.000 A 
ATOM     17  C   UNL     1      -1.208  -4.510   0.461  1.00  0.00     0.045 A 
ATOM     18  C   UNL     1       0.308  -4.623   2.069  1.00  0.00     0.028 A 
ATOM     19  N   UNL     1      -1.107  -5.813   0.772  1.00  0.00    -0.361 N 
ATOM     20  C   UNL     1      -0.181  -5.887   1.755  1.00  0.00     0.083 A 
ATOM     21  H   UNL     1      -1.633  -6.608   0.344  1.00  0.00     0.166 HD
ENDBRANCH   7  12
TORSDOF 1


