REMARK SMILES CN(/C=C(\O)N(N)c1cccc2cc3ccccc3cc12)CCO
REMARK SMILES IDX 3 1 4 2 5 3 6 5 8 6 9 7 21 8 10 9 20 10 12 11 11 12 19 13
REMARK SMILES IDX 13 14 18 15 14 16 17 17 15 18 16 19 7 20 2 23 1 24 22 25
REMARK SMILES IDX 23 26 24 27
REMARK H PARENT 5 4 7 21 7 22 24 28
ROOT
ATOM      1  C   UNL     1      -1.772   1.388  -1.798  1.00  0.00     0.149 C 
ENDROOT
BRANCH   1   2
ATOM      2  C   UNL     1      -1.679   0.855  -0.565  1.00  0.00     0.222 C 
BRANCH   2   3
ATOM      3  O   UNL     1      -1.660   1.680   0.560  1.00  0.00    -0.493 OA
ATOM      4  H   UNL     1      -1.624   1.315   1.503  1.00  0.00     0.295 HD
ENDBRANCH   2   3
BRANCH   2   5
ATOM      5  N   UNL     1      -1.569  -0.577  -0.404  1.00  0.00    -0.247 N 
BRANCH   5   6
ATOM      6  C   UNL     1      -1.094  -1.138   0.835  1.00  0.00     0.069 A 
ATOM      7  C   UNL     1      -1.994  -1.831   1.658  1.00  0.00     0.028 A 
ATOM      8  C   UNL     1       0.255  -0.991   1.241  1.00  0.00     0.008 A 
ATOM      9  C   UNL     1      -1.578  -2.356   2.881  1.00  0.00     0.003 A 
ATOM     10  C   UNL     1       1.203  -0.343   0.426  1.00  0.00     0.019 A 
ATOM     11  C   UNL     1       0.667  -1.524   2.490  1.00  0.00    -0.016 A 
ATOM     12  C   UNL     1      -0.257  -2.201   3.300  1.00  0.00     0.009 A 
ATOM     13  C   UNL     1       2.532  -0.200   0.851  1.00  0.00    -0.018 A 
ATOM     14  C   UNL     1       1.997  -1.380   2.913  1.00  0.00     0.017 A 
ATOM     15  C   UNL     1       3.473   0.456   0.040  1.00  0.00     0.009 A 
ATOM     16  C   UNL     1       2.931  -0.719   2.104  1.00  0.00    -0.018 A 
ATOM     17  C   UNL     1       4.795   0.595   0.470  1.00  0.00     0.001 A 
ATOM     18  C   UNL     1       4.262  -0.573   2.525  1.00  0.00     0.009 A 
ATOM     19  C   UNL     1       5.189   0.083   1.709  1.00  0.00     0.001 A 
ENDBRANCH   5   6
BRANCH   5  20
ATOM     20  N   UNL     1      -2.083  -1.434  -1.396  1.00  0.00    -0.240 NA
ATOM     21  H   UNL     1      -3.024  -1.760  -1.080  1.00  0.00     0.144 HD
ATOM     22  H   UNL     1      -1.459  -2.271  -1.461  1.00  0.00     0.144 HD
ENDBRANCH   5  20
ENDBRANCH   2   5
ENDBRANCH   1   2
BRANCH   1  23
ATOM     23  N   UNL     1      -1.901   2.802  -2.076  1.00  0.00    -0.374 N 
ATOM     24  C   UNL     1      -2.466   3.749  -1.108  1.00  0.00     0.143 C 
BRANCH  23  25
ATOM     25  C   UNL     1      -1.639   3.265  -3.445  1.00  0.00     0.144 C 
BRANCH  25  26
ATOM     26  C   UNL     1      -2.925   3.295  -4.277  1.00  0.00     0.177 C 
BRANCH  26  27
ATOM     27  O   UNL     1      -3.430   2.000  -4.457  1.00  0.00    -0.395 OA
ATOM     28  H   UNL     1      -4.003   1.804  -3.670  1.00  0.00     0.210 HD
ENDBRANCH  26  27
ENDBRANCH  25  26
ENDBRANCH  23  25
ENDBRANCH   1  23
TORSDOF 9


