MODEL 1
REMARK VINA RESULT:      -5.1      0.000      0.000
REMARK SMILES C=C[C@@H]1C[NH2+][C@@H](c2ccc3ncnn3c2)N(C(=O)c2cccc(C)c2)C1
REMARK SMILES IDX 3 1 4 2 5 3 6 4 16 5 26 6 2 9 1 10 17 11 18 12 19 13 20 14
REMARK SMILES IDX 25 15 21 16 23 17 22 18 24 19 7 20 8 21 15 22 9 23 14 24
REMARK SMILES IDX 10 25 13 26 11 27 12 28
REMARK H PARENT 5 7 5 8
ROOT
ATOM      1  C   UNL     1      41.778 125.777  23.495  1.00  0.00     0.086 C 
ATOM      2  C   UNL     1      42.269 124.834  24.604  1.00  0.00     0.272 C 
ATOM      3  N   UNL     1      43.606 124.317  24.284  1.00  0.00    -0.322 N 
ATOM      4  C   UNL     1      44.599 125.404  24.169  1.00  0.00     0.320 C 
ATOM      5  N   UNL     1      44.141 126.430  23.206  1.00  0.00    -0.284 N 
ATOM      6  C   UNL     1      42.770 126.935  23.344  1.00  0.00     0.139 C 
ATOM      7  H   UNL     1      43.552 123.772  23.390  1.00  0.00     0.348 HD
ATOM      8  H   UNL     1      43.899 123.663  25.048  1.00  0.00     0.348 HD
ENDROOT
BRANCH   1   9
ATOM      9  C   UNL     1      40.393 126.294  23.806  1.00  0.00    -0.024 C 
ATOM     10  C   UNL     1      39.369 125.460  24.013  1.00  0.00     0.004 C 
ENDBRANCH   1   9
BRANCH   5  11
ATOM     11  C   UNL     1      45.093 127.312  22.580  1.00  0.00     0.258 C 
ATOM     12  O   UNL     1      46.214 126.857  22.222  1.00  0.00    -0.269 OA
BRANCH  11  13
ATOM     13  C   UNL     1      44.767 128.739  22.351  1.00  0.00     0.040 A 
ATOM     14  C   UNL     1      45.338 129.433  21.270  1.00  0.00     0.014 A 
ATOM     15  C   UNL     1      43.870 129.415  23.199  1.00  0.00     0.017 A 
ATOM     16  C   UNL     1      45.032 130.780  21.055  1.00  0.00     0.001 A 
ATOM     17  C   UNL     1      43.551 130.763  22.975  1.00  0.00    -0.050 A 
ATOM     18  C   UNL     1      44.147 131.444  21.904  1.00  0.00     0.003 A 
ATOM     19  C   UNL     1      42.612 131.472  23.907  1.00  0.00     0.044 C 
ENDBRANCH  11  13
ENDBRANCH   5  11
BRANCH   4  20
ATOM     20  C   UNL     1      45.942 124.816  23.767  1.00  0.00     0.050 A 
ATOM     21  C   UNL     1      47.064 124.940  24.622  1.00  0.00     0.017 A 
ATOM     22  C   UNL     1      46.093 124.120  22.548  1.00  0.00     0.127 A 
ATOM     23  C   UNL     1      48.305 124.392  24.258  1.00  0.00     0.050 A 
ATOM     24  N   UNL     1      47.312 123.612  22.247  1.00  0.00    -0.221 N 
ATOM     25  C   UNL     1      48.381 123.727  23.039  1.00  0.00     0.155 A 
ATOM     26  N   UNL     1      47.654 122.941  21.165  1.00  0.00    -0.155 NA
ATOM     27  N   UNL     1      49.466 123.136  22.509  1.00  0.00    -0.215 NA
ATOM     28  C   UNL     1      48.966 122.657  21.339  1.00  0.00     0.247 A 
ENDBRANCH   4  20
TORSDOF 4
ENDMDL
MODEL 2
REMARK VINA RESULT:      -4.5      4.909      7.756
REMARK SMILES C=C[C@@H]1C[NH2+][C@@H](c2ccc3ncnn3c2)N(C(=O)c2cccc(C)c2)C1
REMARK SMILES IDX 3 1 4 2 5 3 6 4 16 5 26 6 2 9 1 10 17 11 18 12 19 13 20 14
REMARK SMILES IDX 25 15 21 16 23 17 22 18 24 19 7 20 8 21 15 22 9 23 14 24
REMARK SMILES IDX 10 25 13 26 11 27 12 28
REMARK H PARENT 5 7 5 8
ROOT
ATOM      1  C   UNL     1      42.056 133.013  20.099  1.00  0.00     0.086 C 
ATOM      2  C   UNL     1      41.436 132.639  18.744  1.00  0.00     0.272 C 
ATOM      3  N   UNL     1      42.488 132.389  17.750  1.00  0.00    -0.322 N 
ATOM      4  C   UNL     1      43.363 131.268  18.150  1.00  0.00     0.320 C 
ATOM      5  N   UNL     1      43.906 131.489  19.509  1.00  0.00    -0.284 N 
ATOM      6  C   UNL     1      42.966 131.872  20.569  1.00  0.00     0.139 C 
ATOM      7  H   UNL     1      43.048 133.266  17.624  1.00  0.00     0.348 HD
ATOM      8  H   UNL     1      42.031 132.159  16.836  1.00  0.00     0.348 HD
ENDROOT
BRANCH   1   9
ATOM      9  C   UNL     1      40.979 133.295  21.121  1.00  0.00    -0.024 C 
ATOM     10  C   UNL     1      41.111 132.913  22.395  1.00  0.00     0.004 C 
ENDBRANCH   1   9
BRANCH   5  11
ATOM     11  C   UNL     1      45.107 130.812  19.927  1.00  0.00     0.258 C 
ATOM     12  O   UNL     1      46.179 131.007  19.291  1.00  0.00    -0.269 OA
BRANCH  11  13
ATOM     13  C   UNL     1      45.096 129.899  21.094  1.00  0.00     0.040 A 
ATOM     14  C   UNL     1      44.526 130.309  22.311  1.00  0.00     0.014 A 
ATOM     15  C   UNL     1      45.640 128.604  20.996  1.00  0.00     0.017 A 
ATOM     16  C   UNL     1      44.517 129.448  23.413  1.00  0.00     0.001 A 
ATOM     17  C   UNL     1      45.617 127.734  22.096  1.00  0.00    -0.050 A 
ATOM     18  C   UNL     1      45.064 128.168  23.309  1.00  0.00     0.003 A 
ATOM     19  C   UNL     1      46.225 126.367  21.978  1.00  0.00     0.044 C 
ENDBRANCH  11  13
ENDBRANCH   5  11
BRANCH   4  20
ATOM     20  C   UNL     1      44.470 131.105  17.122  1.00  0.00     0.050 A 
ATOM     21  C   UNL     1      45.183 132.234  16.649  1.00  0.00     0.017 A 
ATOM     22  C   UNL     1      44.824 129.829  16.634  1.00  0.00     0.127 A 
ATOM     23  C   UNL     1      46.212 132.086  15.704  1.00  0.00     0.050 A 
ATOM     24  N   UNL     1      45.824 129.744  15.723  1.00  0.00    -0.221 N 
ATOM     25  C   UNL     1      46.499 130.799  15.263  1.00  0.00     0.155 A 
ATOM     26  N   UNL     1      46.293 128.654  15.150  1.00  0.00    -0.155 NA
ATOM     27  N   UNL     1      47.439 130.445  14.369  1.00  0.00    -0.215 NA
ATOM     28  C   UNL     1      47.276 129.096  14.330  1.00  0.00     0.247 A 
ENDBRANCH   4  20
TORSDOF 4
ENDMDL
MODEL 3
REMARK VINA RESULT:      -4.4      4.939      7.784
REMARK SMILES C=C[C@@H]1C[NH2+][C@@H](c2ccc3ncnn3c2)N(C(=O)c2cccc(C)c2)C1
REMARK SMILES IDX 3 1 4 2 5 3 6 4 16 5 26 6 2 9 1 10 17 11 18 12 19 13 20 14
REMARK SMILES IDX 25 15 21 16 23 17 22 18 24 19 7 20 8 21 15 22 9 23 14 24
REMARK SMILES IDX 10 25 13 26 11 27 12 28
REMARK H PARENT 5 7 5 8
ROOT
ATOM      1  C   UNL     1      41.988 133.223  20.289  1.00  0.00     0.086 C 
ATOM      2  C   UNL     1      41.391 132.684  18.980  1.00  0.00     0.272 C 
ATOM      3  N   UNL     1      42.461 132.308  18.046  1.00  0.00    -0.322 N 
ATOM      4  C   UNL     1      43.321 131.244  18.601  1.00  0.00     0.320 C 
ATOM      5  N   UNL     1      43.840 131.632  19.931  1.00  0.00    -0.284 N 
ATOM      6  C   UNL     1      42.882 132.148  20.916  1.00  0.00     0.139 C 
ATOM      7  H   UNL     1      43.028 133.160  17.821  1.00  0.00     0.348 HD
ATOM      8  H   UNL     1      42.020 131.966  17.160  1.00  0.00     0.348 HD
ENDROOT
BRANCH   1   9
ATOM      9  C   UNL     1      40.893 133.635  21.246  1.00  0.00    -0.024 C 
ATOM     10  C   UNL     1      40.775 133.072  22.452  1.00  0.00     0.004 C 
ENDBRANCH   1   9
BRANCH   5  11
ATOM     11  C   UNL     1      45.030 131.010  20.454  1.00  0.00     0.258 C 
ATOM     12  O   UNL     1      46.155 131.345  19.994  1.00  0.00    -0.269 OA
BRANCH  11  13
ATOM     13  C   UNL     1      44.944 129.990  21.526  1.00  0.00     0.040 A 
ATOM     14  C   UNL     1      44.383 130.316  22.773  1.00  0.00     0.014 A 
ATOM     15  C   UNL     1      45.404 128.679  21.306  1.00  0.00     0.017 A 
ATOM     16  C   UNL     1      44.304 129.354  23.785  1.00  0.00     0.001 A 
ATOM     17  C   UNL     1      45.311 127.709  22.315  1.00  0.00    -0.050 A 
ATOM     18  C   UNL     1      44.769 128.058  23.560  1.00  0.00     0.003 A 
ATOM     19  C   UNL     1      45.832 126.323  22.069  1.00  0.00     0.044 C 
ENDBRANCH  11  13
ENDBRANCH   5  11
BRANCH   4  20
ATOM     20  C   UNL     1      44.447 130.949  17.623  1.00  0.00     0.050 A 
ATOM     21  C   UNL     1      45.304 129.840  17.828  1.00  0.00     0.017 A 
ATOM     22  C   UNL     1      44.650 131.759  16.485  1.00  0.00     0.127 A 
ATOM     23  C   UNL     1      46.341 129.560  16.924  1.00  0.00     0.050 A 
ATOM     24  N   UNL     1      45.665 131.443  15.645  1.00  0.00    -0.221 N 
ATOM     25  C   UNL     1      46.485 130.406  15.829  1.00  0.00     0.155 A 
ATOM     26  N   UNL     1      46.016 132.073  14.542  1.00  0.00    -0.155 NA
ATOM     27  N   UNL     1      47.407 130.313  14.854  1.00  0.00    -0.215 NA
ATOM     28  C   UNL     1      47.075 131.374  14.071  1.00  0.00     0.247 A 
ENDBRANCH   4  20
TORSDOF 4
ENDMDL
MODEL 4
REMARK VINA RESULT:      -4.3      5.135      7.767
REMARK SMILES C=C[C@@H]1C[NH2+][C@@H](c2ccc3ncnn3c2)N(C(=O)c2cccc(C)c2)C1
REMARK SMILES IDX 3 1 4 2 5 3 6 4 16 5 26 6 2 9 1 10 17 11 18 12 19 13 20 14
REMARK SMILES IDX 25 15 21 16 23 17 22 18 24 19 7 20 8 21 15 22 9 23 14 24
REMARK SMILES IDX 10 25 13 26 11 27 12 28
REMARK H PARENT 5 7 5 8
ROOT
ATOM      1  C   UNL     1      42.224 133.051  19.814  1.00  0.00     0.086 C 
ATOM      2  C   UNL     1      41.635 132.498  18.507  1.00  0.00     0.272 C 
ATOM      3  N   UNL     1      42.709 132.118  17.580  1.00  0.00    -0.322 N 
ATOM      4  C   UNL     1      43.572 131.063  18.148  1.00  0.00     0.320 C 
ATOM      5  N   UNL     1      44.084 131.464  19.476  1.00  0.00    -0.284 N 
ATOM      6  C   UNL     1      43.120 131.985  20.453  1.00  0.00     0.139 C 
ATOM      7  H   UNL     1      43.274 132.971  17.351  1.00  0.00     0.348 HD
ATOM      8  H   UNL     1      42.273 131.767  16.695  1.00  0.00     0.348 HD
ENDROOT
BRANCH   1   9
ATOM      9  C   UNL     1      41.124 133.467  20.763  1.00  0.00    -0.024 C 
ATOM     10  C   UNL     1      41.202 133.212  22.073  1.00  0.00     0.004 C 
ENDBRANCH   1   9
BRANCH   5  11
ATOM     11  C   UNL     1      45.274 130.852  20.009  1.00  0.00     0.258 C 
ATOM     12  O   UNL     1      46.400 131.180  19.545  1.00  0.00    -0.269 OA
BRANCH  11  13
ATOM     13  C   UNL     1      45.188 129.848  21.097  1.00  0.00     0.040 A 
ATOM     14  C   UNL     1      45.761 128.575  20.935  1.00  0.00     0.014 A 
ATOM     15  C   UNL     1      44.549 130.160  22.311  1.00  0.00     0.017 A 
ATOM     16  C   UNL     1      45.679 127.628  21.959  1.00  0.00     0.001 A 
ATOM     17  C   UNL     1      44.480 129.215  23.346  1.00  0.00    -0.050 A 
ATOM     18  C   UNL     1      45.038 127.943  23.158  1.00  0.00     0.003 A 
ATOM     19  C   UNL     1      43.771 129.559  24.624  1.00  0.00     0.044 C 
ENDBRANCH  11  13
ENDBRANCH   5  11
BRANCH   4  20
ATOM     20  C   UNL     1      44.703 130.764  17.177  1.00  0.00     0.050 A 
ATOM     21  C   UNL     1      45.421 129.546  17.265  1.00  0.00     0.017 A 
ATOM     22  C   UNL     1      45.046 131.680  16.160  1.00  0.00     0.127 A 
ATOM     23  C   UNL     1      46.462 129.264  16.365  1.00  0.00     0.050 A 
ATOM     24  N   UNL     1      46.059 131.357  15.320  1.00  0.00    -0.221 N 
ATOM     25  C   UNL     1      46.750 130.217  15.395  1.00  0.00     0.155 A 
ATOM     26  N   UNL     1      46.528 132.075  14.319  1.00  0.00    -0.155 NA
ATOM     27  N   UNL     1      47.700 130.141  14.445  1.00  0.00    -0.215 NA
ATOM     28  C   UNL     1      47.524 131.322  13.796  1.00  0.00     0.247 A 
ENDBRANCH   4  20
TORSDOF 4
ENDMDL
MODEL 5
REMARK VINA RESULT:      -4.2      4.497      7.818
REMARK SMILES C=C[C@@H]1C[NH2+][C@@H](c2ccc3ncnn3c2)N(C(=O)c2cccc(C)c2)C1
REMARK SMILES IDX 3 1 4 2 5 3 6 4 16 5 26 6 2 9 1 10 17 11 18 12 19 13 20 14
REMARK SMILES IDX 25 15 21 16 23 17 22 18 24 19 7 20 8 21 15 22 9 23 14 24
REMARK SMILES IDX 10 25 13 26 11 27 12 28
REMARK H PARENT 5 7 5 8
ROOT
ATOM      1  C   UNL     1      46.995 134.341  22.378  1.00  0.00     0.086 C 
ATOM      2  C   UNL     1      46.904 133.949  23.861  1.00  0.00     0.272 C 
ATOM      3  N   UNL     1      45.690 133.160  24.109  1.00  0.00    -0.322 N 
ATOM      4  C   UNL     1      45.684 131.906  23.328  1.00  0.00     0.320 C 
ATOM      5  N   UNL     1      45.896 132.185  21.891  1.00  0.00    -0.284 N 
ATOM      6  C   UNL     1      47.007 133.070  21.521  1.00  0.00     0.139 C 
ATOM      7  H   UNL     1      44.853 133.745  23.872  1.00  0.00     0.348 HD
ATOM      8  H   UNL     1      45.649 132.929  25.129  1.00  0.00     0.348 HD
ENDROOT
BRANCH   1   9
ATOM      9  C   UNL     1      48.229 135.173  22.120  1.00  0.00    -0.024 C 
ATOM     10  C   UNL     1      48.344 135.927  21.022  1.00  0.00     0.004 C 
ENDBRANCH   1   9
BRANCH   5  11
ATOM     11  C   UNL     1      45.477 131.229  20.898  1.00  0.00     0.258 C 
ATOM     12  O   UNL     1      46.035 130.098  20.855  1.00  0.00    -0.269 OA
BRANCH  11  13
ATOM     13  C   UNL     1      44.399 131.557  19.935  1.00  0.00     0.040 A 
ATOM     14  C   UNL     1      43.164 132.049  20.392  1.00  0.00     0.014 A 
ATOM     15  C   UNL     1      44.602 131.399  18.552  1.00  0.00     0.017 A 
ATOM     16  C   UNL     1      42.147 132.357  19.484  1.00  0.00     0.001 A 
ATOM     17  C   UNL     1      43.587 131.723  17.639  1.00  0.00    -0.050 A 
ATOM     18  C   UNL     1      42.354 132.191  18.114  1.00  0.00     0.003 A 
ATOM     19  C   UNL     1      43.814 131.522  16.169  1.00  0.00     0.044 C 
ENDBRANCH  11  13
ENDBRANCH   5  11
BRANCH   4  20
ATOM     20  C   UNL     1      44.376 131.171  23.571  1.00  0.00     0.050 A 
ATOM     21  C   UNL     1      43.184 131.892  23.823  1.00  0.00     0.017 A 
ATOM     22  C   UNL     1      44.319 129.761  23.530  1.00  0.00     0.127 A 
ATOM     23  C   UNL     1      41.972 131.216  24.041  1.00  0.00     0.050 A 
ATOM     24  N   UNL     1      43.124 129.160  23.747  1.00  0.00    -0.221 N 
ATOM     25  C   UNL     1      41.993 129.826  23.993  1.00  0.00     0.155 A 
ATOM     26  N   UNL     1      42.868 127.868  23.755  1.00  0.00    -0.155 NA
ATOM     27  N   UNL     1      40.950 128.997  24.172  1.00  0.00    -0.215 NA
ATOM     28  C   UNL     1      41.542 127.783  24.013  1.00  0.00     0.247 A 
ENDBRANCH   4  20
TORSDOF 4
ENDMDL
MODEL 6
REMARK VINA RESULT:      -3.9      1.261      2.194
REMARK SMILES C=C[C@@H]1C[NH2+][C@@H](c2ccc3ncnn3c2)N(C(=O)c2cccc(C)c2)C1
REMARK SMILES IDX 3 1 4 2 5 3 6 4 16 5 26 6 2 9 1 10 17 11 18 12 19 13 20 14
REMARK SMILES IDX 25 15 21 16 23 17 22 18 24 19 7 20 8 21 15 22 9 23 14 24
REMARK SMILES IDX 10 25 13 26 11 27 12 28
REMARK H PARENT 5 7 5 8
ROOT
ATOM      1  C   UNL     1      42.173 126.739  23.595  1.00  0.00     0.086 C 
ATOM      2  C   UNL     1      42.738 125.748  24.625  1.00  0.00     0.272 C 
ATOM      3  N   UNL     1      43.959 125.114  24.110  1.00  0.00    -0.322 N 
ATOM      4  C   UNL     1      45.017 126.109  23.841  1.00  0.00     0.320 C 
ATOM      5  N   UNL     1      44.515 127.178  22.951  1.00  0.00    -0.284 N 
ATOM      6  C   UNL     1      43.231 127.805  23.290  1.00  0.00     0.139 C 
ATOM      7  H   UNL     1      43.723 124.583  23.238  1.00  0.00     0.348 HD
ATOM      8  H   UNL     1      44.303 124.432  24.826  1.00  0.00     0.348 HD
ENDROOT
BRANCH   1   9
ATOM      9  C   UNL     1      40.903 127.377  24.108  1.00  0.00    -0.024 C 
ATOM     10  C   UNL     1      39.815 126.647  24.374  1.00  0.00     0.004 C 
ENDBRANCH   1   9
BRANCH   5  11
ATOM     11  C   UNL     1      45.437 127.975  22.184  1.00  0.00     0.258 C 
ATOM     12  O   UNL     1      46.574 127.506  21.903  1.00  0.00    -0.269 OA
BRANCH  11  13
ATOM     13  C   UNL     1      45.064 129.333  21.720  1.00  0.00     0.040 A 
ATOM     14  C   UNL     1      44.404 130.223  22.585  1.00  0.00     0.014 A 
ATOM     15  C   UNL     1      45.379 129.756  20.415  1.00  0.00     0.017 A 
ATOM     16  C   UNL     1      44.050 131.502  22.147  1.00  0.00     0.001 A 
ATOM     17  C   UNL     1      45.037 131.045  19.980  1.00  0.00    -0.050 A 
ATOM     18  C   UNL     1      44.360 131.912  20.850  1.00  0.00     0.003 A 
ATOM     19  C   UNL     1      45.359 131.468  18.576  1.00  0.00     0.044 C 
ENDBRANCH  11  13
ENDBRANCH   5  11
BRANCH   4  20
ATOM     20  C   UNL     1      46.226 125.405  23.245  1.00  0.00     0.050 A 
ATOM     21  C   UNL     1      46.061 124.430  22.230  1.00  0.00     0.017 A 
ATOM     22  C   UNL     1      47.533 125.720  23.675  1.00  0.00     0.127 A 
ATOM     23  C   UNL     1      47.176 123.783  21.673  1.00  0.00     0.050 A 
ATOM     24  N   UNL     1      48.572 125.065  23.103  1.00  0.00    -0.221 N 
ATOM     25  C   UNL     1      48.432 124.139  22.151  1.00  0.00     0.155 A 
ATOM     26  N   UNL     1      49.854 125.212  23.368  1.00  0.00    -0.155 NA
ATOM     27  N   UNL     1      49.617 123.643  21.753  1.00  0.00    -0.215 NA
ATOM     28  C   UNL     1      50.478 124.343  22.539  1.00  0.00     0.247 A 
ENDBRANCH   4  20
TORSDOF 4
ENDMDL
MODEL 7
REMARK VINA RESULT:      -3.4      4.636      7.819
REMARK SMILES C=C[C@@H]1C[NH2+][C@@H](c2ccc3ncnn3c2)N(C(=O)c2cccc(C)c2)C1
REMARK SMILES IDX 3 1 4 2 5 3 6 4 16 5 26 6 2 9 1 10 17 11 18 12 19 13 20 14
REMARK SMILES IDX 25 15 21 16 23 17 22 18 24 19 7 20 8 21 15 22 9 23 14 24
REMARK SMILES IDX 10 25 13 26 11 27 12 28
REMARK H PARENT 5 7 5 8
ROOT
ATOM      1  C   UNL     1      47.316 134.481  22.180  1.00  0.00     0.086 C 
ATOM      2  C   UNL     1      47.291 134.074  23.662  1.00  0.00     0.272 C 
ATOM      3  N   UNL     1      46.059 133.336  23.970  1.00  0.00    -0.322 N 
ATOM      4  C   UNL     1      45.955 132.094  23.178  1.00  0.00     0.320 C 
ATOM      5  N   UNL     1      46.097 132.382  21.734  1.00  0.00    -0.284 N 
ATOM      6  C   UNL     1      47.223 133.223  21.311  1.00  0.00     0.139 C 
ATOM      7  H   UNL     1      45.237 133.959  23.787  1.00  0.00     0.348 HD
ATOM      8  H   UNL     1      46.066 133.094  24.989  1.00  0.00     0.348 HD
ENDROOT
BRANCH   1   9
ATOM      9  C   UNL     1      48.569 135.263  21.861  1.00  0.00    -0.024 C 
ATOM     10  C   UNL     1      48.551 136.287  21.003  1.00  0.00     0.004 C 
ENDBRANCH   1   9
BRANCH   5  11
ATOM     11  C   UNL     1      45.581 131.457  20.757  1.00  0.00     0.258 C 
ATOM     12  O   UNL     1      46.192 130.373  20.549  1.00  0.00    -0.269 OA
BRANCH  11  13
ATOM     13  C   UNL     1      44.344 131.765  20.001  1.00  0.00     0.040 A 
ATOM     14  C   UNL     1      44.253 131.459  18.632  1.00  0.00     0.014 A 
ATOM     15  C   UNL     1      43.237 132.350  20.645  1.00  0.00     0.017 A 
ATOM     16  C   UNL     1      43.087 131.750  17.919  1.00  0.00     0.001 A 
ATOM     17  C   UNL     1      42.061 132.629  19.933  1.00  0.00    -0.050 A 
ATOM     18  C   UNL     1      41.996 132.336  18.564  1.00  0.00     0.003 A 
ATOM     19  C   UNL     1      40.902 133.277  20.633  1.00  0.00     0.044 C 
ENDBRANCH  11  13
ENDBRANCH   5  11
BRANCH   4  20
ATOM     20  C   UNL     1      44.632 131.412  23.487  1.00  0.00     0.050 A 
ATOM     21  C   UNL     1      43.503 132.177  23.871  1.00  0.00     0.017 A 
ATOM     22  C   UNL     1      44.495 130.012  23.380  1.00  0.00     0.127 A 
ATOM     23  C   UNL     1      42.277 131.552  24.150  1.00  0.00     0.050 A 
ATOM     24  N   UNL     1      43.289 129.461  23.661  1.00  0.00    -0.221 N 
ATOM     25  C   UNL     1      42.219 130.168  24.031  1.00  0.00     0.155 A 
ATOM     26  N   UNL     1      42.965 128.184  23.625  1.00  0.00    -0.155 NA
ATOM     27  N   UNL     1      41.149 129.383  24.251  1.00  0.00    -0.215 NA
ATOM     28  C   UNL     1      41.661 128.152  23.984  1.00  0.00     0.247 A 
ENDBRANCH   4  20
TORSDOF 4
ENDMDL
MODEL 8
REMARK VINA RESULT:      -3.2      5.296      7.724
REMARK SMILES C=C[C@@H]1C[NH2+][C@@H](c2ccc3ncnn3c2)N(C(=O)c2cccc(C)c2)C1
REMARK SMILES IDX 3 1 4 2 5 3 6 4 16 5 26 6 2 9 1 10 17 11 18 12 19 13 20 14
REMARK SMILES IDX 25 15 21 16 23 17 22 18 24 19 7 20 8 21 15 22 9 23 14 24
REMARK SMILES IDX 10 25 13 26 11 27 12 28
REMARK H PARENT 5 7 5 8
ROOT
ATOM      1  C   UNL     1      43.524 130.271  23.874  1.00  0.00     0.086 C 
ATOM      2  C   UNL     1      43.486 131.611  24.625  1.00  0.00     0.272 C 
ATOM      3  N   UNL     1      44.740 132.349  24.421  1.00  0.00    -0.322 N 
ATOM      4  C   UNL     1      44.967 132.657  22.995  1.00  0.00     0.320 C 
ATOM      5  N   UNL     1      44.893 131.427  22.176  1.00  0.00    -0.284 N 
ATOM      6  C   UNL     1      43.744 130.536  22.381  1.00  0.00     0.139 C 
ATOM      7  H   UNL     1      45.532 131.780  24.805  1.00  0.00     0.348 HD
ATOM      8  H   UNL     1      44.688 133.244  24.963  1.00  0.00     0.348 HD
ENDROOT
BRANCH   1   9
ATOM      9  C   UNL     1      42.247 129.495  24.099  1.00  0.00    -0.024 C 
ATOM     10  C   UNL     1      42.032 128.320  23.500  1.00  0.00     0.004 C 
ENDBRANCH   1   9
BRANCH   5  11
ATOM     11  C   UNL     1      45.521 131.381  20.881  1.00  0.00     0.258 C 
ATOM     12  O   UNL     1      46.769 131.213  20.805  1.00  0.00    -0.269 OA
BRANCH  11  13
ATOM     13  C   UNL     1      44.718 131.522  19.643  1.00  0.00     0.040 A 
ATOM     14  C   UNL     1      43.358 131.868  19.714  1.00  0.00     0.014 A 
ATOM     15  C   UNL     1      45.309 131.329  18.380  1.00  0.00     0.017 A 
ATOM     16  C   UNL     1      42.600 131.999  18.547  1.00  0.00     0.001 A 
ATOM     17  C   UNL     1      44.553 131.476  17.207  1.00  0.00    -0.050 A 
ATOM     18  C   UNL     1      43.192 131.800  17.299  1.00  0.00     0.003 A 
ATOM     19  C   UNL     1      45.195 131.241  15.871  1.00  0.00     0.044 C 
ENDBRANCH  11  13
ENDBRANCH   5  11
BRANCH   4  20
ATOM     20  C   UNL     1      46.309 133.355  22.840  1.00  0.00     0.050 A 
ATOM     21  C   UNL     1      46.687 133.913  21.595  1.00  0.00     0.017 A 
ATOM     22  C   UNL     1      47.192 133.478  23.934  1.00  0.00     0.127 A 
ATOM     23  C   UNL     1      47.923 134.565  21.450  1.00  0.00     0.050 A 
ATOM     24  N   UNL     1      48.372 134.115  23.738  1.00  0.00    -0.221 N 
ATOM     25  C   UNL     1      48.746 134.640  22.569  1.00  0.00     0.155 A 
ATOM     26  N   UNL     1      49.324 134.326  24.624  1.00  0.00    -0.155 NA
ATOM     27  N   UNL     1      49.958 135.217  22.641  1.00  0.00    -0.215 NA
ATOM     28  C   UNL     1      50.282 134.998  23.943  1.00  0.00     0.247 A 
ENDBRANCH   4  20
TORSDOF 4
ENDMDL
MODEL 9
REMARK VINA RESULT:      -2.6      4.211      7.455
REMARK SMILES C=C[C@@H]1C[NH2+][C@@H](c2ccc3ncnn3c2)N(C(=O)c2cccc(C)c2)C1
REMARK SMILES IDX 3 1 4 2 5 3 6 4 16 5 26 6 2 9 1 10 17 11 18 12 19 13 20 14
REMARK SMILES IDX 25 15 21 16 23 17 22 18 24 19 7 20 8 21 15 22 9 23 14 24
REMARK SMILES IDX 10 25 13 26 11 27 12 28
REMARK H PARENT 5 7 5 8
ROOT
ATOM      1  C   UNL     1      46.777 134.154  22.418  1.00  0.00     0.086 C 
ATOM      2  C   UNL     1      46.568 133.778  23.894  1.00  0.00     0.272 C 
ATOM      3  N   UNL     1      45.395 132.906  24.039  1.00  0.00    -0.322 N 
ATOM      4  C   UNL     1      45.558 131.644  23.290  1.00  0.00     0.320 C 
ATOM      5  N   UNL     1      45.890 131.916  21.874  1.00  0.00    -0.284 N 
ATOM      6  C   UNL     1      46.965 132.876  21.595  1.00  0.00     0.139 C 
ATOM      7  H   UNL     1      44.546 133.423  23.709  1.00  0.00     0.348 HD
ATOM      8  H   UNL     1      45.271 132.688  25.056  1.00  0.00     0.348 HD
ENDROOT
BRANCH   1   9
ATOM      9  C   UNL     1      47.967 135.072  22.264  1.00  0.00    -0.024 C 
ATOM     10  C   UNL     1      48.286 135.605  21.080  1.00  0.00     0.004 C 
ENDBRANCH   1   9
BRANCH   5  11
ATOM     11  C   UNL     1      45.641 130.917  20.867  1.00  0.00     0.258 C 
ATOM     12  O   UNL     1      46.115 129.757  21.016  1.00  0.00    -0.269 OA
BRANCH  11  13
ATOM     13  C   UNL     1      44.835 131.235  19.665  1.00  0.00     0.040 A 
ATOM     14  C   UNL     1      45.374 131.059  18.379  1.00  0.00     0.014 A 
ATOM     15  C   UNL     1      43.513 131.702  19.792  1.00  0.00     0.017 A 
ATOM     16  C   UNL     1      44.614 131.361  17.246  1.00  0.00     0.001 A 
ATOM     17  C   UNL     1      42.744 131.991  18.655  1.00  0.00    -0.050 A 
ATOM     18  C   UNL     1      43.307 131.829  17.381  1.00  0.00     0.003 A 
ATOM     19  C   UNL     1      41.345 132.512  18.813  1.00  0.00     0.044 C 
ENDBRANCH  11  13
ENDBRANCH   5  11
BRANCH   4  20
ATOM     20  C   UNL     1      44.289 130.817  23.420  1.00  0.00     0.050 A 
ATOM     21  C   UNL     1      43.019 131.444  23.407  1.00  0.00     0.017 A 
ATOM     22  C   UNL     1      44.348 129.411  23.535  1.00  0.00     0.127 A 
ATOM     23  C   UNL     1      41.844 130.683  23.520  1.00  0.00     0.050 A 
ATOM     24  N   UNL     1      43.184 128.726  23.641  1.00  0.00    -0.221 N 
ATOM     25  C   UNL     1      41.980 129.304  23.638  1.00  0.00     0.155 A 
ATOM     26  N   UNL     1      43.031 127.423  23.762  1.00  0.00    -0.155 NA
ATOM     27  N   UNL     1      40.989 128.403  23.756  1.00  0.00    -0.215 NA
ATOM     28  C   UNL     1      41.691 127.241  23.829  1.00  0.00     0.247 A 
ENDBRANCH   4  20
TORSDOF 4
ENDMDL


