REMARK SMILES CC(C)C[C@H](C)OC(=O)n1[n-]c(-c2ccc3[nH]ccc3c2)c/c(=N\N)c1=O
REMARK SMILES IDX 8 1 9 2 10 3 12 4 11 5 22 6 23 7 26 8 27 9 13 10 14 11 15 12
REMARK SMILES IDX 21 13 16 14 20 15 17 16 19 17 18 18 24 20 25 21 7 24 5 25
REMARK SMILES IDX 6 26 4 27 2 28 1 29 3 30
REMARK H PARENT 17 19 25 22 25 23
ROOT
ATOM      1  C   UNL     1      -3.166  -1.238   1.357  1.00  0.00     0.403 C 
ATOM      2  O   UNL     1      -4.269  -1.528   1.899  1.00  0.00    -0.225 OA
ENDROOT
BRANCH   1   3
ATOM      3  N   UNL     1      -2.652   0.108   1.393  1.00  0.00    -0.315 N 
ATOM      4  C   UNL     1      -0.802   1.511   0.936  1.00  0.00    -0.114 A 
ATOM      5  N   UNL     1      -1.405   0.294   0.954  1.00  0.00    -0.582 NA
ATOM      6  C   UNL     1      -1.510   2.622   1.405  1.00  0.00     0.021 A 
ATOM      7  C   UNL     1      -2.830   2.462   1.858  1.00  0.00     0.146 A 
ATOM      8  C   UNL     1      -3.390   1.174   1.848  1.00  0.00     0.270 A 
ATOM      9  O   UNL     1      -4.575   1.012   2.255  1.00  0.00    -0.268 OA
BRANCH   4  10
ATOM     10  C   UNL     1       0.595   1.621   0.447  1.00  0.00    -0.039 A 
ATOM     11  C   UNL     1       1.480   0.518   0.595  1.00  0.00     0.009 A 
ATOM     12  C   UNL     1       2.805   0.587   0.128  1.00  0.00     0.027 A 
ATOM     13  C   UNL     1       1.056   2.798  -0.194  1.00  0.00     0.017 A 
ATOM     14  C   UNL     1       3.219   1.764  -0.487  1.00  0.00     0.045 A 
ATOM     15  C   UNL     1       2.374   2.829  -0.642  1.00  0.00    -0.000 A 
ATOM     16  N   UNL     1       4.428   2.033  -1.006  1.00  0.00    -0.361 N 
ATOM     17  C   UNL     1       3.077   3.821  -1.291  1.00  0.00     0.028 A 
ATOM     18  C   UNL     1       4.347   3.291  -1.498  1.00  0.00     0.083 A 
ATOM     19  H   UNL     1       5.261   1.403  -1.030  1.00  0.00     0.166 HD
ENDBRANCH   4  10
BRANCH   7  20
ATOM     20  N   UNL     1      -3.551   3.457   2.303  1.00  0.00    -0.178 NA
BRANCH  20  21
ATOM     21  N   UNL     1      -3.166   4.809   2.329  1.00  0.00    -0.323 N 
ATOM     22  H   UNL     1      -2.361   5.181   1.783  1.00  0.00     0.179 HD
ATOM     23  H   UNL     1      -3.790   5.501   2.800  1.00  0.00     0.179 HD
ENDBRANCH  20  21
ENDBRANCH   7  20
ENDBRANCH   1   3
BRANCH   1  24
ATOM     24  O   UNL     1      -2.413  -2.239   0.729  1.00  0.00    -0.447 OA
BRANCH  24  25
ATOM     25  C   UNL     1      -2.820  -3.604   0.643  1.00  0.00     0.175 C 
ATOM     26  C   UNL     1      -3.896  -3.749  -0.439  1.00  0.00     0.053 C 
BRANCH  25  27
ATOM     27  C   UNL     1      -1.604  -4.492   0.299  1.00  0.00     0.048 C 
BRANCH  27  28
ATOM     28  C   UNL     1      -0.500  -4.572   1.385  1.00  0.00    -0.014 C 
ATOM     29  C   UNL     1      -1.022  -5.108   2.725  1.00  0.00     0.007 C 
ATOM     30  C   UNL     1       0.250  -3.247   1.579  1.00  0.00     0.007 C 
ENDBRANCH  27  28
ENDBRANCH  25  27
ENDBRANCH  24  25
ENDBRANCH   1  24
TORSDOF 8


