REMARK SMILES C[C@@H]1CC[C@@H]2CC=N[C@]2(C)C1
REMARK SMILES IDX 1 1 2 2 3 3 4 4 5 5 6 6 7 7 8 8 9 9 10 10 11 11
REMARK H PARENT
ROOT
ATOM      1  C   UNL     1       1.770   2.274   0.216  1.00  0.00     0.008 C 
ATOM      2  C   UNL     1       0.537   1.591   0.826  1.00  0.00    -0.012 C 
ATOM      3  C   UNL     1       0.957   0.417   1.742  1.00  0.00     0.004 C 
ATOM      4  C   UNL     1      -0.089  -0.703   1.761  1.00  0.00     0.007 C 
ATOM      5  C   UNL     1      -0.277  -1.326   0.359  1.00  0.00     0.022 C 
ATOM      6  C   UNL     1       0.917  -2.214  -0.041  1.00  0.00     0.053 C 
ATOM      7  C   UNL     1       1.558  -1.438  -1.133  1.00  0.00     0.078 C 
ATOM      8  N   UNL     1       0.889  -0.415  -1.501  1.00  0.00    -0.291 NA
ATOM      9  C   UNL     1      -0.350  -0.263  -0.781  1.00  0.00     0.061 C 
ATOM     10  C   UNL     1      -1.511  -0.581  -1.741  1.00  0.00     0.037 C 
ATOM     11  C   UNL     1      -0.494   1.191  -0.263  1.00  0.00     0.034 C 
ENDROOT
TORSDOF 0


