REMARK SMILES CCC(=O)OCOc1ccc([NH2+]c2ccc3cc[nH]c3c2)c(F)c1
REMARK SMILES IDX 6 1 5 2 3 3 4 4 2 5 1 6 7 7 8 8 9 9 24 10 10 11 22 12 11 13
REMARK SMILES IDX 23 14 12 15 13 18 14 19 21 20 15 21 20 22 16 23 19 24 17 25
REMARK SMILES IDX 18 26
REMARK H PARENT 12 16 12 17 19 27
ROOT
ATOM      1  C   UNL     1      -1.220  -0.405  -4.940  1.00  0.00     0.470 C 
ENDROOT
BRANCH   1   2
ATOM      2  O   UNL     1      -2.120   0.482  -4.284  1.00  0.00    -0.428 OA
BRANCH   2   3
ATOM      3  C   UNL     1      -2.634   1.627  -4.898  1.00  0.00     0.308 C 
ATOM      4  O   UNL     1      -2.324   1.916  -6.086  1.00  0.00    -0.252 OA
BRANCH   3   5
ATOM      5  C   UNL     1      -3.516   2.545  -4.114  1.00  0.00     0.119 C 
ATOM      6  C   UNL     1      -2.681   3.449  -3.214  1.00  0.00     0.016 C 
ENDBRANCH   3   5
ENDBRANCH   2   3
ENDBRANCH   1   2
BRANCH   1   7
ATOM      7  O   UNL     1      -0.813  -1.429  -4.037  1.00  0.00    -0.457 OA
BRANCH   7   8
ATOM      8  C   UNL     1      -0.068  -1.213  -2.868  1.00  0.00     0.127 A 
ATOM      9  C   UNL     1       0.400   0.060  -2.492  1.00  0.00     0.053 A 
ATOM     10  C   UNL     1       0.217  -2.312  -2.050  1.00  0.00     0.092 A 
ATOM     11  C   UNL     1       1.133   0.223  -1.314  1.00  0.00     0.075 A 
ATOM     12  C   UNL     1       0.950  -2.154  -0.870  1.00  0.00     0.187 A 
ATOM     13  C   UNL     1       1.420  -0.881  -0.491  1.00  0.00     0.170 A 
ATOM     14  F   UNL     1       1.203  -3.241  -0.099  1.00  0.00    -0.200 F 
BRANCH  13  15
ATOM     15  N   UNL     1       2.147  -0.697   0.741  1.00  0.00    -0.279 N 
ATOM     16  H   UNL     1       2.833   0.087   0.639  1.00  0.00     0.358 HD
ATOM     17  H   UNL     1       2.705  -1.553   0.967  1.00  0.00     0.358 HD
BRANCH  15  18
ATOM     18  C   UNL     1       1.225  -0.404   1.810  1.00  0.00     0.136 A 
ATOM     19  C   UNL     1       0.807   0.933   2.048  1.00  0.00     0.069 A 
ATOM     20  C   UNL     1       0.698  -1.450   2.604  1.00  0.00     0.094 A 
ATOM     21  C   UNL     1      -0.117   1.229   3.066  1.00  0.00     0.016 A 
ATOM     22  C   UNL     1      -0.215  -1.121   3.604  1.00  0.00     0.051 A 
ATOM     23  C   UNL     1      -0.607   0.171   3.826  1.00  0.00    -0.000 A 
ATOM     24  N   UNL     1      -0.825  -1.958   4.460  1.00  0.00    -0.361 N 
ATOM     25  C   UNL     1      -1.507   0.156   4.869  1.00  0.00     0.028 A 
ATOM     26  C   UNL     1      -1.616  -1.181   5.235  1.00  0.00     0.083 A 
ATOM     27  H   UNL     1      -0.714  -2.994   4.517  1.00  0.00     0.166 HD
ENDBRANCH  15  18
ENDBRANCH  13  15
ENDBRANCH   7   8
ENDBRANCH   1   7
TORSDOF 7


