REMARK SMILES Cc1ccc(-c2ccc(OC(=O)[C@H]3CCC3(C)C)cc2)c2c[n-]nc12
REMARK SMILES IDX 10 1 9 2 6 3 7 4 20 5 8 6 19 7 5 8 2 9 3 10 25 11 4 12 24 13
REMARK SMILES IDX 21 14 23 15 22 16 1 17 11 18 12 19 13 20 14 21 16 22 15 23
REMARK SMILES IDX 17 24 18 25
REMARK H PARENT
ROOT
ATOM      1  O   UNL     1       0.274   2.066  -1.494  1.00  0.00    -0.426 OA
ENDROOT
BRANCH   1   2
ATOM      2  C   UNL     1       0.404   0.840  -0.827  1.00  0.00     0.130 A 
ATOM      3  C   UNL     1       0.651  -1.671   0.429  1.00  0.00    -0.018 A 
ATOM      4  C   UNL     1       0.783  -1.555  -0.964  1.00  0.00     0.012 A 
ATOM      5  C   UNL     1       0.368  -0.523   1.187  1.00  0.00     0.012 A 
ATOM      6  C   UNL     1       0.657  -0.309  -1.584  1.00  0.00     0.048 A 
ATOM      7  C   UNL     1       0.244   0.723   0.566  1.00  0.00     0.048 A 
BRANCH   3   8
ATOM      8  C   UNL     1       0.772  -2.992   1.090  1.00  0.00    -0.011 A 
ATOM      9  C   UNL     1       0.995  -5.547   2.350  1.00  0.00    -0.027 A 
ATOM     10  C   UNL     1      -0.079  -4.684   2.656  1.00  0.00     0.006 A 
ATOM     11  C   UNL     1       1.945  -5.088   1.433  1.00  0.00     0.050 A 
ATOM     12  C   UNL     1      -0.190  -3.422   2.031  1.00  0.00     0.010 A 
ATOM     13  N   UNL     1       3.070  -5.706   1.034  1.00  0.00    -0.367 NA
ATOM     14  C   UNL     1       1.836  -3.867   0.827  1.00  0.00    -0.014 A 
ATOM     15  N   UNL     1       3.687  -4.894   0.182  1.00  0.00    -0.581 NA
ATOM     16  C   UNL     1       2.961  -3.762   0.038  1.00  0.00    -0.113 A 
ATOM     17  C   UNL     1       1.151  -6.869   3.041  1.00  0.00     0.046 C 
ENDBRANCH   3   8
ENDBRANCH   1   2
BRANCH   1  18
ATOM     18  C   UNL     1       0.561   3.322  -0.940  1.00  0.00     0.314 C 
ATOM     19  O   UNL     1       1.297   3.421   0.079  1.00  0.00    -0.251 OA
BRANCH  18  20
ATOM     20  C   UNL     1      -0.004   4.579  -1.556  1.00  0.00     0.105 C 
ATOM     21  C   UNL     1      -0.341   4.464  -3.046  1.00  0.00     0.016 C 
ATOM     22  C   UNL     1      -1.490   4.875  -1.249  1.00  0.00    -0.022 C 
ATOM     23  C   UNL     1      -1.809   4.758  -2.747  1.00  0.00     0.008 C 
ATOM     24  C   UNL     1      -1.706   6.299  -0.707  1.00  0.00     0.012 C 
ATOM     25  C   UNL     1      -2.240   3.829  -0.398  1.00  0.00     0.012 C 
ENDBRANCH  18  20
ENDBRANCH   1  18
TORSDOF 4


