REMARK SMILES N[NH2+]c1ccccc1-c1[nH]c2ccccc2[nH+]1
REMARK SMILES IDX 3 1 4 2 5 3 6 4 7 5 8 6 2 7 1 10 9 13 10 14 17 15 11 16
REMARK SMILES IDX 16 17 12 18 15 19 13 20 14 21
REMARK H PARENT 2 8 2 9 1 11 1 12 10 22 17 23
ROOT
ATOM      1  C   UNL     1       1.587   0.251  -0.137  1.00  0.00     0.164 A 
ATOM      2  C   UNL     1       2.475   1.275  -0.516  1.00  0.00     0.071 A 
ATOM      3  C   UNL     1       2.122   2.199  -1.501  1.00  0.00     0.006 A 
ATOM      4  C   UNL     1       0.877   2.117  -2.121  1.00  0.00     0.001 A 
ATOM      5  C   UNL     1      -0.015   1.102  -1.769  1.00  0.00     0.023 A 
ATOM      6  C   UNL     1       0.330   0.150  -0.795  1.00  0.00     0.126 A 
ENDROOT
BRANCH   1   7
ATOM      7  N   UNL     1       1.976  -0.652   0.921  1.00  0.00    -0.239 N 
ATOM      8  H   UNL     1       2.540  -0.146   1.645  1.00  0.00     0.376 HD
ATOM      9  H   UNL     1       1.141  -1.060   1.400  1.00  0.00     0.376 HD
BRANCH   7  10
ATOM     10  N   UNL     1       2.752  -1.691   0.368  1.00  0.00    -0.178 NA
ATOM     11  H   UNL     1       3.700  -1.312   0.134  1.00  0.00     0.183 HD
ATOM     12  H   UNL     1       2.900  -2.413   1.111  1.00  0.00     0.183 HD
ENDBRANCH   7  10
ENDBRANCH   1   7
BRANCH   6  13
ATOM     13  C   UNL     1      -0.650  -0.912  -0.483  1.00  0.00     0.291 A 
ATOM     14  N   UNL     1      -0.350  -2.237  -0.444  1.00  0.00    -0.236 N 
ATOM     15  N   UNL     1      -1.969  -0.668  -0.272  1.00  0.00    -0.236 N 
ATOM     16  C   UNL     1      -1.525  -2.831  -0.183  1.00  0.00     0.172 A 
ATOM     17  C   UNL     1      -2.501  -1.885  -0.078  1.00  0.00     0.172 A 
ATOM     18  C   UNL     1      -1.795  -4.191  -0.047  1.00  0.00     0.056 A 
ATOM     19  C   UNL     1      -3.830  -2.218   0.176  1.00  0.00     0.056 A 
ATOM     20  C   UNL     1      -3.127  -4.566   0.214  1.00  0.00     0.005 A 
ATOM     21  C   UNL     1      -4.140  -3.584   0.326  1.00  0.00     0.005 A 
ATOM     22  H   UNL     1       0.568  -2.699  -0.622  1.00  0.00     0.312 HD
ATOM     23  H   UNL     1      -2.460   0.254  -0.263  1.00  0.00     0.312 HD
ENDBRANCH   6  13
TORSDOF 3


