MODEL 1
REMARK VINA RESULT:      -4.6      0.000      0.000
REMARK SMILES C=C[C@@H]1CN[C@H](c2ccc3nc[nH+]n3c2)/[N+](=C(\O)C[C@H]2C[C@@H](C)C2)C1
REMARK SMILES IDX 17 1 18 2 16 4 25 5 6 6 3 7 5 8 4 9 7 11 8 12 15 13 9 14
REMARK SMILES IDX 14 15 10 16 13 17 11 18 12 19 2 21 1 22 19 23 20 24 24 25
REMARK SMILES IDX 21 26 22 27 23 28
REMARK H PARENT 18 3 5 10 13 20
ROOT
ATOM      1  C   UNL     1      46.225 131.948  20.804  1.00  0.00     0.335 C 
ENDROOT
BRANCH   1   2
ATOM      2  O   UNL     1      47.361 131.168  20.559  1.00  0.00    -0.463 OA
ATOM      3  H   UNL     1      47.574 130.804  19.639  1.00  0.00     0.299 HD
ENDBRANCH   1   2
BRANCH   1   4
ATOM      4  N   UNL     1      45.044 131.364  20.880  1.00  0.00    -0.181 N 
ATOM      5  C   UNL     1      44.708 130.320  21.870  1.00  0.00     0.365 C 
ATOM      6  C   UNL     1      43.965 131.773  19.945  1.00  0.00     0.370 C 
ATOM      7  C   UNL     1      43.444 130.727  22.651  1.00  0.00     0.091 C 
ATOM      8  N   UNL     1      42.670 131.162  20.300  1.00  0.00    -0.254 NA
ATOM      9  C   UNL     1      42.372 131.362  21.723  1.00  0.00     0.102 C 
ATOM     10  H   UNL     1      42.680 130.133  20.099  1.00  0.00     0.129 HD
BRANCH   6  11
ATOM     11  C   UNL     1      44.310 131.415  18.513  1.00  0.00     0.056 A 
ATOM     12  C   UNL     1      43.477 131.812  17.436  1.00  0.00     0.020 A 
ATOM     13  C   UNL     1      45.500 130.714  18.225  1.00  0.00     0.150 A 
ATOM     14  C   UNL     1      43.818 131.494  16.110  1.00  0.00     0.080 A 
ATOM     15  N   UNL     1      45.779 130.435  16.927  1.00  0.00    -0.151 N 
ATOM     16  C   UNL     1      44.998 130.791  15.902  1.00  0.00     0.282 A 
ATOM     17  N   UNL     1      46.821 129.794  16.442  1.00  0.00    -0.166 N 
ATOM     18  N   UNL     1      45.505 130.394  14.716  1.00  0.00    -0.025 NA
ATOM     19  C   UNL     1      46.651 129.771  15.101  1.00  0.00     0.472 A 
ATOM     20  H   UNL     1      47.610 129.391  16.995  1.00  0.00     0.340 HD
ENDBRANCH   6  11
BRANCH   7  21
ATOM     21  C   UNL     1      42.892 129.543  23.416  1.00  0.00    -0.024 C 
ATOM     22  C   UNL     1      41.989 129.704  24.388  1.00  0.00     0.004 C 
ENDBRANCH   7  21
ENDBRANCH   1   4
BRANCH   1  23
ATOM     23  C   UNL     1      46.430 133.442  20.950  1.00  0.00     0.156 C 
BRANCH  23  24
ATOM     24  C   UNL     1      47.286 133.767  22.188  1.00  0.00     0.003 C 
ATOM     25  C   UNL     1      48.789 133.694  21.919  1.00  0.00     0.007 C 
ATOM     26  C   UNL     1      47.414 135.263  22.490  1.00  0.00     0.007 C 
ATOM     27  C   UNL     1      48.917 135.185  22.229  1.00  0.00    -0.014 C 
ATOM     28  C   UNL     1      49.377 136.023  21.033  1.00  0.00     0.007 C 
ENDBRANCH  23  24
ENDBRANCH   1  23
TORSDOF 6
ENDMDL
MODEL 2
REMARK VINA RESULT:      -4.5      2.327      6.640
REMARK SMILES C=C[C@@H]1CN[C@H](c2ccc3nc[nH+]n3c2)/[N+](=C(\O)C[C@H]2C[C@@H](C)C2)C1
REMARK SMILES IDX 17 1 18 2 16 4 25 5 6 6 3 7 5 8 4 9 7 11 8 12 15 13 9 14
REMARK SMILES IDX 14 15 10 16 13 17 11 18 12 19 2 21 1 22 19 23 20 24 24 25
REMARK SMILES IDX 21 26 22 27 23 28
REMARK H PARENT 18 3 5 10 13 20
ROOT
ATOM      1  C   UNL     1      44.608 131.453  19.890  1.00  0.00     0.335 C 
ENDROOT
BRANCH   1   2
ATOM      2  O   UNL     1      43.235 131.694  19.765  1.00  0.00    -0.463 OA
ATOM      3  H   UNL     1      42.849 132.206  18.982  1.00  0.00     0.299 HD
ENDBRANCH   1   2
BRANCH   1   4
ATOM      4  N   UNL     1      45.214 131.744  21.025  1.00  0.00    -0.181 N 
ATOM      5  C   UNL     1      46.639 132.124  21.121  1.00  0.00     0.365 C 
ATOM      6  C   UNL     1      44.441 131.718  22.293  1.00  0.00     0.370 C 
ATOM      7  C   UNL     1      46.773 133.468  21.862  1.00  0.00     0.091 C 
ATOM      8  N   UNL     1      45.222 132.257  23.424  1.00  0.00    -0.254 NA
ATOM      9  C   UNL     1      45.811 133.556  23.079  1.00  0.00     0.102 C 
ATOM     10  H   UNL     1      45.992 131.597  23.688  1.00  0.00     0.129 HD
BRANCH   6  11
ATOM     11  C   UNL     1      43.978 130.314  22.629  1.00  0.00     0.056 A 
ATOM     12  C   UNL     1      44.883 129.222  22.625  1.00  0.00     0.020 A 
ATOM     13  C   UNL     1      42.636 130.079  22.997  1.00  0.00     0.150 A 
ATOM     14  C   UNL     1      44.448 127.929  22.959  1.00  0.00     0.080 A 
ATOM     15  N   UNL     1      42.272 128.811  23.311  1.00  0.00    -0.151 N 
ATOM     16  C   UNL     1      43.110 127.769  23.299  1.00  0.00     0.282 A 
ATOM     17  N   UNL     1      41.085 128.374  23.673  1.00  0.00    -0.166 N 
ATOM     18  N   UNL     1      42.497 126.621  23.653  1.00  0.00    -0.025 NA
ATOM     19  C   UNL     1      41.225 127.046  23.879  1.00  0.00     0.472 A 
ATOM     20  H   UNL     1      40.221 128.952  23.775  1.00  0.00     0.340 HD
ENDBRANCH   6  11
BRANCH   7  21
ATOM     21  C   UNL     1      48.211 133.706  22.269  1.00  0.00    -0.024 C 
ATOM     22  C   UNL     1      48.815 134.875  22.037  1.00  0.00     0.004 C 
ENDBRANCH   7  21
ENDBRANCH   1   4
BRANCH   1  23
ATOM     23  C   UNL     1      45.322 130.879  18.684  1.00  0.00     0.156 C 
BRANCH  23  24
ATOM     24  C   UNL     1      44.645 131.322  17.373  1.00  0.00     0.003 C 
ATOM     25  C   UNL     1      45.568 132.128  16.459  1.00  0.00     0.007 C 
ATOM     26  C   UNL     1      44.551 130.224  16.311  1.00  0.00     0.007 C 
ATOM     27  C   UNL     1      45.466 131.035  15.395  1.00  0.00    -0.014 C 
ATOM     28  C   UNL     1      46.800 130.347  15.094  1.00  0.00     0.007 C 
ENDBRANCH  23  24
ENDBRANCH   1  23
TORSDOF 6
ENDMDL
MODEL 3
REMARK VINA RESULT:      -4.4      1.081      1.383
REMARK SMILES C=C[C@@H]1CN[C@H](c2ccc3nc[nH+]n3c2)/[N+](=C(\O)C[C@H]2C[C@@H](C)C2)C1
REMARK SMILES IDX 17 1 18 2 16 4 25 5 6 6 3 7 5 8 4 9 7 11 8 12 15 13 9 14
REMARK SMILES IDX 14 15 10 16 13 17 11 18 12 19 2 21 1 22 19 23 20 24 24 25
REMARK SMILES IDX 21 26 22 27 23 28
REMARK H PARENT 18 3 5 10 13 20
ROOT
ATOM      1  C   UNL     1      46.469 132.175  20.891  1.00  0.00     0.335 C 
ENDROOT
BRANCH   1   2
ATOM      2  O   UNL     1      47.578 131.376  20.589  1.00  0.00    -0.463 OA
ATOM      3  H   UNL     1      47.482 130.407  20.314  1.00  0.00     0.299 HD
ENDBRANCH   1   2
BRANCH   1   4
ATOM      4  N   UNL     1      45.256 131.672  20.757  1.00  0.00    -0.181 N 
ATOM      5  C   UNL     1      44.622 130.783  21.752  1.00  0.00     0.365 C 
ATOM      6  C   UNL     1      44.449 132.020  19.559  1.00  0.00     0.370 C 
ATOM      7  C   UNL     1      43.255 131.356  22.171  1.00  0.00     0.091 C 
ATOM      8  N   UNL     1      43.061 131.533  19.672  1.00  0.00    -0.254 NA
ATOM      9  C   UNL     1      42.472 131.929  20.957  1.00  0.00     0.102 C 
ATOM     10  H   UNL     1      43.029 130.489  19.594  1.00  0.00     0.129 HD
BRANCH   6  11
ATOM     11  C   UNL     1      45.072 131.466  18.294  1.00  0.00     0.056 A 
ATOM     12  C   UNL     1      45.436 130.098  18.193  1.00  0.00     0.020 A 
ATOM     13  C   UNL     1      45.260 132.300  17.172  1.00  0.00     0.150 A 
ATOM     14  C   UNL     1      45.993 129.590  17.008  1.00  0.00     0.080 A 
ATOM     15  N   UNL     1      45.801 131.755  16.054  1.00  0.00    -0.151 N 
ATOM     16  C   UNL     1      46.161 130.472  15.947  1.00  0.00     0.282 A 
ATOM     17  N   UNL     1      46.064 132.348  14.908  1.00  0.00    -0.166 N 
ATOM     18  N   UNL     1      46.670 130.187  14.731  1.00  0.00    -0.025 NA
ATOM     19  C   UNL     1      46.591 131.394  14.109  1.00  0.00     0.472 A 
ATOM     20  H   UNL     1      45.893 133.353  14.682  1.00  0.00     0.340 HD
ENDBRANCH   6  11
BRANCH   7  21
ATOM     21  C   UNL     1      42.450 130.312  22.914  1.00  0.00    -0.024 C 
ATOM     22  C   UNL     1      42.245 130.399  24.232  1.00  0.00     0.004 C 
ENDBRANCH   7  21
ENDBRANCH   1   4
BRANCH   1  23
ATOM     23  C   UNL     1      46.741 133.595  21.342  1.00  0.00     0.156 C 
BRANCH  23  24
ATOM     24  C   UNL     1      47.566 133.617  22.643  1.00  0.00     0.003 C 
ATOM     25  C   UNL     1      49.073 133.536  22.403  1.00  0.00     0.007 C 
ATOM     26  C   UNL     1      47.738 135.010  23.255  1.00  0.00     0.007 C 
ATOM     27  C   UNL     1      49.246 134.922  23.022  1.00  0.00    -0.014 C 
ATOM     28  C   UNL     1      49.778 135.971  22.041  1.00  0.00     0.007 C 
ENDBRANCH  23  24
ENDBRANCH   1  23
TORSDOF 6
ENDMDL
MODEL 4
REMARK VINA RESULT:      -4.3      1.348      1.980
REMARK SMILES C=C[C@@H]1CN[C@H](c2ccc3nc[nH+]n3c2)/[N+](=C(\O)C[C@H]2C[C@@H](C)C2)C1
REMARK SMILES IDX 17 1 18 2 16 4 25 5 6 6 3 7 5 8 4 9 7 11 8 12 15 13 9 14
REMARK SMILES IDX 14 15 10 16 13 17 11 18 12 19 2 21 1 22 19 23 20 24 24 25
REMARK SMILES IDX 21 26 22 27 23 28
REMARK H PARENT 18 3 5 10 13 20
ROOT
ATOM      1  C   UNL     1      46.066 132.913  20.969  1.00  0.00     0.335 C 
ENDROOT
BRANCH   1   2
ATOM      2  O   UNL     1      45.848 133.984  20.095  1.00  0.00    -0.463 OA
ATOM      3  H   UNL     1      45.915 133.879  19.091  1.00  0.00     0.299 HD
ENDBRANCH   1   2
BRANCH   1   4
ATOM      4  N   UNL     1      45.110 132.021  21.148  1.00  0.00    -0.181 N 
ATOM      5  C   UNL     1      45.060 131.088  22.293  1.00  0.00     0.365 C 
ATOM      6  C   UNL     1      43.994 131.940  20.170  1.00  0.00     0.370 C 
ATOM      7  C   UNL     1      43.704 131.213  23.012  1.00  0.00     0.091 C 
ATOM      8  N   UNL     1      42.926 131.031  20.629  1.00  0.00    -0.254 NA
ATOM      9  C   UNL     1      42.527 131.349  22.006  1.00  0.00     0.102 C 
ATOM     10  H   UNL     1      43.248 130.035  20.593  1.00  0.00     0.129 HD
BRANCH   6  11
ATOM     11  C   UNL     1      44.485 131.488  18.809  1.00  0.00     0.056 A 
ATOM     12  C   UNL     1      45.582 130.598  18.683  1.00  0.00     0.020 A 
ATOM     13  C   UNL     1      43.822 131.915  17.639  1.00  0.00     0.150 A 
ATOM     14  C   UNL     1      46.015 130.168  17.417  1.00  0.00     0.080 A 
ATOM     15  N   UNL     1      44.282 131.467  16.444  1.00  0.00    -0.151 N 
ATOM     16  C   UNL     1      45.323 130.639  16.308  1.00  0.00     0.282 A 
ATOM     17  N   UNL     1      43.820 131.741  15.243  1.00  0.00    -0.166 N 
ATOM     18  N   UNL     1      45.573 130.346  15.015  1.00  0.00    -0.025 NA
ATOM     19  C   UNL     1      44.605 131.060  14.379  1.00  0.00     0.472 A 
ATOM     20  H   UNL     1      43.010 132.361  15.022  1.00  0.00     0.340 HD
ENDBRANCH   6  11
BRANCH   7  21
ATOM     21  C   UNL     1      43.498 130.050  23.958  1.00  0.00    -0.024 C 
ATOM     22  C   UNL     1      43.257 128.817  23.504  1.00  0.00     0.004 C 
ENDBRANCH   7  21
ENDBRANCH   1   4
BRANCH   1  23
ATOM     23  C   UNL     1      47.403 132.859  21.678  1.00  0.00     0.156 C 
BRANCH  23  24
ATOM     24  C   UNL     1      47.698 134.181  22.411  1.00  0.00     0.003 C 
ATOM     25  C   UNL     1      47.665 134.048  23.933  1.00  0.00     0.007 C 
ATOM     26  C   UNL     1      49.183 134.547  22.476  1.00  0.00     0.007 C 
ATOM     27  C   UNL     1      49.145 134.422  23.998  1.00  0.00    -0.014 C 
ATOM     28  C   UNL     1      50.037 133.304  24.545  1.00  0.00     0.007 C 
ENDBRANCH  23  24
ENDBRANCH   1  23
TORSDOF 6
ENDMDL
MODEL 5
REMARK VINA RESULT:      -4.2      2.404      6.430
REMARK SMILES C=C[C@@H]1CN[C@H](c2ccc3nc[nH+]n3c2)/[N+](=C(\O)C[C@H]2C[C@@H](C)C2)C1
REMARK SMILES IDX 17 1 18 2 16 4 25 5 6 6 3 7 5 8 4 9 7 11 8 12 15 13 9 14
REMARK SMILES IDX 14 15 10 16 13 17 11 18 12 19 2 21 1 22 19 23 20 24 24 25
REMARK SMILES IDX 21 26 22 27 23 28
REMARK H PARENT 18 3 5 10 13 20
ROOT
ATOM      1  C   UNL     1      44.351 131.463  20.010  1.00  0.00     0.335 C 
ENDROOT
BRANCH   1   2
ATOM      2  O   UNL     1      42.968 131.674  20.034  1.00  0.00    -0.463 OA
ATOM      3  H   UNL     1      42.385 131.503  19.224  1.00  0.00     0.299 HD
ENDBRANCH   1   2
BRANCH   1   4
ATOM      4  N   UNL     1      45.063 131.732  21.088  1.00  0.00    -0.181 N 
ATOM      5  C   UNL     1      46.504 132.062  21.058  1.00  0.00     0.365 C 
ATOM      6  C   UNL     1      44.403 131.734  22.418  1.00  0.00     0.370 C 
ATOM      7  C   UNL     1      46.749 133.399  21.781  1.00  0.00     0.091 C 
ATOM      8  N   UNL     1      45.298 132.244  23.475  1.00  0.00    -0.254 NA
ATOM      9  C   UNL     1      45.900 133.521  23.076  1.00  0.00     0.102 C 
ATOM     10  H   UNL     1      46.064 131.556  23.673  1.00  0.00     0.129 HD
BRANCH   6  11
ATOM     11  C   UNL     1      43.921 130.347  22.797  1.00  0.00     0.056 A 
ATOM     12  C   UNL     1      42.624 130.141  23.331  1.00  0.00     0.020 A 
ATOM     13  C   UNL     1      44.749 129.225  22.579  1.00  0.00     0.150 A 
ATOM     14  C   UNL     1      42.179 128.849  23.658  1.00  0.00     0.080 A 
ATOM     15  N   UNL     1      44.268 128.002  22.913  1.00  0.00    -0.151 N 
ATOM     16  C   UNL     1      43.053 127.793  23.429  1.00  0.00     0.282 A 
ATOM     17  N   UNL     1      44.868 126.836  22.798  1.00  0.00    -0.166 N 
ATOM     18  N   UNL     1      42.821 126.485  23.668  1.00  0.00    -0.025 NA
ATOM     19  C   UNL     1      43.988 125.919  23.258  1.00  0.00     0.472 A 
ATOM     20  H   UNL     1      45.830 126.672  22.427  1.00  0.00     0.340 HD
ENDBRANCH   6  11
BRANCH   7  21
ATOM     21  C   UNL     1      48.225 133.586  22.061  1.00  0.00    -0.024 C 
ATOM     22  C   UNL     1      48.651 134.351  23.070  1.00  0.00     0.004 C 
ENDBRANCH   7  21
ENDBRANCH   1   4
BRANCH   1  23
ATOM     23  C   UNL     1      44.950 130.948  18.718  1.00  0.00     0.156 C 
BRANCH  23  24
ATOM     24  C   UNL     1      44.673 131.915  17.551  1.00  0.00     0.003 C 
ATOM     25  C   UNL     1      45.762 131.894  16.478  1.00  0.00     0.007 C 
ATOM     26  C   UNL     1      43.658 131.394  16.530  1.00  0.00     0.007 C 
ATOM     27  C   UNL     1      44.746 131.383  15.458  1.00  0.00    -0.014 C 
ATOM     28  C   UNL     1      45.065 129.985  14.921  1.00  0.00     0.007 C 
ENDBRANCH  23  24
ENDBRANCH   1  23
TORSDOF 6
ENDMDL
MODEL 6
REMARK VINA RESULT:      -4.1      1.008      1.261
REMARK SMILES C=C[C@@H]1CN[C@H](c2ccc3nc[nH+]n3c2)/[N+](=C(\O)C[C@H]2C[C@@H](C)C2)C1
REMARK SMILES IDX 17 1 18 2 16 4 25 5 6 6 3 7 5 8 4 9 7 11 8 12 15 13 9 14
REMARK SMILES IDX 14 15 10 16 13 17 11 18 12 19 2 21 1 22 19 23 20 24 24 25
REMARK SMILES IDX 21 26 22 27 23 28
REMARK H PARENT 18 3 5 10 13 20
ROOT
ATOM      1  C   UNL     1      45.897 132.727  20.696  1.00  0.00     0.335 C 
ENDROOT
BRANCH   1   2
ATOM      2  O   UNL     1      45.698 133.789  19.806  1.00  0.00    -0.463 OA
ATOM      3  H   UNL     1      45.197 133.671  18.934  1.00  0.00     0.299 HD
ENDBRANCH   1   2
BRANCH   1   4
ATOM      4  N   UNL     1      44.957 131.810  20.828  1.00  0.00    -0.181 N 
ATOM      5  C   UNL     1      44.945 130.795  21.902  1.00  0.00     0.365 C 
ATOM      6  C   UNL     1      43.822 131.785  19.870  1.00  0.00     0.370 C 
ATOM      7  C   UNL     1      43.603 130.846  22.655  1.00  0.00     0.091 C 
ATOM      8  N   UNL     1      42.776 130.829  20.282  1.00  0.00    -0.254 NA
ATOM      9  C   UNL     1      42.403 131.038  21.686  1.00  0.00     0.102 C 
ATOM     10  H   UNL     1      43.111 129.843  20.165  1.00  0.00     0.129 HD
BRANCH   6  11
ATOM     11  C   UNL     1      44.289 131.441  18.469  1.00  0.00     0.056 A 
ATOM     12  C   UNL     1      43.557 131.858  17.328  1.00  0.00     0.020 A 
ATOM     13  C   UNL     1      45.495 130.733  18.278  1.00  0.00     0.150 A 
ATOM     14  C   UNL     1      44.011 131.553  16.034  1.00  0.00     0.080 A 
ATOM     15  N   UNL     1      45.884 130.466  17.007  1.00  0.00    -0.151 N 
ATOM     16  C   UNL     1      45.199 130.841  15.922  1.00  0.00     0.282 A 
ATOM     17  N   UNL     1      46.960 129.822  16.607  1.00  0.00    -0.166 N 
ATOM     18  N   UNL     1      45.805 130.454  14.780  1.00  0.00    -0.025 NA
ATOM     19  C   UNL     1      46.908 129.816  15.256  1.00  0.00     0.472 A 
ATOM     20  H   UNL     1      47.694 129.407  17.222  1.00  0.00     0.340 HD
ENDBRANCH   6  11
BRANCH   7  21
ATOM     21  C   UNL     1      43.433 129.614  23.517  1.00  0.00    -0.024 C 
ATOM     22  C   UNL     1      42.662 129.630  24.609  1.00  0.00     0.004 C 
ENDBRANCH   7  21
ENDBRANCH   1   4
BRANCH   1  23
ATOM     23  C   UNL     1      47.195 132.712  21.476  1.00  0.00     0.156 C 
BRANCH  23  24
ATOM     24  C   UNL     1      47.464 134.078  22.135  1.00  0.00     0.003 C 
ATOM     25  C   UNL     1      47.629 133.994  23.652  1.00  0.00     0.007 C 
ATOM     26  C   UNL     1      48.910 134.566  22.005  1.00  0.00     0.007 C 
ATOM     27  C   UNL     1      49.069 134.489  23.523  1.00  0.00    -0.014 C 
ATOM     28  C   UNL     1      50.113 133.467  23.980  1.00  0.00     0.007 C 
ENDBRANCH  23  24
ENDBRANCH   1  23
TORSDOF 6
ENDMDL
MODEL 7
REMARK VINA RESULT:      -3.7      0.921      1.012
REMARK SMILES C=C[C@@H]1CN[C@H](c2ccc3nc[nH+]n3c2)/[N+](=C(\O)C[C@H]2C[C@@H](C)C2)C1
REMARK SMILES IDX 17 1 18 2 16 4 25 5 6 6 3 7 5 8 4 9 7 11 8 12 15 13 9 14
REMARK SMILES IDX 14 15 10 16 13 17 11 18 12 19 2 21 1 22 19 23 20 24 24 25
REMARK SMILES IDX 21 26 22 27 23 28
REMARK H PARENT 18 3 5 10 13 20
ROOT
ATOM      1  C   UNL     1      46.035 132.785  20.828  1.00  0.00     0.335 C 
ENDROOT
BRANCH   1   2
ATOM      2  O   UNL     1      45.774 133.882  20.000  1.00  0.00    -0.463 OA
ATOM      3  H   UNL     1      46.475 134.586  19.805  1.00  0.00     0.299 HD
ENDBRANCH   1   2
BRANCH   1   4
ATOM      4  N   UNL     1      45.086 131.891  21.034  1.00  0.00    -0.181 N 
ATOM      5  C   UNL     1      45.116 130.900  22.130  1.00  0.00     0.365 C 
ATOM      6  C   UNL     1      43.897 131.871  20.145  1.00  0.00     0.370 C 
ATOM      7  C   UNL     1      43.822 130.996  22.958  1.00  0.00     0.091 C 
ATOM      8  N   UNL     1      42.857 130.947  20.638  1.00  0.00    -0.254 NA
ATOM      9  C   UNL     1      42.571 131.194  22.057  1.00  0.00     0.102 C 
ATOM     10  H   UNL     1      43.165 129.951  20.524  1.00  0.00     0.129 HD
BRANCH   6  11
ATOM     11  C   UNL     1      44.274 131.488  18.727  1.00  0.00     0.056 A 
ATOM     12  C   UNL     1      43.461 131.857  17.626  1.00  0.00     0.020 A 
ATOM     13  C   UNL     1      45.475 130.789  18.478  1.00  0.00     0.150 A 
ATOM     14  C   UNL     1      43.832 131.516  16.314  1.00  0.00     0.080 A 
ATOM     15  N   UNL     1      45.782 130.486  17.192  1.00  0.00    -0.151 N 
ATOM     16  C   UNL     1      45.020 130.816  16.144  1.00  0.00     0.282 A 
ATOM     17  N   UNL     1      46.839 129.843  16.741  1.00  0.00    -0.166 N 
ATOM     18  N   UNL     1      45.554 130.400  14.977  1.00  0.00    -0.025 NA
ATOM     19  C   UNL     1      46.696 129.792  15.398  1.00  0.00     0.472 A 
ATOM     20  H   UNL     1      47.618 129.457  17.319  1.00  0.00     0.340 HD
ENDBRANCH   6  11
BRANCH   7  21
ATOM     21  C   UNL     1      43.677 129.786  23.856  1.00  0.00    -0.024 C 
ATOM     22  C   UNL     1      44.612 128.832  23.894  1.00  0.00     0.004 C 
ENDBRANCH   7  21
ENDBRANCH   1   4
BRANCH   1  23
ATOM     23  C   UNL     1      47.410 132.705  21.458  1.00  0.00     0.156 C 
BRANCH  23  24
ATOM     24  C   UNL     1      47.636 133.861  22.450  1.00  0.00     0.003 C 
ATOM     25  C   UNL     1      49.114 134.157  22.707  1.00  0.00     0.007 C 
ATOM     26  C   UNL     1      47.463 135.256  21.842  1.00  0.00     0.007 C 
ATOM     27  C   UNL     1      48.938 135.551  22.107  1.00  0.00    -0.014 C 
ATOM     28  C   UNL     1      49.758 135.780  20.834  1.00  0.00     0.007 C 
ENDBRANCH  23  24
ENDBRANCH   1  23
TORSDOF 6
ENDMDL
MODEL 8
REMARK VINA RESULT:      -3.1      2.720      4.515
REMARK SMILES C=C[C@@H]1CN[C@H](c2ccc3nc[nH+]n3c2)/[N+](=C(\O)C[C@H]2C[C@@H](C)C2)C1
REMARK SMILES IDX 17 1 18 2 16 4 25 5 6 6 3 7 5 8 4 9 7 11 8 12 15 13 9 14
REMARK SMILES IDX 14 15 10 16 13 17 11 18 12 19 2 21 1 22 19 23 20 24 24 25
REMARK SMILES IDX 21 26 22 27 23 28
REMARK H PARENT 18 3 5 10 13 20
ROOT
ATOM      1  C   UNL     1      45.685 129.655  20.817  1.00  0.00     0.335 C 
ENDROOT
BRANCH   1   2
ATOM      2  O   UNL     1      46.826 130.338  20.381  1.00  0.00    -0.463 OA
ATOM      3  H   UNL     1      46.892 131.348  20.413  1.00  0.00     0.299 HD
ENDBRANCH   1   2
BRANCH   1   4
ATOM      4  N   UNL     1      44.621 130.344  21.185  1.00  0.00    -0.181 N 
ATOM      5  C   UNL     1      43.612 129.846  22.143  1.00  0.00     0.365 C 
ATOM      6  C   UNL     1      44.411 131.709  20.640  1.00  0.00     0.370 C 
ATOM      7  C   UNL     1      43.431 130.861  23.287  1.00  0.00     0.091 C 
ATOM      8  N   UNL     1      43.289 132.400  21.306  1.00  0.00    -0.254 NA
ATOM      9  C   UNL     1      43.424 132.324  22.766  1.00  0.00     0.102 C 
ATOM     10  H   UNL     1      42.375 131.970  21.029  1.00  0.00     0.129 HD
BRANCH   6  11
ATOM     11  C   UNL     1      44.160 131.674  19.146  1.00  0.00     0.056 A 
ATOM     12  C   UNL     1      42.846 131.774  18.620  1.00  0.00     0.020 A 
ATOM     13  C   UNL     1      45.244 131.586  18.247  1.00  0.00     0.150 A 
ATOM     14  C   UNL     1      42.626 131.762  17.232  1.00  0.00     0.080 A 
ATOM     15  N   UNL     1      44.973 131.580  16.918  1.00  0.00    -0.151 N 
ATOM     16  C   UNL     1      43.740 131.660  16.407  1.00  0.00     0.282 A 
ATOM     17  N   UNL     1      45.824 131.502  15.917  1.00  0.00    -0.166 N 
ATOM     18  N   UNL     1      43.747 131.636  15.058  1.00  0.00    -0.025 NA
ATOM     19  C   UNL     1      45.077 131.535  14.791  1.00  0.00     0.472 A 
ATOM     20  H   UNL     1      46.862 131.428  15.996  1.00  0.00     0.340 HD
ENDBRANCH   6  11
BRANCH   7  21
ATOM     21  C   UNL     1      42.183 130.544  24.082  1.00  0.00    -0.024 C 
ATOM     22  C   UNL     1      41.988 129.337  24.621  1.00  0.00     0.004 C 
ENDBRANCH   7  21
ENDBRANCH   1   4
BRANCH   1  23
ATOM     23  C   UNL     1      45.755 128.142  20.852  1.00  0.00     0.156 C 
BRANCH  23  24
ATOM     24  C   UNL     1      46.007 127.630  22.283  1.00  0.00     0.003 C 
ATOM     25  C   UNL     1      44.722 127.272  23.030  1.00  0.00     0.007 C 
ATOM     26  C   UNL     1      46.458 126.169  22.359  1.00  0.00     0.007 C 
ATOM     27  C   UNL     1      45.178 125.815  23.113  1.00  0.00    -0.014 C 
ATOM     28  C   UNL     1      44.268 124.844  22.357  1.00  0.00     0.007 C 
ENDBRANCH  23  24
ENDBRANCH   1  23
TORSDOF 6
ENDMDL
MODEL 9
REMARK VINA RESULT:      -3.0      2.468      6.716
REMARK SMILES C=C[C@@H]1CN[C@H](c2ccc3nc[nH+]n3c2)/[N+](=C(\O)C[C@H]2C[C@@H](C)C2)C1
REMARK SMILES IDX 17 1 18 2 16 4 25 5 6 6 3 7 5 8 4 9 7 11 8 12 15 13 9 14
REMARK SMILES IDX 14 15 10 16 13 17 11 18 12 19 2 21 1 22 19 23 20 24 24 25
REMARK SMILES IDX 21 26 22 27 23 28
REMARK H PARENT 18 3 5 10 13 20
ROOT
ATOM      1  C   UNL     1      43.610 131.540  20.172  1.00  0.00     0.335 C 
ENDROOT
BRANCH   1   2
ATOM      2  O   UNL     1      42.393 130.914  20.464  1.00  0.00    -0.463 OA
ATOM      3  H   UNL     1      41.625 131.409  20.899  1.00  0.00     0.299 HD
ENDBRANCH   1   2
BRANCH   1   4
ATOM      4  N   UNL     1      44.507 131.686  21.130  1.00  0.00    -0.181 N 
ATOM      5  C   UNL     1      45.932 131.985  20.881  1.00  0.00     0.365 C 
ATOM      6  C   UNL     1      44.084 131.571  22.549  1.00  0.00     0.370 C 
ATOM      7  C   UNL     1      46.350 133.239  21.670  1.00  0.00     0.091 C 
ATOM      8  N   UNL     1      45.166 131.955  23.477  1.00  0.00    -0.254 NA
ATOM      9  C   UNL     1      45.740 133.252  23.100  1.00  0.00     0.102 C 
ATOM     10  H   UNL     1      45.927 131.235  23.473  1.00  0.00     0.129 HD
BRANCH   6  11
ATOM     11  C   UNL     1      43.621 130.165  22.875  1.00  0.00     0.056 A 
ATOM     12  C   UNL     1      44.507 129.061  22.785  1.00  0.00     0.020 A 
ATOM     13  C   UNL     1      42.302 129.938  23.320  1.00  0.00     0.150 A 
ATOM     14  C   UNL     1      44.074 127.765  23.110  1.00  0.00     0.080 A 
ATOM     15  N   UNL     1      41.938 128.667  23.621  1.00  0.00    -0.151 N 
ATOM     16  C   UNL     1      42.757 127.615  23.529  1.00  0.00     0.282 A 
ATOM     17  N   UNL     1      40.769 128.237  24.045  1.00  0.00    -0.166 N 
ATOM     18  N   UNL     1      42.150 126.465  23.889  1.00  0.00    -0.025 NA
ATOM     19  C   UNL     1      40.901 126.902  24.205  1.00  0.00     0.472 A 
ATOM     20  H   UNL     1      39.922 128.823  24.216  1.00  0.00     0.340 HD
ENDBRANCH   6  11
BRANCH   7  21
ATOM     21  C   UNL     1      47.858 133.365  21.705  1.00  0.00    -0.024 C 
ATOM     22  C   UNL     1      48.455 134.431  22.244  1.00  0.00     0.004 C 
ENDBRANCH   7  21
ENDBRANCH   1   4
BRANCH   1  23
ATOM     23  C   UNL     1      43.813 132.033  18.755  1.00  0.00     0.156 C 
BRANCH  23  24
ATOM     24  C   UNL     1      44.975 131.290  18.068  1.00  0.00     0.003 C 
ATOM     25  C   UNL     1      44.508 130.226  17.075  1.00  0.00     0.007 C 
ATOM     26  C   UNL     1      45.631 132.069  16.925  1.00  0.00     0.007 C 
ATOM     27  C   UNL     1      45.171 131.000  15.936  1.00  0.00    -0.014 C 
ATOM     28  C   UNL     1      44.182 131.517  14.887  1.00  0.00     0.007 C 
ENDBRANCH  23  24
ENDBRANCH   1  23
TORSDOF 6
ENDMDL


