REMARK SMILES C=C1CC[C@@H]2CC(c3[nH+]c[nH+]c4c3COC4)=N[C@@H]2C1
REMARK SMILES IDX 1 1 2 2 3 3 4 4 5 5 6 6 7 7 17 8 18 9 19 10 8 11 9 12 13 13
REMARK SMILES IDX 10 14 12 15 14 16 11 17 16 18 15 19
REMARK H PARENT 9 20 11 21
ROOT
ATOM      1  C   UNL     1       0.654   0.191  -3.956  1.00  0.00     0.008 C 
ATOM      2  C   UNL     1       1.245  -0.458  -2.943  1.00  0.00    -0.075 C 
ATOM      3  C   UNL     1       1.023  -1.941  -2.769  1.00  0.00     0.031 C 
ATOM      4  C   UNL     1       1.908  -2.515  -1.653  1.00  0.00     0.010 C 
ATOM      5  C   UNL     1       1.806  -1.708  -0.337  1.00  0.00     0.020 C 
ATOM      6  C   UNL     1       0.468  -1.931   0.387  1.00  0.00     0.068 C 
ATOM      7  C   UNL     1      -0.154  -0.580   0.396  1.00  0.00     0.108 C 
ATOM      8  N   UNL     1       0.603   0.341  -0.094  1.00  0.00    -0.279 NA
ATOM      9  C   UNL     1       1.887  -0.171  -0.537  1.00  0.00     0.113 C 
ATOM     10  C   UNL     1       2.157   0.272  -1.985  1.00  0.00     0.058 C 
ENDROOT
BRANCH   7  11
ATOM     11  C   UNL     1      -1.520  -0.299   0.906  1.00  0.00     0.241 A 
ATOM     12  N   UNL     1      -2.238  -1.275   1.549  1.00  0.00    -0.153 N 
ATOM     13  C   UNL     1      -2.133   0.954   0.745  1.00  0.00     0.121 A 
ATOM     14  C   UNL     1      -3.502  -1.037   2.014  1.00  0.00     0.630 A 
ATOM     15  C   UNL     1      -3.377   1.158   1.209  1.00  0.00     0.222 A 
ATOM     16  C   UNL     1      -1.678   2.201   0.095  1.00  0.00     0.210 C 
ATOM     17  N   UNL     1      -4.079   0.187   1.843  1.00  0.00    -0.156 N 
ATOM     18  C   UNL     1      -3.810   2.528   0.902  1.00  0.00     0.269 C 
ATOM     19  O   UNL     1      -2.736   3.147   0.205  1.00  0.00    -0.365 OA
ATOM     20  H   UNL     1      -1.832  -2.225   1.700  1.00  0.00     0.460 HD
ATOM     21  H   UNL     1      -5.046   0.370   2.191  1.00  0.00     0.460 HD
ENDBRANCH   7  11
TORSDOF 1


