MODEL 1
REMARK VINA RESULT:     -10.4      0.000      0.000
REMARK SMILES C#Cc1c[nH+]cc([NH2+]c2cc(C)cc(-n3nc4cc(F)ccc4[nH+]3)c2[O-])c1
REMARK SMILES IDX 8 1 7 4 3 5 4 6 27 7 5 8 6 9 2 11 1 12 9 13 10 14 25 15
REMARK SMILES IDX 11 16 14 17 13 18 26 19 12 20 15 21 16 22 24 23 17 24 23 25
REMARK SMILES IDX 18 26 22 27 19 28 21 29 20 31
REMARK H PARENT 8 2 8 3 5 10 24 30
ROOT
ATOM      1  N   UNL     1      45.013 130.613  22.436  1.00  0.00    -0.277 N 
ATOM      2  H   UNL     1      45.841 129.990  22.286  1.00  0.00     0.358 HD
ATOM      3  H   UNL     1      45.347 131.405  23.035  1.00  0.00     0.358 HD
ENDROOT
BRANCH   1   4
ATOM      4  C   UNL     1      43.963 129.898  23.119  1.00  0.00     0.200 A 
ATOM      5  C   UNL     1      42.927 127.816  23.817  1.00  0.00     0.094 A 
ATOM      6  C   UNL     1      41.885 128.549  24.393  1.00  0.00     0.324 A 
ATOM      7  C   UNL     1      43.968 128.494  23.177  1.00  0.00     0.098 A 
ATOM      8  N   UNL     1      41.890 129.908  24.329  1.00  0.00    -0.212 N 
ATOM      9  C   UNL     1      42.892 130.589  23.710  1.00  0.00     0.375 A 
ATOM     10  H   UNL     1      41.103 130.441  24.764  1.00  0.00     0.453 HD
BRANCH   5  11
ATOM     11  C   UNL     1      42.926 126.378  23.880  1.00  0.00    -0.064 C 
ATOM     12  C   UNL     1      42.926 125.173  23.932  1.00  0.00     0.010 C 
ENDBRANCH   5  11
ENDBRANCH   1   4
BRANCH   1  13
ATOM     13  C   UNL     1      44.522 131.118  21.176  1.00  0.00     0.129 A 
ATOM     14  C   UNL     1      43.318 131.843  21.135  1.00  0.00     0.071 A 
ATOM     15  C   UNL     1      45.207 130.854  19.970  1.00  0.00    -0.013 A 
ATOM     16  C   UNL     1      42.811 132.321  19.921  1.00  0.00    -0.043 A 
ATOM     17  C   UNL     1      44.693 131.315  18.741  1.00  0.00     0.126 A 
ATOM     18  C   UNL     1      43.491 132.042  18.729  1.00  0.00     0.037 A 
ATOM     19  O   UNL     1      46.388 130.119  19.996  1.00  0.00    -0.867 OA
ATOM     20  C   UNL     1      41.508 133.065  19.890  1.00  0.00     0.044 C 
BRANCH  17  21
ATOM     21  N   UNL     1      45.387 131.053  17.504  1.00  0.00    -0.013 N 
ATOM     22  N   UNL     1      45.515 131.949  16.525  1.00  0.00     0.054 NA
ATOM     23  N   UNL     1      45.966 129.893  17.199  1.00  0.00    -0.161 N 
ATOM     24  C   UNL     1      46.209 131.317  15.562  1.00  0.00     0.252 A 
ATOM     25  C   UNL     1      46.489 130.052  15.976  1.00  0.00     0.198 A 
ATOM     26  C   UNL     1      46.623 131.799  14.324  1.00  0.00     0.103 A 
ATOM     27  C   UNL     1      47.209 129.152  15.196  1.00  0.00     0.061 A 
ATOM     28  C   UNL     1      47.355 130.919  13.499  1.00  0.00     0.128 A 
ATOM     29  C   UNL     1      47.647 129.602  13.934  1.00  0.00     0.044 A 
ATOM     30  H   UNL     1      46.026 129.047  17.807  1.00  0.00     0.340 HD
ATOM     31  F   UNL     1      47.783 131.336  12.282  1.00  0.00    -0.207 F 
ENDBRANCH  17  21
ENDBRANCH   1  13
TORSDOF 4
ENDMDL
MODEL 2
REMARK VINA RESULT:      -9.9      0.731      1.339
REMARK SMILES C#Cc1c[nH+]cc([NH2+]c2cc(C)cc(-n3nc4cc(F)ccc4[nH+]3)c2[O-])c1
REMARK SMILES IDX 8 1 7 4 3 5 4 6 27 7 5 8 6 9 2 11 1 12 9 13 10 14 25 15
REMARK SMILES IDX 11 16 14 17 13 18 26 19 12 20 15 21 16 22 24 23 17 24 23 25
REMARK SMILES IDX 18 26 22 27 19 28 21 29 20 31
REMARK H PARENT 8 2 8 3 5 10 24 30
ROOT
ATOM      1  N   UNL     1      45.027 130.883  22.174  1.00  0.00    -0.277 N 
ATOM      2  H   UNL     1      45.988 130.483  22.072  1.00  0.00     0.358 HD
ATOM      3  H   UNL     1      45.122 131.724  22.790  1.00  0.00     0.358 HD
ENDROOT
BRANCH   1   4
ATOM      4  C   UNL     1      44.147 129.924  22.796  1.00  0.00     0.200 A 
ATOM      5  C   UNL     1      43.628 127.647  23.463  1.00  0.00     0.094 A 
ATOM      6  C   UNL     1      42.394 128.091  23.949  1.00  0.00     0.324 A 
ATOM      7  C   UNL     1      44.505 128.569  22.885  1.00  0.00     0.098 A 
ATOM      8  N   UNL     1      42.056 129.405  23.857  1.00  0.00    -0.212 N 
ATOM      9  C   UNL     1      42.894 130.319  23.296  1.00  0.00     0.375 A 
ATOM     10  H   UNL     1      41.130 129.720  24.223  1.00  0.00     0.453 HD
BRANCH   5  11
ATOM     11  C   UNL     1      43.990 126.258  23.557  1.00  0.00    -0.064 C 
ATOM     12  C   UNL     1      44.295 125.094  23.635  1.00  0.00     0.010 C 
ENDBRANCH   5  11
ENDBRANCH   1   4
BRANCH   1  13
ATOM     13  C   UNL     1      44.498 131.269  20.887  1.00  0.00     0.129 A 
ATOM     14  C   UNL     1      43.218 131.842  20.801  1.00  0.00     0.071 A 
ATOM     15  C   UNL     1      45.228 131.035  19.701  1.00  0.00    -0.013 A 
ATOM     16  C   UNL     1      42.675 132.201  19.561  1.00  0.00    -0.043 A 
ATOM     17  C   UNL     1      44.682 131.376  18.447  1.00  0.00     0.126 A 
ATOM     18  C   UNL     1      43.402 131.953  18.390  1.00  0.00     0.037 A 
ATOM     19  O   UNL     1      46.488 130.449  19.773  1.00  0.00    -0.867 OA
ATOM     20  C   UNL     1      41.294 132.782  19.484  1.00  0.00     0.044 C 
BRANCH  17  21
ATOM     21  N   UNL     1      45.421 131.145  17.231  1.00  0.00    -0.013 N 
ATOM     22  N   UNL     1      46.018 129.990  16.937  1.00  0.00     0.054 NA
ATOM     23  N   UNL     1      45.598 132.057  16.275  1.00  0.00    -0.161 N 
ATOM     24  C   UNL     1      46.595 130.190  15.739  1.00  0.00     0.252 A 
ATOM     25  C   UNL     1      46.336 131.461  15.330  1.00  0.00     0.198 A 
ATOM     26  C   UNL     1      47.341 129.302  14.969  1.00  0.00     0.103 A 
ATOM     27  C   UNL     1      46.794 131.963  14.116  1.00  0.00     0.061 A 
ATOM     28  C   UNL     1      47.828 129.771  13.731  1.00  0.00     0.128 A 
ATOM     29  C   UNL     1      47.555 131.095  13.306  1.00  0.00     0.044 A 
ATOM     30  H   UNL     1      45.210 133.026  16.258  1.00  0.00     0.340 HD
ATOM     31  F   UNL     1      48.560 128.948  12.941  1.00  0.00    -0.207 F 
ENDBRANCH  17  21
ENDBRANCH   1  13
TORSDOF 4
ENDMDL
MODEL 3
REMARK VINA RESULT:      -9.6      1.199      1.384
REMARK SMILES C#Cc1c[nH+]cc([NH2+]c2cc(C)cc(-n3nc4cc(F)ccc4[nH+]3)c2[O-])c1
REMARK SMILES IDX 8 1 7 4 3 5 4 6 27 7 5 8 6 9 2 11 1 12 9 13 10 14 25 15
REMARK SMILES IDX 11 16 14 17 13 18 26 19 12 20 15 21 16 22 24 23 17 24 23 25
REMARK SMILES IDX 18 26 22 27 19 28 21 29 20 31
REMARK H PARENT 8 2 8 3 5 10 24 30
ROOT
ATOM      1  N   UNL     1      44.549 130.186  22.999  1.00  0.00    -0.277 N 
ATOM      2  H   UNL     1      45.592 130.102  23.006  1.00  0.00     0.358 HD
ATOM      3  H   UNL     1      44.294 130.747  23.845  1.00  0.00     0.358 HD
ENDROOT
BRANCH   1   4
ATOM      4  C   UNL     1      43.939 128.881  23.079  1.00  0.00     0.200 A 
ATOM      5  C   UNL     1      44.087 126.462  22.930  1.00  0.00     0.094 A 
ATOM      6  C   UNL     1      42.713 126.382  23.182  1.00  0.00     0.324 A 
ATOM      7  C   UNL     1      44.699 127.717  22.878  1.00  0.00     0.098 A 
ATOM      8  N   UNL     1      41.987 127.515  23.372  1.00  0.00    -0.212 N 
ATOM      9  C   UNL     1      42.562 128.747  23.325  1.00  0.00     0.375 A 
ATOM     10  H   UNL     1      40.961 127.438  23.558  1.00  0.00     0.453 HD
BRANCH   5  11
ATOM     11  C   UNL     1      44.860 125.266  22.725  1.00  0.00    -0.064 C 
ATOM     12  C   UNL     1      45.509 124.264  22.555  1.00  0.00     0.010 C 
ENDBRANCH   5  11
ENDBRANCH   1   4
BRANCH   1  13
ATOM     13  C   UNL     1      44.102 130.862  21.804  1.00  0.00     0.129 A 
ATOM     14  C   UNL     1      42.977 131.703  21.857  1.00  0.00     0.071 A 
ATOM     15  C   UNL     1      44.748 130.656  20.566  1.00  0.00    -0.013 A 
ATOM     16  C   UNL     1      42.511 132.349  20.706  1.00  0.00    -0.043 A 
ATOM     17  C   UNL     1      44.274 131.287  19.398  1.00  0.00     0.126 A 
ATOM     18  C   UNL     1      43.151 132.127  19.480  1.00  0.00     0.037 A 
ATOM     19  O   UNL     1      45.850 129.808  20.498  1.00  0.00    -0.867 OA
ATOM     20  C   UNL     1      41.289 133.218  20.772  1.00  0.00     0.044 C 
BRANCH  17  21
ATOM     21  N   UNL     1      44.930 131.086  18.130  1.00  0.00    -0.013 N 
ATOM     22  N   UNL     1      45.162 132.063  17.254  1.00  0.00     0.054 NA
ATOM     23  N   UNL     1      45.366 129.906  17.689  1.00  0.00    -0.161 N 
ATOM     24  C   UNL     1      45.774 131.466  16.217  1.00  0.00     0.252 A 
ATOM     25  C   UNL     1      45.902 130.138  16.484  1.00  0.00     0.198 A 
ATOM     26  C   UNL     1      46.240 132.031  15.033  1.00  0.00     0.103 A 
ATOM     27  C   UNL     1      46.508 129.253  15.598  1.00  0.00     0.061 A 
ATOM     28  C   UNL     1      46.860 131.168  14.105  1.00  0.00     0.128 A 
ATOM     29  C   UNL     1      46.994 129.786  14.387  1.00  0.00     0.044 A 
ATOM     30  H   UNL     1      45.326 128.996  18.199  1.00  0.00     0.340 HD
ATOM     31  F   UNL     1      47.333 131.666  12.936  1.00  0.00    -0.207 F 
ENDBRANCH  17  21
ENDBRANCH   1  13
TORSDOF 4
ENDMDL
MODEL 4
REMARK VINA RESULT:      -9.3      1.466      2.102
REMARK SMILES C#Cc1c[nH+]cc([NH2+]c2cc(C)cc(-n3nc4cc(F)ccc4[nH+]3)c2[O-])c1
REMARK SMILES IDX 8 1 7 4 3 5 4 6 27 7 5 8 6 9 2 11 1 12 9 13 10 14 25 15
REMARK SMILES IDX 11 16 14 17 13 18 26 19 12 20 15 21 16 22 24 23 17 24 23 25
REMARK SMILES IDX 18 26 22 27 19 28 21 29 20 31
REMARK H PARENT 8 2 8 3 5 10 24 30
ROOT
ATOM      1  N   UNL     1      44.652 130.319  23.128  1.00  0.00    -0.277 N 
ATOM      2  H   UNL     1      45.695 130.260  23.055  1.00  0.00     0.358 HD
ATOM      3  H   UNL     1      44.450 130.874  23.992  1.00  0.00     0.358 HD
ENDROOT
BRANCH   1   4
ATOM      4  C   UNL     1      44.083 128.999  23.255  1.00  0.00     0.200 A 
ATOM      5  C   UNL     1      42.169 127.541  23.582  1.00  0.00     0.094 A 
ATOM      6  C   UNL     1      43.029 126.439  23.560  1.00  0.00     0.324 A 
ATOM      7  C   UNL     1      42.701 128.825  23.430  1.00  0.00     0.098 A 
ATOM      8  N   UNL     1      44.367 126.619  23.393  1.00  0.00    -0.212 N 
ATOM      9  C   UNL     1      44.906 127.860  23.244  1.00  0.00     0.375 A 
ATOM     10  H   UNL     1      44.996 125.785  23.380  1.00  0.00     0.453 HD
BRANCH   5  11
ATOM     11  C   UNL     1      40.753 127.357  23.761  1.00  0.00    -0.064 C 
ATOM     12  C   UNL     1      39.567 127.203  23.910  1.00  0.00     0.010 C 
ENDBRANCH   5  11
ENDBRANCH   1   4
BRANCH   1  13
ATOM     13  C   UNL     1      44.098 130.982  21.972  1.00  0.00     0.129 A 
ATOM     14  C   UNL     1      42.983 131.825  22.118  1.00  0.00     0.071 A 
ATOM     15  C   UNL     1      44.627 130.760  20.682  1.00  0.00    -0.013 A 
ATOM     16  C   UNL     1      42.413 132.459  21.007  1.00  0.00    -0.043 A 
ATOM     17  C   UNL     1      44.048 131.379  19.556  1.00  0.00     0.126 A 
ATOM     18  C   UNL     1      42.938 132.221  19.731  1.00  0.00     0.037 A 
ATOM     19  O   UNL     1      45.718 129.910  20.523  1.00  0.00    -0.867 OA
ATOM     20  C   UNL     1      41.203 133.330  21.176  1.00  0.00     0.044 C 
BRANCH  17  21
ATOM     21  N   UNL     1      44.585 131.161  18.235  1.00  0.00    -0.013 N 
ATOM     22  N   UNL     1      45.670 130.426  17.990  1.00  0.00     0.054 NA
ATOM     23  N   UNL     1      44.066 131.674  17.120  1.00  0.00    -0.161 N 
ATOM     24  C   UNL     1      45.836 130.482  16.656  1.00  0.00     0.252 A 
ATOM     25  C   UNL     1      44.849 131.249  16.120  1.00  0.00     0.198 A 
ATOM     26  C   UNL     1      46.816 129.882  15.872  1.00  0.00     0.103 A 
ATOM     27  C   UNL     1      44.747 131.486  14.753  1.00  0.00     0.061 A 
ATOM     28  C   UNL     1      46.752 130.099  14.480  1.00  0.00     0.128 A 
ATOM     29  C   UNL     1      45.721 130.896  13.923  1.00  0.00     0.044 A 
ATOM     30  H   UNL     1      43.205 132.260  17.045  1.00  0.00     0.340 HD
ATOM     31  F   UNL     1      47.682 129.538  13.668  1.00  0.00    -0.207 F 
ENDBRANCH  17  21
ENDBRANCH   1  13
TORSDOF 4
ENDMDL
MODEL 5
REMARK VINA RESULT:      -8.5      1.000      1.522
REMARK SMILES C#Cc1c[nH+]cc([NH2+]c2cc(C)cc(-n3nc4cc(F)ccc4[nH+]3)c2[O-])c1
REMARK SMILES IDX 8 1 7 4 3 5 4 6 27 7 5 8 6 9 2 11 1 12 9 13 10 14 25 15
REMARK SMILES IDX 11 16 14 17 13 18 26 19 12 20 15 21 16 22 24 23 17 24 23 25
REMARK SMILES IDX 18 26 22 27 19 28 21 29 20 31
REMARK H PARENT 8 2 8 3 5 10 24 30
ROOT
ATOM      1  N   UNL     1      44.497 131.221  22.310  1.00  0.00    -0.277 N 
ATOM      2  H   UNL     1      45.543 131.241  22.349  1.00  0.00     0.358 HD
ATOM      3  H   UNL     1      44.166 132.003  22.923  1.00  0.00     0.358 HD
ENDROOT
BRANCH   1   4
ATOM      4  C   UNL     1      44.000 129.964  22.814  1.00  0.00     0.200 A 
ATOM      5  C   UNL     1      42.217 128.626  23.777  1.00  0.00     0.094 A 
ATOM      6  C   UNL     1      43.093 127.538  23.840  1.00  0.00     0.324 A 
ATOM      7  C   UNL     1      42.674 129.843  23.263  1.00  0.00     0.098 A 
ATOM      8  N   UNL     1      44.375 127.668  23.404  1.00  0.00    -0.212 N 
ATOM      9  C   UNL     1      44.842 128.843  22.902  1.00  0.00     0.375 A 
ATOM     10  H   UNL     1      45.018 126.846  23.459  1.00  0.00     0.453 HD
BRANCH   5  11
ATOM     11  C   UNL     1      40.860 128.495  24.238  1.00  0.00    -0.064 C 
ATOM     12  C   UNL     1      39.723 128.385  24.625  1.00  0.00     0.010 C 
ENDBRANCH   5  11
ENDBRANCH   1   4
BRANCH   1  13
ATOM     13  C   UNL     1      44.036 131.423  20.957  1.00  0.00     0.129 A 
ATOM     14  C   UNL     1      42.719 131.856  20.725  1.00  0.00     0.071 A 
ATOM     15  C   UNL     1      44.872 131.145  19.854  1.00  0.00    -0.013 A 
ATOM     16  C   UNL     1      42.243 132.035  19.421  1.00  0.00    -0.043 A 
ATOM     17  C   UNL     1      44.394 131.303  18.537  1.00  0.00     0.126 A 
ATOM     18  C   UNL     1      43.076 131.743  18.334  1.00  0.00     0.037 A 
ATOM     19  O   UNL     1      46.171 130.694  20.072  1.00  0.00    -0.867 OA
ATOM     20  C   UNL     1      40.824 132.467  19.190  1.00  0.00     0.044 C 
BRANCH  17  21
ATOM     21  N   UNL     1      45.242 131.026  17.405  1.00  0.00    -0.013 N 
ATOM     22  N   UNL     1      45.467 131.895  16.418  1.00  0.00     0.054 NA
ATOM     23  N   UNL     1      45.884 129.874  17.211  1.00  0.00    -0.161 N 
ATOM     24  C   UNL     1      46.290 131.255  15.569  1.00  0.00     0.252 A 
ATOM     25  C   UNL     1      46.549 130.012  16.057  1.00  0.00     0.198 A 
ATOM     26  C   UNL     1      46.841 131.712  14.376  1.00  0.00     0.103 A 
ATOM     27  C   UNL     1      47.383 129.111  15.401  1.00  0.00     0.061 A 
ATOM     28  C   UNL     1      47.691 130.829  13.677  1.00  0.00     0.128 A 
ATOM     29  C   UNL     1      47.961 129.535  14.188  1.00  0.00     0.044 A 
ATOM     30  H   UNL     1      45.890 129.049  17.850  1.00  0.00     0.340 HD
ATOM     31  F   UNL     1      48.255 131.223  12.508  1.00  0.00    -0.207 F 
ENDBRANCH  17  21
ENDBRANCH   1  13
TORSDOF 4
ENDMDL
MODEL 6
REMARK VINA RESULT:      -7.6      1.068      1.140
REMARK SMILES C#Cc1c[nH+]cc([NH2+]c2cc(C)cc(-n3nc4cc(F)ccc4[nH+]3)c2[O-])c1
REMARK SMILES IDX 8 1 7 4 3 5 4 6 27 7 5 8 6 9 2 11 1 12 9 13 10 14 25 15
REMARK SMILES IDX 11 16 14 17 13 18 26 19 12 20 15 21 16 22 24 23 17 24 23 25
REMARK SMILES IDX 18 26 22 27 19 28 21 29 20 31
REMARK H PARENT 8 2 8 3 5 10 24 30
ROOT
ATOM      1  N   UNL     1      44.750 132.191  21.923  1.00  0.00    -0.277 N 
ATOM      2  H   UNL     1      45.794 132.138  21.875  1.00  0.00     0.358 HD
ATOM      3  H   UNL     1      44.521 133.135  22.313  1.00  0.00     0.358 HD
ENDROOT
BRANCH   1   4
ATOM      4  C   UNL     1      44.235 131.166  22.799  1.00  0.00     0.200 A 
ATOM      5  C   UNL     1      44.073 128.838  23.467  1.00  0.00     0.094 A 
ATOM      6  C   UNL     1      43.172 129.208  24.470  1.00  0.00     0.324 A 
ATOM      7  C   UNL     1      44.605 129.822  22.629  1.00  0.00     0.098 A 
ATOM      8  N   UNL     1      42.820 130.513  24.624  1.00  0.00    -0.212 N 
ATOM      9  C   UNL     1      43.323 131.487  23.819  1.00  0.00     0.375 A 
ATOM     10  H   UNL     1      42.144 130.773  25.377  1.00  0.00     0.453 HD
BRANCH   5  11
ATOM     11  C   UNL     1      44.449 127.458  23.299  1.00  0.00    -0.064 C 
ATOM     12  C   UNL     1      44.762 126.303  23.158  1.00  0.00     0.010 C 
ENDBRANCH   5  11
ENDBRANCH   1   4
BRANCH   1  13
ATOM     13  C   UNL     1      44.173 132.046  20.607  1.00  0.00     0.129 A 
ATOM     14  C   UNL     1      42.793 132.239  20.425  1.00  0.00     0.071 A 
ATOM     15  C   UNL     1      44.966 131.663  19.503  1.00  0.00    -0.013 A 
ATOM     16  C   UNL     1      42.208 132.079  19.163  1.00  0.00    -0.043 A 
ATOM     17  C   UNL     1      44.382 131.482  18.234  1.00  0.00     0.126 A 
ATOM     18  C   UNL     1      43.001 131.687  18.078  1.00  0.00     0.037 A 
ATOM     19  O   UNL     1      46.330 131.448  19.678  1.00  0.00    -0.867 OA
ATOM     20  C   UNL     1      40.728 132.258  18.991  1.00  0.00     0.044 C 
BRANCH  17  21
ATOM     21  N   UNL     1      45.184 131.095  17.099  1.00  0.00    -0.013 N 
ATOM     22  N   UNL     1      45.156 131.725  15.925  1.00  0.00     0.054 NA
ATOM     23  N   UNL     1      46.030 130.066  17.093  1.00  0.00    -0.161 N 
ATOM     24  C   UNL     1      46.028 131.058  15.149  1.00  0.00     0.252 A 
ATOM     25  C   UNL     1      46.568 130.037  15.867  1.00  0.00     0.198 A 
ATOM     26  C   UNL     1      46.387 131.304  13.827  1.00  0.00     0.103 A 
ATOM     27  C   UNL     1      47.516 129.169  15.336  1.00  0.00     0.061 A 
ATOM     28  C   UNL     1      47.345 130.446  13.247  1.00  0.00     0.128 A 
ATOM     29  C   UNL     1      47.907 129.384  13.999  1.00  0.00     0.044 A 
ATOM     30  H   UNL     1      46.249 129.434  17.896  1.00  0.00     0.340 HD
ATOM     31  F   UNL     1      47.731 130.640  11.962  1.00  0.00    -0.207 F 
ENDBRANCH  17  21
ENDBRANCH   1  13
TORSDOF 4
ENDMDL


