REMARK SMILES C=Cc1ccc(-c2cnc3oc[nH+]c3c2)c(N=[N+]=[N-])c1F
REMARK SMILES IDX 3 1 4 2 5 3 6 4 16 5 20 6 21 7 2 8 1 9 17 10 18 11 19 12
REMARK SMILES IDX 7 13 8 14 15 15 9 16 14 17 10 18 13 19 11 20 12 21
REMARK H PARENT 13 22
ROOT
ATOM      1  C   UNL     1      -2.618  -0.852  -1.604  1.00  0.00     0.010 A 
ATOM      2  C   UNL     1      -1.682   0.158  -1.885  1.00  0.00     0.012 A 
ATOM      3  C   UNL     1      -0.606   0.385  -1.030  1.00  0.00     0.010 A 
ATOM      4  C   UNL     1      -0.426  -0.396   0.121  1.00  0.00    -0.004 A 
ATOM      5  C   UNL     1      -1.355  -1.417   0.423  1.00  0.00     0.082 A 
ATOM      6  C   UNL     1      -2.444  -1.644  -0.452  1.00  0.00     0.140 A 
ATOM      7  F   UNL     1      -3.350  -2.618  -0.180  1.00  0.00    -0.206 F 
ENDROOT
BRANCH   1   8
ATOM      8  C   UNL     1      -3.766  -1.127  -2.506  1.00  0.00     0.003 C 
ATOM      9  C   UNL     1      -4.278  -0.233  -3.352  1.00  0.00     0.009 C 
ENDBRANCH   1   8
BRANCH   5  10
ATOM     10  N   UNL     1      -1.187  -2.173   1.636  1.00  0.00    -0.057 NA
BRANCH  10  11
ATOM     11  N   UNL     1      -1.945  -3.079   1.982  1.00  0.00     0.005 N 
ATOM     12  N   UNL     1      -2.700  -3.986   2.334  1.00  0.00    -0.003 NA
ENDBRANCH  10  11
ENDBRANCH   5  10
BRANCH   4  13
ATOM     13  C   UNL     1       0.742  -0.129   0.994  1.00  0.00     0.007 A 
ATOM     14  C   UNL     1       1.635  -1.178   1.355  1.00  0.00     0.124 A 
ATOM     15  C   UNL     1       0.999   1.183   1.456  1.00  0.00     0.095 A 
ATOM     16  N   UNL     1       2.721  -0.930   2.150  1.00  0.00    -0.215 NA
ATOM     17  C   UNL     1       2.116   1.366   2.260  1.00  0.00     0.270 A 
ATOM     18  C   UNL     1       2.933   0.335   2.584  1.00  0.00     0.297 A 
ATOM     19  N   UNL     1       2.582   2.486   2.830  1.00  0.00    -0.175 N 
ATOM     20  O   UNL     1       3.906   0.765   3.344  1.00  0.00    -0.384 OA
ATOM     21  C   UNL     1       3.691   2.066   3.492  1.00  0.00     0.522 A 
ATOM     22  H   UNL     1       2.188   3.451   2.780  1.00  0.00     0.457 HD
ENDBRANCH   4  13
TORSDOF 4


