REMARK SMILES [O-]/C(=C\Cc1c(F)cc2ncccc2c1F)c1ccccc1
REMARK SMILES IDX 3 1 2 2 1 3 17 4 18 5 22 6 19 7 21 8 20 9 4 10 5 11 6 12
REMARK SMILES IDX 15 13 8 14 14 15 9 16 13 17 10 18 12 19 11 20 7 21 16 22
REMARK H PARENT
ROOT
ATOM      1  C   UNL     1       0.136  -2.066   0.115  1.00  0.00    -0.030 C 
ENDROOT
BRANCH   1   2
ATOM      2  C   UNL     1      -0.984  -1.697  -0.528  1.00  0.00    -0.105 C 
ATOM      3  O   UNL     1      -1.788  -0.697   0.014  1.00  0.00    -0.872 OA
BRANCH   2   4
ATOM      4  C   UNL     1      -1.411  -2.341  -1.796  1.00  0.00    -0.034 A 
ATOM      5  C   UNL     1      -0.478  -2.865  -2.715  1.00  0.00     0.007 A 
ATOM      6  C   UNL     1      -2.780  -2.398  -2.115  1.00  0.00     0.007 A 
ATOM      7  C   UNL     1      -0.912  -3.453  -3.907  1.00  0.00     0.001 A 
ATOM      8  C   UNL     1      -3.208  -2.987  -3.308  1.00  0.00     0.001 A 
ATOM      9  C   UNL     1      -2.275  -3.516  -4.202  1.00  0.00     0.000 A 
ENDBRANCH   2   4
ENDBRANCH   1   2
BRANCH   1  10
ATOM     10  C   UNL     1       0.594  -1.408   1.387  1.00  0.00     0.068 C 
BRANCH  10  11
ATOM     11  C   UNL     1       1.160  -0.035   1.112  1.00  0.00     0.028 A 
ATOM     12  C   UNL     1       2.391   0.092   0.439  1.00  0.00     0.131 A 
ATOM     13  C   UNL     1       0.464   1.125   1.507  1.00  0.00     0.139 A 
ATOM     14  C   UNL     1       2.919   1.355   0.162  1.00  0.00     0.068 A 
ATOM     15  C   UNL     1       0.996   2.396   1.226  1.00  0.00     0.036 A 
ATOM     16  C   UNL     1       2.231   2.506   0.550  1.00  0.00     0.076 A 
ATOM     17  C   UNL     1       0.327   3.571   1.603  1.00  0.00     0.015 A 
ATOM     18  N   UNL     1       2.750   3.734   0.276  1.00  0.00    -0.256 NA
ATOM     19  C   UNL     1       0.887   4.816   1.307  1.00  0.00     0.021 A 
ATOM     20  C   UNL     1       2.110   4.878   0.637  1.00  0.00     0.112 A 
ATOM     21  F   UNL     1       3.079  -1.011   0.049  1.00  0.00    -0.206 F 
ATOM     22  F   UNL     1      -0.723   1.018   2.161  1.00  0.00    -0.206 F 
ENDBRANCH  10  11
ENDBRANCH   1  10
TORSDOF 4


