REMARK SMILES O=Cc1cc(F)c(F)cc1[NH2+]c1cc2ccccc2[nH]1
REMARK SMILES IDX 3 1 4 2 5 3 6 4 7 5 8 6 9 7 10 8 2 9 1 10 11 11 12 14 13 15
REMARK SMILES IDX 20 16 14 17 19 18 15 19 18 20 16 21 17 22
REMARK H PARENT 11 12 11 13 20 23
ROOT
ATOM      1  C   UNL     1      -0.244   2.474   0.364  1.00  0.00     0.079 A 
ATOM      2  C   UNL     1      -0.044   3.615  -0.435  1.00  0.00     0.060 A 
ATOM      3  C   UNL     1       1.237   4.011  -0.819  1.00  0.00     0.160 A 
ATOM      4  F   UNL     1       1.401   5.116  -1.589  1.00  0.00    -0.204 F 
ATOM      5  C   UNL     1       2.346   3.272  -0.416  1.00  0.00     0.164 A 
ATOM      6  F   UNL     1       3.591   3.653  -0.794  1.00  0.00    -0.204 F 
ATOM      7  C   UNL     1       2.177   2.135   0.372  1.00  0.00     0.111 A 
ATOM      8  C   UNL     1       0.894   1.714   0.780  1.00  0.00     0.149 A 
ENDROOT
BRANCH   1   9
ATOM      9  C   UNL     1      -1.651   2.145   0.706  1.00  0.00     0.266 C 
ATOM     10  O   UNL     1      -1.961   1.233   1.514  1.00  0.00    -0.298 OA
ENDBRANCH   1   9
BRANCH   8  11
ATOM     11  N   UNL     1       0.783   0.504   1.566  1.00  0.00    -0.266 N 
ATOM     12  H   UNL     1       0.155   0.657   2.386  1.00  0.00     0.359 HD
ATOM     13  H   UNL     1       1.712   0.234   1.963  1.00  0.00     0.359 HD
BRANCH  11  14
ATOM     14  C   UNL     1       0.329  -0.592   0.750  1.00  0.00     0.208 A 
ATOM     15  C   UNL     1      -0.652  -1.507   1.128  1.00  0.00     0.099 A 
ATOM     16  N   UNL     1       0.897  -0.936  -0.432  1.00  0.00    -0.310 N 
ATOM     17  C   UNL     1      -0.688  -2.424   0.100  1.00  0.00     0.006 A 
ATOM     18  C   UNL     1       0.257  -2.050  -0.823  1.00  0.00     0.050 A 
ATOM     19  C   UNL     1      -1.473  -3.561  -0.072  1.00  0.00     0.010 A 
ATOM     20  C   UNL     1       0.481  -2.792  -1.982  1.00  0.00     0.027 A 
ATOM     21  C   UNL     1      -1.273  -4.327  -1.236  1.00  0.00     0.001 A 
ATOM     22  C   UNL     1      -0.300  -3.944  -2.186  1.00  0.00     0.002 A 
ATOM     23  H   UNL     1       1.677  -0.451  -0.928  1.00  0.00     0.172 HD
ENDBRANCH  11  14
ENDBRANCH   8  11
TORSDOF 3


