REMARK SMILES C=C[C@H]1C[C@@](N)(c2ccc3[nH]ccc3c2)[C@H]([NH2+]c2ccc(C)[nH+]c2F)C[C@@H]1F
REMARK SMILES IDX 3 1 4 2 5 3 16 4 26 5 27 6 28 7 2 8 1 9 6 10 7 13 8 14 15 15
REMARK SMILES IDX 9 16 14 17 10 18 13 19 11 20 12 21 17 23 18 26 19 27 24 28
REMARK SMILES IDX 20 29 23 30 21 31 25 32 22 34
REMARK H PARENT 6 11 6 12 11 22 17 24 17 25 23 33
ROOT
ATOM      1  C   UNL     1      -1.300  -1.037   2.618  1.00  0.00     0.048 C 
ATOM      2  C   UNL     1       0.046  -0.448   2.147  1.00  0.00     0.044 C 
ATOM      3  C   UNL     1      -0.084   0.322   0.801  1.00  0.00     0.095 C 
ATOM      4  C   UNL     1      -0.692  -0.638  -0.287  1.00  0.00     0.215 C 
ATOM      5  C   UNL     1      -2.033  -1.240   0.204  1.00  0.00     0.106 C 
ATOM      6  C   UNL     1      -1.868  -1.974   1.539  1.00  0.00     0.179 C 
ATOM      7  F   UNL     1      -3.102  -2.457   1.942  1.00  0.00    -0.247 F 
ENDROOT
BRANCH   1   8
ATOM      8  C   UNL     1      -1.120  -1.778   3.924  1.00  0.00    -0.028 C 
ATOM      9  C   UNL     1      -0.911  -1.124   5.074  1.00  0.00     0.004 C 
ENDBRANCH   1   8
BRANCH   3  10
ATOM     10  N   UNL     1      -1.011   1.451   1.009  1.00  0.00    -0.316 NA
ATOM     11  H   UNL     1      -0.690   2.047   1.807  1.00  0.00     0.119 HD
ATOM     12  H   UNL     1      -1.066   2.051   0.155  1.00  0.00     0.119 HD
ENDBRANCH   3  10
BRANCH   3  13
ATOM     13  C   UNL     1       1.327   0.802   0.385  1.00  0.00    -0.021 A 
ATOM     14  C   UNL     1       2.342  -0.158   0.087  1.00  0.00     0.008 A 
ATOM     15  C   UNL     1       1.665   2.183   0.301  1.00  0.00     0.016 A 
ATOM     16  C   UNL     1       3.633   0.235  -0.305  1.00  0.00     0.027 A 
ATOM     17  C   UNL     1       2.956   2.533  -0.089  1.00  0.00    -0.000 A 
ATOM     18  C   UNL     1       3.904   1.595  -0.385  1.00  0.00     0.045 A 
ATOM     19  C   UNL     1       3.537   3.772  -0.254  1.00  0.00     0.028 A 
ATOM     20  N   UNL     1       5.063   2.178  -0.732  1.00  0.00    -0.361 N 
ATOM     21  C   UNL     1       4.844   3.510  -0.654  1.00  0.00     0.083 A 
ATOM     22  H   UNL     1       5.953   1.703  -1.006  1.00  0.00     0.166 HD
ENDBRANCH   3  13
BRANCH   4  23
ATOM     23  N   UNL     1      -0.873   0.050  -1.591  1.00  0.00    -0.301 N 
ATOM     24  H   UNL     1      -1.724   0.659  -1.565  1.00  0.00     0.352 HD
ATOM     25  H   UNL     1      -0.063   0.679  -1.794  1.00  0.00     0.352 HD
BRANCH  23  26
ATOM     26  C   UNL     1      -0.983  -0.893  -2.683  1.00  0.00     0.234 A 
ATOM     27  C   UNL     1      -2.239  -1.246  -3.202  1.00  0.00     0.084 A 
ATOM     28  C   UNL     1       0.163  -1.485  -3.244  1.00  0.00     0.420 A 
ATOM     29  C   UNL     1      -2.333  -2.163  -4.247  1.00  0.00     0.080 A 
ATOM     30  N   UNL     1       0.047  -2.373  -4.269  1.00  0.00    -0.179 N 
ATOM     31  C   UNL     1      -1.166  -2.718  -4.787  1.00  0.00     0.179 A 
ATOM     32  F   UNL     1       1.395  -1.179  -2.764  1.00  0.00    -0.131 F 
ATOM     33  H   UNL     1       0.917  -2.796  -4.665  1.00  0.00     0.456 HD
ATOM     34  C   UNL     1      -1.244  -3.716  -5.904  1.00  0.00     0.124 C 
ENDBRANCH  23  26
ENDBRANCH   4  23
TORSDOF 5


