REMARK SMILES CC1CN(CCOC(=O)c2cc(F)ccc2Nc2cc3ccccc3[nH]2)C1
REMARK SMILES IDX 7 1 6 2 5 3 4 4 2 5 3 6 27 7 1 8 8 9 9 10 10 11 11 12 16 13
REMARK SMILES IDX 12 14 15 15 14 16 13 17 17 18 18 20 19 21 26 22 20 23 25 24
REMARK SMILES IDX 21 25 24 26 22 27 23 28
REMARK H PARENT 17 19 26 29
ROOT
ATOM      1  O   UNL     1       0.154  -2.042   2.327  1.00  0.00    -0.461 OA
ENDROOT
BRANCH   1   2
ATOM      2  C   UNL     1      -0.862  -1.835   3.301  1.00  0.00     0.248 C 
BRANCH   2   3
ATOM      3  C   UNL     1      -1.719  -0.629   2.920  1.00  0.00     0.126 C 
BRANCH   3   4
ATOM      4  N   UNL     1      -0.957   0.623   3.108  1.00  0.00    -0.299 NA
ATOM      5  C   UNL     1      -1.002   2.242   1.658  1.00  0.00     0.014 C 
ATOM      6  C   UNL     1      -0.169   0.997   1.921  1.00  0.00     0.089 C 
ATOM      7  C   UNL     1      -1.801   1.806   2.877  1.00  0.00     0.089 C 
ATOM      8  C   UNL     1      -1.792   2.204   0.349  1.00  0.00     0.010 C 
ENDBRANCH   3   4
ENDBRANCH   2   3
ENDBRANCH   1   2
BRANCH   1   9
ATOM      9  C   UNL     1       1.137  -3.029   2.451  1.00  0.00     0.340 C 
ATOM     10  O   UNL     1       1.207  -3.723   3.502  1.00  0.00    -0.246 OA
BRANCH   9  11
ATOM     11  C   UNL     1       2.121  -3.234   1.363  1.00  0.00     0.086 A 
ATOM     12  C   UNL     1       3.404  -3.718   1.680  1.00  0.00     0.057 A 
ATOM     13  C   UNL     1       1.816  -2.917   0.017  1.00  0.00     0.054 A 
ATOM     14  C   UNL     1       4.373  -3.870   0.686  1.00  0.00     0.124 A 
ATOM     15  C   UNL     1       2.801  -3.082  -0.973  1.00  0.00     0.030 A 
ATOM     16  C   UNL     1       4.073  -3.548  -0.638  1.00  0.00     0.041 A 
ATOM     17  F   UNL     1       5.608  -4.328   1.007  1.00  0.00    -0.207 F 
BRANCH  13  18
ATOM     18  N   UNL     1       0.486  -2.535  -0.367  1.00  0.00    -0.341 N 
ATOM     19  H   UNL     1      -0.319  -3.082   0.013  1.00  0.00     0.168 HD
BRANCH  18  20
ATOM     20  C   UNL     1       0.197  -1.412  -1.210  1.00  0.00     0.108 A 
ATOM     21  C   UNL     1       1.099  -0.412  -1.571  1.00  0.00     0.055 A 
ATOM     22  N   UNL     1      -1.044  -1.153  -1.683  1.00  0.00    -0.341 N 
ATOM     23  C   UNL     1       0.352   0.479  -2.310  1.00  0.00     0.002 A 
ATOM     24  C   UNL     1      -0.934   0.002  -2.359  1.00  0.00     0.047 A 
ATOM     25  C   UNL     1       0.713   1.682  -2.913  1.00  0.00     0.010 A 
ATOM     26  C   UNL     1      -1.947   0.697  -3.017  1.00  0.00     0.027 A 
ATOM     27  C   UNL     1      -0.288   2.404  -3.588  1.00  0.00     0.001 A 
ATOM     28  C   UNL     1      -1.612   1.913  -3.640  1.00  0.00     0.002 A 
ATOM     29  H   UNL     1      -1.908  -1.721  -1.538  1.00  0.00     0.168 HD
ENDBRANCH  18  20
ENDBRANCH  13  18
ENDBRANCH   9  11
ENDBRANCH   1   9
TORSDOF 7


