MODEL 1
REMARK VINA RESULT:      -0.7      0.000      0.000
REMARK SMILES CCOC(=O)c1cc(/[NH+]=C(/S)n2[n-]c(=O)/c(=N/N)cc2-c2ccc3[nH]ccc3c2)ccc1F
REMARK SMILES IDX 9 1 10 3 11 4 12 6 13 7 20 8 14 9 19 10 16 11 15 12 21 13
REMARK SMILES IDX 22 14 29 15 23 16 28 17 24 18 27 19 25 20 26 21 17 23 18 24
REMARK SMILES IDX 8 27 30 28 7 29 31 30 6 31 32 32 33 33 4 34 5 35 3 36 2 37
REMARK SMILES IDX 1 38
REMARK H PARENT 9 2 11 5 25 22 18 25 18 26
ROOT
ATOM      1  N   UNL     1      46.964 133.913  21.607  1.00  0.00    -0.236 N 
ATOM      2  H   UNL     1      46.368 134.659  21.182  1.00  0.00     0.313 HD
ENDROOT
BRANCH   1   3
ATOM      3  C   UNL     1      46.662 132.666  21.358  1.00  0.00     0.304 C 
BRANCH   3   4
ATOM      4  S   UNL     1      47.856 131.633  20.506  1.00  0.00    -0.056 SA
ATOM      5  H   UNL     1      48.608 132.750  20.098  1.00  0.00     0.116 HD
ENDBRANCH   3   4
BRANCH   3   6
ATOM      6  N   UNL     1      45.397 132.086  21.730  1.00  0.00    -0.275 N 
ATOM      7  N   UNL     1      44.954 132.353  22.961  1.00  0.00    -0.456 NA
ATOM      8  C   UNL     1      44.644 131.314  20.874  1.00  0.00     0.128 A 
ATOM      9  C   UNL     1      43.790 131.855  23.444  1.00  0.00     0.136 A 
ATOM     10  C   UNL     1      43.438 130.766  21.334  1.00  0.00     0.084 A 
ATOM     11  C   UNL     1      42.999 131.026  22.643  1.00  0.00     0.114 A 
ATOM     12  O   UNL     1      43.435 132.144  24.619  1.00  0.00    -0.310 OA
BRANCH   8  13
ATOM     13  C   UNL     1      45.057 131.041  19.472  1.00  0.00     0.021 A 
ATOM     14  C   UNL     1      45.778 129.854  19.167  1.00  0.00     0.015 A 
ATOM     15  C   UNL     1      44.748 131.953  18.438  1.00  0.00     0.022 A 
ATOM     16  C   UNL     1      46.221 129.598  17.857  1.00  0.00     0.027 A 
ATOM     17  C   UNL     1      45.205 131.669  17.155  1.00  0.00     0.000 A 
ATOM     18  C   UNL     1      45.919 130.536  16.874  1.00  0.00     0.045 A 
ATOM     19  C   UNL     1      45.079 132.377  15.979  1.00  0.00     0.028 A 
ATOM     20  N   UNL     1      46.256 130.492  15.575  1.00  0.00    -0.361 N 
ATOM     21  C   UNL     1      45.744 131.617  15.023  1.00  0.00     0.083 A 
ATOM     22  H   UNL     1      46.801 129.747  15.087  1.00  0.00     0.166 HD
ENDBRANCH   8  13
BRANCH  11  23
ATOM     23  N   UNL     1      41.886 130.548  23.132  1.00  0.00    -0.181 NA
BRANCH  23  24
ATOM     24  N   UNL     1      41.763 129.762  24.291  1.00  0.00    -0.323 N 
ATOM     25  H   UNL     1      41.802 128.724  24.201  1.00  0.00     0.179 HD
ATOM     26  H   UNL     1      41.514 130.156  25.222  1.00  0.00     0.179 HD
ENDBRANCH  23  24
ENDBRANCH  11  23
ENDBRANCH   3   6
ENDBRANCH   1   3
BRANCH   1  27
ATOM     27  C   UNL     1      48.092 134.352  22.384  1.00  0.00     0.126 A 
ATOM     28  C   UNL     1      48.269 133.942  23.714  1.00  0.00     0.055 A 
ATOM     29  C   UNL     1      49.016 135.233  21.806  1.00  0.00     0.070 A 
ATOM     30  C   UNL     1      49.387 134.364  24.434  1.00  0.00     0.044 A 
ATOM     31  C   UNL     1      50.157 135.652  22.516  1.00  0.00     0.099 A 
ATOM     32  C   UNL     1      50.333 135.206  23.843  1.00  0.00     0.138 A 
ATOM     33  F   UNL     1      51.412 135.582  24.575  1.00  0.00    -0.206 F 
BRANCH  31  34
ATOM     34  C   UNL     1      51.159 136.525  21.857  1.00  0.00     0.341 C 
ATOM     35  O   UNL     1      52.385 136.392  22.125  1.00  0.00    -0.246 OA
BRANCH  34  36
ATOM     36  O   UNL     1      50.749 137.505  20.947  1.00  0.00    -0.462 OA
BRANCH  36  37
ATOM     37  C   UNL     1      49.521 138.214  21.079  1.00  0.00     0.230 C 
ATOM     38  C   UNL     1      48.778 138.195  19.753  1.00  0.00     0.049 C 
ENDBRANCH  36  37
ENDBRANCH  34  36
ENDBRANCH  31  34
ENDBRANCH   1  27
TORSDOF 10
ENDMDL
MODEL 2
REMARK VINA RESULT:      -0.7      5.531      7.374
REMARK SMILES CCOC(=O)c1cc(/[NH+]=C(/S)n2[n-]c(=O)/c(=N/N)cc2-c2ccc3[nH]ccc3c2)ccc1F
REMARK SMILES IDX 9 1 10 3 11 4 12 6 13 7 20 8 14 9 19 10 16 11 15 12 21 13
REMARK SMILES IDX 22 14 29 15 23 16 28 17 24 18 27 19 25 20 26 21 17 23 18 24
REMARK SMILES IDX 8 27 30 28 7 29 31 30 6 31 32 32 33 33 4 34 5 35 3 36 2 37
REMARK SMILES IDX 1 38
REMARK H PARENT 9 2 11 5 25 22 18 25 18 26
ROOT
ATOM      1  N   UNL     1      46.081 129.558  19.735  1.00  0.00    -0.236 N 
ATOM      2  H   UNL     1      46.718 128.739  19.603  1.00  0.00     0.313 HD
ENDROOT
BRANCH   1   3
ATOM      3  C   UNL     1      45.763 129.900  20.955  1.00  0.00     0.304 C 
BRANCH   3   4
ATOM      4  S   UNL     1      45.901 131.621  21.442  1.00  0.00    -0.056 SA
ATOM      5  H   UNL     1      44.612 131.617  22.010  1.00  0.00     0.116 HD
ENDBRANCH   3   4
BRANCH   3   6
ATOM      6  N   UNL     1      45.315 128.945  21.936  1.00  0.00    -0.275 N 
ATOM      7  N   UNL     1      46.089 127.875  22.128  1.00  0.00    -0.456 NA
ATOM      8  C   UNL     1      44.166 129.112  22.676  1.00  0.00     0.128 A 
ATOM      9  C   UNL     1      45.775 126.892  23.007  1.00  0.00     0.136 A 
ATOM     10  C   UNL     1      43.792 128.114  23.588  1.00  0.00     0.084 A 
ATOM     11  C   UNL     1      44.598 126.976  23.757  1.00  0.00     0.114 A 
ATOM     12  O   UNL     1      46.549 125.905  23.134  1.00  0.00    -0.310 OA
BRANCH   8  13
ATOM     13  C   UNL     1      43.303 130.316  22.551  1.00  0.00     0.021 A 
ATOM     14  C   UNL     1      42.705 130.880  23.711  1.00  0.00     0.015 A 
ATOM     15  C   UNL     1      43.062 130.904  21.289  1.00  0.00     0.022 A 
ATOM     16  C   UNL     1      41.846 131.989  23.612  1.00  0.00     0.027 A 
ATOM     17  C   UNL     1      42.204 131.998  21.228  1.00  0.00     0.000 A 
ATOM     18  C   UNL     1      41.614 132.520  22.347  1.00  0.00     0.045 A 
ATOM     19  C   UNL     1      41.773 132.742  20.151  1.00  0.00     0.028 A 
ATOM     20  N   UNL     1      40.825 133.559  22.031  1.00  0.00    -0.361 N 
ATOM     21  C   UNL     1      40.919 133.700  20.688  1.00  0.00     0.083 A 
ATOM     22  H   UNL     1      40.254 134.141  22.683  1.00  0.00     0.166 HD
ENDBRANCH   8  13
BRANCH  11  23
ATOM     23  N   UNL     1      44.308 126.013  24.590  1.00  0.00    -0.181 NA
BRANCH  23  24
ATOM     24  N   UNL     1      44.066 124.670  24.249  1.00  0.00    -0.323 N 
ATOM     25  H   UNL     1      44.840 123.978  24.352  1.00  0.00     0.179 HD
ATOM     26  H   UNL     1      43.191 124.348  23.786  1.00  0.00     0.179 HD
ENDBRANCH  23  24
ENDBRANCH  11  23
ENDBRANCH   3   6
ENDBRANCH   1   3
BRANCH   1  27
ATOM     27  C   UNL     1      45.667 130.251  18.545  1.00  0.00     0.126 A 
ATOM     28  C   UNL     1      44.820 131.368  18.607  1.00  0.00     0.055 A 
ATOM     29  C   UNL     1      46.096 129.780  17.297  1.00  0.00     0.070 A 
ATOM     30  C   UNL     1      44.456 132.037  17.438  1.00  0.00     0.044 A 
ATOM     31  C   UNL     1      45.750 130.457  16.111  1.00  0.00     0.099 A 
ATOM     32  C   UNL     1      44.921 131.595  16.196  1.00  0.00     0.138 A 
ATOM     33  F   UNL     1      44.553 132.282  15.085  1.00  0.00    -0.206 F 
BRANCH  31  34
ATOM     34  C   UNL     1      46.277 129.981  14.809  1.00  0.00     0.341 C 
ATOM     35  O   UNL     1      45.753 128.981  14.244  1.00  0.00    -0.246 OA
BRANCH  34  36
ATOM     36  O   UNL     1      47.362 130.629  14.209  1.00  0.00    -0.462 OA
BRANCH  36  37
ATOM     37  C   UNL     1      48.588 129.967  13.916  1.00  0.00     0.230 C 
ATOM     38  C   UNL     1      48.622 129.590  12.443  1.00  0.00     0.049 C 
ENDBRANCH  36  37
ENDBRANCH  34  36
ENDBRANCH  31  34
ENDBRANCH   1  27
TORSDOF 10
ENDMDL
MODEL 3
REMARK VINA RESULT:      -0.0      5.115      7.504
REMARK SMILES CCOC(=O)c1cc(/[NH+]=C(/S)n2[n-]c(=O)/c(=N/N)cc2-c2ccc3[nH]ccc3c2)ccc1F
REMARK SMILES IDX 9 1 10 3 11 4 12 6 13 7 20 8 14 9 19 10 16 11 15 12 21 13
REMARK SMILES IDX 22 14 29 15 23 16 28 17 24 18 27 19 25 20 26 21 17 23 18 24
REMARK SMILES IDX 8 27 30 28 7 29 31 30 6 31 32 32 33 33 4 34 5 35 3 36 2 37
REMARK SMILES IDX 1 38
REMARK H PARENT 9 2 11 5 25 22 18 25 18 26
ROOT
ATOM      1  N   UNL     1      46.152 129.618  21.137  1.00  0.00    -0.236 N 
ATOM      2  H   UNL     1      47.028 129.066  20.993  1.00  0.00     0.313 HD
ENDROOT
BRANCH   1   3
ATOM      3  C   UNL     1      46.032 130.758  20.510  1.00  0.00     0.304 C 
BRANCH   3   4
ATOM      4  S   UNL     1      47.511 131.689  20.104  1.00  0.00    -0.056 SA
ATOM      5  H   UNL     1      48.048 131.495  21.391  1.00  0.00     0.116 HD
ENDBRANCH   3   4
BRANCH   3   6
ATOM      6  N   UNL     1      44.754 131.308  20.139  1.00  0.00    -0.275 N 
ATOM      7  N   UNL     1      43.979 131.746  21.133  1.00  0.00    -0.456 NA
ATOM      8  C   UNL     1      44.334 131.417  18.832  1.00  0.00     0.128 A 
ATOM      9  C   UNL     1      42.746 132.269  20.924  1.00  0.00     0.136 A 
ATOM     10  C   UNL     1      43.059 131.939  18.568  1.00  0.00     0.084 A 
ATOM     11  C   UNL     1      42.239 132.365  19.625  1.00  0.00     0.114 A 
ATOM     12  O   UNL     1      42.064 132.659  21.911  1.00  0.00    -0.310 OA
BRANCH   8  13
ATOM     13  C   UNL     1      45.184 131.007  17.683  1.00  0.00     0.021 A 
ATOM     14  C   UNL     1      45.777 129.714  17.670  1.00  0.00     0.015 A 
ATOM     15  C   UNL     1      45.417 131.890  16.606  1.00  0.00     0.022 A 
ATOM     16  C   UNL     1      46.624 129.322  16.618  1.00  0.00     0.027 A 
ATOM     17  C   UNL     1      46.263 131.470  15.583  1.00  0.00     0.000 A 
ATOM     18  C   UNL     1      46.848 130.233  15.590  1.00  0.00     0.045 A 
ATOM     19  C   UNL     1      46.684 132.118  14.443  1.00  0.00     0.028 A 
ATOM     20  N   UNL     1      47.625 130.066  14.508  1.00  0.00    -0.361 N 
ATOM     21  C   UNL     1      47.528 131.217  13.802  1.00  0.00     0.083 A 
ATOM     22  H   UNL     1      48.191 129.224  14.258  1.00  0.00     0.166 HD
ENDBRANCH   8  13
BRANCH  11  23
ATOM     23  N   UNL     1      41.044 132.862  19.447  1.00  0.00    -0.181 NA
BRANCH  23  24
ATOM     24  N   UNL     1      40.562 133.453  18.266  1.00  0.00    -0.323 N 
ATOM     25  H   UNL     1      39.537 133.434  18.075  1.00  0.00     0.179 HD
ATOM     26  H   UNL     1      41.186 133.807  17.510  1.00  0.00     0.179 HD
ENDBRANCH  23  24
ENDBRANCH  11  23
ENDBRANCH   3   6
ENDBRANCH   1   3
BRANCH   1  27
ATOM     27  C   UNL     1      45.147 129.025  21.979  1.00  0.00     0.126 A 
ATOM     28  C   UNL     1      44.295 129.814  22.767  1.00  0.00     0.055 A 
ATOM     29  C   UNL     1      45.039 127.629  22.033  1.00  0.00     0.070 A 
ATOM     30  C   UNL     1      43.313 129.213  23.553  1.00  0.00     0.044 A 
ATOM     31  C   UNL     1      44.040 127.011  22.809  1.00  0.00     0.099 A 
ATOM     32  C   UNL     1      43.174 127.822  23.573  1.00  0.00     0.138 A 
ATOM     33  F   UNL     1      42.197 127.279  24.342  1.00  0.00    -0.206 F 
BRANCH  31  34
ATOM     34  C   UNL     1      43.899 125.535  22.791  1.00  0.00     0.341 C 
ATOM     35  O   UNL     1      42.795 125.011  22.477  1.00  0.00    -0.246 OA
BRANCH  34  36
ATOM     36  O   UNL     1      44.982 124.719  23.134  1.00  0.00    -0.462 OA
BRANCH  36  37
ATOM     37  C   UNL     1      45.453 123.671  22.294  1.00  0.00     0.230 C 
ATOM     38  C   UNL     1      44.699 122.389  22.609  1.00  0.00     0.049 C 
ENDBRANCH  36  37
ENDBRANCH  34  36
ENDBRANCH  31  34
ENDBRANCH   1  27
TORSDOF 10
ENDMDL
MODEL 4
REMARK VINA RESULT:       0.2      5.630      9.008
REMARK SMILES CCOC(=O)c1cc(/[NH+]=C(/S)n2[n-]c(=O)/c(=N/N)cc2-c2ccc3[nH]ccc3c2)ccc1F
REMARK SMILES IDX 9 1 10 3 11 4 12 6 13 7 20 8 14 9 19 10 16 11 15 12 21 13
REMARK SMILES IDX 22 14 29 15 23 16 28 17 24 18 27 19 25 20 26 21 17 23 18 24
REMARK SMILES IDX 8 27 30 28 7 29 31 30 6 31 32 32 33 33 4 34 5 35 3 36 2 37
REMARK SMILES IDX 1 38
REMARK H PARENT 9 2 11 5 25 22 18 25 18 26
ROOT
ATOM      1  N   UNL     1      46.001 128.848  21.069  1.00  0.00    -0.236 N 
ATOM      2  H   UNL     1      46.872 128.444  20.654  1.00  0.00     0.313 HD
ENDROOT
BRANCH   1   3
ATOM      3  C   UNL     1      45.625 130.036  20.675  1.00  0.00     0.304 C 
BRANCH   3   4
ATOM      4  S   UNL     1      45.324 131.307  21.905  1.00  0.00    -0.056 SA
ATOM      5  H   UNL     1      44.590 130.421  22.716  1.00  0.00     0.116 HD
ENDBRANCH   3   4
BRANCH   3   6
ATOM      6  N   UNL     1      45.430 130.367  19.287  1.00  0.00    -0.275 N 
ATOM      7  N   UNL     1      46.310 129.860  18.421  1.00  0.00    -0.456 NA
ATOM      8  C   UNL     1      44.383 131.140  18.840  1.00  0.00     0.128 A 
ATOM      9  C   UNL     1      46.253 130.108  17.090  1.00  0.00     0.136 A 
ATOM     10  C   UNL     1      44.290 131.435  17.471  1.00  0.00     0.084 A 
ATOM     11  C   UNL     1      45.242 130.923  16.574  1.00  0.00     0.114 A 
ATOM     12  O   UNL     1      47.121 129.600  16.329  1.00  0.00    -0.310 OA
BRANCH   8  13
ATOM     13  C   UNL     1      43.337 131.674  19.752  1.00  0.00     0.021 A 
ATOM     14  C   UNL     1      42.326 132.533  19.240  1.00  0.00     0.015 A 
ATOM     15  C   UNL     1      43.341 131.345  21.126  1.00  0.00     0.022 A 
ATOM     16  C   UNL     1      41.355 133.089  20.092  1.00  0.00     0.027 A 
ATOM     17  C   UNL     1      42.368 131.916  21.940  1.00  0.00     0.000 A 
ATOM     18  C   UNL     1      41.412 132.761  21.443  1.00  0.00     0.045 A 
ATOM     19  C   UNL     1      42.149 131.799  23.295  1.00  0.00     0.028 A 
ATOM     20  N   UNL     1      40.597 133.188  22.422  1.00  0.00    -0.361 N 
ATOM     21  C   UNL     1      41.044 132.603  23.557  1.00  0.00     0.083 A 
ATOM     22  H   UNL     1      39.786 133.839  22.330  1.00  0.00     0.166 HD
ENDBRANCH   8  13
BRANCH  11  23
ATOM     23  N   UNL     1      45.211 131.159  15.290  1.00  0.00    -0.181 NA
BRANCH  23  24
ATOM     24  N   UNL     1      45.688 132.316  14.650  1.00  0.00    -0.323 N 
ATOM     25  H   UNL     1      45.065 133.151  14.591  1.00  0.00     0.179 HD
ATOM     26  H   UNL     1      46.587 132.348  14.125  1.00  0.00     0.179 HD
ENDBRANCH  23  24
ENDBRANCH  11  23
ENDBRANCH   3   6
ENDBRANCH   1   3
BRANCH   1  27
ATOM     27  C   UNL     1      45.283 128.017  21.998  1.00  0.00     0.126 A 
ATOM     28  C   UNL     1      44.305 128.550  22.852  1.00  0.00     0.055 A 
ATOM     29  C   UNL     1      45.590 126.652  22.070  1.00  0.00     0.070 A 
ATOM     30  C   UNL     1      43.606 127.716  23.723  1.00  0.00     0.044 A 
ATOM     31  C   UNL     1      44.879 125.796  22.933  1.00  0.00     0.099 A 
ATOM     32  C   UNL     1      43.880 126.345  23.763  1.00  0.00     0.138 A 
ATOM     33  F   UNL     1      43.168 125.568  24.617  1.00  0.00    -0.206 F 
BRANCH  31  34
ATOM     34  C   UNL     1      45.173 124.342  22.937  1.00  0.00     0.341 C 
ATOM     35  O   UNL     1      44.236 123.510  22.781  1.00  0.00    -0.246 OA
BRANCH  34  36
ATOM     36  O   UNL     1      46.481 123.887  23.126  1.00  0.00    -0.462 OA
BRANCH  36  37
ATOM     37  C   UNL     1      46.836 122.510  23.058  1.00  0.00     0.230 C 
ATOM     38  C   UNL     1      48.252 122.375  22.523  1.00  0.00     0.049 C 
ENDBRANCH  36  37
ENDBRANCH  34  36
ENDBRANCH  31  34
ENDBRANCH   1  27
TORSDOF 10
ENDMDL
MODEL 5
REMARK VINA RESULT:       0.2      2.201      2.911
REMARK SMILES CCOC(=O)c1cc(/[NH+]=C(/S)n2[n-]c(=O)/c(=N/N)cc2-c2ccc3[nH]ccc3c2)ccc1F
REMARK SMILES IDX 9 1 10 3 11 4 12 6 13 7 20 8 14 9 19 10 16 11 15 12 21 13
REMARK SMILES IDX 22 14 29 15 23 16 28 17 24 18 27 19 25 20 26 21 17 23 18 24
REMARK SMILES IDX 8 27 30 28 7 29 31 30 6 31 32 32 33 33 4 34 5 35 3 36 2 37
REMARK SMILES IDX 1 38
REMARK H PARENT 9 2 11 5 25 22 18 25 18 26
ROOT
ATOM      1  N   UNL     1      45.783 133.242  20.387  1.00  0.00    -0.236 N 
ATOM      2  H   UNL     1      45.971 133.552  19.407  1.00  0.00     0.313 HD
ENDROOT
BRANCH   1   3
ATOM      3  C   UNL     1      44.779 132.431  20.594  1.00  0.00     0.304 C 
BRANCH   3   4
ATOM      4  S   UNL     1      43.109 133.085  20.563  1.00  0.00    -0.056 SA
ATOM      5  H   UNL     1      42.994 133.001  21.963  1.00  0.00     0.116 HD
ENDBRANCH   3   4
BRANCH   3   6
ATOM      6  N   UNL     1      44.959 131.027  20.861  1.00  0.00    -0.275 N 
ATOM      7  N   UNL     1      44.811 130.634  22.128  1.00  0.00    -0.456 NA
ATOM      8  C   UNL     1      45.241 130.106  19.877  1.00  0.00     0.128 A 
ATOM      9  C   UNL     1      44.971 129.346  22.518  1.00  0.00     0.136 A 
ATOM     10  C   UNL     1      45.429 128.763  20.236  1.00  0.00     0.084 A 
ATOM     11  C   UNL     1      45.305 128.367  21.578  1.00  0.00     0.114 A 
ATOM     12  O   UNL     1      44.822 129.045  23.734  1.00  0.00    -0.310 OA
BRANCH   8  13
ATOM     13  C   UNL     1      45.350 130.478  18.442  1.00  0.00     0.021 A 
ATOM     14  C   UNL     1      44.463 131.444  17.894  1.00  0.00     0.015 A 
ATOM     15  C   UNL     1      46.322 129.876  17.612  1.00  0.00     0.022 A 
ATOM     16  C   UNL     1      44.515 131.776  16.528  1.00  0.00     0.027 A 
ATOM     17  C   UNL     1      46.342 130.226  16.265  1.00  0.00     0.000 A 
ATOM     18  C   UNL     1      45.469 131.139  15.741  1.00  0.00     0.045 A 
ATOM     19  C   UNL     1      47.146 129.787  15.236  1.00  0.00     0.028 A 
ATOM     20  N   UNL     1      45.678 131.299  14.424  1.00  0.00    -0.361 N 
ATOM     21  C   UNL     1      46.704 130.474  14.110  1.00  0.00     0.083 A 
ATOM     22  H   UNL     1      45.158 131.929  13.773  1.00  0.00     0.166 HD
ENDBRANCH   8  13
BRANCH  11  23
ATOM     23  N   UNL     1      45.465 127.134  21.977  1.00  0.00    -0.181 NA
BRANCH  23  24
ATOM     24  N   UNL     1      46.526 126.651  22.763  1.00  0.00    -0.323 N 
ATOM     25  H   UNL     1      46.993 127.301  23.432  1.00  0.00     0.179 HD
ATOM     26  H   UNL     1      46.951 125.710  22.631  1.00  0.00     0.179 HD
ENDBRANCH  23  24
ENDBRANCH  11  23
ENDBRANCH   3   6
ENDBRANCH   1   3
BRANCH   1  27
ATOM     27  C   UNL     1      46.693 133.708  21.398  1.00  0.00     0.126 A 
ATOM     28  C   UNL     1      46.606 133.260  22.725  1.00  0.00     0.055 A 
ATOM     29  C   UNL     1      47.668 134.655  21.054  1.00  0.00     0.070 A 
ATOM     30  C   UNL     1      47.519 133.710  23.678  1.00  0.00     0.044 A 
ATOM     31  C   UNL     1      48.606 135.103  22.003  1.00  0.00     0.099 A 
ATOM     32  C   UNL     1      48.521 134.619  23.325  1.00  0.00     0.138 A 
ATOM     33  F   UNL     1      49.396 135.021  24.280  1.00  0.00    -0.206 F 
BRANCH  31  34
ATOM     34  C   UNL     1      49.674 136.049  21.595  1.00  0.00     0.341 C 
ATOM     35  O   UNL     1      49.794 136.379  20.383  1.00  0.00    -0.246 OA
BRANCH  34  36
ATOM     36  O   UNL     1      50.558 136.567  22.547  1.00  0.00    -0.462 OA
BRANCH  36  37
ATOM     37  C   UNL     1      51.971 136.423  22.445  1.00  0.00     0.230 C 
ATOM     38  C   UNL     1      52.562 136.210  23.829  1.00  0.00     0.049 C 
ENDBRANCH  36  37
ENDBRANCH  34  36
ENDBRANCH  31  34
ENDBRANCH   1  27
TORSDOF 10
ENDMDL
MODEL 6
REMARK VINA RESULT:       0.4      2.035      2.344
REMARK SMILES CCOC(=O)c1cc(/[NH+]=C(/S)n2[n-]c(=O)/c(=N/N)cc2-c2ccc3[nH]ccc3c2)ccc1F
REMARK SMILES IDX 9 1 10 3 11 4 12 6 13 7 20 8 14 9 19 10 16 11 15 12 21 13
REMARK SMILES IDX 22 14 29 15 23 16 28 17 24 18 27 19 25 20 26 21 17 23 18 24
REMARK SMILES IDX 8 27 30 28 7 29 31 30 6 31 32 32 33 33 4 34 5 35 3 36 2 37
REMARK SMILES IDX 1 38
REMARK H PARENT 9 2 11 5 25 22 18 25 18 26
ROOT
ATOM      1  N   UNL     1      45.341 133.401  20.230  1.00  0.00    -0.236 N 
ATOM      2  H   UNL     1      45.353 133.763  19.249  1.00  0.00     0.313 HD
ENDROOT
BRANCH   1   3
ATOM      3  C   UNL     1      44.370 132.600  20.579  1.00  0.00     0.304 C 
BRANCH   3   4
ATOM      4  S   UNL     1      42.675 133.171  20.439  1.00  0.00    -0.056 SA
ATOM      5  H   UNL     1      43.062 134.293  19.680  1.00  0.00     0.116 HD
ENDBRANCH   3   4
BRANCH   3   6
ATOM      6  N   UNL     1      44.604 131.272  21.086  1.00  0.00    -0.275 N 
ATOM      7  N   UNL     1      44.379 131.079  22.388  1.00  0.00    -0.456 NA
ATOM      8  C   UNL     1      45.012 130.226  20.290  1.00  0.00     0.128 A 
ATOM      9  C   UNL     1      44.578 129.885  22.996  1.00  0.00     0.136 A 
ATOM     10  C   UNL     1      45.244 128.973  20.878  1.00  0.00     0.084 A 
ATOM     11  C   UNL     1      45.036 128.792  22.256  1.00  0.00     0.114 A 
ATOM     12  O   UNL     1      44.350 129.775  24.232  1.00  0.00    -0.310 OA
BRANCH   8  13
ATOM     13  C   UNL     1      45.213 130.368  18.824  1.00  0.00     0.021 A 
ATOM     14  C   UNL     1      46.392 129.851  18.220  1.00  0.00     0.015 A 
ATOM     15  C   UNL     1      44.248 131.019  18.023  1.00  0.00     0.022 A 
ATOM     16  C   UNL     1      46.627 130.017  16.844  1.00  0.00     0.027 A 
ATOM     17  C   UNL     1      44.516 131.167  16.665  1.00  0.00     0.000 A 
ATOM     18  C   UNL     1      45.664 130.688  16.096  1.00  0.00     0.045 A 
ATOM     19  C   UNL     1      43.783 131.772  15.667  1.00  0.00     0.028 A 
ATOM     20  N   UNL     1      45.697 130.963  14.782  1.00  0.00    -0.361 N 
ATOM     21  C   UNL     1      44.548 131.626  14.515  1.00  0.00     0.083 A 
ATOM     22  H   UNL     1      46.452 130.718  14.103  1.00  0.00     0.166 HD
ENDBRANCH   8  13
BRANCH  11  23
ATOM     23  N   UNL     1      45.232 127.652  22.864  1.00  0.00    -0.181 NA
BRANCH  23  24
ATOM     24  N   UNL     1      45.800 127.482  24.138  1.00  0.00    -0.323 N 
ATOM     25  H   UNL     1      46.257 128.299  24.599  1.00  0.00     0.179 HD
ATOM     26  H   UNL     1      45.894 126.554  24.601  1.00  0.00     0.179 HD
ENDBRANCH  23  24
ENDBRANCH  11  23
ENDBRANCH   3   6
ENDBRANCH   1   3
BRANCH   1  27
ATOM     27  C   UNL     1      46.437 133.792  21.076  1.00  0.00     0.126 A 
ATOM     28  C   UNL     1      46.771 133.060  22.226  1.00  0.00     0.055 A 
ATOM     29  C   UNL     1      47.166 134.946  20.758  1.00  0.00     0.070 A 
ATOM     30  C   UNL     1      47.855 133.448  23.012  1.00  0.00     0.044 A 
ATOM     31  C   UNL     1      48.274 135.337  21.534  1.00  0.00     0.099 A 
ATOM     32  C   UNL     1      48.612 134.573  22.670  1.00  0.00     0.138 A 
ATOM     33  F   UNL     1      49.666 134.907  23.456  1.00  0.00    -0.206 F 
BRANCH  31  34
ATOM     34  C   UNL     1      49.074 136.520  21.134  1.00  0.00     0.341 C 
ATOM     35  O   UNL     1      50.289 136.601  21.467  1.00  0.00    -0.246 OA
BRANCH  34  36
ATOM     36  O   UNL     1      48.485 137.554  20.399  1.00  0.00    -0.462 OA
BRANCH  36  37
ATOM     37  C   UNL     1      48.992 137.991  19.142  1.00  0.00     0.230 C 
ATOM     38  C   UNL     1      48.097 139.086  18.586  1.00  0.00     0.049 C 
ENDBRANCH  36  37
ENDBRANCH  34  36
ENDBRANCH  31  34
ENDBRANCH   1  27
TORSDOF 10
ENDMDL
MODEL 7
REMARK VINA RESULT:       0.8      4.168      7.948
REMARK SMILES CCOC(=O)c1cc(/[NH+]=C(/S)n2[n-]c(=O)/c(=N/N)cc2-c2ccc3[nH]ccc3c2)ccc1F
REMARK SMILES IDX 9 1 10 3 11 4 12 6 13 7 20 8 14 9 19 10 16 11 15 12 21 13
REMARK SMILES IDX 22 14 29 15 23 16 28 17 24 18 27 19 25 20 26 21 17 23 18 24
REMARK SMILES IDX 8 27 30 28 7 29 31 30 6 31 32 32 33 33 4 34 5 35 3 36 2 37
REMARK SMILES IDX 1 38
REMARK H PARENT 9 2 11 5 25 22 18 25 18 26
ROOT
ATOM      1  N   UNL     1      45.366 132.629  19.165  1.00  0.00    -0.236 N 
ATOM      2  H   UNL     1      46.069 133.390  19.025  1.00  0.00     0.313 HD
ENDROOT
BRANCH   1   3
ATOM      3  C   UNL     1      45.011 132.336  20.388  1.00  0.00     0.304 C 
BRANCH   3   4
ATOM      4  S   UNL     1      43.548 131.332  20.653  1.00  0.00    -0.056 SA
ATOM      5  H   UNL     1      44.135 130.674  21.750  1.00  0.00     0.116 HD
ENDBRANCH   3   4
BRANCH   3   6
ATOM      6  N   UNL     1      45.742 132.797  21.539  1.00  0.00    -0.275 N 
ATOM      7  N   UNL     1      46.748 133.645  21.310  1.00  0.00    -0.456 NA
ATOM      8  C   UNL     1      45.428 132.426  22.827  1.00  0.00     0.128 A 
ATOM      9  C   UNL     1      47.528 134.140  22.301  1.00  0.00     0.136 A 
ATOM     10  C   UNL     1      46.216 132.903  23.885  1.00  0.00     0.084 A 
ATOM     11  C   UNL     1      47.293 133.767  23.628  1.00  0.00     0.114 A 
ATOM     12  O   UNL     1      48.465 134.933  22.013  1.00  0.00    -0.310 OA
BRANCH   8  13
ATOM     13  C   UNL     1      44.277 131.539  23.144  1.00  0.00     0.021 A 
ATOM     14  C   UNL     1      43.016 132.108  23.471  1.00  0.00     0.015 A 
ATOM     15  C   UNL     1      44.425 130.134  23.134  1.00  0.00     0.022 A 
ATOM     16  C   UNL     1      41.927 131.291  23.822  1.00  0.00     0.027 A 
ATOM     17  C   UNL     1      43.327 129.356  23.490  1.00  0.00     0.000 A 
ATOM     18  C   UNL     1      42.123 129.914  23.826  1.00  0.00     0.045 A 
ATOM     19  C   UNL     1      43.190 127.989  23.593  1.00  0.00     0.028 A 
ATOM     20  N   UNL     1      41.228 128.963  24.140  1.00  0.00    -0.361 N 
ATOM     21  C   UNL     1      41.876 127.784  23.999  1.00  0.00     0.083 A 
ATOM     22  H   UNL     1      40.235 129.102  24.434  1.00  0.00     0.166 HD
ENDBRANCH   8  13
BRANCH  11  23
ATOM     23  N   UNL     1      48.063 134.247  24.567  1.00  0.00    -0.181 NA
BRANCH  23  24
ATOM     24  N   UNL     1      49.464 134.140  24.622  1.00  0.00    -0.323 N 
ATOM     25  H   UNL     1      50.040 135.002  24.502  1.00  0.00     0.179 HD
ATOM     26  H   UNL     1      49.965 133.228  24.659  1.00  0.00     0.179 HD
ENDBRANCH  23  24
ENDBRANCH  11  23
ENDBRANCH   3   6
ENDBRANCH   1   3
BRANCH   1  27
ATOM     27  C   UNL     1      44.827 132.022  17.977  1.00  0.00     0.126 A 
ATOM     28  C   UNL     1      43.454 132.070  17.689  1.00  0.00     0.055 A 
ATOM     29  C   UNL     1      45.690 131.344  17.106  1.00  0.00     0.070 A 
ATOM     30  C   UNL     1      42.964 131.495  16.517  1.00  0.00     0.044 A 
ATOM     31  C   UNL     1      45.210 130.775  15.911  1.00  0.00     0.099 A 
ATOM     32  C   UNL     1      43.831 130.858  15.625  1.00  0.00     0.138 A 
ATOM     33  F   UNL     1      43.314 130.324  14.490  1.00  0.00    -0.206 F 
BRANCH  31  34
ATOM     34  C   UNL     1      46.156 130.127  14.970  1.00  0.00     0.341 C 
ATOM     35  O   UNL     1      46.765 129.075  15.313  1.00  0.00    -0.246 OA
BRANCH  34  36
ATOM     36  O   UNL     1      46.386 130.682  13.708  1.00  0.00    -0.462 OA
BRANCH  36  37
ATOM     37  C   UNL     1      47.656 131.190  13.310  1.00  0.00     0.230 C 
ATOM     38  C   UNL     1      48.434 130.102  12.587  1.00  0.00     0.049 C 
ENDBRANCH  36  37
ENDBRANCH  34  36
ENDBRANCH  31  34
ENDBRANCH   1  27
TORSDOF 10
ENDMDL
MODEL 8
REMARK VINA RESULT:       1.1      4.076      7.261
REMARK SMILES CCOC(=O)c1cc(/[NH+]=C(/S)n2[n-]c(=O)/c(=N/N)cc2-c2ccc3[nH]ccc3c2)ccc1F
REMARK SMILES IDX 9 1 10 3 11 4 12 6 13 7 20 8 14 9 19 10 16 11 15 12 21 13
REMARK SMILES IDX 22 14 29 15 23 16 28 17 24 18 27 19 25 20 26 21 17 23 18 24
REMARK SMILES IDX 8 27 30 28 7 29 31 30 6 31 32 32 33 33 4 34 5 35 3 36 2 37
REMARK SMILES IDX 1 38
REMARK H PARENT 9 2 11 5 25 22 18 25 18 26
ROOT
ATOM      1  N   UNL     1      46.069 130.748  20.242  1.00  0.00    -0.236 N 
ATOM      2  H   UNL     1      46.953 131.273  20.431  1.00  0.00     0.313 HD
ENDROOT
BRANCH   1   3
ATOM      3  C   UNL     1      45.533 130.071  21.223  1.00  0.00     0.304 C 
BRANCH   3   4
ATOM      4  S   UNL     1      46.065 128.382  21.509  1.00  0.00    -0.056 SA
ATOM      5  H   UNL     1      45.087 127.871  20.636  1.00  0.00     0.116 HD
ENDBRANCH   3   4
BRANCH   3   6
ATOM      6  N   UNL     1      44.517 130.623  22.082  1.00  0.00    -0.275 N 
ATOM      7  N   UNL     1      43.408 129.898  22.242  1.00  0.00    -0.456 NA
ATOM      8  C   UNL     1      44.663 131.822  22.743  1.00  0.00     0.128 A 
ATOM      9  C   UNL     1      42.368 130.309  23.007  1.00  0.00     0.136 A 
ATOM     10  C   UNL     1      43.607 132.295  23.536  1.00  0.00     0.084 A 
ATOM     11  C   UNL     1      42.432 131.538  23.669  1.00  0.00     0.114 A 
ATOM     12  O   UNL     1      41.348 129.575  23.109  1.00  0.00    -0.310 OA
BRANCH   8  13
ATOM     13  C   UNL     1      45.903 132.638  22.654  1.00  0.00     0.021 A 
ATOM     14  C   UNL     1      46.479 132.910  21.383  1.00  0.00     0.015 A 
ATOM     15  C   UNL     1      46.522 133.139  23.821  1.00  0.00     0.022 A 
ATOM     16  C   UNL     1      47.678 133.637  21.277  1.00  0.00     0.027 A 
ATOM     17  C   UNL     1      47.709 133.852  23.679  1.00  0.00     0.000 A 
ATOM     18  C   UNL     1      48.269 134.090  22.453  1.00  0.00     0.045 A 
ATOM     19  C   UNL     1      48.531 134.425  24.625  1.00  0.00     0.028 A 
ATOM     20  N   UNL     1      49.412 134.785  22.576  1.00  0.00    -0.361 N 
ATOM     21  C   UNL     1      49.576 134.993  23.903  1.00  0.00     0.083 A 
ATOM     22  H   UNL     1      50.046 135.101  21.809  1.00  0.00     0.166 HD
ENDBRANCH   8  13
BRANCH  11  23
ATOM     23  N   UNL     1      41.414 131.921  24.393  1.00  0.00    -0.181 NA
BRANCH  23  24
ATOM     24  N   UNL     1      40.322 132.685  23.945  1.00  0.00    -0.323 N 
ATOM     25  H   UNL     1      39.374 132.250  23.935  1.00  0.00     0.179 HD
ATOM     26  H   UNL     1      40.424 133.626  23.510  1.00  0.00     0.179 HD
ENDBRANCH  23  24
ENDBRANCH  11  23
ENDBRANCH   3   6
ENDBRANCH   1   3
BRANCH   1  27
ATOM     27  C   UNL     1      45.511 130.877  18.922  1.00  0.00     0.126 A 
ATOM     28  C   UNL     1      44.508 131.816  18.640  1.00  0.00     0.055 A 
ATOM     29  C   UNL     1      45.961 130.023  17.906  1.00  0.00     0.070 A 
ATOM     30  C   UNL     1      44.005 131.935  17.344  1.00  0.00     0.044 A 
ATOM     31  C   UNL     1      45.474 130.145  16.591  1.00  0.00     0.099 A 
ATOM     32  C   UNL     1      44.486 131.115  16.320  1.00  0.00     0.138 A 
ATOM     33  F   UNL     1      43.978 131.273  15.072  1.00  0.00    -0.206 F 
BRANCH  31  34
ATOM     34  C   UNL     1      46.020 129.279  15.517  1.00  0.00     0.341 C 
ATOM     35  O   UNL     1      45.347 128.299  15.095  1.00  0.00    -0.246 OA
BRANCH  34  36
ATOM     36  O   UNL     1      47.285 129.537  14.979  1.00  0.00    -0.462 OA
BRANCH  36  37
ATOM     37  C   UNL     1      47.477 129.965  13.634  1.00  0.00     0.230 C 
ATOM     38  C   UNL     1      47.258 131.466  13.542  1.00  0.00     0.049 C 
ENDBRANCH  36  37
ENDBRANCH  34  36
ENDBRANCH  31  34
ENDBRANCH   1  27
TORSDOF 10
ENDMDL
MODEL 9
REMARK VINA RESULT:       1.6      2.401      5.213
REMARK SMILES CCOC(=O)c1cc(/[NH+]=C(/S)n2[n-]c(=O)/c(=N/N)cc2-c2ccc3[nH]ccc3c2)ccc1F
REMARK SMILES IDX 9 1 10 3 11 4 12 6 13 7 20 8 14 9 19 10 16 11 15 12 21 13
REMARK SMILES IDX 22 14 29 15 23 16 28 17 24 18 27 19 25 20 26 21 17 23 18 24
REMARK SMILES IDX 8 27 30 28 7 29 31 30 6 31 32 32 33 33 4 34 5 35 3 36 2 37
REMARK SMILES IDX 1 38
REMARK H PARENT 9 2 11 5 25 22 18 25 18 26
ROOT
ATOM      1  N   UNL     1      46.123 133.472  20.746  1.00  0.00    -0.236 N 
ATOM      2  H   UNL     1      45.206 133.963  20.844  1.00  0.00     0.313 HD
ENDROOT
BRANCH   1   3
ATOM      3  C   UNL     1      46.143 132.321  20.128  1.00  0.00     0.304 C 
BRANCH   3   4
ATOM      4  S   UNL     1      47.180 131.006  20.768  1.00  0.00    -0.056 SA
ATOM      5  H   UNL     1      48.016 131.043  19.635  1.00  0.00     0.116 HD
ENDBRANCH   3   4
BRANCH   3   6
ATOM      6  N   UNL     1      45.370 132.067  18.939  1.00  0.00    -0.275 N 
ATOM      7  N   UNL     1      46.046 131.987  17.791  1.00  0.00    -0.456 NA
ATOM      8  C   UNL     1      44.006 131.881  18.956  1.00  0.00     0.128 A 
ATOM      9  C   UNL     1      45.440 131.771  16.598  1.00  0.00     0.136 A 
ATOM     10  C   UNL     1      43.334 131.667  17.743  1.00  0.00     0.084 A 
ATOM     11  C   UNL     1      44.052 131.620  16.537  1.00  0.00     0.114 A 
ATOM     12  O   UNL     1      46.140 131.714  15.550  1.00  0.00    -0.310 OA
BRANCH   8  13
ATOM     13  C   UNL     1      43.214 131.891  20.213  1.00  0.00     0.021 A 
ATOM     14  C   UNL     1      42.103 132.770  20.340  1.00  0.00     0.015 A 
ATOM     15  C   UNL     1      43.557 131.044  21.290  1.00  0.00     0.022 A 
ATOM     16  C   UNL     1      41.368 132.833  21.537  1.00  0.00     0.027 A 
ATOM     17  C   UNL     1      42.810 131.136  22.461  1.00  0.00     0.000 A 
ATOM     18  C   UNL     1      41.756 132.001  22.582  1.00  0.00     0.045 A 
ATOM     19  C   UNL     1      42.931 130.464  23.658  1.00  0.00     0.028 A 
ATOM     20  N   UNL     1      41.204 131.913  23.804  1.00  0.00    -0.361 N 
ATOM     21  C   UNL     1      41.919 130.974  24.465  1.00  0.00     0.083 A 
ATOM     22  H   UNL     1      40.391 132.456  24.171  1.00  0.00     0.166 HD
ENDBRANCH   8  13
BRANCH  11  23
ATOM     23  N   UNL     1      43.487 131.424  15.376  1.00  0.00    -0.181 NA
BRANCH  23  24
ATOM     24  N   UNL     1      42.593 132.298  14.733  1.00  0.00    -0.323 N 
ATOM     25  H   UNL     1      42.227 132.040  13.791  1.00  0.00     0.179 HD
ATOM     26  H   UNL     1      42.367 133.248  15.094  1.00  0.00     0.179 HD
ENDBRANCH  23  24
ENDBRANCH  11  23
ENDBRANCH   3   6
ENDBRANCH   1   3
BRANCH   1  27
ATOM     27  C   UNL     1      47.279 134.154  21.264  1.00  0.00     0.126 A 
ATOM     28  C   UNL     1      47.985 133.660  22.372  1.00  0.00     0.055 A 
ATOM     29  C   UNL     1      47.688 135.354  20.666  1.00  0.00     0.070 A 
ATOM     30  C   UNL     1      49.118 134.329  22.835  1.00  0.00     0.044 A 
ATOM     31  C   UNL     1      48.840 136.028  21.113  1.00  0.00     0.099 A 
ATOM     32  C   UNL     1      49.553 135.501  22.210  1.00  0.00     0.138 A 
ATOM     33  F   UNL     1      50.667 136.113  22.686  1.00  0.00    -0.206 F 
BRANCH  31  34
ATOM     34  C   UNL     1      49.294 137.256  20.416  1.00  0.00     0.341 C 
ATOM     35  O   UNL     1      49.101 138.388  20.942  1.00  0.00    -0.246 OA
BRANCH  34  36
ATOM     36  O   UNL     1      49.925 137.167  19.171  1.00  0.00    -0.462 OA
BRANCH  36  37
ATOM     37  C   UNL     1      49.478 137.888  18.028  1.00  0.00     0.230 C 
ATOM     38  C   UNL     1      48.182 138.611  18.357  1.00  0.00     0.049 C 
ENDBRANCH  36  37
ENDBRANCH  34  36
ENDBRANCH  31  34
ENDBRANCH   1  27
TORSDOF 10
ENDMDL


