MODEL 1
REMARK VINA RESULT:      -8.4      0.000      0.000
REMARK SMILES Cc1cc[nH+]c(-c2ccc3[n-]c([NH2+]c4cn5ccccc5n4)cc3c2)c1F
REMARK SMILES IDX 7 1 8 2 9 3 10 4 11 5 12 6 23 7 24 8 25 9 6 10 2 11 3 12
REMARK SMILES IDX 26 13 4 14 5 15 1 16 27 17 13 19 14 22 15 23 22 24 16 25
REMARK SMILES IDX 21 26 17 27 20 28 18 29 19 30
REMARK H PARENT 5 18 13 20 13 21
ROOT
ATOM      1  C   UNL     1      45.371 130.793  16.995  1.00  0.00     0.050 A 
ATOM      2  C   UNL     1      44.197 131.574  16.821  1.00  0.00     0.014 A 
ATOM      3  C   UNL     1      43.435 131.983  17.930  1.00  0.00    -0.014 A 
ATOM      4  C   UNL     1      43.867 131.604  19.197  1.00  0.00    -0.125 A 
ATOM      5  N   UNL     1      43.280 131.907  20.370  1.00  0.00    -0.610 NA
ATOM      6  C   UNL     1      44.076 131.315  21.296  1.00  0.00     0.037 A 
ATOM      7  C   UNL     1      45.162 130.660  20.721  1.00  0.00     0.050 A 
ATOM      8  C   UNL     1      45.002 130.857  19.372  1.00  0.00    -0.035 A 
ATOM      9  C   UNL     1      45.783 130.436  18.299  1.00  0.00     0.022 A 
ENDROOT
BRANCH   1  10
ATOM     10  C   UNL     1      46.180 130.375  15.825  1.00  0.00     0.247 A 
ATOM     11  C   UNL     1      47.485 130.904  13.845  1.00  0.00    -0.002 A 
ATOM     12  C   UNL     1      47.677 129.534  13.633  1.00  0.00     0.077 A 
ATOM     13  C   UNL     1      46.718 131.330  14.940  1.00  0.00     0.198 A 
ATOM     14  C   UNL     1      47.122 128.616  14.524  1.00  0.00     0.307 A 
ATOM     15  N   UNL     1      46.393 129.046  15.589  1.00  0.00    -0.209 N 
ATOM     16  C   UNL     1      48.041 131.907  12.874  1.00  0.00     0.048 C 
ATOM     17  F   UNL     1      46.469 132.653  15.117  1.00  0.00    -0.199 F 
ATOM     18  H   UNL     1      46.006 128.328  16.242  1.00  0.00     0.453 HD
ENDBRANCH   1  10
BRANCH   6  19
ATOM     19  N   UNL     1      43.857 131.438  22.707  1.00  0.00    -0.282 N 
ATOM     20  H   UNL     1      43.231 132.254  22.903  1.00  0.00     0.358 HD
ATOM     21  H   UNL     1      44.771 131.592  23.190  1.00  0.00     0.358 HD
BRANCH  19  22
ATOM     22  C   UNL     1      43.256 130.232  23.194  1.00  0.00     0.246 A 
ATOM     23  C   UNL     1      41.959 130.122  23.673  1.00  0.00     0.183 A 
ATOM     24  N   UNL     1      43.864 129.021  23.152  1.00  0.00    -0.177 NA
ATOM     25  N   UNL     1      41.769 128.825  23.949  1.00  0.00    -0.301 N 
ATOM     26  C   UNL     1      42.914 128.194  23.633  1.00  0.00     0.143 A 
ATOM     27  C   UNL     1      40.672 128.191  24.438  1.00  0.00     0.093 A 
ATOM     28  C   UNL     1      43.037 126.816  23.796  1.00  0.00     0.048 A 
ATOM     29  C   UNL     1      40.741 126.803  24.625  1.00  0.00     0.018 A 
ATOM     30  C   UNL     1      41.929 126.118  24.302  1.00  0.00     0.005 A 
ENDBRANCH  19  22
ENDBRANCH   6  19
TORSDOF 3
ENDMDL
MODEL 2
REMARK VINA RESULT:      -7.4      1.943      2.863
REMARK SMILES Cc1cc[nH+]c(-c2ccc3[n-]c([NH2+]c4cn5ccccc5n4)cc3c2)c1F
REMARK SMILES IDX 7 1 8 2 9 3 10 4 11 5 12 6 23 7 24 8 25 9 6 10 2 11 3 12
REMARK SMILES IDX 26 13 4 14 5 15 1 16 27 17 13 19 14 22 15 23 22 24 16 25
REMARK SMILES IDX 21 26 17 27 20 28 18 29 19 30
REMARK H PARENT 5 18 13 20 13 21
ROOT
ATOM      1  C   UNL     1      44.685 131.334  18.749  1.00  0.00     0.050 A 
ATOM      2  C   UNL     1      43.526 132.099  19.051  1.00  0.00     0.014 A 
ATOM      3  C   UNL     1      42.948 132.053  20.332  1.00  0.00    -0.014 A 
ATOM      4  C   UNL     1      43.546 131.242  21.292  1.00  0.00    -0.125 A 
ATOM      5  N   UNL     1      43.147 131.079  22.567  1.00  0.00    -0.610 NA
ATOM      6  C   UNL     1      44.048 130.204  23.081  1.00  0.00     0.037 A 
ATOM      7  C   UNL     1      45.015 129.830  22.152  1.00  0.00     0.050 A 
ATOM      8  C   UNL     1      44.667 130.508  21.010  1.00  0.00    -0.035 A 
ATOM      9  C   UNL     1      45.269 130.530  19.754  1.00  0.00     0.022 A 
ENDROOT
BRANCH   1  10
ATOM     10  C   UNL     1      45.300 131.395  17.402  1.00  0.00     0.247 A 
ATOM     11  C   UNL     1      46.427 130.330  15.531  1.00  0.00    -0.002 A 
ATOM     12  C   UNL     1      46.457 131.567  14.875  1.00  0.00     0.077 A 
ATOM     13  C   UNL     1      45.857 130.245  16.810  1.00  0.00     0.198 A 
ATOM     14  C   UNL     1      45.903 132.687  15.494  1.00  0.00     0.307 A 
ATOM     15  N   UNL     1      45.343 132.584  16.729  1.00  0.00    -0.209 N 
ATOM     16  C   UNL     1      47.054 129.121  14.897  1.00  0.00     0.048 C 
ATOM     17  F   UNL     1      45.883 129.065  17.483  1.00  0.00    -0.199 F 
ATOM     18  H   UNL     1      44.925 133.442  17.153  1.00  0.00     0.453 HD
ENDBRANCH   1  10
BRANCH   6  19
ATOM     19  N   UNL     1      44.040 129.793  24.454  1.00  0.00    -0.282 N 
ATOM     20  H   UNL     1      43.174 130.140  24.928  1.00  0.00     0.358 HD
ATOM     21  H   UNL     1      44.874 130.192  24.943  1.00  0.00     0.358 HD
BRANCH  19  22
ATOM     22  C   UNL     1      44.092 128.362  24.515  1.00  0.00     0.246 A 
ATOM     23  C   UNL     1      42.991 127.526  24.622  1.00  0.00     0.183 A 
ATOM     24  N   UNL     1      45.235 127.646  24.375  1.00  0.00    -0.177 NA
ATOM     25  N   UNL     1      43.462 126.273  24.566  1.00  0.00    -0.301 N 
ATOM     26  C   UNL     1      44.796 126.372  24.421  1.00  0.00     0.143 A 
ATOM     27  C   UNL     1      42.799 125.090  24.623  1.00  0.00     0.093 A 
ATOM     28  C   UNL     1      45.589 125.231  24.321  1.00  0.00     0.048 A 
ATOM     29  C   UNL     1      43.548 123.908  24.528  1.00  0.00     0.018 A 
ATOM     30  C   UNL     1      44.947 123.984  24.377  1.00  0.00     0.005 A 
ENDBRANCH  19  22
ENDBRANCH   6  19
TORSDOF 3
ENDMDL
MODEL 3
REMARK VINA RESULT:      -7.3      0.819      1.306
REMARK SMILES Cc1cc[nH+]c(-c2ccc3[n-]c([NH2+]c4cn5ccccc5n4)cc3c2)c1F
REMARK SMILES IDX 7 1 8 2 9 3 10 4 11 5 12 6 23 7 24 8 25 9 6 10 2 11 3 12
REMARK SMILES IDX 26 13 4 14 5 15 1 16 27 17 13 19 14 22 15 23 22 24 16 25
REMARK SMILES IDX 21 26 17 27 20 28 18 29 19 30
REMARK H PARENT 5 18 13 20 13 21
ROOT
ATOM      1  C   UNL     1      45.774 130.861  16.623  1.00  0.00     0.050 A 
ATOM      2  C   UNL     1      44.611 131.648  16.405  1.00  0.00     0.014 A 
ATOM      3  C   UNL     1      43.806 132.056  17.484  1.00  0.00    -0.014 A 
ATOM      4  C   UNL     1      44.185 131.670  18.766  1.00  0.00    -0.125 A 
ATOM      5  N   UNL     1      43.553 131.971  19.916  1.00  0.00    -0.610 NA
ATOM      6  C   UNL     1      44.308 131.372  20.870  1.00  0.00     0.037 A 
ATOM      7  C   UNL     1      45.414 130.714  20.337  1.00  0.00     0.050 A 
ATOM      8  C   UNL     1      45.309 130.917  18.984  1.00  0.00    -0.035 A 
ATOM      9  C   UNL     1      46.131 130.497  17.942  1.00  0.00     0.022 A 
ENDROOT
BRANCH   1  10
ATOM     10  C   UNL     1      46.627 130.444  15.485  1.00  0.00     0.247 A 
ATOM     11  C   UNL     1      47.543 130.819  13.266  1.00  0.00    -0.002 A 
ATOM     12  C   UNL     1      48.232 129.605  13.370  1.00  0.00     0.077 A 
ATOM     13  C   UNL     1      46.722 131.236  14.325  1.00  0.00     0.198 A 
ATOM     14  C   UNL     1      48.108 128.841  14.530  1.00  0.00     0.307 A 
ATOM     15  N   UNL     1      47.319 129.267  15.553  1.00  0.00    -0.209 N 
ATOM     16  C   UNL     1      47.632 131.635  12.009  1.00  0.00     0.048 C 
ATOM     17  F   UNL     1      45.997 132.379  14.207  1.00  0.00    -0.199 F 
ATOM     18  H   UNL     1      47.264 128.675  16.411  1.00  0.00     0.453 HD
ENDBRANCH   1  10
BRANCH   6  19
ATOM     19  N   UNL     1      44.032 131.491  22.272  1.00  0.00    -0.282 N 
ATOM     20  H   UNL     1      43.282 132.203  22.431  1.00  0.00     0.358 HD
ATOM     21  H   UNL     1      44.898 131.795  22.773  1.00  0.00     0.358 HD
BRANCH  19  22
ATOM     22  C   UNL     1      43.612 130.217  22.775  1.00  0.00     0.246 A 
ATOM     23  C   UNL     1      44.460 129.194  23.171  1.00  0.00     0.183 A 
ATOM     24  N   UNL     1      42.316 129.896  23.017  1.00  0.00    -0.177 NA
ATOM     25  N   UNL     1      43.677 128.217  23.648  1.00  0.00    -0.301 N 
ATOM     26  C   UNL     1      42.410 128.658  23.544  1.00  0.00     0.143 A 
ATOM     27  C   UNL     1      44.011 127.006  24.162  1.00  0.00     0.093 A 
ATOM     28  C   UNL     1      41.344 127.869  23.970  1.00  0.00     0.048 A 
ATOM     29  C   UNL     1      42.977 126.169  24.605  1.00  0.00     0.018 A 
ATOM     30  C   UNL     1      41.641 126.606  24.507  1.00  0.00     0.005 A 
ENDBRANCH  19  22
ENDBRANCH   6  19
TORSDOF 3
ENDMDL
MODEL 4
REMARK VINA RESULT:      -7.1      1.700      2.604
REMARK SMILES Cc1cc[nH+]c(-c2ccc3[n-]c([NH2+]c4cn5ccccc5n4)cc3c2)c1F
REMARK SMILES IDX 7 1 8 2 9 3 10 4 11 5 12 6 23 7 24 8 25 9 6 10 2 11 3 12
REMARK SMILES IDX 26 13 4 14 5 15 1 16 27 17 13 19 14 22 15 23 22 24 16 25
REMARK SMILES IDX 21 26 17 27 20 28 18 29 19 30
REMARK H PARENT 5 18 13 20 13 21
ROOT
ATOM      1  C   UNL     1      44.685 131.381  18.886  1.00  0.00     0.050 A 
ATOM      2  C   UNL     1      45.787 131.963  19.569  1.00  0.00     0.014 A 
ATOM      3  C   UNL     1      45.782 132.083  20.970  1.00  0.00    -0.014 A 
ATOM      4  C   UNL     1      44.672 131.612  21.665  1.00  0.00    -0.125 A 
ATOM      5  N   UNL     1      44.491 131.629  22.998  1.00  0.00    -0.610 NA
ATOM      6  C   UNL     1      43.271 131.063  23.170  1.00  0.00     0.037 A 
ATOM      7  C   UNL     1      42.691 130.676  21.964  1.00  0.00     0.050 A 
ATOM      8  C   UNL     1      43.610 131.044  21.013  1.00  0.00    -0.035 A 
ATOM      9  C   UNL     1      43.579 130.906  19.628  1.00  0.00     0.022 A 
ENDROOT
BRANCH   1  10
ATOM     10  C   UNL     1      44.698 131.244  17.410  1.00  0.00     0.247 A 
ATOM     11  C   UNL     1      45.691 130.389  15.365  1.00  0.00    -0.002 A 
ATOM     12  C   UNL     1      44.685 131.033  14.634  1.00  0.00     0.077 A 
ATOM     13  C   UNL     1      45.707 130.506  16.762  1.00  0.00     0.198 A 
ATOM     14  C   UNL     1      43.707 131.763  15.308  1.00  0.00     0.307 A 
ATOM     15  N   UNL     1      43.730 131.855  16.664  1.00  0.00    -0.209 N 
ATOM     16  C   UNL     1      46.777 129.632  14.654  1.00  0.00     0.048 C 
ATOM     17  F   UNL     1      46.717 129.942  17.476  1.00  0.00    -0.199 F 
ATOM     18  H   UNL     1      42.971 132.398  17.134  1.00  0.00     0.453 HD
ENDBRANCH   1  10
BRANCH   6  19
ATOM     19  N   UNL     1      42.699 130.818  24.461  1.00  0.00    -0.282 N 
ATOM     20  H   UNL     1      41.860 131.427  24.603  1.00  0.00     0.358 HD
ATOM     21  H   UNL     1      43.403 131.037  25.202  1.00  0.00     0.358 HD
BRANCH  19  22
ATOM     22  C   UNL     1      42.324 129.438  24.552  1.00  0.00     0.246 A 
ATOM     23  C   UNL     1      41.021 128.964  24.591  1.00  0.00     0.183 A 
ATOM     24  N   UNL     1      43.214 128.415  24.515  1.00  0.00    -0.177 NA
ATOM     25  N   UNL     1      41.107 127.627  24.596  1.00  0.00    -0.301 N 
ATOM     26  C   UNL     1      42.417 127.327  24.551  1.00  0.00     0.143 A 
ATOM     27  C   UNL     1      40.123 126.692  24.624  1.00  0.00     0.093 A 
ATOM     28  C   UNL     1      42.845 126.001  24.533  1.00  0.00     0.048 A 
ATOM     29  C   UNL     1      40.496 125.340  24.610  1.00  0.00     0.018 A 
ATOM     30  C   UNL     1      41.863 124.999  24.565  1.00  0.00     0.005 A 
ENDBRANCH  19  22
ENDBRANCH   6  19
TORSDOF 3
ENDMDL
MODEL 5
REMARK VINA RESULT:      -6.7      3.172      8.500
REMARK SMILES Cc1cc[nH+]c(-c2ccc3[n-]c([NH2+]c4cn5ccccc5n4)cc3c2)c1F
REMARK SMILES IDX 7 1 8 2 9 3 10 4 11 5 12 6 23 7 24 8 25 9 6 10 2 11 3 12
REMARK SMILES IDX 26 13 4 14 5 15 1 16 27 17 13 19 14 22 15 23 22 24 16 25
REMARK SMILES IDX 21 26 17 27 20 28 18 29 19 30
REMARK H PARENT 5 18 13 20 13 21
ROOT
ATOM      1  C   UNL     1      44.772 127.129  23.096  1.00  0.00     0.050 A 
ATOM      2  C   UNL     1      44.224 128.019  24.059  1.00  0.00     0.014 A 
ATOM      3  C   UNL     1      44.112 129.393  23.784  1.00  0.00    -0.014 A 
ATOM      4  C   UNL     1      44.549 129.852  22.545  1.00  0.00    -0.125 A 
ATOM      5  N   UNL     1      44.512 131.122  22.099  1.00  0.00    -0.610 NA
ATOM      6  C   UNL     1      45.042 131.046  20.853  1.00  0.00     0.037 A 
ATOM      7  C   UNL     1      45.395 129.744  20.505  1.00  0.00     0.050 A 
ATOM      8  C   UNL     1      45.072 128.998  21.610  1.00  0.00    -0.035 A 
ATOM      9  C   UNL     1      45.197 127.631  21.845  1.00  0.00     0.022 A 
ENDROOT
BRANCH   1  10
ATOM     10  C   UNL     1      44.878 125.678  23.383  1.00  0.00     0.247 A 
ATOM     11  C   UNL     1      44.184 123.381  23.003  1.00  0.00    -0.002 A 
ATOM     12  C   UNL     1      45.105 122.966  23.972  1.00  0.00     0.077 A 
ATOM     13  C   UNL     1      44.058 124.748  22.716  1.00  0.00     0.198 A 
ATOM     14  C   UNL     1      45.895 123.915  24.620  1.00  0.00     0.307 A 
ATOM     15  N   UNL     1      45.770 125.235  24.320  1.00  0.00    -0.209 N 
ATOM     16  C   UNL     1      43.296 122.378  22.324  1.00  0.00     0.048 C 
ATOM     17  F   UNL     1      43.120 125.168  21.826  1.00  0.00    -0.199 F 
ATOM     18  H   UNL     1      46.390 125.914  24.816  1.00  0.00     0.453 HD
ENDBRANCH   1  10
BRANCH   6  19
ATOM     19  N   UNL     1      45.137 132.175  19.976  1.00  0.00    -0.282 N 
ATOM     20  H   UNL     1      46.007 132.719  20.183  1.00  0.00     0.358 HD
ATOM     21  H   UNL     1      44.309 132.798  20.117  1.00  0.00     0.358 HD
BRANCH  19  22
ATOM     22  C   UNL     1      45.160 131.713  18.620  1.00  0.00     0.246 A 
ATOM     23  C   UNL     1      44.138 131.886  17.699  1.00  0.00     0.183 A 
ATOM     24  N   UNL     1      46.240 131.128  18.044  1.00  0.00    -0.177 NA
ATOM     25  N   UNL     1      44.586 131.384  16.540  1.00  0.00    -0.301 N 
ATOM     26  C   UNL     1      45.834 130.940  16.772  1.00  0.00     0.143 A 
ATOM     27  C   UNL     1      43.976 131.311  15.329  1.00  0.00     0.093 A 
ATOM     28  C   UNL     1      46.587 130.364  15.751  1.00  0.00     0.048 A 
ATOM     29  C   UNL     1      44.687 130.738  14.265  1.00  0.00     0.018 A 
ATOM     30  C   UNL     1      45.996 130.264  14.482  1.00  0.00     0.005 A 
ENDBRANCH  19  22
ENDBRANCH   6  19
TORSDOF 3
ENDMDL
MODEL 6
REMARK VINA RESULT:      -6.1      3.839      8.185
REMARK SMILES Cc1cc[nH+]c(-c2ccc3[n-]c([NH2+]c4cn5ccccc5n4)cc3c2)c1F
REMARK SMILES IDX 7 1 8 2 9 3 10 4 11 5 12 6 23 7 24 8 25 9 6 10 2 11 3 12
REMARK SMILES IDX 26 13 4 14 5 15 1 16 27 17 13 19 14 22 15 23 22 24 16 25
REMARK SMILES IDX 21 26 17 27 20 28 18 29 19 30
REMARK H PARENT 5 18 13 20 13 21
ROOT
ATOM      1  C   UNL     1      45.547 126.236  23.208  1.00  0.00     0.050 A 
ATOM      2  C   UNL     1      44.615 126.561  24.229  1.00  0.00     0.014 A 
ATOM      3  C   UNL     1      43.988 127.820  24.256  1.00  0.00    -0.014 A 
ATOM      4  C   UNL     1      44.305 128.731  23.253  1.00  0.00    -0.125 A 
ATOM      5  N   UNL     1      43.803 129.971  23.106  1.00  0.00    -0.610 NA
ATOM      6  C   UNL     1      44.418 130.443  21.993  1.00  0.00     0.037 A 
ATOM      7  C   UNL     1      45.286 129.510  21.431  1.00  0.00     0.050 A 
ATOM      8  C   UNL     1      45.198 128.422  22.262  1.00  0.00    -0.035 A 
ATOM      9  C   UNL     1      45.836 127.185  22.201  1.00  0.00     0.022 A 
ENDROOT
BRANCH   1  10
ATOM     10  C   UNL     1      46.197 124.904  23.175  1.00  0.00     0.247 A 
ATOM     11  C   UNL     1      48.187 123.510  23.145  1.00  0.00    -0.002 A 
ATOM     12  C   UNL     1      47.365 122.378  23.096  1.00  0.00     0.077 A 
ATOM     13  C   UNL     1      47.600 124.784  23.171  1.00  0.00     0.198 A 
ATOM     14  C   UNL     1      45.979 122.533  23.092  1.00  0.00     0.307 A 
ATOM     15  N   UNL     1      45.427 123.775  23.131  1.00  0.00    -0.209 N 
ATOM     16  C   UNL     1      49.681 123.364  23.109  1.00  0.00     0.048 C 
ATOM     17  F   UNL     1      48.387 125.891  23.151  1.00  0.00    -0.199 F 
ATOM     18  H   UNL     1      44.385 123.850  23.142  1.00  0.00     0.453 HD
ENDBRANCH   1  10
BRANCH   6  19
ATOM     19  N   UNL     1      44.127 131.726  21.425  1.00  0.00    -0.282 N 
ATOM     20  H   UNL     1      44.771 132.449  21.822  1.00  0.00     0.358 HD
ATOM     21  H   UNL     1      43.142 131.993  21.652  1.00  0.00     0.358 HD
BRANCH  19  22
ATOM     22  C   UNL     1      44.287 131.656  20.003  1.00  0.00     0.246 A 
ATOM     23  C   UNL     1      45.450 131.285  19.347  1.00  0.00     0.183 A 
ATOM     24  N   UNL     1      43.273 131.855  19.124  1.00  0.00    -0.177 NA
ATOM     25  N   UNL     1      45.157 131.271  18.039  1.00  0.00    -0.301 N 
ATOM     26  C   UNL     1      43.861 131.614  17.934  1.00  0.00     0.143 A 
ATOM     27  C   UNL     1      45.944 130.971  16.974  1.00  0.00     0.093 A 
ATOM     28  C   UNL     1      43.240 131.682  16.688  1.00  0.00     0.048 A 
ATOM     29  C   UNL     1      45.371 131.026  15.695  1.00  0.00     0.018 A 
ATOM     30  C   UNL     1      44.015 131.383  15.556  1.00  0.00     0.005 A 
ENDBRANCH  19  22
ENDBRANCH   6  19
TORSDOF 3
ENDMDL
MODEL 7
REMARK VINA RESULT:      -5.5      3.685      8.397
REMARK SMILES Cc1cc[nH+]c(-c2ccc3[n-]c([NH2+]c4cn5ccccc5n4)cc3c2)c1F
REMARK SMILES IDX 7 1 8 2 9 3 10 4 11 5 12 6 23 7 24 8 25 9 6 10 2 11 3 12
REMARK SMILES IDX 26 13 4 14 5 15 1 16 27 17 13 19 14 22 15 23 22 24 16 25
REMARK SMILES IDX 21 26 17 27 20 28 18 29 19 30
REMARK H PARENT 5 18 13 20 13 21
ROOT
ATOM      1  C   UNL     1      45.666 126.776  23.001  1.00  0.00     0.050 A 
ATOM      2  C   UNL     1      44.699 127.339  23.877  1.00  0.00     0.014 A 
ATOM      3  C   UNL     1      44.127 128.594  23.604  1.00  0.00    -0.014 A 
ATOM      4  C   UNL     1      44.532 129.262  22.452  1.00  0.00    -0.125 A 
ATOM      5  N   UNL     1      44.091 130.458  22.020  1.00  0.00    -0.610 NA
ATOM      6  C   UNL     1      44.780 130.664  20.870  1.00  0.00     0.037 A 
ATOM      7  C   UNL     1      45.633 129.606  20.565  1.00  0.00     0.050 A 
ATOM      8  C   UNL     1      45.458 128.722  21.600  1.00  0.00    -0.035 A 
ATOM      9  C   UNL     1      46.045 127.481  21.836  1.00  0.00     0.022 A 
ENDROOT
BRANCH   1  10
ATOM     10  C   UNL     1      46.259 125.447  23.285  1.00  0.00     0.247 A 
ATOM     11  C   UNL     1      48.141 123.911  23.263  1.00  0.00    -0.002 A 
ATOM     12  C   UNL     1      47.317 122.929  23.824  1.00  0.00     0.077 A 
ATOM     13  C   UNL     1      47.606 125.176  22.978  1.00  0.00     0.198 A 
ATOM     14  C   UNL     1      45.985 123.228  24.108  1.00  0.00     0.307 A 
ATOM     15  N   UNL     1      45.486 124.464  23.837  1.00  0.00    -0.209 N 
ATOM     16  C   UNL     1      49.567 123.594  22.913  1.00  0.00     0.048 C 
ATOM     17  F   UNL     1      48.378 126.115  22.371  1.00  0.00    -0.199 F 
ATOM     18  H   UNL     1      44.488 124.655  24.078  1.00  0.00     0.453 HD
ENDBRANCH   1  10
BRANCH   6  19
ATOM     19  N   UNL     1      44.572 131.807  20.029  1.00  0.00    -0.282 N 
ATOM     20  H   UNL     1      45.097 132.630  20.407  1.00  0.00     0.358 HD
ATOM     21  H   UNL     1      43.553 132.040  20.003  1.00  0.00     0.358 HD
BRANCH  19  22
ATOM     22  C   UNL     1      45.026 131.502  18.705  1.00  0.00     0.246 A 
ATOM     23  C   UNL     1      45.035 132.389  17.639  1.00  0.00     0.183 A 
ATOM     24  N   UNL     1      45.597 130.321  18.360  1.00  0.00    -0.177 NA
ATOM     25  N   UNL     1      45.604 131.741  16.614  1.00  0.00    -0.301 N 
ATOM     26  C   UNL     1      45.927 130.517  17.068  1.00  0.00     0.143 A 
ATOM     27  C   UNL     1      45.855 132.163  15.348  1.00  0.00     0.093 A 
ATOM     28  C   UNL     1      46.553 129.590  16.236  1.00  0.00     0.048 A 
ATOM     29  C   UNL     1      46.481 131.271  14.466  1.00  0.00     0.018 A 
ATOM     30  C   UNL     1      46.829 129.981  14.916  1.00  0.00     0.005 A 
ENDBRANCH  19  22
ENDBRANCH   6  19
TORSDOF 3
ENDMDL
MODEL 8
REMARK VINA RESULT:      -5.4      6.030      7.589
REMARK SMILES Cc1cc[nH+]c(-c2ccc3[n-]c([NH2+]c4cn5ccccc5n4)cc3c2)c1F
REMARK SMILES IDX 7 1 8 2 9 3 10 4 11 5 12 6 23 7 24 8 25 9 6 10 2 11 3 12
REMARK SMILES IDX 26 13 4 14 5 15 1 16 27 17 13 19 14 22 15 23 22 24 16 25
REMARK SMILES IDX 21 26 17 27 20 28 18 29 19 30
REMARK H PARENT 5 18 13 20 13 21
ROOT
ATOM      1  C   UNL     1      50.301 125.143  21.938  1.00  0.00     0.050 A 
ATOM      2  C   UNL     1      50.687 125.656  23.206  1.00  0.00     0.014 A 
ATOM      3  C   UNL     1      49.720 126.035  24.153  1.00  0.00    -0.014 A 
ATOM      4  C   UNL     1      48.378 125.889  23.814  1.00  0.00    -0.125 A 
ATOM      5  N   UNL     1      47.317 126.184  24.587  1.00  0.00    -0.610 NA
ATOM      6  C   UNL     1      46.250 125.866  23.812  1.00  0.00     0.037 A 
ATOM      7  C   UNL     1      46.627 125.359  22.571  1.00  0.00     0.050 A 
ATOM      8  C   UNL     1      47.999 125.389  22.596  1.00  0.00    -0.035 A 
ATOM      9  C   UNL     1      48.928 125.001  21.634  1.00  0.00     0.022 A 
ENDROOT
BRANCH   1  10
ATOM     10  C   UNL     1      51.323 124.732  20.946  1.00  0.00     0.247 A 
ATOM     11  C   UNL     1      51.969 123.541  18.930  1.00  0.00    -0.002 A 
ATOM     12  C   UNL     1      53.286 123.976  19.122  1.00  0.00     0.077 A 
ATOM     13  C   UNL     1      50.982 123.909  19.856  1.00  0.00     0.198 A 
ATOM     14  C   UNL     1      53.590 124.784  20.217  1.00  0.00     0.307 A 
ATOM     15  N   UNL     1      52.618 125.142  21.098  1.00  0.00    -0.209 N 
ATOM     16  C   UNL     1      51.630 122.638  17.779  1.00  0.00     0.048 C 
ATOM     17  F   UNL     1      49.716 123.436  19.717  1.00  0.00    -0.199 F 
ATOM     18  H   UNL     1      52.882 125.760  21.898  1.00  0.00     0.453 HD
ENDBRANCH   1  10
BRANCH   6  19
ATOM     19  N   UNL     1      44.895 125.963  24.272  1.00  0.00    -0.282 N 
ATOM     20  H   UNL     1      44.854 125.803  25.305  1.00  0.00     0.358 HD
ATOM     21  H   UNL     1      44.312 125.237  23.795  1.00  0.00     0.358 HD
BRANCH  19  22
ATOM     22  C   UNL     1      44.387 127.265  23.957  1.00  0.00     0.246 A 
ATOM     23  C   UNL     1      43.351 127.902  24.625  1.00  0.00     0.183 A 
ATOM     24  N   UNL     1      44.932 128.077  23.017  1.00  0.00    -0.177 NA
ATOM     25  N   UNL     1      43.242 129.120  24.077  1.00  0.00    -0.301 N 
ATOM     26  C   UNL     1      44.189 129.197  23.126  1.00  0.00     0.143 A 
ATOM     27  C   UNL     1      42.388 130.133  24.371  1.00  0.00     0.093 A 
ATOM     28  C   UNL     1      44.346 130.357  22.369  1.00  0.00     0.048 A 
ATOM     29  C   UNL     1      42.499 131.324  23.639  1.00  0.00     0.018 A 
ATOM     30  C   UNL     1      43.483 131.431  22.636  1.00  0.00     0.005 A 
ENDBRANCH  19  22
ENDBRANCH   6  19
TORSDOF 3
ENDMDL


