REMARK SMILES C=Cc1ccc(-c2cc3cc[nH]c3cc2Nc2cc(F)c(O)cc2N)[nH+]c1
REMARK SMILES IDX 7 1 8 2 9 3 10 4 11 5 12 6 13 7 14 8 15 9 6 11 3 12 4 13
REMARK SMILES IDX 27 14 5 15 26 16 2 18 1 19 16 20 17 22 18 23 24 24 19 25
REMARK SMILES IDX 23 26 21 27 20 28 25 29 22 32
REMARK H PARENT 12 10 26 17 16 21 25 30 25 31 22 33
ROOT
ATOM      1  C   UNL     1      -0.025   0.854   0.846  1.00  0.00     0.070 A 
ATOM      2  C   UNL     1      -0.628   2.120   1.018  1.00  0.00     0.027 A 
ATOM      3  C   UNL     1      -0.560   2.718   2.271  1.00  0.00     0.000 A 
ATOM      4  C   UNL     1      -1.040   3.932   2.712  1.00  0.00     0.028 A 
ATOM      5  C   UNL     1      -0.666   4.004   4.050  1.00  0.00     0.083 A 
ATOM      6  N   UNL     1       0.011   2.894   4.420  1.00  0.00    -0.361 N 
ATOM      7  C   UNL     1       0.070   2.119   3.325  1.00  0.00     0.047 A 
ATOM      8  C   UNL     1       0.667   0.867   3.206  1.00  0.00     0.053 A 
ATOM      9  C   UNL     1       0.602   0.207   1.961  1.00  0.00     0.055 A 
ATOM     10  H   UNL     1       0.406   2.686   5.364  1.00  0.00     0.166 HD
ENDROOT
BRANCH   1  11
ATOM     11  C   UNL     1      -0.019   0.248  -0.504  1.00  0.00     0.212 A 
ATOM     12  C   UNL     1       0.004  -1.012  -2.999  1.00  0.00     0.038 A 
ATOM     13  C   UNL     1      -1.210  -0.580  -2.437  1.00  0.00     0.021 A 
ATOM     14  C   UNL     1       1.186  -0.789  -2.276  1.00  0.00     0.314 A 
ATOM     15  C   UNL     1      -1.222   0.057  -1.196  1.00  0.00     0.081 A 
ATOM     16  N   UNL     1       1.153  -0.168  -1.066  1.00  0.00    -0.210 N 
ATOM     17  H   UNL     1       2.055  -0.017  -0.560  1.00  0.00     0.453 HD
BRANCH  12  18
ATOM     18  C   UNL     1       0.087  -1.718  -4.302  1.00  0.00     0.006 C 
ATOM     19  C   UNL     1      -0.897  -1.753  -5.202  1.00  0.00     0.009 C 
ENDBRANCH  12  18
ENDBRANCH   1  11
BRANCH   9  20
ATOM     20  N   UNL     1       1.169  -1.112   1.855  1.00  0.00    -0.353 N 
ATOM     21  H   UNL     1       2.023  -1.323   2.420  1.00  0.00     0.167 HD
BRANCH  20  22
ATOM     22  C   UNL     1       0.510  -2.207   1.194  1.00  0.00     0.065 A 
ATOM     23  C   UNL     1      -0.888  -2.335   1.271  1.00  0.00     0.071 A 
ATOM     24  C   UNL     1       1.254  -3.164   0.468  1.00  0.00     0.059 A 
ATOM     25  C   UNL     1      -1.542  -3.383   0.621  1.00  0.00     0.167 A 
ATOM     26  C   UNL     1       0.586  -4.217  -0.174  1.00  0.00     0.077 A 
ATOM     27  C   UNL     1      -0.806  -4.328  -0.105  1.00  0.00     0.153 A 
ATOM     28  F   UNL     1      -2.893  -3.478   0.701  1.00  0.00    -0.203 F 
BRANCH  24  29
ATOM     29  N   UNL     1       2.677  -3.052   0.329  1.00  0.00    -0.397 N 
ATOM     30  H   UNL     1       3.216  -3.779  -0.193  1.00  0.00     0.156 HD
ATOM     31  H   UNL     1       3.205  -2.228   0.689  1.00  0.00     0.156 HD
ENDBRANCH  24  29
BRANCH  27  32
ATOM     32  O   UNL     1      -1.440  -5.380  -0.764  1.00  0.00    -0.505 OA
ATOM     33  H   UNL     1      -2.446  -5.496  -0.741  1.00  0.00     0.293 HD
ENDBRANCH  27  32
ENDBRANCH  20  22
ENDBRANCH   9  20
TORSDOF 6


