REMARK SMILES Oc1c(-n2[nH+]c3ccccc3[nH+]2)cc2cnoc2c1Nc1ccc2cc[nH]c2c1
REMARK SMILES IDX 2 1 3 2 13 3 14 4 15 5 16 6 17 7 18 8 19 9 1 10 4 12 5 13
REMARK SMILES IDX 12 14 6 15 11 16 7 17 10 18 8 19 9 20 20 23 21 25 22 26
REMARK SMILES IDX 29 27 23 28 28 29 24 30 27 31 25 32 26 33
REMARK H PARENT 1 11 5 21 12 22 20 24 27 34
ROOT
ATOM      1  C   UNL     1      -1.203   0.354  -0.325  1.00  0.00     0.179 A 
ATOM      2  C   UNL     1      -1.403  -1.030  -0.041  1.00  0.00     0.212 A 
ATOM      3  C   UNL     1      -2.279  -1.417   0.998  1.00  0.00     0.057 A 
ATOM      4  C   UNL     1      -2.941  -0.417   1.697  1.00  0.00     0.047 A 
ATOM      5  C   UNL     1      -3.848  -0.454   2.728  1.00  0.00     0.167 A 
ATOM      6  N   UNL     1      -4.171   0.824   3.042  1.00  0.00    -0.087 NA
ATOM      7  O   UNL     1      -3.497   1.612   2.245  1.00  0.00    -0.354 OA
ATOM      8  C   UNL     1      -2.755   0.903   1.431  1.00  0.00     0.194 A 
ATOM      9  C   UNL     1      -1.880   1.343   0.441  1.00  0.00     0.130 A 
ENDROOT
BRANCH   1  10
ATOM     10  O   UNL     1      -0.337   0.720  -1.357  1.00  0.00    -0.504 OA
ATOM     11  H   UNL     1      -0.216   1.679  -1.658  1.00  0.00     0.293 HD
ENDBRANCH   1  10
BRANCH   2  12
ATOM     12  N   UNL     1      -0.725  -2.044  -0.802  1.00  0.00     0.083 N 
ATOM     13  N   UNL     1      -0.570  -2.020  -2.126  1.00  0.00    -0.062 N 
ATOM     14  N   UNL     1      -0.210  -3.153  -0.273  1.00  0.00    -0.062 N 
ATOM     15  C   UNL     1       0.075  -3.153  -2.446  1.00  0.00     0.306 A 
ATOM     16  C   UNL     1       0.299  -3.854  -1.298  1.00  0.00     0.306 A 
ATOM     17  C   UNL     1       0.470  -3.626  -3.694  1.00  0.00     0.089 A 
ATOM     18  C   UNL     1       0.943  -5.088  -1.295  1.00  0.00     0.089 A 
ATOM     19  C   UNL     1       1.128  -4.871  -3.733  1.00  0.00     0.007 A 
ATOM     20  C   UNL     1       1.364  -5.598  -2.539  1.00  0.00     0.007 A 
ATOM     21  H   UNL     1      -0.924  -1.286  -2.779  1.00  0.00     0.495 HD
ATOM     22  H   UNL     1      -0.205  -3.409   0.740  1.00  0.00     0.495 HD
ENDBRANCH   2  12
BRANCH   9  23
ATOM     23  N   UNL     1      -1.695   2.748   0.223  1.00  0.00    -0.349 N 
ATOM     24  H   UNL     1      -2.552   3.332   0.090  1.00  0.00     0.167 HD
BRANCH  23  25
ATOM     25  C   UNL     1      -0.429   3.418   0.370  1.00  0.00     0.041 A 
ATOM     26  C   UNL     1      -0.304   4.761  -0.068  1.00  0.00     0.027 A 
ATOM     27  C   UNL     1       0.683   2.772   0.964  1.00  0.00     0.052 A 
ATOM     28  C   UNL     1       0.914   5.452   0.063  1.00  0.00     0.012 A 
ATOM     29  C   UNL     1       1.874   3.486   1.078  1.00  0.00     0.047 A 
ATOM     30  C   UNL     1       1.984   4.778   0.642  1.00  0.00    -0.001 A 
ATOM     31  N   UNL     1       3.034   3.059   1.602  1.00  0.00    -0.361 N 
ATOM     32  C   UNL     1       3.273   5.192   0.899  1.00  0.00     0.028 A 
ATOM     33  C   UNL     1       3.893   4.098   1.495  1.00  0.00     0.083 A 
ATOM     34  H   UNL     1       3.236   2.119   2.010  1.00  0.00     0.166 HD
ENDBRANCH  23  25
ENDBRANCH   9  23
TORSDOF 4


