REMARK SMILES Cc1ccc(-c2ccc(OC(=O)[C@H]3CCC3(C)C)cc2)c2c[n-]nc12
REMARK SMILES IDX 10 1 9 2 6 3 7 4 20 5 8 6 19 7 5 8 2 9 3 10 25 11 4 12 24 13
REMARK SMILES IDX 21 14 23 15 22 16 1 17 11 18 12 19 13 20 14 21 16 22 15 23
REMARK SMILES IDX 17 24 18 25
REMARK H PARENT
ROOT
ATOM      1  O   UNL     1       0.454   2.491  -0.260  1.00  0.00    -0.426 OA
ENDROOT
BRANCH   1   2
ATOM      2  C   UNL     1       0.524   1.111  -0.025  1.00  0.00     0.130 A 
ATOM      3  C   UNL     1       0.672  -1.646   0.546  1.00  0.00    -0.018 A 
ATOM      4  C   UNL     1       0.127  -1.201  -0.670  1.00  0.00     0.012 A 
ATOM      5  C   UNL     1       1.117  -0.699   1.482  1.00  0.00     0.012 A 
ATOM      6  C   UNL     1       0.052   0.166  -0.954  1.00  0.00     0.048 A 
ATOM      7  C   UNL     1       1.041   0.667   1.197  1.00  0.00     0.048 A 
BRANCH   3   8
ATOM      8  C   UNL     1       0.738  -3.095   0.849  1.00  0.00    -0.011 A 
ATOM      9  C   UNL     1       0.857  -5.885   1.457  1.00  0.00    -0.027 A 
ATOM     10  C   UNL     1      -0.321  -5.311   0.933  1.00  0.00     0.006 A 
ATOM     11  C   UNL     1       1.955  -5.040   1.635  1.00  0.00     0.050 A 
ATOM     12  C   UNL     1      -0.381  -3.932   0.636  1.00  0.00     0.010 A 
ATOM     13  N   UNL     1       3.187  -5.370   2.062  1.00  0.00    -0.367 NA
ATOM     14  C   UNL     1       1.897  -3.704   1.349  1.00  0.00    -0.014 A 
ATOM     15  N   UNL     1       3.922  -4.262   2.049  1.00  0.00    -0.581 NA
ATOM     16  C   UNL     1       3.163  -3.230   1.614  1.00  0.00    -0.113 A 
ATOM     17  C   UNL     1       0.947  -7.356   1.731  1.00  0.00     0.046 C 
ENDBRANCH   3   8
ENDBRANCH   1   2
BRANCH   1  18
ATOM     18  C   UNL     1       0.462   3.096  -1.523  1.00  0.00     0.314 C 
ATOM     19  O   UNL     1       0.953   2.494  -2.518  1.00  0.00    -0.251 OA
BRANCH  18  20
ATOM     20  C   UNL     1      -0.015   4.523  -1.644  1.00  0.00     0.105 C 
ATOM     21  C   UNL     1      -0.237   5.025  -3.076  1.00  0.00     0.016 C 
ATOM     22  C   UNL     1      -1.512   4.770  -1.339  1.00  0.00    -0.022 C 
ATOM     23  C   UNL     1      -1.701   5.311  -2.763  1.00  0.00     0.008 C 
ATOM     24  C   UNL     1      -1.727   5.845  -0.260  1.00  0.00     0.012 C 
ATOM     25  C   UNL     1      -2.378   3.520  -1.075  1.00  0.00     0.012 C 
ENDBRANCH  18  20
ENDBRANCH   1  18
TORSDOF 4


