REMARK SMILES C=Cc1c(Nc2cccnc2N)ccc2c1[nH+]nn2C
REMARK SMILES IDX 5 1 4 3 3 4 16 5 13 6 15 7 17 8 14 9 19 10 18 11 20 13 2 14
REMARK SMILES IDX 1 15 6 16 7 17 11 18 8 19 10 20 9 21 12 22
REMARK H PARENT 5 2 17 12 12 23 12 24
ROOT
ATOM      1  N   UNL     1      -0.479   0.199   1.758  1.00  0.00    -0.352 N 
ATOM      2  H   UNL     1      -0.935  -0.188   2.614  1.00  0.00     0.167 HD
ENDROOT
BRANCH   1   3
ATOM      3  C   UNL     1      -0.103  -0.733   0.731  1.00  0.00     0.051 A 
ATOM      4  C   UNL     1      -0.230  -0.417  -0.658  1.00  0.00     0.051 A 
ATOM      5  C   UNL     1       0.278  -1.355  -1.564  1.00  0.00     0.204 A 
ATOM      6  C   UNL     1       0.439  -1.985   1.125  1.00  0.00     0.031 A 
ATOM      7  C   UNL     1       0.819  -2.540  -1.165  1.00  0.00     0.198 A 
ATOM      8  N   UNL     1       0.287  -1.333  -2.911  1.00  0.00    -0.142 N 
ATOM      9  C   UNL     1       0.908  -2.906   0.172  1.00  0.00     0.061 A 
ATOM     10  N   UNL     1       1.165  -3.223  -2.271  1.00  0.00    -0.133 N 
ATOM     11  N   UNL     1       0.827  -2.478  -3.319  1.00  0.00     0.088 NA
ATOM     12  H   UNL     1      -0.071  -0.584  -3.543  1.00  0.00     0.342 HD
ATOM     13  C   UNL     1       1.732  -4.562  -2.353  1.00  0.00     0.327 C 
BRANCH   4  14
ATOM     14  C   UNL     1      -0.878   0.812  -1.166  1.00  0.00     0.007 C 
ATOM     15  C   UNL     1      -2.023   1.276  -0.670  1.00  0.00     0.009 C 
ENDBRANCH   4  14
ENDBRANCH   1   3
BRANCH   1  16
ATOM     16  C   UNL     1      -0.021   1.564   1.793  1.00  0.00     0.081 A 
ATOM     17  C   UNL     1       1.213   1.918   1.221  1.00  0.00     0.031 A 
ATOM     18  C   UNL     1      -0.776   2.568   2.439  1.00  0.00     0.147 A 
ATOM     19  C   UNL     1       1.671   3.232   1.293  1.00  0.00     0.022 A 
ATOM     20  N   UNL     1      -0.295   3.841   2.494  1.00  0.00    -0.238 NA
ATOM     21  C   UNL     1       0.897   4.190   1.944  1.00  0.00     0.113 A 
BRANCH  18  22
ATOM     22  N   UNL     1      -2.060   2.292   3.007  1.00  0.00    -0.382 N 
ATOM     23  H   UNL     1      -2.538   1.374   2.882  1.00  0.00     0.158 HD
ATOM     24  H   UNL     1      -2.578   3.047   3.509  1.00  0.00     0.158 HD
ENDBRANCH  18  22
ENDBRANCH   1  16
TORSDOF 4


