MODEL 1
REMARK VINA RESULT:      -4.7      0.000      0.000
REMARK SMILES Cc1cc(F)ncc1-c1ccc2cc(Nc3cn4ccccc4n3)[n-]c2c1
REMARK SMILES IDX 9 1 10 2 11 3 12 4 13 5 14 6 25 7 26 8 27 9 8 10 2 11 3 12
REMARK SMILES IDX 4 13 7 14 6 15 1 16 5 17 15 18 16 20 17 21 24 22 18 23 23 24
REMARK SMILES IDX 19 25 22 26 20 27 21 28
REMARK H PARENT 15 19
ROOT
ATOM      1  C   UNL     1      41.422 128.535  23.676  1.00  0.00    -0.016 A 
ATOM      2  C   UNL     1      41.440 129.635  24.573  1.00  0.00     0.009 A 
ATOM      3  C   UNL     1      42.287 130.733  24.342  1.00  0.00     0.009 A 
ATOM      4  C   UNL     1      43.098 130.703  23.211  1.00  0.00    -0.023 A 
ATOM      5  C   UNL     1      43.995 131.624  22.733  1.00  0.00     0.007 A 
ATOM      6  C   UNL     1      44.490 131.051  21.563  1.00  0.00    -0.059 A 
ATOM      7  N   UNL     1      43.920 129.850  21.301  1.00  0.00    -0.436 NA
ATOM      8  C   UNL     1      43.077 129.653  22.332  1.00  0.00    -0.033 A 
ATOM      9  C   UNL     1      42.247 128.552  22.529  1.00  0.00     0.013 A 
ENDROOT
BRANCH   1  10
ATOM     10  C   UNL     1      40.519 127.388  23.917  1.00  0.00     0.003 A 
ATOM     11  C   UNL     1      40.991 126.135  24.377  1.00  0.00    -0.037 A 
ATOM     12  C   UNL     1      40.067 125.107  24.624  1.00  0.00     0.064 A 
ATOM     13  C   UNL     1      38.711 125.320  24.381  1.00  0.00     0.213 A 
ATOM     14  C   UNL     1      39.144 127.544  23.676  1.00  0.00     0.123 A 
ATOM     15  N   UNL     1      38.283 126.520  23.912  1.00  0.00    -0.228 NA
ATOM     16  C   UNL     1      42.455 125.875  24.623  1.00  0.00     0.045 C 
ATOM     17  F   UNL     1      37.816 124.328  24.608  1.00  0.00    -0.185 F 
ENDBRANCH   1  10
BRANCH   6  18
ATOM     18  N   UNL     1      45.419 131.669  20.663  1.00  0.00    -0.441 N 
ATOM     19  H   UNL     1      46.111 132.343  21.062  1.00  0.00     0.027 HD
BRANCH  18  20
ATOM     20  C   UNL     1      45.460 131.428  19.250  1.00  0.00     0.068 A 
ATOM     21  C   UNL     1      46.363 130.611  18.583  1.00  0.00     0.116 A 
ATOM     22  N   UNL     1      44.528 131.915  18.396  1.00  0.00    -0.233 NA
ATOM     23  N   UNL     1      45.996 130.614  17.294  1.00  0.00    -0.307 N 
ATOM     24  C   UNL     1      44.906 131.396  17.210  1.00  0.00     0.136 A 
ATOM     25  C   UNL     1      46.544 129.972  16.232  1.00  0.00     0.093 A 
ATOM     26  C   UNL     1      44.265 131.598  15.989  1.00  0.00     0.048 A 
ATOM     27  C   UNL     1      45.942 130.140  14.976  1.00  0.00     0.018 A 
ATOM     28  C   UNL     1      44.800 130.957  14.859  1.00  0.00     0.005 A 
ENDBRANCH  18  20
ENDBRANCH   6  18
TORSDOF 3
ENDMDL
MODEL 2
REMARK VINA RESULT:      -4.3      5.645      7.022
REMARK SMILES Cc1cc(F)ncc1-c1ccc2cc(Nc3cn4ccccc4n3)[n-]c2c1
REMARK SMILES IDX 9 1 10 2 11 3 12 4 13 5 14 6 25 7 26 8 27 9 8 10 2 11 3 12
REMARK SMILES IDX 4 13 7 14 6 15 1 16 5 17 15 18 16 20 17 21 24 22 18 23 23 24
REMARK SMILES IDX 19 25 22 26 20 27 21 28
REMARK H PARENT 15 19
ROOT
ATOM      1  C   UNL     1      42.523 125.397  23.279  1.00  0.00    -0.016 A 
ATOM      2  C   UNL     1      42.728 124.160  22.615  1.00  0.00     0.009 A 
ATOM      3  C   UNL     1      44.029 123.667  22.407  1.00  0.00     0.009 A 
ATOM      4  C   UNL     1      45.095 124.428  22.875  1.00  0.00    -0.023 A 
ATOM      5  C   UNL     1      46.446 124.192  22.829  1.00  0.00     0.007 A 
ATOM      6  C   UNL     1      47.013 125.294  23.466  1.00  0.00    -0.059 A 
ATOM      7  N   UNL     1      46.074 126.164  23.913  1.00  0.00    -0.436 NA
ATOM      8  C   UNL     1      44.907 125.616  23.530  1.00  0.00    -0.033 A 
ATOM      9  C   UNL     1      43.632 126.130  23.754  1.00  0.00     0.013 A 
ENDROOT
BRANCH   1  10
ATOM     10  C   UNL     1      41.151 125.905  23.506  1.00  0.00     0.003 A 
ATOM     11  C   UNL     1      40.088 125.063  23.910  1.00  0.00    -0.037 A 
ATOM     12  C   UNL     1      38.824 125.626  24.148  1.00  0.00     0.064 A 
ATOM     13  C   UNL     1      38.625 126.992  23.949  1.00  0.00     0.213 A 
ATOM     14  C   UNL     1      40.892 127.272  23.308  1.00  0.00     0.123 A 
ATOM     15  N   UNL     1      39.652 127.777  23.533  1.00  0.00    -0.228 NA
ATOM     16  C   UNL     1      40.275 123.581  24.107  1.00  0.00     0.045 C 
ATOM     17  F   UNL     1      37.405 127.539  24.167  1.00  0.00    -0.185 F 
ENDBRANCH   1  10
BRANCH   6  18
ATOM     18  N   UNL     1      48.411 125.478  23.726  1.00  0.00    -0.441 N 
ATOM     19  H   UNL     1      48.682 126.058  24.551  1.00  0.00     0.027 HD
BRANCH  18  20
ATOM     20  C   UNL     1      49.463 124.924  22.924  1.00  0.00     0.068 A 
ATOM     21  C   UNL     1      49.565 123.606  22.502  1.00  0.00     0.116 A 
ATOM     22  N   UNL     1      50.454 125.679  22.393  1.00  0.00    -0.233 NA
ATOM     23  N   UNL     1      50.651 123.541  21.720  1.00  0.00    -0.307 N 
ATOM     24  C   UNL     1      51.161 124.784  21.672  1.00  0.00     0.136 A 
ATOM     25  C   UNL     1      51.183 122.485  21.056  1.00  0.00     0.093 A 
ATOM     26  C   UNL     1      52.301 125.059  20.919  1.00  0.00     0.048 A 
ATOM     27  C   UNL     1      52.335 122.702  20.283  1.00  0.00     0.018 A 
ATOM     28  C   UNL     1      52.892 123.995  20.218  1.00  0.00     0.005 A 
ENDBRANCH  18  20
ENDBRANCH   6  18
TORSDOF 3
ENDMDL
MODEL 3
REMARK VINA RESULT:      -4.2      6.703      9.807
REMARK SMILES Cc1cc(F)ncc1-c1ccc2cc(Nc3cn4ccccc4n3)[n-]c2c1
REMARK SMILES IDX 9 1 10 2 11 3 12 4 13 5 14 6 25 7 26 8 27 9 8 10 2 11 3 12
REMARK SMILES IDX 4 13 7 14 6 15 1 16 5 17 15 18 16 20 17 21 24 22 18 23 23 24
REMARK SMILES IDX 19 25 22 26 20 27 21 28
REMARK H PARENT 15 19
ROOT
ATOM      1  C   UNL     1      49.324 123.700  21.114  1.00  0.00    -0.016 A 
ATOM      2  C   UNL     1      49.135 122.574  21.956  1.00  0.00     0.009 A 
ATOM      3  C   UNL     1      48.095 122.555  22.903  1.00  0.00     0.009 A 
ATOM      4  C   UNL     1      47.266 123.669  22.980  1.00  0.00    -0.023 A 
ATOM      5  C   UNL     1      46.181 123.919  23.782  1.00  0.00     0.007 A 
ATOM      6  C   UNL     1      45.750 125.188  23.398  1.00  0.00    -0.059 A 
ATOM      7  N   UNL     1      46.502 125.700  22.394  1.00  0.00    -0.436 NA
ATOM      8  C   UNL     1      47.431 124.755  22.162  1.00  0.00    -0.033 A 
ATOM      9  C   UNL     1      48.449 124.804  21.211  1.00  0.00     0.013 A 
ENDROOT
BRANCH   1  10
ATOM     10  C   UNL     1      50.412 123.709  20.111  1.00  0.00     0.003 A 
ATOM     11  C   UNL     1      51.705 124.208  20.399  1.00  0.00    -0.037 A 
ATOM     12  C   UNL     1      52.698 124.143  19.408  1.00  0.00     0.064 A 
ATOM     13  C   UNL     1      52.391 123.624  18.151  1.00  0.00     0.213 A 
ATOM     14  C   UNL     1      50.154 123.208  18.823  1.00  0.00     0.123 A 
ATOM     15  N   UNL     1      51.136 123.177  17.886  1.00  0.00    -0.228 NA
ATOM     16  C   UNL     1      52.053 124.795  21.742  1.00  0.00     0.045 C 
ATOM     17  F   UNL     1      53.342 123.568  17.188  1.00  0.00    -0.185 F 
ENDBRANCH   1  10
BRANCH   6  18
ATOM     18  N   UNL     1      44.596 125.865  23.911  1.00  0.00    -0.441 N 
ATOM     19  H   UNL     1      43.910 125.307  24.469  1.00  0.00     0.027 HD
BRANCH  18  20
ATOM     20  C   UNL     1      44.314 127.256  23.705  1.00  0.00     0.068 A 
ATOM     21  C   UNL     1      43.304 127.779  22.910  1.00  0.00     0.116 A 
ATOM     22  N   UNL     1      44.968 128.242  24.365  1.00  0.00    -0.233 NA
ATOM     23  N   UNL     1      43.352 129.109  23.063  1.00  0.00    -0.307 N 
ATOM     24  C   UNL     1      44.348 129.358  23.931  1.00  0.00     0.136 A 
ATOM     25  C   UNL     1      42.578 130.077  22.511  1.00  0.00     0.093 A 
ATOM     26  C   UNL     1      44.650 130.663  24.315  1.00  0.00     0.048 A 
ATOM     27  C   UNL     1      42.838 131.411  22.859  1.00  0.00     0.018 A 
ATOM     28  C   UNL     1      43.879 131.700  23.765  1.00  0.00     0.005 A 
ENDBRANCH  18  20
ENDBRANCH   6  18
TORSDOF 3
ENDMDL
MODEL 4
REMARK VINA RESULT:      -4.2      6.601     10.225
REMARK SMILES Cc1cc(F)ncc1-c1ccc2cc(Nc3cn4ccccc4n3)[n-]c2c1
REMARK SMILES IDX 9 1 10 2 11 3 12 4 13 5 14 6 25 7 26 8 27 9 8 10 2 11 3 12
REMARK SMILES IDX 4 13 7 14 6 15 1 16 5 17 15 18 16 20 17 21 24 22 18 23 23 24
REMARK SMILES IDX 19 25 22 26 20 27 21 28
REMARK H PARENT 15 19
ROOT
ATOM      1  C   UNL     1      49.369 124.859  21.919  1.00  0.00    -0.016 A 
ATOM      2  C   UNL     1      49.683 125.028  23.293  1.00  0.00     0.009 A 
ATOM      3  C   UNL     1      48.719 125.516  24.192  1.00  0.00     0.009 A 
ATOM      4  C   UNL     1      47.458 125.823  23.691  1.00  0.00    -0.023 A 
ATOM      5  C   UNL     1      46.336 126.293  24.326  1.00  0.00     0.007 A 
ATOM      6  C   UNL     1      45.382 126.393  23.316  1.00  0.00    -0.059 A 
ATOM      7  N   UNL     1      45.862 125.986  22.116  1.00  0.00    -0.436 NA
ATOM      8  C   UNL     1      47.140 125.650  22.370  1.00  0.00    -0.033 A 
ATOM      9  C   UNL     1      48.071 125.165  21.454  1.00  0.00     0.013 A 
ENDROOT
BRANCH   1  10
ATOM     10  C   UNL     1      50.384 124.333  20.979  1.00  0.00     0.003 A 
ATOM     11  C   UNL     1      51.774 124.468  21.211  1.00  0.00    -0.037 A 
ATOM     12  C   UNL     1      52.676 123.903  20.295  1.00  0.00     0.064 A 
ATOM     13  C   UNL     1      52.195 123.254  19.158  1.00  0.00     0.213 A 
ATOM     14  C   UNL     1      49.955 123.679  19.812  1.00  0.00     0.123 A 
ATOM     15  N   UNL     1      50.858 123.161  18.941  1.00  0.00    -0.228 NA
ATOM     16  C   UNL     1      52.316 125.187  22.419  1.00  0.00     0.045 C 
ATOM     17  F   UNL     1      53.061 122.716  18.266  1.00  0.00    -0.185 F 
ENDBRANCH   1  10
BRANCH   6  18
ATOM     18  N   UNL     1      44.014 126.783  23.499  1.00  0.00    -0.441 N 
ATOM     19  H   UNL     1      43.812 127.798  23.642  1.00  0.00     0.027 HD
BRANCH  18  20
ATOM     20  C   UNL     1      42.906 125.873  23.505  1.00  0.00     0.068 A 
ATOM     21  C   UNL     1      41.563 126.217  23.584  1.00  0.00     0.116 A 
ATOM     22  N   UNL     1      43.052 124.538  23.331  1.00  0.00    -0.233 NA
ATOM     23  N   UNL     1      40.873 125.074  23.481  1.00  0.00    -0.307 N 
ATOM     24  C   UNL     1      41.779 124.093  23.333  1.00  0.00     0.136 A 
ATOM     25  C   UNL     1      39.533 124.863  23.493  1.00  0.00     0.093 A 
ATOM     26  C   UNL     1      41.378 122.766  23.185  1.00  0.00     0.048 A 
ATOM     27  C   UNL     1      39.070 123.546  23.351  1.00  0.00     0.018 A 
ATOM     28  C   UNL     1      39.999 122.498  23.197  1.00  0.00     0.005 A 
ENDBRANCH  18  20
ENDBRANCH   6  18
TORSDOF 3
ENDMDL
MODEL 5
REMARK VINA RESULT:      -3.3      2.870      3.892
REMARK SMILES Cc1cc(F)ncc1-c1ccc2cc(Nc3cn4ccccc4n3)[n-]c2c1
REMARK SMILES IDX 9 1 10 2 11 3 12 4 13 5 14 6 25 7 26 8 27 9 8 10 2 11 3 12
REMARK SMILES IDX 4 13 7 14 6 15 1 16 5 17 15 18 16 20 17 21 24 22 18 23 23 24
REMARK SMILES IDX 19 25 22 26 20 27 21 28
REMARK H PARENT 15 19
ROOT
ATOM      1  C   UNL     1      44.804 128.151  22.337  1.00  0.00    -0.016 A 
ATOM      2  C   UNL     1      44.670 129.291  23.171  1.00  0.00     0.009 A 
ATOM      3  C   UNL     1      44.747 130.587  22.631  1.00  0.00     0.009 A 
ATOM      4  C   UNL     1      44.955 130.709  21.261  1.00  0.00    -0.023 A 
ATOM      5  C   UNL     1      45.055 131.826  20.470  1.00  0.00     0.007 A 
ATOM      6  C   UNL     1      45.246 131.324  19.184  1.00  0.00    -0.059 A 
ATOM      7  N   UNL     1      45.241 129.969  19.157  1.00  0.00    -0.436 NA
ATOM      8  C   UNL     1      45.071 129.615  20.444  1.00  0.00    -0.033 A 
ATOM      9  C   UNL     1      44.996 128.318  20.948  1.00  0.00     0.013 A 
ENDROOT
BRANCH   1  10
ATOM     10  C   UNL     1      44.709 126.790  22.910  1.00  0.00     0.003 A 
ATOM     11  C   UNL     1      45.830 125.931  23.012  1.00  0.00    -0.037 A 
ATOM     12  C   UNL     1      45.669 124.670  23.608  1.00  0.00     0.064 A 
ATOM     13  C   UNL     1      44.411 124.267  24.053  1.00  0.00     0.213 A 
ATOM     14  C   UNL     1      43.462 126.329  23.363  1.00  0.00     0.123 A 
ATOM     15  N   UNL     1      43.343 125.096  23.918  1.00  0.00    -0.228 NA
ATOM     16  C   UNL     1      47.193 126.335  22.516  1.00  0.00     0.045 C 
ATOM     17  F   UNL     1      44.249 123.047  24.618  1.00  0.00    -0.185 F 
ENDBRANCH   1  10
BRANCH   6  18
ATOM     18  N   UNL     1      45.343 132.112  17.990  1.00  0.00    -0.441 N 
ATOM     19  H   UNL     1      44.978 133.091  18.020  1.00  0.00     0.027 HD
BRANCH  18  20
ATOM     20  C   UNL     1      45.902 131.645  16.754  1.00  0.00     0.068 A 
ATOM     21  C   UNL     1      46.209 132.424  15.647  1.00  0.00     0.116 A 
ATOM     22  N   UNL     1      46.292 130.362  16.565  1.00  0.00    -0.233 NA
ATOM     23  N   UNL     1      46.775 131.603  14.752  1.00  0.00    -0.307 N 
ATOM     24  C   UNL     1      46.812 130.386  15.321  1.00  0.00     0.136 A 
ATOM     25  C   UNL     1      47.260 131.868  13.513  1.00  0.00     0.093 A 
ATOM     26  C   UNL     1      47.362 129.298  14.644  1.00  0.00     0.048 A 
ATOM     27  C   UNL     1      47.823 130.811  12.783  1.00  0.00     0.018 A 
ATOM     28  C   UNL     1      47.871 129.523  13.355  1.00  0.00     0.005 A 
ENDBRANCH  18  20
ENDBRANCH   6  18
TORSDOF 3
ENDMDL
MODEL 6
REMARK VINA RESULT:      -2.4      6.378      9.567
REMARK SMILES Cc1cc(F)ncc1-c1ccc2cc(Nc3cn4ccccc4n3)[n-]c2c1
REMARK SMILES IDX 9 1 10 2 11 3 12 4 13 5 14 6 25 7 26 8 27 9 8 10 2 11 3 12
REMARK SMILES IDX 4 13 7 14 6 15 1 16 5 17 15 18 16 20 17 21 24 22 18 23 23 24
REMARK SMILES IDX 19 25 22 26 20 27 21 28
REMARK H PARENT 15 19
ROOT
ATOM      1  C   UNL     1      48.948 134.890  23.049  1.00  0.00    -0.016 A 
ATOM      2  C   UNL     1      48.305 134.513  24.256  1.00  0.00     0.009 A 
ATOM      3  C   UNL     1      47.147 133.716  24.231  1.00  0.00     0.009 A 
ATOM      4  C   UNL     1      46.662 133.312  22.992  1.00  0.00    -0.023 A 
ATOM      5  C   UNL     1      45.581 132.531  22.669  1.00  0.00     0.007 A 
ATOM      6  C   UNL     1      45.606 132.462  21.277  1.00  0.00    -0.059 A 
ATOM      7  N   UNL     1      46.656 133.138  20.751  1.00  0.00    -0.436 NA
ATOM      8  C   UNL     1      47.283 133.659  21.821  1.00  0.00    -0.033 A 
ATOM      9  C   UNL     1      48.433 134.445  21.811  1.00  0.00     0.013 A 
ENDROOT
BRANCH   1  10
ATOM     10  C   UNL     1      50.174 135.719  23.081  1.00  0.00     0.003 A 
ATOM     11  C   UNL     1      50.449 136.705  22.102  1.00  0.00    -0.037 A 
ATOM     12  C   UNL     1      51.612 137.481  22.226  1.00  0.00     0.064 A 
ATOM     13  C   UNL     1      52.493 137.250  23.281  1.00  0.00     0.213 A 
ATOM     14  C   UNL     1      51.102 135.520  24.117  1.00  0.00     0.123 A 
ATOM     15  N   UNL     1      52.224 136.280  24.193  1.00  0.00    -0.228 NA
ATOM     16  C   UNL     1      49.524 136.955  20.940  1.00  0.00     0.045 C 
ATOM     17  F   UNL     1      53.622 137.990  23.399  1.00  0.00    -0.185 F 
ENDBRANCH   1  10
BRANCH   6  18
ATOM     18  N   UNL     1      44.704 131.699  20.466  1.00  0.00    -0.441 N 
ATOM     19  H   UNL     1      43.837 131.328  20.916  1.00  0.00     0.027 HD
BRANCH  18  20
ATOM     20  C   UNL     1      44.914 131.404  19.078  1.00  0.00     0.068 A 
ATOM     21  C   UNL     1      45.888 130.565  18.557  1.00  0.00     0.116 A 
ATOM     22  N   UNL     1      44.092 131.855  18.100  1.00  0.00    -0.233 NA
ATOM     23  N   UNL     1      45.679 130.517  17.234  1.00  0.00    -0.307 N 
ATOM     24  C   UNL     1      44.609 131.292  16.989  1.00  0.00     0.136 A 
ATOM     25  C   UNL     1      46.349 129.835  16.271  1.00  0.00     0.093 A 
ATOM     26  C   UNL     1      44.120 131.445  15.693  1.00  0.00     0.048 A 
ATOM     27  C   UNL     1      45.903 129.953  14.946  1.00  0.00     0.018 A 
ATOM     28  C   UNL     1      44.785 130.762  14.661  1.00  0.00     0.005 A 
ENDBRANCH  18  20
ENDBRANCH   6  18
TORSDOF 3
ENDMDL
MODEL 7
REMARK VINA RESULT:      -1.8      1.377      1.568
REMARK SMILES Cc1cc(F)ncc1-c1ccc2cc(Nc3cn4ccccc4n3)[n-]c2c1
REMARK SMILES IDX 9 1 10 2 11 3 12 4 13 5 14 6 25 7 26 8 27 9 8 10 2 11 3 12
REMARK SMILES IDX 4 13 7 14 6 15 1 16 5 17 15 18 16 20 17 21 24 22 18 23 23 24
REMARK SMILES IDX 19 25 22 26 20 27 21 28
REMARK H PARENT 15 19
ROOT
ATOM      1  C   UNL     1      42.662 127.268  23.506  1.00  0.00    -0.016 A 
ATOM      2  C   UNL     1      43.036 128.059  24.623  1.00  0.00     0.009 A 
ATOM      3  C   UNL     1      43.644 129.313  24.440  1.00  0.00     0.009 A 
ATOM      4  C   UNL     1      43.861 129.747  23.136  1.00  0.00    -0.023 A 
ATOM      5  C   UNL     1      44.409 130.913  22.664  1.00  0.00     0.007 A 
ATOM      6  C   UNL     1      44.349 130.788  21.277  1.00  0.00    -0.059 A 
ATOM      7  N   UNL     1      43.772 129.623  20.893  1.00  0.00    -0.436 NA
ATOM      8  C   UNL     1      43.491 128.998  22.051  1.00  0.00    -0.033 A 
ATOM      9  C   UNL     1      42.883 127.753  22.197  1.00  0.00     0.013 A 
ENDROOT
BRANCH   1  10
ATOM     10  C   UNL     1      42.011 125.953  23.704  1.00  0.00     0.003 A 
ATOM     11  C   UNL     1      42.731 124.805  24.112  1.00  0.00    -0.037 A 
ATOM     12  C   UNL     1      42.036 123.603  24.322  1.00  0.00     0.064 A 
ATOM     13  C   UNL     1      40.662 123.547  24.092  1.00  0.00     0.213 A 
ATOM     14  C   UNL     1      40.630 125.838  23.475  1.00  0.00     0.123 A 
ATOM     15  N   UNL     1      39.995 124.654  23.673  1.00  0.00    -0.228 NA
ATOM     16  C   UNL     1      44.220 124.836  24.343  1.00  0.00     0.045 C 
ATOM     17  F   UNL     1      39.987 122.388  24.282  1.00  0.00    -0.185 F 
ENDBRANCH   1  10
BRANCH   6  18
ATOM     18  N   UNL     1      44.749 131.790  20.333  1.00  0.00    -0.441 N 
ATOM     19  H   UNL     1      44.918 132.758  20.691  1.00  0.00     0.027 HD
BRANCH  18  20
ATOM     20  C   UNL     1      44.928 131.556  18.930  1.00  0.00     0.068 A 
ATOM     21  C   UNL     1      46.022 130.945  18.334  1.00  0.00     0.116 A 
ATOM     22  N   UNL     1      43.970 131.831  18.013  1.00  0.00    -0.233 NA
ATOM     23  N   UNL     1      45.744 130.863  17.026  1.00  0.00    -0.307 N 
ATOM     24  C   UNL     1      44.521 131.397  16.861  1.00  0.00     0.136 A 
ATOM     25  C   UNL     1      46.480 130.345  16.010  1.00  0.00     0.093 A 
ATOM     26  C   UNL     1      43.930 131.452  15.600  1.00  0.00     0.048 A 
ATOM     27  C   UNL     1      45.936 130.375  14.717  1.00  0.00     0.018 A 
ATOM     28  C   UNL     1      44.657 130.932  14.517  1.00  0.00     0.005 A 
ENDBRANCH  18  20
ENDBRANCH   6  18
TORSDOF 3
ENDMDL
MODEL 8
REMARK VINA RESULT:      -1.7      6.358      9.461
REMARK SMILES Cc1cc(F)ncc1-c1ccc2cc(Nc3cn4ccccc4n3)[n-]c2c1
REMARK SMILES IDX 9 1 10 2 11 3 12 4 13 5 14 6 25 7 26 8 27 9 8 10 2 11 3 12
REMARK SMILES IDX 4 13 7 14 6 15 1 16 5 17 15 18 16 20 17 21 24 22 18 23 23 24
REMARK SMILES IDX 19 25 22 26 20 27 21 28
REMARK H PARENT 15 19
ROOT
ATOM      1  C   UNL     1      49.006 134.651  22.807  1.00  0.00    -0.016 A 
ATOM      2  C   UNL     1      48.208 134.484  23.969  1.00  0.00     0.009 A 
ATOM      3  C   UNL     1      47.045 133.695  23.930  1.00  0.00     0.009 A 
ATOM      4  C   UNL     1      46.711 133.087  22.724  1.00  0.00    -0.023 A 
ATOM      5  C   UNL     1      45.662 132.264  22.401  1.00  0.00     0.007 A 
ATOM      6  C   UNL     1      45.861 131.961  21.055  1.00  0.00    -0.059 A 
ATOM      7  N   UNL     1      46.983 132.537  20.562  1.00  0.00    -0.436 NA
ATOM      8  C   UNL     1      47.482 133.231  21.601  1.00  0.00    -0.033 A 
ATOM      9  C   UNL     1      48.642 134.003  21.606  1.00  0.00     0.013 A 
ENDROOT
BRANCH   1  10
ATOM     10  C   UNL     1      50.236 135.473  22.857  1.00  0.00     0.003 A 
ATOM     11  C   UNL     1      51.335 135.145  23.688  1.00  0.00    -0.037 A 
ATOM     12  C   UNL     1      52.484 135.950  23.647  1.00  0.00     0.064 A 
ATOM     13  C   UNL     1      52.516 137.074  22.823  1.00  0.00     0.213 A 
ATOM     14  C   UNL     1      50.317 136.624  22.055  1.00  0.00     0.123 A 
ATOM     15  N   UNL     1      51.440 137.387  22.056  1.00  0.00    -0.228 NA
ATOM     16  C   UNL     1      51.313 133.949  24.604  1.00  0.00     0.045 C 
ATOM     17  F   UNL     1      53.619 137.860  22.788  1.00  0.00    -0.185 F 
ENDBRANCH   1  10
BRANCH   6  18
ATOM     18  N   UNL     1      45.051 131.071  20.275  1.00  0.00    -0.441 N 
ATOM     19  H   UNL     1      44.358 130.473  20.779  1.00  0.00     0.027 HD
BRANCH  18  20
ATOM     20  C   UNL     1      45.133 130.942  18.849  1.00  0.00     0.068 A 
ATOM     21  C   UNL     1      44.669 131.859  17.915  1.00  0.00     0.116 A 
ATOM     22  N   UNL     1      45.781 129.921  18.241  1.00  0.00    -0.233 NA
ATOM     23  N   UNL     1      45.015 131.382  16.712  1.00  0.00    -0.307 N 
ATOM     24  C   UNL     1      45.673 130.231  16.933  1.00  0.00     0.136 A 
ATOM     25  C   UNL     1      44.804 131.901  15.477  1.00  0.00     0.093 A 
ATOM     26  C   UNL     1      46.183 129.485  15.871  1.00  0.00     0.048 A 
ATOM     27  C   UNL     1      45.293 131.192  14.369  1.00  0.00     0.018 A 
ATOM     28  C   UNL     1      45.984 129.980  14.572  1.00  0.00     0.005 A 
ENDBRANCH  18  20
ENDBRANCH   6  18
TORSDOF 3
ENDMDL


