MODEL 1
REMARK VINA RESULT:      -6.6      0.000      0.000
REMARK SMILES C=C1[C@@H](F)C[C@H](Nc2cccc(N)c2[O-])[C@H]2CC(c3ncncc3F)=N[C@@H]12
REMARK SMILES IDX 7 1 6 3 2 4 3 5 27 6 5 7 26 8 16 9 18 10 17 11 1 12 4 13
REMARK SMILES IDX 19 14 20 15 24 16 21 17 23 18 22 19 25 20 8 21 9 22 14 23
REMARK SMILES IDX 10 24 12 25 11 26 15 27 13 28
REMARK H PARENT 7 2 13 29 13 30
ROOT
ATOM      1  N   UNL     1      45.701 127.727  22.315  1.00  0.00    -0.382 N 
ATOM      2  H   UNL     1      46.699 127.991  22.144  1.00  0.00     0.160 HD
ENDROOT
BRANCH   1   3
ATOM      3  C   UNL     1      44.685 128.778  22.191  1.00  0.00     0.088 C 
ATOM      4  C   UNL     1      43.099 131.150  22.678  1.00  0.00    -0.019 C 
ATOM      5  C   UNL     1      42.738 129.853  23.370  1.00  0.00     0.196 C 
ATOM      6  C   UNL     1      44.381 131.325  21.877  1.00  0.00     0.139 C 
ATOM      7  C   UNL     1      43.927 128.904  23.512  1.00  0.00     0.067 C 
ATOM      8  N   UNL     1      44.076 131.594  20.482  1.00  0.00    -0.279 NA
ATOM      9  C   UNL     1      45.358 130.125  21.847  1.00  0.00     0.046 C 
ATOM     10  C   UNL     1      44.884 130.976  19.691  1.00  0.00     0.065 C 
ATOM     11  C   UNL     1      45.882 130.131  20.400  1.00  0.00     0.066 C 
ATOM     12  C   UNL     1      42.243 132.180  22.760  1.00  0.00     0.013 C 
ATOM     13  F   UNL     1      41.728 129.227  22.658  1.00  0.00    -0.243 F 
BRANCH  10  14
ATOM     14  C   UNL     1      44.817 131.095  18.218  1.00  0.00     0.123 A 
ATOM     15  N   UNL     1      45.901 130.734  17.479  1.00  0.00    -0.232 NA
ATOM     16  C   UNL     1      43.669 131.567  17.558  1.00  0.00     0.168 A 
ATOM     17  C   UNL     1      45.896 130.821  16.124  1.00  0.00     0.222 A 
ATOM     18  C   UNL     1      43.685 131.647  16.165  1.00  0.00     0.154 A 
ATOM     19  N   UNL     1      44.793 131.275  15.475  1.00  0.00    -0.242 NA
ATOM     20  F   UNL     1      42.554 131.941  18.236  1.00  0.00    -0.203 F 
ENDBRANCH  10  14
ENDBRANCH   1   3
BRANCH   1  21
ATOM     21  C   UNL     1      45.373 126.330  22.352  1.00  0.00     0.028 A 
ATOM     22  C   UNL     1      44.025 125.947  22.376  1.00  0.00     0.025 A 
ATOM     23  C   UNL     1      46.376 125.338  22.333  1.00  0.00    -0.061 A 
ATOM     24  C   UNL     1      43.675 124.596  22.426  1.00  0.00     0.004 A 
ATOM     25  C   UNL     1      46.021 123.977  22.389  1.00  0.00     0.025 A 
ATOM     26  C   UNL     1      44.668 123.615  22.439  1.00  0.00     0.025 A 
ATOM     27  O   UNL     1      47.716 125.698  22.228  1.00  0.00    -0.870 OA
BRANCH  25  28
ATOM     28  N   UNL     1      47.027 122.958  22.384  1.00  0.00    -0.399 N 
ATOM     29  H   UNL     1      47.964 123.120  21.953  1.00  0.00     0.156 HD
ATOM     30  H   UNL     1      46.842 122.025  22.817  1.00  0.00     0.156 HD
ENDBRANCH  25  28
ENDBRANCH   1  21
TORSDOF 4
ENDMDL
MODEL 2
REMARK VINA RESULT:      -5.8      1.160      1.378
REMARK SMILES C=C1[C@@H](F)C[C@H](Nc2cccc(N)c2[O-])[C@H]2CC(c3ncncc3F)=N[C@@H]12
REMARK SMILES IDX 7 1 6 3 2 4 3 5 27 6 5 7 26 8 16 9 18 10 17 11 1 12 4 13
REMARK SMILES IDX 19 14 20 15 24 16 21 17 23 18 22 19 25 20 8 21 9 22 14 23
REMARK SMILES IDX 10 24 12 25 11 26 15 27 13 28
REMARK H PARENT 7 2 13 29 13 30
ROOT
ATOM      1  N   UNL     1      45.910 127.845  22.023  1.00  0.00    -0.382 N 
ATOM      2  H   UNL     1      46.859 128.063  21.638  1.00  0.00     0.160 HD
ENDROOT
BRANCH   1   3
ATOM      3  C   UNL     1      44.866 128.867  21.886  1.00  0.00     0.088 C 
ATOM      4  C   UNL     1      43.245 131.226  22.314  1.00  0.00    -0.019 C 
ATOM      5  C   UNL     1      42.941 129.959  23.085  1.00  0.00     0.196 C 
ATOM      6  C   UNL     1      44.490 131.387  21.455  1.00  0.00     0.139 C 
ATOM      7  C   UNL     1      44.156 129.045  23.228  1.00  0.00     0.067 C 
ATOM      8  N   UNL     1      44.125 131.576  20.061  1.00  0.00    -0.279 NA
ATOM      9  C   UNL     1      45.494 130.208  21.447  1.00  0.00     0.046 C 
ATOM     10  C   UNL     1      44.917 130.936  19.271  1.00  0.00     0.065 C 
ATOM     11  C   UNL     1      45.961 130.150  19.983  1.00  0.00     0.066 C 
ATOM     12  C   UNL     1      42.368 132.240  22.377  1.00  0.00     0.013 C 
ATOM     13  F   UNL     1      41.919 129.275  22.447  1.00  0.00    -0.243 F 
BRANCH  10  14
ATOM     14  C   UNL     1      44.790 130.977  17.798  1.00  0.00     0.123 A 
ATOM     15  N   UNL     1      43.794 131.720  17.244  1.00  0.00    -0.232 NA
ATOM     16  C   UNL     1      45.666 130.274  16.952  1.00  0.00     0.168 A 
ATOM     17  C   UNL     1      43.630 131.797  15.899  1.00  0.00     0.222 A 
ATOM     18  C   UNL     1      45.479 130.366  15.573  1.00  0.00     0.154 A 
ATOM     19  N   UNL     1      44.470 131.122  15.072  1.00  0.00    -0.242 NA
ATOM     20  F   UNL     1      46.680 129.515  17.441  1.00  0.00    -0.203 F 
ENDBRANCH  10  14
ENDBRANCH   1   3
BRANCH   1  21
ATOM     21  C   UNL     1      45.624 126.482  22.370  1.00  0.00     0.028 A 
ATOM     22  C   UNL     1      44.288 126.075  22.486  1.00  0.00     0.025 A 
ATOM     23  C   UNL     1      46.655 125.540  22.564  1.00  0.00    -0.061 A 
ATOM     24  C   UNL     1      43.978 124.760  22.836  1.00  0.00     0.004 A 
ATOM     25  C   UNL     1      46.341 124.215  22.921  1.00  0.00     0.025 A 
ATOM     26  C   UNL     1      44.998 123.835  23.059  1.00  0.00     0.025 A 
ATOM     27  O   UNL     1      47.984 125.906  22.374  1.00  0.00    -0.870 OA
BRANCH  25  28
ATOM     28  N   UNL     1      47.376 123.250  23.136  1.00  0.00    -0.399 N 
ATOM     29  H   UNL     1      47.165 122.299  23.512  1.00  0.00     0.156 HD
ATOM     30  H   UNL     1      48.372 123.479  22.915  1.00  0.00     0.156 HD
ENDBRANCH  25  28
ENDBRANCH   1  21
TORSDOF 4
ENDMDL
MODEL 3
REMARK VINA RESULT:      -5.2      3.141      5.487
REMARK SMILES C=C1[C@@H](F)C[C@H](Nc2cccc(N)c2[O-])[C@H]2CC(c3ncncc3F)=N[C@@H]12
REMARK SMILES IDX 7 1 6 3 2 4 3 5 27 6 5 7 26 8 16 9 18 10 17 11 1 12 4 13
REMARK SMILES IDX 19 14 20 15 24 16 21 17 23 18 22 19 25 20 8 21 9 22 14 23
REMARK SMILES IDX 10 24 12 25 11 26 15 27 13 28
REMARK H PARENT 7 2 13 29 13 30
ROOT
ATOM      1  N   UNL     1      47.365 125.236  23.048  1.00  0.00    -0.382 N 
ATOM      2  H   UNL     1      47.786 125.945  23.693  1.00  0.00     0.160 HD
ENDROOT
BRANCH   1   3
ATOM      3  C   UNL     1      45.901 125.158  22.979  1.00  0.00     0.088 C 
ATOM      4  C   UNL     1      43.145 124.509  23.576  1.00  0.00    -0.019 C 
ATOM      5  C   UNL     1      43.974 123.558  22.740  1.00  0.00     0.196 C 
ATOM      6  C   UNL     1      43.743 125.713  24.288  1.00  0.00     0.139 C 
ATOM      7  C   UNL     1      45.473 123.691  23.000  1.00  0.00     0.067 C 
ATOM      8  N   UNL     1      43.179 126.946  23.765  1.00  0.00    -0.279 NA
ATOM      9  C   UNL     1      45.276 125.900  24.182  1.00  0.00     0.046 C 
ATOM     10  C   UNL     1      44.074 127.866  23.649  1.00  0.00     0.065 C 
ATOM     11  C   UNL     1      45.439 127.423  24.041  1.00  0.00     0.066 C 
ATOM     12  C   UNL     1      41.824 124.292  23.675  1.00  0.00     0.013 C 
ATOM     13  F   UNL     1      43.712 123.788  21.400  1.00  0.00    -0.243 F 
BRANCH  10  14
ATOM     14  C   UNL     1      43.767 129.230  23.166  1.00  0.00     0.123 A 
ATOM     15  N   UNL     1      44.558 129.781  22.205  1.00  0.00    -0.232 NA
ATOM     16  C   UNL     1      42.685 129.976  23.667  1.00  0.00     0.168 A 
ATOM     17  C   UNL     1      44.324 131.028  21.723  1.00  0.00     0.222 A 
ATOM     18  C   UNL     1      42.463 131.255  23.157  1.00  0.00     0.154 A 
ATOM     19  N   UNL     1      43.282 131.758  22.199  1.00  0.00    -0.242 NA
ATOM     20  F   UNL     1      41.859 129.484  24.625  1.00  0.00    -0.203 F 
ENDBRANCH  10  14
ENDBRANCH   1   3
BRANCH   1  21
ATOM     21  C   UNL     1      48.223 124.622  22.074  1.00  0.00     0.028 A 
ATOM     22  C   UNL     1      47.650 123.854  21.051  1.00  0.00     0.025 A 
ATOM     23  C   UNL     1      49.621 124.803  22.107  1.00  0.00    -0.061 A 
ATOM     24  C   UNL     1      48.459 123.233  20.098  1.00  0.00     0.004 A 
ATOM     25  C   UNL     1      50.435 124.172  21.147  1.00  0.00     0.025 A 
ATOM     26  C   UNL     1      49.846 123.385  20.148  1.00  0.00     0.025 A 
ATOM     27  O   UNL     1      50.198 125.628  23.067  1.00  0.00    -0.870 OA
BRANCH  25  28
ATOM     28  N   UNL     1      51.858 124.334  21.175  1.00  0.00    -0.399 N 
ATOM     29  H   UNL     1      52.321 125.152  20.720  1.00  0.00     0.156 HD
ATOM     30  H   UNL     1      52.464 123.632  21.657  1.00  0.00     0.156 HD
ENDBRANCH  25  28
ENDBRANCH   1  21
TORSDOF 4
ENDMDL
MODEL 4
REMARK VINA RESULT:      -4.8      3.523      5.529
REMARK SMILES C=C1[C@@H](F)C[C@H](Nc2cccc(N)c2[O-])[C@H]2CC(c3ncncc3F)=N[C@@H]12
REMARK SMILES IDX 7 1 6 3 2 4 3 5 27 6 5 7 26 8 16 9 18 10 17 11 1 12 4 13
REMARK SMILES IDX 19 14 20 15 24 16 21 17 23 18 22 19 25 20 8 21 9 22 14 23
REMARK SMILES IDX 10 24 12 25 11 26 15 27 13 28
REMARK H PARENT 7 2 13 29 13 30
ROOT
ATOM      1  N   UNL     1      47.061 125.680  22.341  1.00  0.00    -0.382 N 
ATOM      2  H   UNL     1      47.402 126.578  21.926  1.00  0.00     0.160 HD
ENDROOT
BRANCH   1   3
ATOM      3  C   UNL     1      45.615 125.522  22.536  1.00  0.00     0.088 C 
ATOM      4  C   UNL     1      43.049 124.645  23.547  1.00  0.00    -0.019 C 
ATOM      5  C   UNL     1      43.738 123.847  22.460  1.00  0.00     0.196 C 
ATOM      6  C   UNL     1      43.727 125.792  24.281  1.00  0.00     0.139 C 
ATOM      7  C   UNL     1      45.254 124.040  22.452  1.00  0.00     0.067 C 
ATOM      8  N   UNL     1      43.029 127.041  24.028  1.00  0.00    -0.279 NA
ATOM      9  C   UNL     1      45.204 126.082  23.916  1.00  0.00     0.046 C 
ATOM     10  C   UNL     1      43.850 128.021  23.865  1.00  0.00     0.065 C 
ATOM     11  C   UNL     1      45.280 127.618  23.939  1.00  0.00     0.066 C 
ATOM     12  C   UNL     1      41.781 124.338  23.861  1.00  0.00     0.013 C 
ATOM     13  F   UNL     1      43.217 124.214  21.231  1.00  0.00    -0.243 F 
BRANCH  10  14
ATOM     14  C   UNL     1      43.406 129.410  23.620  1.00  0.00     0.123 A 
ATOM     15  N   UNL     1      42.538 129.987  24.496  1.00  0.00    -0.232 NA
ATOM     16  C   UNL     1      43.853 130.155  22.515  1.00  0.00     0.168 A 
ATOM     17  C   UNL     1      42.097 131.259  24.323  1.00  0.00     0.222 A 
ATOM     18  C   UNL     1      43.388 131.461  22.357  1.00  0.00     0.154 A 
ATOM     19  N   UNL     1      42.522 131.988  23.259  1.00  0.00    -0.242 NA
ATOM     20  F   UNL     1      44.720 129.640  21.606  1.00  0.00    -0.203 F 
ENDBRANCH  10  14
ENDBRANCH   1   3
BRANCH   1  21
ATOM     21  C   UNL     1      47.978 124.577  22.401  1.00  0.00     0.028 A 
ATOM     22  C   UNL     1      47.962 123.622  21.375  1.00  0.00     0.025 A 
ATOM     23  C   UNL     1      48.912 124.453  23.449  1.00  0.00    -0.061 A 
ATOM     24  C   UNL     1      48.832 122.531  21.412  1.00  0.00     0.004 A 
ATOM     25  C   UNL     1      49.786 123.349  23.488  1.00  0.00     0.025 A 
ATOM     26  C   UNL     1      49.736 122.390  22.466  1.00  0.00     0.025 A 
ATOM     27  O   UNL     1      48.997 125.434  24.432  1.00  0.00    -0.870 OA
BRANCH  25  28
ATOM     28  N   UNL     1      50.731 123.201  24.553  1.00  0.00    -0.399 N 
ATOM     29  H   UNL     1      51.422 122.418  24.562  1.00  0.00     0.156 HD
ATOM     30  H   UNL     1      50.749 123.880  25.347  1.00  0.00     0.156 HD
ENDBRANCH  25  28
ENDBRANCH   1  21
TORSDOF 4
ENDMDL
MODEL 5
REMARK VINA RESULT:      -4.6      1.724      2.041
REMARK SMILES C=C1[C@@H](F)C[C@H](Nc2cccc(N)c2[O-])[C@H]2CC(c3ncncc3F)=N[C@@H]12
REMARK SMILES IDX 7 1 6 3 2 4 3 5 27 6 5 7 26 8 16 9 18 10 17 11 1 12 4 13
REMARK SMILES IDX 19 14 20 15 24 16 21 17 23 18 22 19 25 20 8 21 9 22 14 23
REMARK SMILES IDX 10 24 12 25 11 26 15 27 13 28
REMARK H PARENT 7 2 13 29 13 30
ROOT
ATOM      1  N   UNL     1      45.631 127.397  22.055  1.00  0.00    -0.382 N 
ATOM      2  H   UNL     1      46.314 127.407  21.262  1.00  0.00     0.160 HD
ENDROOT
BRANCH   1   3
ATOM      3  C   UNL     1      44.606 128.446  22.088  1.00  0.00     0.088 C 
ATOM      4  C   UNL     1      43.057 130.764  22.867  1.00  0.00    -0.019 C 
ATOM      5  C   UNL     1      42.756 129.418  23.490  1.00  0.00     0.196 C 
ATOM      6  C   UNL     1      44.270 131.007  21.981  1.00  0.00     0.139 C 
ATOM      7  C   UNL     1      43.955 128.472  23.470  1.00  0.00     0.067 C 
ATOM      8  N   UNL     1      43.855 131.371  20.637  1.00  0.00    -0.279 NA
ATOM      9  C   UNL     1      45.246 129.820  21.788  1.00  0.00     0.046 C 
ATOM     10  C   UNL     1      44.600 130.818  19.743  1.00  0.00     0.065 C 
ATOM     11  C   UNL     1      45.653 129.933  20.309  1.00  0.00     0.066 C 
ATOM     12  C   UNL     1      42.207 131.779  23.089  1.00  0.00     0.013 C 
ATOM     13  F   UNL     1      41.694 128.836  22.818  1.00  0.00    -0.243 F 
BRANCH  10  14
ATOM     14  C   UNL     1      44.415 131.040  18.292  1.00  0.00     0.123 A 
ATOM     15  N   UNL     1      43.304 131.699  17.864  1.00  0.00    -0.232 NA
ATOM     16  C   UNL     1      45.351 130.595  17.342  1.00  0.00     0.168 A 
ATOM     17  C   UNL     1      43.082 131.934  16.545  1.00  0.00     0.222 A 
ATOM     18  C   UNL     1      45.103 130.846  15.993  1.00  0.00     0.154 A 
ATOM     19  N   UNL     1      43.979 131.508  15.618  1.00  0.00    -0.242 NA
ATOM     20  F   UNL     1      46.479 129.932  17.703  1.00  0.00    -0.203 F 
ENDBRANCH  10  14
ENDBRANCH   1   3
BRANCH   1  21
ATOM     21  C   UNL     1      45.556 126.212  22.862  1.00  0.00     0.028 A 
ATOM     22  C   UNL     1      46.542 125.985  23.832  1.00  0.00     0.025 A 
ATOM     23  C   UNL     1      44.497 125.292  22.720  1.00  0.00    -0.061 A 
ATOM     24  C   UNL     1      46.504 124.835  24.622  1.00  0.00     0.004 A 
ATOM     25  C   UNL     1      44.463 124.130  23.515  1.00  0.00     0.025 A 
ATOM     26  C   UNL     1      45.473 123.908  24.461  1.00  0.00     0.025 A 
ATOM     27  O   UNL     1      43.468 125.541  21.819  1.00  0.00    -0.870 OA
BRANCH  25  28
ATOM     28  N   UNL     1      43.403 123.178  23.374  1.00  0.00    -0.399 N 
ATOM     29  H   UNL     1      43.199 122.722  22.457  1.00  0.00     0.156 HD
ATOM     30  H   UNL     1      42.809 122.917  24.193  1.00  0.00     0.156 HD
ENDBRANCH  25  28
ENDBRANCH   1  21
TORSDOF 4
ENDMDL
MODEL 6
REMARK VINA RESULT:      -4.5      2.171      2.817
REMARK SMILES C=C1[C@@H](F)C[C@H](Nc2cccc(N)c2[O-])[C@H]2CC(c3ncncc3F)=N[C@@H]12
REMARK SMILES IDX 7 1 6 3 2 4 3 5 27 6 5 7 26 8 16 9 18 10 17 11 1 12 4 13
REMARK SMILES IDX 19 14 20 15 24 16 21 17 23 18 22 19 25 20 8 21 9 22 14 23
REMARK SMILES IDX 10 24 12 25 11 26 15 27 13 28
REMARK H PARENT 7 2 13 29 13 30
ROOT
ATOM      1  N   UNL     1      45.562 129.311  21.864  1.00  0.00    -0.382 N 
ATOM      2  H   UNL     1      46.561 129.622  21.855  1.00  0.00     0.160 HD
ENDROOT
BRANCH   1   3
ATOM      3  C   UNL     1      44.588 130.123  21.125  1.00  0.00     0.088 C 
ATOM      4  C   UNL     1      42.887 132.314  20.300  1.00  0.00    -0.019 C 
ATOM      5  C   UNL     1      42.391 131.332  21.340  1.00  0.00     0.196 C 
ATOM      6  C   UNL     1      44.322 132.323  19.795  1.00  0.00     0.139 C 
ATOM      7  C   UNL     1      43.526 130.642  22.094  1.00  0.00     0.067 C 
ATOM      8  N   UNL     1      44.364 132.022  18.375  1.00  0.00    -0.279 NA
ATOM      9  C   UNL     1      45.300 131.313  20.445  1.00  0.00     0.046 C 
ATOM     10  C   UNL     1      45.354 131.250  18.081  1.00  0.00     0.065 C 
ATOM     11  C   UNL     1      46.162 130.843  19.262  1.00  0.00     0.066 C 
ATOM     12  C   UNL     1      42.017 133.200  19.788  1.00  0.00     0.013 C 
ATOM     13  F   UNL     1      41.598 130.380  20.721  1.00  0.00    -0.243 F 
BRANCH  10  14
ATOM     14  C   UNL     1      45.648 130.809  16.701  1.00  0.00     0.123 A 
ATOM     15  N   UNL     1      45.502 129.493  16.385  1.00  0.00    -0.232 NA
ATOM     16  C   UNL     1      46.073 131.704  15.704  1.00  0.00     0.168 A 
ATOM     17  C   UNL     1      45.756 129.031  15.134  1.00  0.00     0.222 A 
ATOM     18  C   UNL     1      46.329 131.208  14.425  1.00  0.00     0.154 A 
ATOM     19  N   UNL     1      46.167 129.887  14.163  1.00  0.00    -0.242 NA
ATOM     20  F   UNL     1      46.239 133.028  15.953  1.00  0.00    -0.203 F 
ENDBRANCH  10  14
ENDBRANCH   1   3
BRANCH   1  21
ATOM     21  C   UNL     1      45.275 127.983  22.326  1.00  0.00     0.028 A 
ATOM     22  C   UNL     1      46.055 126.916  21.858  1.00  0.00     0.025 A 
ATOM     23  C   UNL     1      44.251 127.735  23.263  1.00  0.00    -0.061 A 
ATOM     24  C   UNL     1      45.792 125.611  22.278  1.00  0.00     0.004 A 
ATOM     25  C   UNL     1      43.984 126.417  23.682  1.00  0.00     0.025 A 
ATOM     26  C   UNL     1      44.758 125.361  23.182  1.00  0.00     0.025 A 
ATOM     27  O   UNL     1      43.521 128.791  23.800  1.00  0.00    -0.870 OA
BRANCH  25  28
ATOM     28  N   UNL     1      42.939 126.146  24.623  1.00  0.00    -0.399 N 
ATOM     29  H   UNL     1      42.353 126.914  25.021  1.00  0.00     0.156 HD
ATOM     30  H   UNL     1      42.738 125.168  24.929  1.00  0.00     0.156 HD
ENDBRANCH  25  28
ENDBRANCH   1  21
TORSDOF 4
ENDMDL
MODEL 7
REMARK VINA RESULT:      -4.5      2.950      5.024
REMARK SMILES C=C1[C@@H](F)C[C@H](Nc2cccc(N)c2[O-])[C@H]2CC(c3ncncc3F)=N[C@@H]12
REMARK SMILES IDX 7 1 6 3 2 4 3 5 27 6 5 7 26 8 16 9 18 10 17 11 1 12 4 13
REMARK SMILES IDX 19 14 20 15 24 16 21 17 23 18 22 19 25 20 8 21 9 22 14 23
REMARK SMILES IDX 10 24 12 25 11 26 15 27 13 28
REMARK H PARENT 7 2 13 29 13 30
ROOT
ATOM      1  N   UNL     1      47.101 125.827  22.408  1.00  0.00    -0.382 N 
ATOM      2  H   UNL     1      47.513 126.758  22.164  1.00  0.00     0.160 HD
ENDROOT
BRANCH   1   3
ATOM      3  C   UNL     1      45.641 125.739  22.535  1.00  0.00     0.088 C 
ATOM      4  C   UNL     1      42.993 125.109  23.519  1.00  0.00    -0.019 C 
ATOM      5  C   UNL     1      43.718 124.118  22.632  1.00  0.00     0.196 C 
ATOM      6  C   UNL     1      43.665 126.352  24.083  1.00  0.00     0.139 C 
ATOM      7  C   UNL     1      45.237 124.273  22.687  1.00  0.00     0.067 C 
ATOM      8  N   UNL     1      43.024 127.552  23.574  1.00  0.00    -0.279 NA
ATOM      9  C   UNL     1      45.169 126.540  23.768  1.00  0.00     0.046 C 
ATOM     10  C   UNL     1      43.885 128.469  23.295  1.00  0.00     0.065 C 
ATOM     11  C   UNL     1      45.294 128.054  23.529  1.00  0.00     0.066 C 
ATOM     12  C   UNL     1      41.699 124.890  23.800  1.00  0.00     0.013 C 
ATOM     13  F   UNL     1      43.282 124.275  21.327  1.00  0.00    -0.243 F 
BRANCH  10  14
ATOM     14  C   UNL     1      43.502 129.804  22.786  1.00  0.00     0.123 A 
ATOM     15  N   UNL     1      44.069 130.256  21.634  1.00  0.00    -0.232 NA
ATOM     16  C   UNL     1      42.571 130.620  23.453  1.00  0.00     0.168 A 
ATOM     17  C   UNL     1      43.755 131.472  21.119  1.00  0.00     0.222 A 
ATOM     18  C   UNL     1      42.263 131.866  22.905  1.00  0.00     0.154 A 
ATOM     19  N   UNL     1      42.857 132.269  21.754  1.00  0.00    -0.242 NA
ATOM     20  F   UNL     1      41.970 130.229  24.605  1.00  0.00    -0.203 F 
ENDBRANCH  10  14
ENDBRANCH   1   3
BRANCH   1  21
ATOM     21  C   UNL     1      47.943 124.670  22.298  1.00  0.00     0.028 A 
ATOM     22  C   UNL     1      47.699 123.745  21.273  1.00  0.00     0.025 A 
ATOM     23  C   UNL     1      49.026 124.463  23.177  1.00  0.00    -0.061 A 
ATOM     24  C   UNL     1      48.493 122.603  21.149  1.00  0.00     0.004 A 
ATOM     25  C   UNL     1      49.822 123.308  23.053  1.00  0.00     0.025 A 
ATOM     26  C   UNL     1      49.546 122.381  22.038  1.00  0.00     0.025 A 
ATOM     27  O   UNL     1      49.332 125.410  24.149  1.00  0.00    -0.870 OA
BRANCH  25  28
ATOM     28  N   UNL     1      50.917 123.075  23.946  1.00  0.00    -0.399 N 
ATOM     29  H   UNL     1      50.981 122.199  24.511  1.00  0.00     0.156 HD
ATOM     30  H   UNL     1      51.680 123.781  24.048  1.00  0.00     0.156 HD
ENDBRANCH  25  28
ENDBRANCH   1  21
TORSDOF 4
ENDMDL
MODEL 8
REMARK VINA RESULT:      -4.0      3.989      5.825
REMARK SMILES C=C1[C@@H](F)C[C@H](Nc2cccc(N)c2[O-])[C@H]2CC(c3ncncc3F)=N[C@@H]12
REMARK SMILES IDX 7 1 6 3 2 4 3 5 27 6 5 7 26 8 16 9 18 10 17 11 1 12 4 13
REMARK SMILES IDX 19 14 20 15 24 16 21 17 23 18 22 19 25 20 8 21 9 22 14 23
REMARK SMILES IDX 10 24 12 25 11 26 15 27 13 28
REMARK H PARENT 7 2 13 29 13 30
ROOT
ATOM      1  N   UNL     1      45.733 123.933  23.387  1.00  0.00    -0.382 N 
ATOM      2  H   UNL     1      45.876 123.661  24.388  1.00  0.00     0.160 HD
ENDROOT
BRANCH   1   3
ATOM      3  C   UNL     1      44.384 124.336  22.975  1.00  0.00     0.088 C 
ATOM      4  C   UNL     1      41.505 124.455  22.703  1.00  0.00    -0.019 C 
ATOM      5  C   UNL     1      42.304 123.531  21.809  1.00  0.00     0.196 C 
ATOM      6  C   UNL     1      42.121 125.195  23.881  1.00  0.00     0.139 C 
ATOM      7  C   UNL     1      43.641 123.120  22.423  1.00  0.00     0.067 C 
ATOM      8  N   UNL     1      42.047 126.631  23.675  1.00  0.00    -0.279 NA
ATOM      9  C   UNL     1      43.613 124.913  24.183  1.00  0.00     0.046 C 
ATOM     10  C   UNL     1      43.122 127.224  24.066  1.00  0.00     0.065 C 
ATOM     11  C   UNL     1      44.161 126.293  24.585  1.00  0.00     0.066 C 
ATOM     12  C   UNL     1      40.204 124.644  22.431  1.00  0.00     0.013 C 
ATOM     13  F   UNL     1      42.524 124.157  20.593  1.00  0.00    -0.243 F 
BRANCH  10  14
ATOM     14  C   UNL     1      43.304 128.690  23.997  1.00  0.00     0.123 A 
ATOM     15  N   UNL     1      44.374 129.251  24.623  1.00  0.00    -0.232 NA
ATOM     16  C   UNL     1      42.407 129.523  23.305  1.00  0.00     0.168 A 
ATOM     17  C   UNL     1      44.592 130.591  24.593  1.00  0.00     0.222 A 
ATOM     18  C   UNL     1      42.650 130.896  23.286  1.00  0.00     0.154 A 
ATOM     19  N   UNL     1      43.733 131.405  23.927  1.00  0.00    -0.242 NA
ATOM     20  F   UNL     1      41.321 129.027  22.659  1.00  0.00    -0.203 F 
ENDBRANCH  10  14
ENDBRANCH   1   3
BRANCH   1  21
ATOM     21  C   UNL     1      46.898 124.181  22.586  1.00  0.00     0.028 A 
ATOM     22  C   UNL     1      46.970 123.629  21.300  1.00  0.00     0.025 A 
ATOM     23  C   UNL     1      47.951 124.994  23.052  1.00  0.00    -0.061 A 
ATOM     24  C   UNL     1      48.096 123.842  20.502  1.00  0.00     0.004 A 
ATOM     25  C   UNL     1      49.088 125.203  22.248  1.00  0.00     0.025 A 
ATOM     26  C   UNL     1      49.153 124.620  20.975  1.00  0.00     0.025 A 
ATOM     27  O   UNL     1      47.861 125.616  24.293  1.00  0.00    -0.870 OA
BRANCH  25  28
ATOM     28  N   UNL     1      50.173 126.014  22.712  1.00  0.00    -0.399 N 
ATOM     29  H   UNL     1      51.041 125.588  23.106  1.00  0.00     0.156 HD
ATOM     30  H   UNL     1      50.118 127.057  22.663  1.00  0.00     0.156 HD
ENDBRANCH  25  28
ENDBRANCH   1  21
TORSDOF 4
ENDMDL


