MODEL 1
REMARK VINA RESULT:      -9.5      0.000      0.000
REMARK SMILES N[NH2+]c1ccc2cc3ccccc3cc2c1C=O
REMARK SMILES IDX 3 1 4 2 5 3 6 4 7 5 8 6 9 7 10 8 11 9 12 10 13 11 14 12
REMARK SMILES IDX 15 13 16 14 2 15 1 18 17 21 18 22
REMARK H PARENT 2 16 2 17 1 19 1 20
ROOT
ATOM      1  C   UNL     1      43.584 131.479  21.174  1.00  0.00     0.159 A 
ATOM      2  C   UNL     1      44.834 130.875  21.388  1.00  0.00     0.071 A 
ATOM      3  C   UNL     1      45.668 130.554  20.325  1.00  0.00     0.015 A 
ATOM      4  C   UNL     1      45.278 130.824  19.011  1.00  0.00    -0.017 A 
ATOM      5  C   UNL     1      46.137 130.486  17.953  1.00  0.00     0.017 A 
ATOM      6  C   UNL     1      45.762 130.733  16.628  1.00  0.00    -0.018 A 
ATOM      7  C   UNL     1      46.621 130.394  15.569  1.00  0.00     0.009 A 
ATOM      8  C   UNL     1      46.233 130.637  14.248  1.00  0.00     0.001 A 
ATOM      9  C   UNL     1      44.992 131.216  13.974  1.00  0.00     0.001 A 
ATOM     10  C   UNL     1      44.130 131.556  15.021  1.00  0.00     0.009 A 
ATOM     11  C   UNL     1      44.507 131.319  16.353  1.00  0.00    -0.018 A 
ATOM     12  C   UNL     1      43.648 131.659  17.408  1.00  0.00     0.018 A 
ATOM     13  C   UNL     1      44.022 131.431  18.753  1.00  0.00    -0.001 A 
ATOM     14  C   UNL     1      43.168 131.768  19.842  1.00  0.00     0.085 A 
ENDROOT
BRANCH   1  15
ATOM     15  N   UNL     1      42.786 131.846  22.324  1.00  0.00    -0.239 N 
ATOM     16  H   UNL     1      43.371 132.357  23.022  1.00  0.00     0.376 HD
ATOM     17  H   UNL     1      41.992 132.478  22.059  1.00  0.00     0.376 HD
BRANCH  15  18
ATOM     18  N   UNL     1      42.261 130.677  22.911  1.00  0.00    -0.178 NA
ATOM     19  H   UNL     1      42.832 129.860  22.589  1.00  0.00     0.183 HD
ATOM     20  H   UNL     1      41.295 130.533  22.533  1.00  0.00     0.183 HD
ENDBRANCH  15  18
ENDBRANCH   1  15
BRANCH  14  21
ATOM     21  C   UNL     1      41.882 132.466  19.590  1.00  0.00     0.266 C 
ATOM     22  O   UNL     1      41.442 133.339  20.383  1.00  0.00    -0.298 OA
ENDBRANCH  14  21
TORSDOF 3
ENDMDL
MODEL 2
REMARK VINA RESULT:      -9.2      1.407      2.621
REMARK SMILES N[NH2+]c1ccc2cc3ccccc3cc2c1C=O
REMARK SMILES IDX 3 1 4 2 5 3 6 4 7 5 8 6 9 7 10 8 11 9 12 10 13 11 14 12
REMARK SMILES IDX 15 13 16 14 2 15 1 18 17 21 18 22
REMARK H PARENT 2 16 2 17 1 19 1 20
ROOT
ATOM      1  C   UNL     1      43.083 131.839  20.860  1.00  0.00     0.159 A 
ATOM      2  C   UNL     1      42.056 132.349  20.049  1.00  0.00     0.071 A 
ATOM      3  C   UNL     1      42.156 132.327  18.664  1.00  0.00     0.015 A 
ATOM      4  C   UNL     1      43.290 131.797  18.043  1.00  0.00    -0.017 A 
ATOM      5  C   UNL     1      43.371 131.790  16.642  1.00  0.00     0.017 A 
ATOM      6  C   UNL     1      44.502 131.279  15.998  1.00  0.00    -0.018 A 
ATOM      7  C   UNL     1      44.583 131.272  14.595  1.00  0.00     0.009 A 
ATOM      8  C   UNL     1      45.722 130.766  13.962  1.00  0.00     0.001 A 
ATOM      9  C   UNL     1      46.785 130.267  14.718  1.00  0.00     0.001 A 
ATOM     10  C   UNL     1      46.714 130.269  16.115  1.00  0.00     0.009 A 
ATOM     11  C   UNL     1      45.575 130.772  16.764  1.00  0.00    -0.018 A 
ATOM     12  C   UNL     1      45.497 130.777  18.164  1.00  0.00     0.018 A 
ATOM     13  C   UNL     1      44.351 131.275  18.828  1.00  0.00    -0.001 A 
ATOM     14  C   UNL     1      44.247 131.289  20.249  1.00  0.00     0.085 A 
ENDROOT
BRANCH   1  15
ATOM     15  N   UNL     1      42.894 131.834  22.295  1.00  0.00    -0.239 N 
ATOM     16  H   UNL     1      43.809 131.971  22.780  1.00  0.00     0.376 HD
ATOM     17  H   UNL     1      42.258 132.608  22.604  1.00  0.00     0.376 HD
BRANCH  15  18
ATOM     18  N   UNL     1      42.333 130.601  22.681  1.00  0.00    -0.178 NA
ATOM     19  H   UNL     1      42.829 130.266  23.541  1.00  0.00     0.183 HD
ATOM     20  H   UNL     1      42.538 129.903  21.928  1.00  0.00     0.183 HD
ENDBRANCH  15  18
ENDBRANCH   1  15
BRANCH  14  21
ATOM     21  C   UNL     1      45.318 130.683  21.078  1.00  0.00     0.266 C 
ATOM     22  O   UNL     1      45.071 129.758  21.896  1.00  0.00    -0.298 OA
ENDBRANCH  14  21
TORSDOF 3
ENDMDL
MODEL 3
REMARK VINA RESULT:      -7.9      3.789      5.892
REMARK SMILES N[NH2+]c1ccc2cc3ccccc3cc2c1C=O
REMARK SMILES IDX 3 1 4 2 5 3 6 4 7 5 8 6 9 7 10 8 11 9 12 10 13 11 14 12
REMARK SMILES IDX 15 13 16 14 2 15 1 18 17 21 18 22
REMARK H PARENT 2 16 2 17 1 19 1 20
ROOT
ATOM      1  C   UNL     1      45.838 130.734  14.826  1.00  0.00     0.159 A 
ATOM      2  C   UNL     1      46.830 130.089  15.581  1.00  0.00     0.071 A 
ATOM      3  C   UNL     1      46.746 130.015  16.965  1.00  0.00     0.015 A 
ATOM      4  C   UNL     1      45.666 130.587  17.641  1.00  0.00    -0.017 A 
ATOM      5  C   UNL     1      45.604 130.503  19.041  1.00  0.00     0.017 A 
ATOM      6  C   UNL     1      44.540 131.081  19.742  1.00  0.00    -0.018 A 
ATOM      7  C   UNL     1      44.478 130.998  21.143  1.00  0.00     0.009 A 
ATOM      8  C   UNL     1      43.415 131.586  21.834  1.00  0.00     0.001 A 
ATOM      9  C   UNL     1      42.410 132.260  21.136  1.00  0.00     0.001 A 
ATOM     10  C   UNL     1      42.462 132.349  19.742  1.00  0.00     0.009 A 
ATOM     11  C   UNL     1      43.524 131.761  19.035  1.00  0.00    -0.018 A 
ATOM     12  C   UNL     1      43.582 131.845  17.636  1.00  0.00     0.018 A 
ATOM     13  C   UNL     1      44.643 131.250  16.914  1.00  0.00    -0.001 A 
ATOM     14  C   UNL     1      44.724 131.320  15.494  1.00  0.00     0.085 A 
ENDROOT
BRANCH   1  15
ATOM     15  N   UNL     1      45.950 130.726  13.383  1.00  0.00    -0.239 N 
ATOM     16  H   UNL     1      45.667 129.795  13.004  1.00  0.00     0.376 HD
ATOM     17  H   UNL     1      45.327 131.445  12.942  1.00  0.00     0.376 HD
BRANCH  15  18
ATOM     18  N   UNL     1      47.285 130.998  13.024  1.00  0.00    -0.178 NA
ATOM     19  H   UNL     1      47.832 130.107  13.082  1.00  0.00     0.183 HD
ATOM     20  H   UNL     1      47.688 131.642  13.745  1.00  0.00     0.183 HD
ENDBRANCH  15  18
ENDBRANCH   1  15
BRANCH  14  21
ATOM     21  C   UNL     1      43.626 131.950  14.718  1.00  0.00     0.266 C 
ATOM     22  O   UNL     1      43.095 131.365  13.738  1.00  0.00    -0.298 OA
ENDBRANCH  14  21
TORSDOF 3
ENDMDL
MODEL 4
REMARK VINA RESULT:      -7.3      4.086      6.476
REMARK SMILES N[NH2+]c1ccc2cc3ccccc3cc2c1C=O
REMARK SMILES IDX 3 1 4 2 5 3 6 4 7 5 8 6 9 7 10 8 11 9 12 10 13 11 14 12
REMARK SMILES IDX 15 13 16 14 2 15 1 18 17 21 18 22
REMARK H PARENT 2 16 2 17 1 19 1 20
ROOT
ATOM      1  C   UNL     1      45.446 130.908  14.437  1.00  0.00     0.159 A 
ATOM      2  C   UNL     1      44.203 131.557  14.378  1.00  0.00     0.071 A 
ATOM      3  C   UNL     1      43.500 131.872  15.534  1.00  0.00     0.015 A 
ATOM      4  C   UNL     1      44.017 131.543  16.789  1.00  0.00    -0.017 A 
ATOM      5  C   UNL     1      43.287 131.867  17.944  1.00  0.00     0.017 A 
ATOM      6  C   UNL     1      43.777 131.535  19.211  1.00  0.00    -0.018 A 
ATOM      7  C   UNL     1      43.046 131.858  20.366  1.00  0.00     0.009 A 
ATOM      8  C   UNL     1      43.541 131.515  21.628  1.00  0.00     0.001 A 
ATOM      9  C   UNL     1      44.762 130.849  21.747  1.00  0.00     0.001 A 
ATOM     10  C   UNL     1      45.498 130.522  20.603  1.00  0.00     0.009 A 
ATOM     11  C   UNL     1      45.013 130.863  19.330  1.00  0.00    -0.018 A 
ATOM     12  C   UNL     1      45.746 130.539  18.178  1.00  0.00     0.018 A 
ATOM     13  C   UNL     1      45.270 130.885  16.892  1.00  0.00    -0.001 A 
ATOM     14  C   UNL     1      45.996 130.568  15.707  1.00  0.00     0.085 A 
ENDROOT
BRANCH   1  15
ATOM     15  N   UNL     1      46.159 130.662  13.202  1.00  0.00    -0.239 N 
ATOM     16  H   UNL     1      46.421 129.654  13.131  1.00  0.00     0.376 HD
ATOM     17  H   UNL     1      45.572 130.891  12.364  1.00  0.00     0.376 HD
BRANCH  15  18
ATOM     18  N   UNL     1      47.321 131.458  13.174  1.00  0.00    -0.178 NA
ATOM     19  H   UNL     1      47.205 132.188  12.431  1.00  0.00     0.183 HD
ATOM     20  H   UNL     1      48.120 130.852  12.873  1.00  0.00     0.183 HD
ENDBRANCH  15  18
ENDBRANCH   1  15
BRANCH  14  21
ATOM     21  C   UNL     1      47.339 129.942  15.804  1.00  0.00     0.266 C 
ATOM     22  O   UNL     1      47.834 129.301  14.841  1.00  0.00    -0.298 OA
ENDBRANCH  14  21
TORSDOF 3
ENDMDL


