REMARK SMILES C=C1CC[C@@H](N[C@H]2CCC[C@@H]([NH2+]N)[C@@H]2O)C[C@H]1F
REMARK SMILES IDX 7 1 8 2 9 3 10 4 11 5 14 6 6 7 5 9 2 10 3 11 17 12 4 13
REMARK SMILES IDX 16 14 1 15 18 16 15 17 12 19 13 22
REMARK H PARENT 6 8 15 18 12 20 12 21 13 23 13 24
ROOT
ATOM      1  C   UNL     1      -0.489   0.100  -0.756  1.00  0.00     0.088 C 
ATOM      2  C   UNL     1      -1.059   1.109  -1.777  1.00  0.00     0.022 C 
ATOM      3  C   UNL     1      -0.398   2.486  -1.654  1.00  0.00     0.008 C 
ATOM      4  C   UNL     1       1.125   2.385  -1.808  1.00  0.00     0.070 C 
ATOM      5  C   UNL     1       1.763   1.376  -0.821  1.00  0.00     0.232 C 
ATOM      6  C   UNL     1       1.051  -0.007  -0.909  1.00  0.00     0.191 C 
ENDROOT
BRANCH   1   7
ATOM      7  N   UNL     1      -0.854   0.474   0.628  1.00  0.00    -0.308 NA
ATOM      8  H   UNL     1      -1.746   1.022   0.652  1.00  0.00     0.123 HD
BRANCH   7   9
ATOM      9  C   UNL     1      -0.988  -0.690   1.526  1.00  0.00     0.057 C 
ATOM     10  C   UNL     1      -2.269  -2.144   3.692  1.00  0.00    -0.044 C 
ATOM     11  C   UNL     1      -3.156  -1.714   2.549  1.00  0.00     0.035 C 
ATOM     12  C   UNL     1      -1.002  -1.369   3.971  1.00  0.00     0.193 C 
ATOM     13  C   UNL     1      -2.325  -1.460   1.280  1.00  0.00     0.023 C 
ATOM     14  C   UNL     1      -0.831  -0.209   2.981  1.00  0.00     0.061 C 
ATOM     15  C   UNL     1      -2.607  -3.182   4.471  1.00  0.00     0.011 C 
ATOM     16  F   UNL     1      -1.036  -0.864   5.260  1.00  0.00    -0.243 F 
ENDBRANCH   7   9
ENDBRANCH   1   7
BRANCH   6  17
ATOM     17  O   UNL     1       1.339  -0.609  -2.147  1.00  0.00    -0.385 OA
ATOM     18  H   UNL     1       2.271  -0.948  -2.096  1.00  0.00     0.211 HD
ENDBRANCH   6  17
BRANCH   5  19
ATOM     19  N   UNL     1       1.800   1.890   0.567  1.00  0.00    -0.267 N 
ATOM     20  H   UNL     1       2.019   1.104   1.224  1.00  0.00     0.370 HD
ATOM     21  H   UNL     1       0.892   2.321   0.856  1.00  0.00     0.370 HD
BRANCH  19  22
ATOM     22  N   UNL     1       2.829   2.850   0.687  1.00  0.00    -0.183 NA
ATOM     23  H   UNL     1       3.064   2.952   1.703  1.00  0.00     0.183 HD
ATOM     24  H   UNL     1       2.457   3.782   0.390  1.00  0.00     0.183 HD
ENDBRANCH  19  22
ENDBRANCH   5  19
TORSDOF 5


