REMARK SMILES Cc1ccc([NH2+]c2ccc([C@@H]3O[C@H]3c3ccccc3)c(N)c2[O-])cc1F
REMARK SMILES IDX 7 1 8 2 9 3 10 4 20 5 22 6 23 7 6 8 5 11 2 12 3 13 25 14
REMARK SMILES IDX 4 15 24 16 1 17 26 18 21 19 11 22 12 23 13 24 14 25 15 26
REMARK SMILES IDX 19 27 16 28 18 29 17 30
REMARK H PARENT 6 9 6 10 21 20 21 21
ROOT
ATOM      1  C   UNL     1       1.078  -0.763  -2.256  1.00  0.00     0.128 A 
ATOM      2  C   UNL     1      -0.316  -0.699  -2.408  1.00  0.00     0.068 A 
ATOM      3  C   UNL     1      -1.162  -1.129  -1.388  1.00  0.00     0.015 A 
ATOM      4  C   UNL     1      -0.638  -1.611  -0.179  1.00  0.00     0.007 A 
ATOM      5  C   UNL     1       0.765  -1.698  -0.014  1.00  0.00     0.035 A 
ATOM      6  C   UNL     1       1.614  -1.263  -1.052  1.00  0.00    -0.021 A 
ATOM      7  O   UNL     1       2.994  -1.334  -0.888  1.00  0.00    -0.867 OA
ENDROOT
BRANCH   1   8
ATOM      8  N   UNL     1       1.940  -0.294  -3.316  1.00  0.00    -0.282 N 
ATOM      9  H   UNL     1       2.797  -0.894  -3.375  1.00  0.00     0.358 HD
ATOM     10  H   UNL     1       1.458  -0.379  -4.242  1.00  0.00     0.358 HD
BRANCH   8  11
ATOM     11  C   UNL     1       2.298   1.085  -3.086  1.00  0.00     0.137 A 
ATOM     12  C   UNL     1       2.975   3.779  -2.604  1.00  0.00    -0.015 A 
ATOM     13  C   UNL     1       1.734   3.451  -3.172  1.00  0.00     0.012 A 
ATOM     14  C   UNL     1       3.872   2.752  -2.268  1.00  0.00     0.132 A 
ATOM     15  C   UNL     1       1.399   2.115  -3.412  1.00  0.00     0.068 A 
ATOM     16  C   UNL     1       3.536   1.417  -2.510  1.00  0.00     0.107 A 
ATOM     17  C   UNL     1       3.336   5.211  -2.334  1.00  0.00     0.047 C 
ATOM     18  F   UNL     1       5.073   3.044  -1.706  1.00  0.00    -0.206 F 
ENDBRANCH   8  11
ENDBRANCH   1   8
BRANCH   5  19
ATOM     19  N   UNL     1       1.336  -2.228   1.192  1.00  0.00    -0.399 N 
ATOM     20  H   UNL     1       2.370  -2.262   1.332  1.00  0.00     0.156 HD
ATOM     21  H   UNL     1       0.746  -2.615   1.958  1.00  0.00     0.156 HD
ENDBRANCH   5  19
BRANCH   4  22
ATOM     22  C   UNL     1      -1.594  -2.080   0.888  1.00  0.00     0.185 C 
ATOM     23  O   UNL     1      -2.633  -1.147   1.082  1.00  0.00    -0.359 OA
ATOM     24  C   UNL     1      -1.681  -1.243   2.115  1.00  0.00     0.183 C 
BRANCH  24  25
ATOM     25  C   UNL     1      -2.288  -1.883   3.329  1.00  0.00    -0.016 A 
ATOM     26  C   UNL     1      -3.395  -1.286   3.955  1.00  0.00     0.006 A 
ATOM     27  C   UNL     1      -1.735  -3.053   3.877  1.00  0.00     0.006 A 
ATOM     28  C   UNL     1      -3.953  -1.862   5.100  1.00  0.00     0.000 A 
ATOM     29  C   UNL     1      -2.296  -3.627   5.023  1.00  0.00     0.000 A 
ATOM     30  C   UNL     1      -3.406  -3.033   5.633  1.00  0.00     0.000 A 
ENDBRANCH  24  25
ENDBRANCH   4  22
TORSDOF 5


