REMARK SMILES Cc1c(Br)cccc1[NH2+]/C(S)=[N+]1/CCC[C@@H](c2ccc3cc(F)ccc3n2)[C@H]1F
REMARK SMILES IDX 10 1 11 2 12 4 13 5 28 6 14 7 16 8 15 9 29 10 17 11 27 12
REMARK SMILES IDX 18 13 26 14 19 15 25 16 20 17 24 18 21 19 22 20 23 21 9 22
REMARK SMILES IDX 8 25 7 26 2 27 6 28 3 29 5 30 1 31 4 32
REMARK H PARENT 11 3 9 23 9 24
ROOT
ATOM      1  C   UNL     1      -2.211  -1.300  -0.188  1.00  0.00     0.401 C 
ENDROOT
BRANCH   1   2
ATOM      2  S   UNL     1      -3.789  -2.162   0.064  1.00  0.00    -0.010 SA
ATOM      3  H   UNL     1      -3.167  -3.321   0.560  1.00  0.00     0.120 HD
ENDBRANCH   1   2
BRANCH   1   4
ATOM      4  N   UNL     1      -1.649  -0.583   0.767  1.00  0.00    -0.144 N 
ATOM      5  C   UNL     1      -2.137  -0.631   2.153  1.00  0.00     0.360 C 
ATOM      6  C   UNL     1      -0.383   0.135   0.562  1.00  0.00     0.457 C 
ATOM      7  C   UNL     1      -2.222   0.774   2.757  1.00  0.00     0.074 C 
ATOM      8  C   UNL     1      -0.450   1.552   1.164  1.00  0.00     0.142 C 
ATOM      9  C   UNL     1      -0.884   1.500   2.636  1.00  0.00     0.026 C 
ATOM     10  F   UNL     1       0.650  -0.589   1.138  1.00  0.00    -0.174 F 
BRANCH   8  11
ATOM     11  C   UNL     1       0.875   2.262   0.997  1.00  0.00     0.054 A 
ATOM     12  N   UNL     1       1.898   2.013   1.863  1.00  0.00    -0.252 NA
ATOM     13  C   UNL     1       1.090   3.114  -0.098  1.00  0.00     0.025 A 
ATOM     14  C   UNL     1       3.122   2.588   1.720  1.00  0.00     0.071 A 
ATOM     15  C   UNL     1       2.336   3.719  -0.271  1.00  0.00     0.012 A 
ATOM     16  C   UNL     1       4.140   2.310   2.639  1.00  0.00     0.032 A 
ATOM     17  C   UNL     1       3.367   3.462   0.639  1.00  0.00     0.003 A 
ATOM     18  C   UNL     1       5.399   2.901   2.487  1.00  0.00     0.041 A 
ATOM     19  C   UNL     1       4.633   4.051   0.493  1.00  0.00     0.049 A 
ATOM     20  C   UNL     1       5.645   3.769   1.418  1.00  0.00     0.123 A 
ATOM     21  F   UNL     1       6.867   4.338   1.276  1.00  0.00    -0.207 F 
ENDBRANCH   8  11
ENDBRANCH   1   4
BRANCH   1  22
ATOM     22  N   UNL     1      -1.647  -1.395  -1.526  1.00  0.00    -0.220 N 
ATOM     23  H   UNL     1      -2.298  -1.938  -2.139  1.00  0.00     0.364 HD
ATOM     24  H   UNL     1      -1.613  -0.430  -1.919  1.00  0.00     0.364 HD
BRANCH  22  25
ATOM     25  C   UNL     1      -0.364  -2.080  -1.564  1.00  0.00     0.143 A 
ATOM     26  C   UNL     1      -0.160  -3.238  -0.783  1.00  0.00     0.069 A 
ATOM     27  C   UNL     1       0.680  -1.652  -2.437  1.00  0.00     0.025 A 
ATOM     28  C   UNL     1       1.073  -3.885  -0.769  1.00  0.00     0.007 A 
ATOM     29  C   UNL     1       1.941  -2.297  -2.374  1.00  0.00     0.026 A 
ATOM     30  C   UNL     1       2.123  -3.404  -1.543  1.00  0.00     0.016 A 
ATOM     31  C   UNL     1       0.462  -0.506  -3.398  1.00  0.00     0.052 C 
ATOM     32  Br  UNL     1       3.466  -1.708  -3.383  1.00  0.00    -0.050 Br
ENDBRANCH  22  25
ENDBRANCH   1  22
TORSDOF 5


