MODEL 1
REMARK VINA RESULT:      -6.3      0.000      0.000
REMARK SMILES CC[C@H](O)C(=O)[N@H+]1C[C@@H](c2ccc3cc[nH]c3c2)[C@@H](C)C[C@H]1F
REMARK SMILES IDX 5 1 6 2 3 3 2 4 1 5 4 6 7 8 8 9 22 10 9 11 21 12 19 13 23 15
REMARK SMILES IDX 20 16 10 17 11 18 18 19 12 20 17 21 13 22 16 23 14 24 15 25
REMARK H PARENT 4 7 7 14 16 26
ROOT
ATOM      1  C   UNL     1      44.238 130.747  23.102  1.00  0.00     0.343 C 
ATOM      2  O   UNL     1      44.432 131.233  24.209  1.00  0.00    -0.228 OA
ENDROOT
BRANCH   1   3
ATOM      3  C   UNL     1      44.178 129.242  22.953  1.00  0.00     0.243 C 
BRANCH   3   4
ATOM      4  C   UNL     1      42.949 128.657  23.674  1.00  0.00     0.043 C 
ATOM      5  C   UNL     1      43.229 127.313  24.351  1.00  0.00     0.007 C 
ENDBRANCH   3   4
BRANCH   3   6
ATOM      6  O   UNL     1      45.362 128.662  23.441  1.00  0.00    -0.379 OA
ATOM      7  H   UNL     1      46.055 129.373  23.434  1.00  0.00     0.211 HD
ENDBRANCH   3   6
ENDBRANCH   1   3
BRANCH   1   8
ATOM      8  N   UNL     1      44.018 131.608  21.954  1.00  0.00    -0.240 N 
ATOM      9  C   UNL     1      44.552 130.978  20.728  1.00  0.00     0.281 C 
ATOM     10  C   UNL     1      42.581 131.937  21.818  1.00  0.00     0.374 C 
ATOM     11  C   UNL     1      44.407 131.931  19.519  1.00  0.00     0.078 C 
ATOM     12  C   UNL     1      42.337 132.889  20.632  1.00  0.00     0.107 C 
ATOM     13  C   UNL     1      42.931 132.361  19.307  1.00  0.00     0.008 C 
ATOM     14  H   UNL     1      44.540 132.504  22.113  1.00  0.00     0.359 HD
ATOM     15  F   UNL     1      41.814 130.791  21.669  1.00  0.00    -0.185 F 
ATOM     16  C   UNL     1      42.047 131.264  18.684  1.00  0.00     0.009 C 
BRANCH  11  17
ATOM     17  C   UNL     1      45.057 131.409  18.246  1.00  0.00    -0.037 A 
ATOM     18  C   UNL     1      45.623 130.104  18.247  1.00  0.00     0.005 A 
ATOM     19  C   UNL     1      45.167 132.207  17.078  1.00  0.00     0.031 A 
ATOM     20  C   UNL     1      46.262 129.590  17.106  1.00  0.00     0.010 A 
ATOM     21  C   UNL     1      45.808 131.664  15.966  1.00  0.00     0.046 A 
ATOM     22  C   UNL     1      46.333 130.403  15.980  1.00  0.00    -0.001 A 
ATOM     23  N   UNL     1      46.012 132.253  14.776  1.00  0.00    -0.361 N 
ATOM     24  C   UNL     1      46.896 130.175  14.743  1.00  0.00     0.028 A 
ATOM     25  C   UNL     1      46.677 131.346  14.024  1.00  0.00     0.083 A 
ATOM     26  H   UNL     1      45.722 133.214  14.487  1.00  0.00     0.166 HD
ENDBRANCH  11  17
ENDBRANCH   1   8
TORSDOF 5
ENDMDL
MODEL 2
REMARK VINA RESULT:      -6.2      1.036      1.427
REMARK SMILES CC[C@H](O)C(=O)[N@H+]1C[C@@H](c2ccc3cc[nH]c3c2)[C@@H](C)C[C@H]1F
REMARK SMILES IDX 5 1 6 2 3 3 2 4 1 5 4 6 7 8 8 9 22 10 9 11 21 12 19 13 23 15
REMARK SMILES IDX 20 16 10 17 11 18 18 19 12 20 17 21 13 22 16 23 14 24 15 25
REMARK H PARENT 4 7 7 14 16 26
ROOT
ATOM      1  C   UNL     1      44.476 130.184  22.884  1.00  0.00     0.343 C 
ATOM      2  O   UNL     1      44.831 130.515  24.008  1.00  0.00    -0.228 OA
ENDROOT
BRANCH   1   3
ATOM      3  C   UNL     1      44.338 128.715  22.552  1.00  0.00     0.243 C 
BRANCH   3   4
ATOM      4  C   UNL     1      43.771 127.923  23.747  1.00  0.00     0.043 C 
ATOM      5  C   UNL     1      42.256 128.070  23.905  1.00  0.00     0.007 C 
ENDBRANCH   3   4
BRANCH   3   6
ATOM      6  O   UNL     1      45.580 128.191  22.154  1.00  0.00    -0.379 OA
ATOM      7  H   UNL     1      45.913 128.768  21.418  1.00  0.00     0.211 HD
ENDBRANCH   3   6
ENDBRANCH   1   3
BRANCH   1   8
ATOM      8  N   UNL     1      44.144 131.195  21.896  1.00  0.00    -0.240 N 
ATOM      9  C   UNL     1      44.480 130.717  20.538  1.00  0.00     0.281 C 
ATOM     10  C   UNL     1      42.718 131.579  22.003  1.00  0.00     0.374 C 
ATOM     11  C   UNL     1      44.217 131.825  19.491  1.00  0.00     0.078 C 
ATOM     12  C   UNL     1      42.361 132.685  20.992  1.00  0.00     0.107 C 
ATOM     13  C   UNL     1      42.748 132.319  19.541  1.00  0.00     0.008 C 
ATOM     14  H   UNL     1      44.722 132.047  22.093  1.00  0.00     0.359 HD
ATOM     15  F   UNL     1      41.886 130.484  21.818  1.00  0.00    -0.185 F 
ATOM     16  C   UNL     1      41.739 131.338  18.913  1.00  0.00     0.009 C 
BRANCH  11  17
ATOM     17  C   UNL     1      44.667 131.456  18.084  1.00  0.00    -0.037 A 
ATOM     18  C   UNL     1      43.857 131.839  16.980  1.00  0.00     0.005 A 
ATOM     19  C   UNL     1      45.839 130.691  17.848  1.00  0.00     0.031 A 
ATOM     20  C   UNL     1      44.215 131.494  15.665  1.00  0.00     0.010 A 
ATOM     21  C   UNL     1      46.162 130.369  16.531  1.00  0.00     0.046 A 
ATOM     22  C   UNL     1      45.379 130.758  15.480  1.00  0.00    -0.001 A 
ATOM     23  N   UNL     1      47.219 129.659  16.102  1.00  0.00    -0.361 N 
ATOM     24  C   UNL     1      45.964 130.277  14.329  1.00  0.00     0.028 A 
ATOM     25  C   UNL     1      47.103 129.602  14.755  1.00  0.00     0.083 A 
ATOM     26  H   UNL     1      47.975 129.236  16.684  1.00  0.00     0.166 HD
ENDBRANCH  11  17
ENDBRANCH   1   8
TORSDOF 5
ENDMDL
MODEL 3
REMARK VINA RESULT:      -5.9      1.049      1.752
REMARK SMILES CC[C@H](O)C(=O)[N@H+]1C[C@@H](c2ccc3cc[nH]c3c2)[C@@H](C)C[C@H]1F
REMARK SMILES IDX 5 1 6 2 3 3 2 4 1 5 4 6 7 8 8 9 22 10 9 11 21 12 19 13 23 15
REMARK SMILES IDX 20 16 10 17 11 18 18 19 12 20 17 21 13 22 16 23 14 24 15 25
REMARK H PARENT 4 7 7 14 16 26
ROOT
ATOM      1  C   UNL     1      44.653 129.759  22.745  1.00  0.00     0.343 C 
ATOM      2  O   UNL     1      45.115 128.702  22.335  1.00  0.00    -0.228 OA
ENDROOT
BRANCH   1   3
ATOM      3  C   UNL     1      44.341 129.911  24.218  1.00  0.00     0.243 C 
BRANCH   3   4
ATOM      4  C   UNL     1      42.899 129.470  24.532  1.00  0.00     0.043 C 
ATOM      5  C   UNL     1      42.708 127.952  24.489  1.00  0.00     0.007 C 
ENDBRANCH   3   4
BRANCH   3   6
ATOM      6  O   UNL     1      44.553 131.241  24.621  1.00  0.00    -0.379 OA
ATOM      7  H   UNL     1      45.535 131.369  24.685  1.00  0.00     0.211 HD
ENDBRANCH   3   6
ENDBRANCH   1   3
BRANCH   1   8
ATOM      8  N   UNL     1      44.452 130.871  21.833  1.00  0.00    -0.240 N 
ATOM      9  C   UNL     1      44.858 130.493  20.463  1.00  0.00     0.281 C 
ATOM     10  C   UNL     1      43.047 131.334  21.879  1.00  0.00     0.374 C 
ATOM     11  C   UNL     1      44.737 131.702  19.506  1.00  0.00     0.078 C 
ATOM     12  C   UNL     1      42.828 132.544  20.951  1.00  0.00     0.107 C 
ATOM     13  C   UNL     1      43.298 132.283  19.502  1.00  0.00     0.008 C 
ATOM     14  H   UNL     1      45.063 131.664  22.146  1.00  0.00     0.359 HD
ATOM     15  F   UNL     1      42.169 130.315  21.539  1.00  0.00    -0.185 F 
ATOM     16  C   UNL     1      42.283 131.427  18.721  1.00  0.00     0.009 C 
BRANCH  11  17
ATOM     17  C   UNL     1      45.266 131.429  18.105  1.00  0.00    -0.037 A 
ATOM     18  C   UNL     1      44.944 132.337  17.059  1.00  0.00     0.005 A 
ATOM     19  C   UNL     1      46.020 130.266  17.801  1.00  0.00     0.031 A 
ATOM     20  C   UNL     1      45.383 132.111  15.743  1.00  0.00     0.010 A 
ATOM     21  C   UNL     1      46.437 130.076  16.486  1.00  0.00     0.046 A 
ATOM     22  C   UNL     1      46.132 130.967  15.495  1.00  0.00    -0.001 A 
ATOM     23  N   UNL     1      47.154 129.049  15.999  1.00  0.00    -0.361 N 
ATOM     24  C   UNL     1      46.679 130.488  14.325  1.00  0.00     0.028 A 
ATOM     25  C   UNL     1      47.305 129.297  14.678  1.00  0.00     0.083 A 
ATOM     26  H   UNL     1      47.519 128.225  16.527  1.00  0.00     0.166 HD
ENDBRANCH  11  17
ENDBRANCH   1   8
TORSDOF 5
ENDMDL
MODEL 4
REMARK VINA RESULT:      -5.9      1.861      2.435
REMARK SMILES CC[C@H](O)C(=O)[N@H+]1C[C@@H](c2ccc3cc[nH]c3c2)[C@@H](C)C[C@H]1F
REMARK SMILES IDX 5 1 6 2 3 3 2 4 1 5 4 6 7 8 8 9 22 10 9 11 21 12 19 13 23 15
REMARK SMILES IDX 20 16 10 17 11 18 18 19 12 20 17 21 13 22 16 23 14 24 15 25
REMARK H PARENT 4 7 7 14 16 26
ROOT
ATOM      1  C   UNL     1      44.759 128.341  23.120  1.00  0.00     0.343 C 
ATOM      2  O   UNL     1      43.728 127.929  23.636  1.00  0.00    -0.228 OA
ENDROOT
BRANCH   1   3
ATOM      3  C   UNL     1      45.955 127.421  23.014  1.00  0.00     0.243 C 
BRANCH   3   4
ATOM      4  C   UNL     1      45.674 126.247  22.057  1.00  0.00     0.043 C 
ATOM      5  C   UNL     1      46.796 125.206  22.033  1.00  0.00     0.007 C 
ENDBRANCH   3   4
BRANCH   3   6
ATOM      6  O   UNL     1      46.313 126.947  24.289  1.00  0.00    -0.379 OA
ATOM      7  H   UNL     1      46.086 125.981  24.311  1.00  0.00     0.211 HD
ENDBRANCH   3   6
ENDBRANCH   1   3
BRANCH   1   8
ATOM      8  N   UNL     1      44.815 129.685  22.572  1.00  0.00    -0.240 N 
ATOM      9  C   UNL     1      44.905 129.636  21.097  1.00  0.00     0.281 C 
ATOM     10  C   UNL     1      43.648 130.479  23.022  1.00  0.00     0.374 C 
ATOM     11  C   UNL     1      45.061 131.060  20.515  1.00  0.00     0.078 C 
ATOM     12  C   UNL     1      43.717 131.922  22.487  1.00  0.00     0.107 C 
ATOM     13  C   UNL     1      43.896 131.985  20.953  1.00  0.00     0.008 C 
ATOM     14  H   UNL     1      45.681 130.151  22.936  1.00  0.00     0.359 HD
ATOM     15  F   UNL     1      42.456 129.887  22.632  1.00  0.00    -0.185 F 
ATOM     16  C   UNL     1      42.571 131.713  20.214  1.00  0.00     0.009 C 
BRANCH  11  17
ATOM     17  C   UNL     1      45.298 131.084  19.011  1.00  0.00    -0.037 A 
ATOM     18  C   UNL     1      44.538 131.979  18.209  1.00  0.00     0.005 A 
ATOM     19  C   UNL     1      46.210 130.198  18.382  1.00  0.00     0.031 A 
ATOM     20  C   UNL     1      44.699 132.015  16.813  1.00  0.00     0.010 A 
ATOM     21  C   UNL     1      46.343 130.262  16.996  1.00  0.00     0.046 A 
ATOM     22  C   UNL     1      45.616 131.139  16.241  1.00  0.00    -0.001 A 
ATOM     23  N   UNL     1      47.146 129.516  16.219  1.00  0.00    -0.361 N 
ATOM     24  C   UNL     1      45.971 130.946  14.924  1.00  0.00     0.028 A 
ATOM     25  C   UNL     1      46.923 129.932  14.951  1.00  0.00     0.083 A 
ATOM     26  H   UNL     1      47.806 128.768  16.526  1.00  0.00     0.166 HD
ENDBRANCH  11  17
ENDBRANCH   1   8
TORSDOF 5
ENDMDL
MODEL 5
REMARK VINA RESULT:      -5.8      1.781      2.523
REMARK SMILES CC[C@H](O)C(=O)[N@H+]1C[C@@H](c2ccc3cc[nH]c3c2)[C@@H](C)C[C@H]1F
REMARK SMILES IDX 5 1 6 2 3 3 2 4 1 5 4 6 7 8 8 9 22 10 9 11 21 12 19 13 23 15
REMARK SMILES IDX 20 16 10 17 11 18 18 19 12 20 17 21 13 22 16 23 14 24 15 25
REMARK H PARENT 4 7 7 14 16 26
ROOT
ATOM      1  C   UNL     1      44.976 127.936  22.587  1.00  0.00     0.343 C 
ATOM      2  O   UNL     1      44.809 127.019  21.792  1.00  0.00    -0.228 OA
ENDROOT
BRANCH   1   3
ATOM      3  C   UNL     1      45.065 127.628  24.066  1.00  0.00     0.243 C 
BRANCH   3   4
ATOM      4  C   UNL     1      45.827 126.313  24.317  1.00  0.00     0.043 C 
ATOM      5  C   UNL     1      47.158 126.233  23.566  1.00  0.00     0.007 C 
ENDBRANCH   3   4
BRANCH   3   6
ATOM      6  O   UNL     1      43.777 127.570  24.625  1.00  0.00    -0.379 OA
ATOM      7  H   UNL     1      43.893 127.429  25.601  1.00  0.00     0.211 HD
ENDBRANCH   3   6
ENDBRANCH   1   3
BRANCH   1   8
ATOM      8  N   UNL     1      45.135 129.298  22.109  1.00  0.00    -0.240 N 
ATOM      9  C   UNL     1      45.069 129.336  20.633  1.00  0.00     0.281 C 
ATOM     10  C   UNL     1      44.122 130.186  22.724  1.00  0.00     0.374 C 
ATOM     11  C   UNL     1      45.332 130.769  20.114  1.00  0.00     0.078 C 
ATOM     12  C   UNL     1      44.306 131.644  22.262  1.00  0.00     0.107 C 
ATOM     13  C   UNL     1      44.335 131.788  20.724  1.00  0.00     0.008 C 
ATOM     14  H   UNL     1      46.082 129.639  22.401  1.00  0.00     0.359 HD
ATOM     15  F   UNL     1      42.834 129.759  22.434  1.00  0.00    -0.185 F 
ATOM     16  C   UNL     1      42.920 131.714  20.119  1.00  0.00     0.009 C 
BRANCH  11  17
ATOM     17  C   UNL     1      45.417 130.865  18.597  1.00  0.00    -0.037 A 
ATOM     18  C   UNL     1      44.512 131.719  17.909  1.00  0.00     0.005 A 
ATOM     19  C   UNL     1      46.333 130.082  17.846  1.00  0.00     0.031 A 
ATOM     20  C   UNL     1      44.531 131.816  16.507  1.00  0.00     0.010 A 
ATOM     21  C   UNL     1      46.323 130.205  16.458  1.00  0.00     0.046 A 
ATOM     22  C   UNL     1      45.455 131.043  15.814  1.00  0.00    -0.001 A 
ATOM     23  N   UNL     1      47.104 129.558  15.577  1.00  0.00    -0.361 N 
ATOM     24  C   UNL     1      45.694 130.926  14.462  1.00  0.00     0.028 A 
ATOM     25  C   UNL     1      46.724 129.997  14.355  1.00  0.00     0.083 A 
ATOM     26  H   UNL     1      47.849 128.858  15.787  1.00  0.00     0.166 HD
ENDBRANCH  11  17
ENDBRANCH   1   8
TORSDOF 5
ENDMDL
MODEL 6
REMARK VINA RESULT:      -5.7      1.102      1.256
REMARK SMILES CC[C@H](O)C(=O)[N@H+]1C[C@@H](c2ccc3cc[nH]c3c2)[C@@H](C)C[C@H]1F
REMARK SMILES IDX 5 1 6 2 3 3 2 4 1 5 4 6 7 8 8 9 22 10 9 11 21 12 19 13 23 15
REMARK SMILES IDX 20 16 10 17 11 18 18 19 12 20 17 21 13 22 16 23 14 24 15 25
REMARK H PARENT 4 7 7 14 16 26
ROOT
ATOM      1  C   UNL     1      44.504 129.171  23.321  1.00  0.00     0.343 C 
ATOM      2  O   UNL     1      44.354 129.262  24.533  1.00  0.00    -0.228 OA
ENDROOT
BRANCH   1   3
ATOM      3  C   UNL     1      44.688 127.806  22.697  1.00  0.00     0.243 C 
BRANCH   3   4
ATOM      4  C   UNL     1      43.513 126.871  23.039  1.00  0.00     0.043 C 
ATOM      5  C   UNL     1      43.893 125.388  23.013  1.00  0.00     0.007 C 
ENDBRANCH   3   4
BRANCH   3   6
ATOM      6  O   UNL     1      45.907 127.245  23.116  1.00  0.00    -0.379 OA
ATOM      7  H   UNL     1      45.953 126.332  22.729  1.00  0.00     0.211 HD
ENDBRANCH   3   6
ENDBRANCH   1   3
BRANCH   1   8
ATOM      8  N   UNL     1      44.455 130.360  22.488  1.00  0.00    -0.240 N 
ATOM      9  C   UNL     1      44.750 130.015  21.081  1.00  0.00     0.281 C 
ATOM     10  C   UNL     1      43.144 131.035  22.622  1.00  0.00     0.374 C 
ATOM     11  C   UNL     1      44.793 131.289  20.206  1.00  0.00     0.078 C 
ATOM     12  C   UNL     1      43.092 132.324  21.779  1.00  0.00     0.107 C 
ATOM     13  C   UNL     1      43.467 132.089  20.299  1.00  0.00     0.008 C 
ATOM     14  H   UNL     1      45.194 131.024  22.822  1.00  0.00     0.359 HD
ATOM     15  F   UNL     1      42.104 130.192  22.258  1.00  0.00    -0.185 F 
ATOM     16  C   UNL     1      42.303 131.458  19.510  1.00  0.00     0.009 C 
BRANCH  11  17
ATOM     17  C   UNL     1      45.226 131.031  18.770  1.00  0.00    -0.037 A 
ATOM     18  C   UNL     1      45.998 129.872  18.481  1.00  0.00     0.005 A 
ATOM     19  C   UNL     1      44.931 131.942  17.723  1.00  0.00     0.031 A 
ATOM     20  C   UNL     1      46.448 129.608  17.176  1.00  0.00     0.010 A 
ATOM     21  C   UNL     1      45.394 131.647  16.442  1.00  0.00     0.046 A 
ATOM     22  C   UNL     1      46.123 130.521  16.179  1.00  0.00    -0.001 A 
ATOM     23  N   UNL     1      45.222 132.375  15.326  1.00  0.00    -0.361 N 
ATOM     24  C   UNL     1      46.428 130.530  14.836  1.00  0.00     0.028 A 
ATOM     25  C   UNL     1      45.852 131.695  14.340  1.00  0.00     0.083 A 
ATOM     26  H   UNL     1      44.711 133.281  15.233  1.00  0.00     0.166 HD
ENDBRANCH  11  17
ENDBRANCH   1   8
TORSDOF 5
ENDMDL
MODEL 7
REMARK VINA RESULT:      -5.6      1.578      2.082
REMARK SMILES CC[C@H](O)C(=O)[N@H+]1C[C@@H](c2ccc3cc[nH]c3c2)[C@@H](C)C[C@H]1F
REMARK SMILES IDX 5 1 6 2 3 3 2 4 1 5 4 6 7 8 8 9 22 10 9 11 21 12 19 13 23 15
REMARK SMILES IDX 20 16 10 17 11 18 18 19 12 20 17 21 13 22 16 23 14 24 15 25
REMARK H PARENT 4 7 7 14 16 26
ROOT
ATOM      1  C   UNL     1      44.882 128.340  23.281  1.00  0.00     0.343 C 
ATOM      2  O   UNL     1      44.670 128.237  24.482  1.00  0.00    -0.228 OA
ENDROOT
BRANCH   1   3
ATOM      3  C   UNL     1      45.014 127.089  22.441  1.00  0.00     0.243 C 
BRANCH   3   4
ATOM      4  C   UNL     1      44.408 125.867  23.158  1.00  0.00     0.043 C 
ATOM      5  C   UNL     1      42.883 125.799  23.050  1.00  0.00     0.007 C 
ENDBRANCH   3   4
BRANCH   3   6
ATOM      6  O   UNL     1      46.365 126.859  22.126  1.00  0.00    -0.379 OA
ATOM      7  H   UNL     1      46.521 127.249  21.226  1.00  0.00     0.211 HD
ENDBRANCH   3   6
ENDBRANCH   1   3
BRANCH   1   8
ATOM      8  N   UNL     1      44.957 129.652  22.662  1.00  0.00    -0.240 N 
ATOM      9  C   UNL     1      44.888 129.532  21.190  1.00  0.00     0.281 C 
ATOM     10  C   UNL     1      43.894 130.537  23.189  1.00  0.00     0.374 C 
ATOM     11  C   UNL     1      45.063 130.915  20.523  1.00  0.00     0.078 C 
ATOM     12  C   UNL     1      43.988 131.947  22.576  1.00  0.00     0.107 C 
ATOM     13  C   UNL     1      44.007 131.931  21.031  1.00  0.00     0.008 C 
ATOM     14  H   UNL     1      45.883 130.078  22.910  1.00  0.00     0.359 HD
ATOM     15  F   UNL     1      42.634 130.005  22.955  1.00  0.00    -0.185 F 
ATOM     16  C   UNL     1      42.598 131.709  20.448  1.00  0.00     0.009 C 
BRANCH  11  17
ATOM     17  C   UNL     1      45.140 130.857  19.004  1.00  0.00    -0.037 A 
ATOM     18  C   UNL     1      46.192 130.118  18.395  1.00  0.00     0.005 A 
ATOM     19  C   UNL     1      44.228 131.565  18.179  1.00  0.00     0.031 A 
ATOM     20  C   UNL     1      46.323 130.061  16.997  1.00  0.00     0.010 A 
ATOM     21  C   UNL     1      44.389 131.485  16.797  1.00  0.00     0.046 A 
ATOM     22  C   UNL     1      45.397 130.758  16.229  1.00  0.00    -0.001 A 
ATOM     23  N   UNL     1      43.637 132.076  15.854  1.00  0.00    -0.361 N 
ATOM     24  C   UNL     1      45.284 130.890  14.862  1.00  0.00     0.028 A 
ATOM     25  C   UNL     1      44.180 131.715  14.668  1.00  0.00     0.083 A 
ATOM     26  H   UNL     1      42.806 132.691  16.000  1.00  0.00     0.166 HD
ENDBRANCH  11  17
ENDBRANCH   1   8
TORSDOF 5
ENDMDL
MODEL 8
REMARK VINA RESULT:      -5.6      1.478      2.172
REMARK SMILES CC[C@H](O)C(=O)[N@H+]1C[C@@H](c2ccc3cc[nH]c3c2)[C@@H](C)C[C@H]1F
REMARK SMILES IDX 5 1 6 2 3 3 2 4 1 5 4 6 7 8 8 9 22 10 9 11 21 12 19 13 23 15
REMARK SMILES IDX 20 16 10 17 11 18 18 19 12 20 17 21 13 22 16 23 14 24 15 25
REMARK H PARENT 4 7 7 14 16 26
ROOT
ATOM      1  C   UNL     1      44.693 130.333  21.884  1.00  0.00     0.343 C 
ATOM      2  O   UNL     1      45.629 129.558  21.727  1.00  0.00    -0.228 OA
ENDROOT
BRANCH   1   3
ATOM      3  C   UNL     1      43.900 130.287  23.172  1.00  0.00     0.243 C 
BRANCH   3   4
ATOM      4  C   UNL     1      44.250 131.477  24.086  1.00  0.00     0.043 C 
ATOM      5  C   UNL     1      43.018 132.213  24.617  1.00  0.00     0.007 C 
ENDBRANCH   3   4
BRANCH   3   6
ATOM      6  O   UNL     1      44.127 129.068  23.835  1.00  0.00    -0.379 OA
ATOM      7  H   UNL     1      45.107 128.998  23.980  1.00  0.00     0.211 HD
ENDBRANCH   3   6
ENDBRANCH   1   3
BRANCH   1   8
ATOM      8  N   UNL     1      44.381 131.317  20.863  1.00  0.00    -0.240 N 
ATOM      9  C   UNL     1      44.864 130.860  19.542  1.00  0.00     0.281 C 
ATOM     10  C   UNL     1      42.928 131.603  20.844  1.00  0.00     0.374 C 
ATOM     11  C   UNL     1      44.619 131.945  18.468  1.00  0.00     0.078 C 
ATOM     12  C   UNL     1      42.586 132.680  19.797  1.00  0.00     0.107 C 
ATOM     13  C   UNL     1      43.121 132.339  18.388  1.00  0.00     0.008 C 
ATOM     14  H   UNL     1      44.881 132.207  21.102  1.00  0.00     0.359 HD
ATOM     15  F   UNL     1      42.191 130.454  20.596  1.00  0.00    -0.185 F 
ATOM     16  C   UNL     1      42.238 131.291  17.682  1.00  0.00     0.009 C 
BRANCH  11  17
ATOM     17  C   UNL     1      45.213 131.606  17.108  1.00  0.00    -0.037 A 
ATOM     18  C   UNL     1      44.674 132.227  15.948  1.00  0.00     0.005 A 
ATOM     19  C   UNL     1      46.247 130.645  16.960  1.00  0.00     0.031 A 
ATOM     20  C   UNL     1      45.168 131.921  14.668  1.00  0.00     0.010 A 
ATOM     21  C   UNL     1      46.711 130.368  15.676  1.00  0.00     0.046 A 
ATOM     22  C   UNL     1      46.192 130.985  14.572  1.00  0.00    -0.001 A 
ATOM     23  N   UNL     1      47.675 129.499  15.328  1.00  0.00    -0.361 N 
ATOM     24  C   UNL     1      46.855 130.490  13.471  1.00  0.00     0.028 A 
ATOM     25  C   UNL     1      47.767 129.571  13.980  1.00  0.00     0.083 A 
ATOM     26  H   UNL     1      48.237 128.891  15.963  1.00  0.00     0.166 HD
ENDBRANCH  11  17
ENDBRANCH   1   8
TORSDOF 5
ENDMDL
MODEL 9
REMARK VINA RESULT:      -5.1      2.258      3.406
REMARK SMILES CC[C@H](O)C(=O)[N@H+]1C[C@@H](c2ccc3cc[nH]c3c2)[C@@H](C)C[C@H]1F
REMARK SMILES IDX 5 1 6 2 3 3 2 4 1 5 4 6 7 8 8 9 22 10 9 11 21 12 19 13 23 15
REMARK SMILES IDX 20 16 10 17 11 18 18 19 12 20 17 21 13 22 16 23 14 24 15 25
REMARK H PARENT 4 7 7 14 16 26
ROOT
ATOM      1  C   UNL     1      45.341 126.889  23.062  1.00  0.00     0.343 C 
ATOM      2  O   UNL     1      45.319 126.173  22.069  1.00  0.00    -0.228 OA
ENDROOT
BRANCH   1   3
ATOM      3  C   UNL     1      45.439 126.256  24.432  1.00  0.00     0.243 C 
BRANCH   3   4
ATOM      4  C   UNL     1      46.793 125.546  24.625  1.00  0.00     0.043 C 
ATOM      5  C   UNL     1      46.697 124.022  24.515  1.00  0.00     0.007 C 
ENDBRANCH   3   4
BRANCH   3   6
ATOM      6  O   UNL     1      44.376 125.356  24.625  1.00  0.00    -0.379 OA
ATOM      7  H   UNL     1      44.621 124.782  25.397  1.00  0.00     0.211 HD
ENDBRANCH   3   6
ENDBRANCH   1   3
BRANCH   1   8
ATOM      8  N   UNL     1      45.323 128.335  22.920  1.00  0.00    -0.240 N 
ATOM      9  C   UNL     1      45.215 128.710  21.494  1.00  0.00     0.281 C 
ATOM     10  C   UNL     1      44.228 128.922  23.725  1.00  0.00     0.374 C 
ATOM     11  C   UNL     1      45.291 130.246  21.330  1.00  0.00     0.078 C 
ATOM     12  C   UNL     1      44.224 130.459  23.622  1.00  0.00     0.107 C 
ATOM     13  C   UNL     1      44.195 130.963  22.162  1.00  0.00     0.008 C 
ATOM     14  H   UNL     1      46.231 128.711  23.287  1.00  0.00     0.359 HD
ATOM     15  F   UNL     1      42.994 128.420  23.339  1.00  0.00    -0.185 F 
ATOM     16  C   UNL     1      42.783 130.861  21.553  1.00  0.00     0.009 C 
BRANCH  11  17
ATOM     17  C   UNL     1      45.323 130.705  19.879  1.00  0.00    -0.037 A 
ATOM     18  C   UNL     1      44.592 131.867  19.508  1.00  0.00     0.005 A 
ATOM     19  C   UNL     1      46.012 129.975  18.876  1.00  0.00     0.031 A 
ATOM     20  C   UNL     1      44.566 132.312  18.175  1.00  0.00     0.010 A 
ATOM     21  C   UNL     1      45.964 130.446  17.566  1.00  0.00     0.046 A 
ATOM     22  C   UNL     1      45.268 131.573  17.229  1.00  0.00    -0.001 A 
ATOM     23  N   UNL     1      46.544 129.902  16.483  1.00  0.00    -0.361 N 
ATOM     24  C   UNL     1      45.413 131.759  15.872  1.00  0.00     0.028 A 
ATOM     25  C   UNL     1      46.211 130.703  15.444  1.00  0.00     0.083 A 
ATOM     26  H   UNL     1      47.131 129.039  16.445  1.00  0.00     0.166 HD
ENDBRANCH  11  17
ENDBRANCH   1   8
TORSDOF 5
ENDMDL


