REMARK SMILES c1ccc2[nH]c(Nc3cn4ccccc4[nH+]3)cc2c1
REMARK SMILES IDX 7 1 6 3 1 4 2 5 19 6 3 7 18 8 4 9 17 10 5 11 8 13 9 14 16 15
REMARK SMILES IDX 10 16 15 17 11 18 14 19 12 20 13 21
REMARK H PARENT 7 2 5 12 16 22
ROOT
ATOM      1  N   UNL     1      -0.042   0.054   1.076  1.00  0.00    -0.257 N 
ATOM      2  H   UNL     1      -0.155   0.343   2.073  1.00  0.00     0.265 HD
ENDROOT
BRANCH   1   3
ATOM      3  C   UNL     1      -0.239  -1.326   0.743  1.00  0.00     0.168 A 
ATOM      4  C   UNL     1      -1.026  -5.761   0.353  1.00  0.00     0.001 A 
ATOM      5  C   UNL     1      -0.209  -5.558  -0.782  1.00  0.00     0.002 A 
ATOM      6  C   UNL     1      -1.347  -4.686   1.202  1.00  0.00     0.010 A 
ATOM      7  C   UNL     1       0.293  -4.278  -1.079  1.00  0.00     0.027 A 
ATOM      8  C   UNL     1      -0.838  -3.430   0.879  1.00  0.00     0.003 A 
ATOM      9  C   UNL     1      -0.047  -3.230  -0.224  1.00  0.00     0.048 A 
ATOM     10  C   UNL     1      -0.968  -2.219   1.524  1.00  0.00     0.072 A 
ATOM     11  N   UNL     1       0.334  -1.946  -0.317  1.00  0.00    -0.329 N 
ATOM     12  H   UNL     1       0.978  -1.536  -1.029  1.00  0.00     0.169 HD
ENDBRANCH   1   3
BRANCH   1  13
ATOM     13  C   UNL     1       0.280   1.068   0.116  1.00  0.00     0.257 A 
ATOM     14  C   UNL     1       0.014   1.031  -1.249  1.00  0.00     0.248 A 
ATOM     15  N   UNL     1       0.806   2.268   0.451  1.00  0.00    -0.243 N 
ATOM     16  N   UNL     1       0.404   2.216  -1.750  1.00  0.00    -0.233 N 
ATOM     17  C   UNL     1       0.873   2.936  -0.716  1.00  0.00     0.230 A 
ATOM     18  C   UNL     1       0.351   2.682  -3.023  1.00  0.00     0.168 A 
ATOM     19  C   UNL     1       1.347   4.234  -0.901  1.00  0.00     0.081 A 
ATOM     20  C   UNL     1       0.817   3.982  -3.272  1.00  0.00     0.035 A 
ATOM     21  C   UNL     1       1.316   4.756  -2.205  1.00  0.00     0.010 A 
ATOM     22  H   UNL     1       1.084   2.603   1.400  1.00  0.00     0.267 HD
ENDBRANCH   1  13
TORSDOF 2


