REMARK SMILES Cc1ccc([NH2+]CCC[Si](C)(C)C)c(-c2ccc3c(c2)[N-]C(=O)C3)c1
REMARK SMILES IDX 7 1 6 2 5 5 2 6 3 7 25 8 4 9 14 10 1 11 15 12 16 13 20 14
REMARK SMILES IDX 17 15 19 16 18 17 21 18 24 19 22 20 23 21 8 22 9 23 10 24
REMARK SMILES IDX 11 25 12 26 13 27
REMARK H PARENT 6 3 6 4
ROOT
ATOM      1  C   UNL     1       0.913  -1.092   2.781  1.00  0.00     0.265 C 
ENDROOT
BRANCH   1   2
ATOM      2  N   UNL     1       0.229   0.084   3.348  1.00  0.00    -0.313 N 
ATOM      3  H   UNL     1       0.472   0.141   4.365  1.00  0.00     0.352 HD
ATOM      4  H   UNL     1       0.607   0.955   2.919  1.00  0.00     0.352 HD
BRANCH   2   5
ATOM      5  C   UNL     1      -1.212  -0.014   3.226  1.00  0.00     0.137 A 
ATOM      6  C   UNL     1      -4.009  -0.362   3.015  1.00  0.00    -0.050 A 
ATOM      7  C   UNL     1      -3.298  -0.973   4.053  1.00  0.00     0.009 A 
ATOM      8  C   UNL     1      -3.329   0.446   2.096  1.00  0.00     0.018 A 
ATOM      9  C   UNL     1      -1.916  -0.808   4.151  1.00  0.00     0.068 A 
ATOM     10  C   UNL     1      -1.939   0.631   2.185  1.00  0.00     0.043 A 
ATOM     11  C   UNL     1      -5.500  -0.513   2.930  1.00  0.00     0.044 C 
BRANCH  10  12
ATOM     12  C   UNL     1      -1.287   1.474   1.158  1.00  0.00    -0.014 A 
ATOM     13  C   UNL     1      -0.655   2.689   1.511  1.00  0.00     0.009 A 
ATOM     14  C   UNL     1      -1.335   1.081  -0.196  1.00  0.00    -0.007 A 
ATOM     15  C   UNL     1      -0.018   3.470   0.534  1.00  0.00     0.003 A 
ATOM     16  C   UNL     1      -0.695   1.873  -1.145  1.00  0.00    -0.130 A 
ATOM     17  C   UNL     1      -0.043   3.033  -0.790  1.00  0.00    -0.057 A 
ATOM     18  N   UNL     1      -0.612   1.596  -2.533  1.00  0.00    -0.626 NA
ATOM     19  C   UNL     1       0.572   3.673  -1.984  1.00  0.00     0.089 C 
ATOM     20  C   UNL     1       0.158   2.687  -3.034  1.00  0.00     0.059 C 
ATOM     21  O   UNL     1       0.457   2.798  -4.252  1.00  0.00    -0.320 OA
ENDBRANCH  10  12
ENDBRANCH   2   5
ENDBRANCH   1   2
BRANCH   1  22
ATOM     22  C   UNL     1       0.907  -1.077   1.244  1.00  0.00     0.059 C 
BRANCH  22  23
ATOM     23  C   UNL     1       1.816  -2.167   0.674  1.00  0.00    -0.005 C 
BRANCH  23  24
ATOM     24  Si  UNL     1       1.866  -2.108  -1.203  1.00  0.00     0.044 Si
ATOM     25  C   UNL     1       2.526  -0.459  -1.784  1.00  0.00    -0.010 C 
ATOM     26  C   UNL     1       0.159  -2.380  -1.909  1.00  0.00    -0.010 C 
ATOM     27  C   UNL     1       2.996  -3.461  -1.815  1.00  0.00    -0.010 C 
ENDBRANCH  23  24
ENDBRANCH  22  23
ENDBRANCH   1  22
TORSDOF 6


