MODEL 1
REMARK VINA RESULT:      -5.9      0.000      0.000
REMARK SMILES C=Cc1ccc(-c2cc3cc[nH]c3cc2Nc2cc(F)c([O-])cc2N)[nH+]c1
REMARK SMILES IDX 7 1 8 2 9 3 10 4 11 5 12 6 13 7 14 8 15 9 6 11 3 12 4 13
REMARK SMILES IDX 27 14 5 15 26 16 2 18 1 19 16 20 17 22 18 23 24 24 19 25
REMARK SMILES IDX 23 26 21 27 20 28 22 29 25 30
REMARK H PARENT 12 10 26 17 16 21 25 31 25 32
ROOT
ATOM      1  C   UNL     1      43.389 127.280  23.581  1.00  0.00     0.070 A 
ATOM      2  C   UNL     1      42.401 126.278  23.700  1.00  0.00     0.027 A 
ATOM      3  C   UNL     1      41.072 126.673  23.794  1.00  0.00     0.000 A 
ATOM      4  C   UNL     1      39.921 125.926  23.924  1.00  0.00     0.028 A 
ATOM      5  C   UNL     1      38.889 126.856  23.975  1.00  0.00     0.083 A 
ATOM      6  N   UNL     1      39.372 128.115  23.882  1.00  0.00    -0.361 N 
ATOM      7  C   UNL     1      40.705 127.989  23.771  1.00  0.00     0.047 A 
ATOM      8  C   UNL     1      41.643 129.008  23.646  1.00  0.00     0.053 A 
ATOM      9  C   UNL     1      43.012 128.659  23.535  1.00  0.00     0.055 A 
ATOM     10  H   UNL     1      38.820 129.001  23.892  1.00  0.00     0.166 HD
ENDROOT
BRANCH   1  11
ATOM     11  C   UNL     1      44.801 126.862  23.482  1.00  0.00     0.212 A 
ATOM     12  C   UNL     1      47.468 126.052  23.314  1.00  0.00     0.038 A 
ATOM     13  C   UNL     1      46.691 126.169  22.153  1.00  0.00     0.021 A 
ATOM     14  C   UNL     1      46.858 126.328  24.553  1.00  0.00     0.314 A 
ATOM     15  C   UNL     1      45.359 126.573  22.232  1.00  0.00     0.081 A 
ATOM     16  N   UNL     1      45.556 126.720  24.609  1.00  0.00    -0.210 N 
ATOM     17  H   UNL     1      45.129 126.906  25.545  1.00  0.00     0.453 HD
BRANCH  12  18
ATOM     18  C   UNL     1      48.879 125.613  23.188  1.00  0.00     0.006 C 
ATOM     19  C   UNL     1      49.287 124.615  22.402  1.00  0.00     0.009 C 
ENDBRANCH  12  18
ENDBRANCH   1  11
BRANCH   9  20
ATOM     20  N   UNL     1      44.009 129.686  23.353  1.00  0.00    -0.353 N 
ATOM     21  H   UNL     1      44.506 130.071  24.185  1.00  0.00     0.167 HD
BRANCH  20  22
ATOM     22  C   UNL     1      44.245 130.348  22.100  1.00  0.00     0.065 A 
ATOM     23  C   UNL     1      45.292 129.897  21.285  1.00  0.00     0.066 A 
ATOM     24  C   UNL     1      43.440 131.427  21.669  1.00  0.00     0.055 A 
ATOM     25  C   UNL     1      45.573 130.535  20.074  1.00  0.00     0.117 A 
ATOM     26  C   UNL     1      43.738 132.067  20.455  1.00  0.00     0.022 A 
ATOM     27  C   UNL     1      44.802 131.624  19.663  1.00  0.00    -0.070 A 
ATOM     28  F   UNL     1      46.601 130.097  19.304  1.00  0.00    -0.208 F 
ATOM     29  O   UNL     1      45.084 132.264  18.462  1.00  0.00    -0.870 OA
BRANCH  24  30
ATOM     30  N   UNL     1      42.297 131.856  22.421  1.00  0.00    -0.397 N 
ATOM     31  H   UNL     1      42.218 131.684  23.447  1.00  0.00     0.156 HD
ATOM     32  H   UNL     1      41.479 132.292  21.940  1.00  0.00     0.156 HD
ENDBRANCH  24  30
ENDBRANCH  20  22
ENDBRANCH   9  20
TORSDOF 5
ENDMDL
MODEL 2
REMARK VINA RESULT:      -5.0      1.781      2.542
REMARK SMILES C=Cc1ccc(-c2cc3cc[nH]c3cc2Nc2cc(F)c([O-])cc2N)[nH+]c1
REMARK SMILES IDX 7 1 8 2 9 3 10 4 11 5 12 6 13 7 14 8 15 9 6 11 3 12 4 13
REMARK SMILES IDX 27 14 5 15 26 16 2 18 1 19 16 20 17 22 18 23 24 24 19 25
REMARK SMILES IDX 23 26 21 27 20 28 22 29 25 30
REMARK H PARENT 12 10 26 17 16 21 25 31 25 32
ROOT
ATOM      1  C   UNL     1      45.096 125.469  23.159  1.00  0.00     0.070 A 
ATOM      2  C   UNL     1      44.381 124.260  23.015  1.00  0.00     0.027 A 
ATOM      3  C   UNL     1      42.995 124.320  22.936  1.00  0.00     0.000 A 
ATOM      4  C   UNL     1      42.060 123.316  22.804  1.00  0.00     0.028 A 
ATOM      5  C   UNL     1      40.831 123.967  22.785  1.00  0.00     0.083 A 
ATOM      6  N   UNL     1      40.994 125.304  22.899  1.00  0.00    -0.361 N 
ATOM      7  C   UNL     1      42.319 125.505  22.991  1.00  0.00     0.047 A 
ATOM      8  C   UNL     1      42.981 126.721  23.122  1.00  0.00     0.053 A 
ATOM      9  C   UNL     1      44.397 126.717  23.195  1.00  0.00     0.055 A 
ATOM     10  H   UNL     1      40.242 126.028  22.912  1.00  0.00     0.166 HD
ENDROOT
BRANCH   1  11
ATOM     11  C   UNL     1      46.568 125.407  23.244  1.00  0.00     0.212 A 
ATOM     12  C   UNL     1      49.354 125.315  23.392  1.00  0.00     0.038 A 
ATOM     13  C   UNL     1      48.580 125.107  24.542  1.00  0.00     0.021 A 
ATOM     14  C   UNL     1      48.690 125.594  22.183  1.00  0.00     0.314 A 
ATOM     15  C   UNL     1      47.187 125.152  24.472  1.00  0.00     0.081 A 
ATOM     16  N   UNL     1      47.330 125.635  22.136  1.00  0.00    -0.210 N 
ATOM     17  H   UNL     1      46.867 125.857  21.225  1.00  0.00     0.453 HD
BRANCH  12  18
ATOM     18  C   UNL     1      50.833 125.264  23.509  1.00  0.00     0.006 C 
ATOM     19  C   UNL     1      51.507 125.550  24.625  1.00  0.00     0.009 C 
ENDBRANCH  12  18
ENDBRANCH   1  11
BRANCH   9  20
ATOM     20  N   UNL     1      45.121 127.961  23.281  1.00  0.00    -0.353 N 
ATOM     21  H   UNL     1      45.781 128.117  24.074  1.00  0.00     0.167 HD
BRANCH  20  22
ATOM     22  C   UNL     1      44.862 129.089  22.430  1.00  0.00     0.065 A 
ATOM     23  C   UNL     1      45.534 129.178  21.203  1.00  0.00     0.066 A 
ATOM     24  C   UNL     1      43.939 130.097  22.794  1.00  0.00     0.055 A 
ATOM     25  C   UNL     1      45.333 130.276  20.362  1.00  0.00     0.117 A 
ATOM     26  C   UNL     1      43.753 131.199  21.946  1.00  0.00     0.022 A 
ATOM     27  C   UNL     1      44.449 131.290  20.736  1.00  0.00    -0.070 A 
ATOM     28  F   UNL     1      46.004 130.355  19.186  1.00  0.00    -0.208 F 
ATOM     29  O   UNL     1      44.252 132.385  19.905  1.00  0.00    -0.870 OA
BRANCH  24  30
ATOM     30  N   UNL     1      43.155 129.996  23.990  1.00  0.00    -0.397 N 
ATOM     31  H   UNL     1      43.567 129.669  24.891  1.00  0.00     0.156 HD
ATOM     32  H   UNL     1      42.128 130.182  23.968  1.00  0.00     0.156 HD
ENDBRANCH  24  30
ENDBRANCH  20  22
ENDBRANCH   9  20
TORSDOF 5
ENDMDL
MODEL 3
REMARK VINA RESULT:      -4.7      2.469      3.263
REMARK SMILES C=Cc1ccc(-c2cc3cc[nH]c3cc2Nc2cc(F)c([O-])cc2N)[nH+]c1
REMARK SMILES IDX 7 1 8 2 9 3 10 4 11 5 12 6 13 7 14 8 15 9 6 11 3 12 4 13
REMARK SMILES IDX 27 14 5 15 26 16 2 18 1 19 16 20 17 22 18 23 24 24 19 25
REMARK SMILES IDX 23 26 21 27 20 28 22 29 25 30
REMARK H PARENT 12 10 26 17 16 21 25 31 25 32
ROOT
ATOM      1  C   UNL     1      44.511 125.268  23.215  1.00  0.00     0.070 A 
ATOM      2  C   UNL     1      43.947 124.067  22.733  1.00  0.00     0.027 A 
ATOM      3  C   UNL     1      42.562 123.962  22.689  1.00  0.00     0.000 A 
ATOM      4  C   UNL     1      41.754 122.923  22.280  1.00  0.00     0.028 A 
ATOM      5  C   UNL     1      40.454 123.382  22.464  1.00  0.00     0.083 A 
ATOM      6  N   UNL     1      40.454 124.639  22.961  1.00  0.00    -0.361 N 
ATOM      7  C   UNL     1      41.747 124.980  23.093  1.00  0.00     0.047 A 
ATOM      8  C   UNL     1      42.258 126.184  23.566  1.00  0.00     0.053 A 
ATOM      9  C   UNL     1      43.665 126.348  23.620  1.00  0.00     0.055 A 
ATOM     10  H   UNL     1      39.620 125.222  23.192  1.00  0.00     0.166 HD
ENDROOT
BRANCH   1  11
ATOM     11  C   UNL     1      45.982 125.381  23.263  1.00  0.00     0.212 A 
ATOM     12  C   UNL     1      48.764 125.613  23.333  1.00  0.00     0.038 A 
ATOM     13  C   UNL     1      48.015 125.745  24.510  1.00  0.00     0.021 A 
ATOM     14  C   UNL     1      48.074 125.389  22.127  1.00  0.00     0.314 A 
ATOM     15  C   UNL     1      46.625 125.630  24.480  1.00  0.00     0.081 A 
ATOM     16  N   UNL     1      46.716 125.280  22.118  1.00  0.00    -0.210 N 
ATOM     17  H   UNL     1      46.233 125.126  21.204  1.00  0.00     0.453 HD
BRANCH  12  18
ATOM     18  C   UNL     1      50.239 125.748  23.407  1.00  0.00     0.006 C 
ATOM     19  C   UNL     1      51.097 124.758  23.153  1.00  0.00     0.009 C 
ENDBRANCH  12  18
ENDBRANCH   1  11
BRANCH   9  20
ATOM     20  N   UNL     1      44.232 127.600  24.057  1.00  0.00    -0.353 N 
ATOM     21  H   UNL     1      44.784 127.633  24.941  1.00  0.00     0.167 HD
BRANCH  20  22
ATOM     22  C   UNL     1      43.939 128.862  23.436  1.00  0.00     0.065 A 
ATOM     23  C   UNL     1      42.996 129.707  24.036  1.00  0.00     0.066 A 
ATOM     24  C   UNL     1      44.588 129.273  22.248  1.00  0.00     0.055 A 
ATOM     25  C   UNL     1      42.659 130.928  23.445  1.00  0.00     0.117 A 
ATOM     26  C   UNL     1      44.235 130.497  21.659  1.00  0.00     0.022 A 
ATOM     27  C   UNL     1      43.273 131.320  22.253  1.00  0.00    -0.070 A 
ATOM     28  F   UNL     1      41.732 131.727  24.030  1.00  0.00    -0.208 F 
ATOM     29  O   UNL     1      42.935 132.530  21.661  1.00  0.00    -0.870 OA
BRANCH  24  30
ATOM     30  N   UNL     1      45.630 128.488  21.656  1.00  0.00    -0.397 N 
ATOM     31  H   UNL     1      46.624 128.572  21.962  1.00  0.00     0.156 HD
ATOM     32  H   UNL     1      45.427 127.860  20.847  1.00  0.00     0.156 HD
ENDBRANCH  24  30
ENDBRANCH  20  22
ENDBRANCH   9  20
TORSDOF 5
ENDMDL


