MODEL 1
REMARK VINA RESULT:      -7.3      0.000      0.000
REMARK SMILES CC(=O)N1CNC[C@H](F)[C@H]1c1cc2ccc(F)cc2[nH]1
REMARK SMILES IDX 4 1 5 2 6 3 7 4 8 5 9 6 10 7 2 9 1 10 3 11 11 12 12 13 20 14
REMARK SMILES IDX 13 15 19 16 14 17 18 18 15 19 16 20 17 22
REMARK H PARENT 6 8 20 21
ROOT
ATOM      1  N   UNL     1      43.378 131.848  20.189  1.00  0.00    -0.319 N 
ATOM      2  C   UNL     1      43.154 130.553  20.864  1.00  0.00     0.205 C 
ATOM      3  N   UNL     1      44.131 130.336  21.936  1.00  0.00    -0.297 NA
ATOM      4  C   UNL     1      45.493 130.420  21.407  1.00  0.00     0.123 C 
ATOM      5  C   UNL     1      45.761 131.841  20.924  1.00  0.00     0.209 C 
ATOM      6  F   UNL     1      45.643 132.711  21.996  1.00  0.00    -0.243 F 
ATOM      7  C   UNL     1      44.758 132.246  19.826  1.00  0.00     0.168 C 
ATOM      8  H   UNL     1      43.992 129.367  22.305  1.00  0.00     0.124 HD
ENDROOT
BRANCH   1   9
ATOM      9  C   UNL     1      42.240 132.551  19.630  1.00  0.00     0.221 C 
ATOM     10  C   UNL     1      41.327 133.384  20.480  1.00  0.00     0.114 C 
ATOM     11  O   UNL     1      41.995 132.474  18.395  1.00  0.00    -0.275 OA
ENDBRANCH   1   9
BRANCH   7  12
ATOM     12  C   UNL     1      45.166 131.692  18.478  1.00  0.00     0.042 A 
ATOM     13  C   UNL     1      45.612 130.394  18.209  1.00  0.00     0.034 A 
ATOM     14  N   UNL     1      45.101 132.418  17.335  1.00  0.00    -0.356 N 
ATOM     15  C   UNL     1      45.826 130.363  16.850  1.00  0.00    -0.000 A 
ATOM     16  C   UNL     1      45.509 131.598  16.353  1.00  0.00     0.049 A 
ATOM     17  C   UNL     1      46.266 129.329  16.024  1.00  0.00     0.013 A 
ATOM     18  C   UNL     1      45.610 131.891  14.994  1.00  0.00     0.065 A 
ATOM     19  C   UNL     1      46.380 129.594  14.647  1.00  0.00     0.040 A 
ATOM     20  C   UNL     1      46.054 130.869  14.133  1.00  0.00     0.125 A 
ATOM     21  H   UNL     1      44.785 133.408  17.234  1.00  0.00     0.166 HD
ATOM     22  F   UNL     1      46.169 131.110  12.804  1.00  0.00    -0.207 F 
ENDBRANCH   7  12
TORSDOF 2
ENDMDL
MODEL 2
REMARK VINA RESULT:      -6.7      0.941      1.402
REMARK SMILES CC(=O)N1CNC[C@H](F)[C@H]1c1cc2ccc(F)cc2[nH]1
REMARK SMILES IDX 4 1 5 2 6 3 7 4 8 5 9 6 10 7 2 9 1 10 3 11 11 12 12 13 20 14
REMARK SMILES IDX 13 15 19 16 14 17 18 18 15 19 16 20 17 22
REMARK H PARENT 6 8 20 21
ROOT
ATOM      1  N   UNL     1      43.225 131.802  20.340  1.00  0.00    -0.319 N 
ATOM      2  C   UNL     1      42.998 130.493  20.987  1.00  0.00     0.205 C 
ATOM      3  N   UNL     1      44.043 130.199  21.973  1.00  0.00    -0.297 NA
ATOM      4  C   UNL     1      45.364 130.249  21.345  1.00  0.00     0.123 C 
ATOM      5  C   UNL     1      45.654 131.675  20.891  1.00  0.00     0.209 C 
ATOM      6  F   UNL     1      45.653 132.510  21.997  1.00  0.00    -0.243 F 
ATOM      7  C   UNL     1      44.590 132.159  19.887  1.00  0.00     0.168 C 
ATOM      8  H   UNL     1      43.891 129.224  22.319  1.00  0.00     0.124 HD
ENDROOT
BRANCH   1   9
ATOM      9  C   UNL     1      42.079 132.570  19.893  1.00  0.00     0.221 C 
ATOM     10  C   UNL     1      41.321 133.475  20.819  1.00  0.00     0.114 C 
ATOM     11  O   UNL     1      41.694 132.488  18.696  1.00  0.00    -0.275 OA
ENDBRANCH   1   9
BRANCH   7  12
ATOM     12  C   UNL     1      44.872 131.639  18.494  1.00  0.00     0.042 A 
ATOM     13  C   UNL     1      44.177 131.964  17.324  1.00  0.00     0.034 A 
ATOM     14  N   UNL     1      45.900 130.799  18.218  1.00  0.00    -0.356 N 
ATOM     15  C   UNL     1      44.820 131.275  16.322  1.00  0.00    -0.000 A 
ATOM     16  C   UNL     1      45.853 130.582  16.893  1.00  0.00     0.049 A 
ATOM     17  C   UNL     1      44.569 131.224  14.951  1.00  0.00     0.013 A 
ATOM     18  C   UNL     1      46.711 129.786  16.135  1.00  0.00     0.065 A 
ATOM     19  C   UNL     1      45.417 130.427  14.159  1.00  0.00     0.040 A 
ATOM     20  C   UNL     1      46.483 129.711  14.748  1.00  0.00     0.125 A 
ATOM     21  H   UNL     1      46.594 130.409  18.892  1.00  0.00     0.166 HD
ATOM     22  F   UNL     1      47.293 128.948  13.973  1.00  0.00    -0.207 F 
ENDBRANCH   7  12
TORSDOF 2
ENDMDL
MODEL 3
REMARK VINA RESULT:      -5.2      4.066      6.634
REMARK SMILES CC(=O)N1CNC[C@H](F)[C@H]1c1cc2ccc(F)cc2[nH]1
REMARK SMILES IDX 4 1 5 2 6 3 7 4 8 5 9 6 10 7 2 9 1 10 3 11 11 12 12 13 20 14
REMARK SMILES IDX 13 15 19 16 14 17 18 18 15 19 16 20 17 22
REMARK H PARENT 6 8 20 21
ROOT
ATOM      1  N   UNL     1      44.244 131.398  21.704  1.00  0.00    -0.319 N 
ATOM      2  C   UNL     1      42.890 131.645  21.167  1.00  0.00     0.205 C 
ATOM      3  N   UNL     1      42.042 132.320  22.154  1.00  0.00    -0.297 NA
ATOM      4  C   UNL     1      41.979 131.540  23.390  1.00  0.00     0.123 C 
ATOM      5  C   UNL     1      43.360 131.499  24.033  1.00  0.00     0.209 C 
ATOM      6  F   UNL     1      43.752 132.792  24.341  1.00  0.00    -0.243 F 
ATOM      7  C   UNL     1      44.392 130.868  23.079  1.00  0.00     0.168 C 
ATOM      8  H   UNL     1      41.074 132.374  21.760  1.00  0.00     0.124 HD
ENDROOT
BRANCH   1   9
ATOM      9  C   UNL     1      45.369 131.388  20.789  1.00  0.00     0.221 C 
ATOM     10  C   UNL     1      45.316 130.666  19.475  1.00  0.00     0.114 C 
ATOM     11  O   UNL     1      46.431 131.998  21.088  1.00  0.00    -0.275 OA
ENDBRANCH   1   9
BRANCH   7  12
ATOM     12  C   UNL     1      44.315 129.356  23.109  1.00  0.00     0.042 A 
ATOM     13  C   UNL     1      43.346 128.582  23.758  1.00  0.00     0.034 A 
ATOM     14  N   UNL     1      45.193 128.562  22.448  1.00  0.00    -0.356 N 
ATOM     15  C   UNL     1      43.679 127.278  23.471  1.00  0.00    -0.000 A 
ATOM     16  C   UNL     1      44.796 127.301  22.681  1.00  0.00     0.049 A 
ATOM     17  C   UNL     1      43.066 126.083  23.845  1.00  0.00     0.013 A 
ATOM     18  C   UNL     1      45.384 126.128  22.207  1.00  0.00     0.065 A 
ATOM     19  C   UNL     1      43.636 124.882  23.385  1.00  0.00     0.040 A 
ATOM     20  C   UNL     1      44.790 124.903  22.569  1.00  0.00     0.125 A 
ATOM     21  H   UNL     1      46.004 128.867  21.866  1.00  0.00     0.166 HD
ATOM     22  F   UNL     1      45.329 123.739  22.131  1.00  0.00    -0.207 F 
ENDBRANCH   7  12
TORSDOF 2
ENDMDL
MODEL 4
REMARK VINA RESULT:      -4.9      6.471      8.847
REMARK SMILES CC(=O)N1CNC[C@H](F)[C@H]1c1cc2ccc(F)cc2[nH]1
REMARK SMILES IDX 4 1 5 2 6 3 7 4 8 5 9 6 10 7 2 9 1 10 3 11 11 12 12 13 20 14
REMARK SMILES IDX 13 15 19 16 14 17 18 18 15 19 16 20 17 22
REMARK H PARENT 6 8 20 21
ROOT
ATOM      1  N   UNL     1      42.544 123.839  23.020  1.00  0.00    -0.319 N 
ATOM      2  C   UNL     1      43.092 123.452  21.704  1.00  0.00     0.205 C 
ATOM      3  N   UNL     1      44.402 122.807  21.843  1.00  0.00    -0.297 NA
ATOM      4  C   UNL     1      45.329 123.685  22.558  1.00  0.00     0.123 C 
ATOM      5  C   UNL     1      44.841 123.878  23.989  1.00  0.00     0.209 C 
ATOM      6  F   UNL     1      44.812 122.647  24.625  1.00  0.00    -0.243 F 
ATOM      7  C   UNL     1      43.429 124.495  24.010  1.00  0.00     0.168 C 
ATOM      8  H   UNL     1      44.786 122.652  20.882  1.00  0.00     0.124 HD
ENDROOT
BRANCH   1   9
ATOM      9  C   UNL     1      41.105 123.848  23.203  1.00  0.00     0.221 C 
ATOM     10  C   UNL     1      40.310 122.580  23.300  1.00  0.00     0.114 C 
ATOM     11  O   UNL     1      40.487 124.944  23.285  1.00  0.00    -0.275 OA
ENDBRANCH   1   9
BRANCH   7  12
ATOM     12  C   UNL     1      43.483 125.995  23.808  1.00  0.00     0.042 A 
ATOM     13  C   UNL     1      44.408 126.700  23.031  1.00  0.00     0.034 A 
ATOM     14  N   UNL     1      42.575 126.842  24.351  1.00  0.00    -0.356 N 
ATOM     15  C   UNL     1      44.030 128.020  23.134  1.00  0.00    -0.000 A 
ATOM     16  C   UNL     1      42.922 128.071  23.936  1.00  0.00     0.049 A 
ATOM     17  C   UNL     1      44.581 129.167  22.566  1.00  0.00     0.013 A 
ATOM     18  C   UNL     1      42.284 129.275  24.231  1.00  0.00     0.065 A 
ATOM     19  C   UNL     1      43.961 130.399  22.846  1.00  0.00     0.040 A 
ATOM     20  C   UNL     1      42.818 130.454  23.675  1.00  0.00     0.125 A 
ATOM     21  H   UNL     1      41.763 126.592  24.957  1.00  0.00     0.166 HD
ATOM     22  F   UNL     1      42.230 131.648  23.936  1.00  0.00    -0.207 F 
ENDBRANCH   7  12
TORSDOF 2
ENDMDL
MODEL 5
REMARK VINA RESULT:      -4.3      2.250      3.375
REMARK SMILES CC(=O)N1CNC[C@H](F)[C@H]1c1cc2ccc(F)cc2[nH]1
REMARK SMILES IDX 4 1 5 2 6 3 7 4 8 5 9 6 10 7 2 9 1 10 3 11 11 12 12 13 20 14
REMARK SMILES IDX 13 15 19 16 14 17 18 18 15 19 16 20 17 22
REMARK H PARENT 6 8 20 21
ROOT
ATOM      1  N   UNL     1      44.421 131.680  19.749  1.00  0.00    -0.319 N 
ATOM      2  C   UNL     1      44.058 133.112  19.751  1.00  0.00     0.205 C 
ATOM      3  N   UNL     1      42.624 133.297  19.505  1.00  0.00    -0.297 NA
ATOM      4  C   UNL     1      42.238 132.662  18.244  1.00  0.00     0.123 C 
ATOM      5  C   UNL     1      42.417 131.153  18.362  1.00  0.00     0.209 C 
ATOM      6  F   UNL     1      41.593 130.679  19.371  1.00  0.00    -0.243 F 
ATOM      7  C   UNL     1      43.880 130.797  18.690  1.00  0.00     0.168 C 
ATOM      8  H   UNL     1      42.445 134.324  19.413  1.00  0.00     0.124 HD
ENDROOT
BRANCH   1   9
ATOM      9  C   UNL     1      45.521 131.235  20.583  1.00  0.00     0.221 C 
ATOM     10  C   UNL     1      45.743 129.785  20.896  1.00  0.00     0.114 C 
ATOM     11  O   UNL     1      46.324 132.077  21.068  1.00  0.00    -0.275 OA
ENDBRANCH   1   9
BRANCH   7  12
ATOM     12  C   UNL     1      44.742 130.819  17.445  1.00  0.00     0.042 A 
ATOM     13  C   UNL     1      45.051 131.936  16.663  1.00  0.00     0.034 A 
ATOM     14  N   UNL     1      45.363 129.715  16.963  1.00  0.00    -0.356 N 
ATOM     15  C   UNL     1      45.881 131.462  15.673  1.00  0.00    -0.000 A 
ATOM     16  C   UNL     1      46.049 130.120  15.882  1.00  0.00     0.049 A 
ATOM     17  C   UNL     1      46.503 132.126  14.617  1.00  0.00     0.013 A 
ATOM     18  C   UNL     1      46.852 129.342  15.048  1.00  0.00     0.065 A 
ATOM     19  C   UNL     1      47.318 131.368  13.756  1.00  0.00     0.040 A 
ATOM     20  C   UNL     1      47.493 129.982  13.970  1.00  0.00     0.125 A 
ATOM     21  H   UNL     1      45.328 128.749  17.357  1.00  0.00     0.166 HD
ATOM     22  F   UNL     1      48.282 129.264  13.134  1.00  0.00    -0.207 F 
ENDBRANCH   7  12
TORSDOF 2
ENDMDL


