MODEL 1
REMARK VINA RESULT:      -6.2      0.000      0.000
REMARK SMILES CC[C@](C)(N)/C=C(\O)n1nc2cc(-c3c[nH+]c(F)cc3C)ccc2c1C
REMARK SMILES IDX 7 1 8 2 6 4 3 5 4 6 5 7 2 10 1 11 9 12 10 13 25 14 11 15
REMARK SMILES IDX 24 16 12 17 23 18 13 19 22 20 26 21 14 22 20 23 15 24 19 25
REMARK SMILES IDX 16 26 17 27 21 28 18 30
REMARK H PARENT 8 3 5 8 5 9 16 29
ROOT
ATOM      1  C   UNL     1      44.699 131.759  22.988  1.00  0.00     0.209 C 
ENDROOT
BRANCH   1   2
ATOM      2  O   UNL     1      45.627 132.617  23.590  1.00  0.00    -0.493 OA
ATOM      3  H   UNL     1      45.823 132.655  24.578  1.00  0.00     0.295 HD
ENDBRANCH   1   2
BRANCH   1   4
ATOM      4  C   UNL     1      43.899 130.942  23.712  1.00  0.00     0.062 C 
BRANCH   4   5
ATOM      5  C   UNL     1      43.637 129.462  23.448  1.00  0.00     0.036 C 
ATOM      6  C   UNL     1      42.726 128.904  24.570  1.00  0.00     0.033 C 
BRANCH   5   7
ATOM      7  N   UNL     1      42.939 129.308  22.164  1.00  0.00    -0.322 NA
ATOM      8  H   UNL     1      43.178 130.111  21.535  1.00  0.00     0.119 HD
ATOM      9  H   UNL     1      43.264 128.435  21.688  1.00  0.00     0.119 HD
ENDBRANCH   5   7
BRANCH   5  10
ATOM     10  C   UNL     1      44.970 128.657  23.406  1.00  0.00     0.023 C 
ATOM     11  C   UNL     1      44.858 127.265  22.771  1.00  0.00     0.006 C 
ENDBRANCH   5  10
ENDBRANCH   4   5
ENDBRANCH   1   4
BRANCH   1  12
ATOM     12  N   UNL     1      44.594 131.761  21.549  1.00  0.00    -0.205 N 
ATOM     13  N   UNL     1      45.607 131.451  20.743  1.00  0.00    -0.165 NA
ATOM     14  C   UNL     1      43.485 132.035  20.806  1.00  0.00     0.052 A 
ATOM     15  C   UNL     1      45.144 131.523  19.483  1.00  0.00     0.094 A 
ATOM     16  C   UNL     1      43.824 131.878  19.477  1.00  0.00     0.023 A 
ATOM     17  C   UNL     1      45.846 131.273  18.308  1.00  0.00     0.040 A 
ATOM     18  C   UNL     1      43.101 132.008  18.292  1.00  0.00     0.013 A 
ATOM     19  C   UNL     1      45.154 131.406  17.082  1.00  0.00    -0.010 A 
ATOM     20  C   UNL     1      43.780 131.764  17.084  1.00  0.00     0.010 A 
ATOM     21  C   UNL     1      42.140 132.429  21.340  1.00  0.00     0.067 C 
BRANCH  19  22
ATOM     22  C   UNL     1      45.846 131.141  15.802  1.00  0.00     0.049 A 
ATOM     23  C   UNL     1      45.912 129.848  15.229  1.00  0.00    -0.028 A 
ATOM     24  C   UNL     1      46.466 132.207  15.132  1.00  0.00     0.317 A 
ATOM     25  C   UNL     1      46.547 129.684  13.990  1.00  0.00     0.118 A 
ATOM     26  N   UNL     1      47.088 132.008  13.939  1.00  0.00    -0.186 N 
ATOM     27  C   UNL     1      47.134 130.780  13.359  1.00  0.00     0.358 A 
ATOM     28  C   UNL     1      45.306 128.645  15.904  1.00  0.00     0.045 C 
ATOM     29  H   UNL     1      47.536 132.819  13.457  1.00  0.00     0.456 HD
ATOM     30  F   UNL     1      47.757 130.618  12.166  1.00  0.00    -0.136 F 
ENDBRANCH  19  22
ENDBRANCH   1  12
TORSDOF 7
ENDMDL
MODEL 2
REMARK VINA RESULT:      -5.5      2.055      2.786
REMARK SMILES CC[C@](C)(N)/C=C(\O)n1nc2cc(-c3c[nH+]c(F)cc3C)ccc2c1C
REMARK SMILES IDX 7 1 8 2 6 4 3 5 4 6 5 7 2 10 1 11 9 12 10 13 25 14 11 15
REMARK SMILES IDX 24 16 12 17 23 18 13 19 22 20 26 21 14 22 20 23 15 24 19 25
REMARK SMILES IDX 16 26 17 27 21 28 18 30
REMARK H PARENT 8 3 5 8 5 9 16 29
ROOT
ATOM      1  C   UNL     1      44.553 128.622  23.799  1.00  0.00     0.209 C 
ENDROOT
BRANCH   1   2
ATOM      2  O   UNL     1      43.457 128.896  24.625  1.00  0.00    -0.493 OA
ATOM      3  H   UNL     1      42.789 129.635  24.472  1.00  0.00     0.295 HD
ENDBRANCH   1   2
BRANCH   1   4
ATOM      4  C   UNL     1      45.483 127.693  24.122  1.00  0.00     0.062 C 
BRANCH   4   5
ATOM      5  C   UNL     1      45.382 126.189  23.888  1.00  0.00     0.036 C 
ATOM      6  C   UNL     1      44.015 125.688  24.418  1.00  0.00     0.033 C 
BRANCH   5   7
ATOM      7  N   UNL     1      45.452 125.910  22.446  1.00  0.00    -0.322 NA
ATOM      8  H   UNL     1      45.289 126.794  21.909  1.00  0.00     0.119 HD
ATOM      9  H   UNL     1      46.409 125.568  22.199  1.00  0.00     0.119 HD
ENDBRANCH   5   7
BRANCH   5  10
ATOM     10  C   UNL     1      46.534 125.432  24.613  1.00  0.00     0.023 C 
ATOM     11  C   UNL     1      47.912 125.583  23.956  1.00  0.00     0.006 C 
ENDBRANCH   5  10
ENDBRANCH   4   5
ENDBRANCH   1   4
BRANCH   1  12
ATOM     12  N   UNL     1      44.681 129.352  22.561  1.00  0.00    -0.205 N 
ATOM     13  N   UNL     1      45.148 128.811  21.439  1.00  0.00    -0.165 NA
ATOM     14  C   UNL     1      44.329 130.649  22.333  1.00  0.00     0.052 A 
ATOM     15  C   UNL     1      45.092 129.761  20.490  1.00  0.00     0.094 A 
ATOM     16  C   UNL     1      44.582 130.922  21.003  1.00  0.00     0.023 A 
ATOM     17  C   UNL     1      45.469 129.649  19.155  1.00  0.00     0.040 A 
ATOM     18  C   UNL     1      44.407 132.060  20.218  1.00  0.00     0.013 A 
ATOM     19  C   UNL     1      45.320 130.784  18.326  1.00  0.00    -0.010 A 
ATOM     20  C   UNL     1      44.779 131.982  18.863  1.00  0.00     0.010 A 
ATOM     21  C   UNL     1      43.764 131.602  23.343  1.00  0.00     0.067 C 
BRANCH  19  22
ATOM     22  C   UNL     1      45.693 130.718  16.896  1.00  0.00     0.049 A 
ATOM     23  C   UNL     1      44.858 131.224  15.871  1.00  0.00    -0.028 A 
ATOM     24  C   UNL     1      46.916 130.128  16.540  1.00  0.00     0.317 A 
ATOM     25  C   UNL     1      45.300 131.167  14.542  1.00  0.00     0.118 A 
ATOM     26  N   UNL     1      47.305 130.074  15.238  1.00  0.00    -0.186 N 
ATOM     27  C   UNL     1      46.531 130.583  14.244  1.00  0.00     0.358 A 
ATOM     28  C   UNL     1      43.514 131.837  16.167  1.00  0.00     0.045 C 
ATOM     29  H   UNL     1      48.223 129.637  14.999  1.00  0.00     0.456 HD
ATOM     30  F   UNL     1      46.954 130.519  12.957  1.00  0.00    -0.136 F 
ENDBRANCH  19  22
ENDBRANCH   1  12
TORSDOF 7
ENDMDL
MODEL 3
REMARK VINA RESULT:      -4.8      1.209      1.876
REMARK SMILES CC[C@](C)(N)/C=C(\O)n1nc2cc(-c3c[nH+]c(F)cc3C)ccc2c1C
REMARK SMILES IDX 7 1 8 2 6 4 3 5 4 6 5 7 2 10 1 11 9 12 10 13 25 14 11 15
REMARK SMILES IDX 24 16 12 17 23 18 13 19 22 20 26 21 14 22 20 23 15 24 19 25
REMARK SMILES IDX 16 26 17 27 21 28 18 30
REMARK H PARENT 8 3 5 8 5 9 16 29
ROOT
ATOM      1  C   UNL     1      44.902 132.062  22.739  1.00  0.00     0.209 C 
ENDROOT
BRANCH   1   2
ATOM      2  O   UNL     1      45.717 133.103  23.198  1.00  0.00    -0.493 OA
ATOM      3  H   UNL     1      45.426 133.827  23.836  1.00  0.00     0.295 HD
ENDBRANCH   1   2
BRANCH   1   4
ATOM      4  C   UNL     1      44.193 131.276  23.582  1.00  0.00     0.062 C 
BRANCH   4   5
ATOM      5  C   UNL     1      43.902 129.789  23.407  1.00  0.00     0.036 C 
ATOM      6  C   UNL     1      44.720 129.254  22.204  1.00  0.00     0.033 C 
BRANCH   5   7
ATOM      7  N   UNL     1      44.321 129.061  24.614  1.00  0.00    -0.322 NA
ATOM      8  H   UNL     1      44.757 128.149  24.341  1.00  0.00     0.119 HD
ATOM      9  H   UNL     1      45.050 129.612  25.123  1.00  0.00     0.119 HD
ENDBRANCH   5   7
BRANCH   5  10
ATOM     10  C   UNL     1      42.384 129.541  23.161  1.00  0.00     0.023 C 
ATOM     11  C   UNL     1      41.798 128.347  23.924  1.00  0.00     0.006 C 
ENDBRANCH   5  10
ENDBRANCH   4   5
ENDBRANCH   1   4
BRANCH   1  12
ATOM     12  N   UNL     1      44.815 131.835  21.316  1.00  0.00    -0.205 N 
ATOM     13  N   UNL     1      45.858 131.486  20.567  1.00  0.00    -0.165 NA
ATOM     14  C   UNL     1      43.696 131.901  20.541  1.00  0.00     0.052 A 
ATOM     15  C   UNL     1      45.406 131.326  19.312  1.00  0.00     0.094 A 
ATOM     16  C   UNL     1      44.062 131.570  19.251  1.00  0.00     0.023 A 
ATOM     17  C   UNL     1      46.139 130.955  18.188  1.00  0.00     0.040 A 
ATOM     18  C   UNL     1      43.346 131.457  18.061  1.00  0.00     0.013 A 
ATOM     19  C   UNL     1      45.454 130.843  16.957  1.00  0.00    -0.010 A 
ATOM     20  C   UNL     1      44.056 131.085  16.904  1.00  0.00     0.010 A 
ATOM     21  C   UNL     1      42.318 132.263  21.008  1.00  0.00     0.067 C 
BRANCH  19  22
ATOM     22  C   UNL     1      46.180 130.441  15.733  1.00  0.00     0.049 A 
ATOM     23  C   UNL     1      46.588 131.377  14.752  1.00  0.00    -0.028 A 
ATOM     24  C   UNL     1      46.471 129.082  15.530  1.00  0.00     0.317 A 
ATOM     25  C   UNL     1      47.313 130.926  13.640  1.00  0.00     0.118 A 
ATOM     26  N   UNL     1      47.160 128.679  14.430  1.00  0.00    -0.186 N 
ATOM     27  C   UNL     1      47.588 129.566  13.494  1.00  0.00     0.358 A 
ATOM     28  C   UNL     1      46.281 132.847  14.876  1.00  0.00     0.045 C 
ATOM     29  H   UNL     1      47.371 127.663  14.306  1.00  0.00     0.456 HD
ATOM     30  F   UNL     1      48.280 129.130  12.413  1.00  0.00    -0.136 F 
ENDBRANCH  19  22
ENDBRANCH   1  12
TORSDOF 7
ENDMDL
MODEL 4
REMARK VINA RESULT:      -4.5      1.644      2.187
REMARK SMILES CC[C@](C)(N)/C=C(\O)n1nc2cc(-c3c[nH+]c(F)cc3C)ccc2c1C
REMARK SMILES IDX 7 1 8 2 6 4 3 5 4 6 5 7 2 10 1 11 9 12 10 13 25 14 11 15
REMARK SMILES IDX 24 16 12 17 23 18 13 19 22 20 26 21 14 22 20 23 15 24 19 25
REMARK SMILES IDX 16 26 17 27 21 28 18 30
REMARK H PARENT 8 3 5 8 5 9 16 29
ROOT
ATOM      1  C   UNL     1      43.270 131.525  21.404  1.00  0.00     0.209 C 
ENDROOT
BRANCH   1   2
ATOM      2  O   UNL     1      42.058 132.090  21.818  1.00  0.00    -0.493 OA
ATOM      3  H   UNL     1      41.154 131.864  21.433  1.00  0.00     0.295 HD
ENDBRANCH   1   2
BRANCH   1   4
ATOM      4  C   UNL     1      44.144 130.976  22.279  1.00  0.00     0.062 C 
BRANCH   4   5
ATOM      5  C   UNL     1      43.839 130.524  23.704  1.00  0.00     0.036 C 
ATOM      6  C   UNL     1      42.614 129.575  23.679  1.00  0.00     0.033 C 
BRANCH   5   7
ATOM      7  N   UNL     1      44.989 129.785  24.242  1.00  0.00    -0.322 NA
ATOM      8  H   UNL     1      45.555 129.392  23.453  1.00  0.00     0.119 HD
ATOM      9  H   UNL     1      45.611 130.437  24.773  1.00  0.00     0.119 HD
ENDBRANCH   5   7
BRANCH   5  10
ATOM     10  C   UNL     1      43.538 131.744  24.625  1.00  0.00     0.023 C 
ATOM     11  C   UNL     1      44.620 132.831  24.622  1.00  0.00     0.006 C 
ENDBRANCH   5  10
ENDBRANCH   4   5
ENDBRANCH   1   4
BRANCH   1  12
ATOM     12  N   UNL     1      43.583 131.527  19.995  1.00  0.00    -0.205 N 
ATOM     13  N   UNL     1      44.742 131.094  19.504  1.00  0.00    -0.165 NA
ATOM     14  C   UNL     1      42.771 131.920  18.974  1.00  0.00     0.052 A 
ATOM     15  C   UNL     1      44.671 131.207  18.168  1.00  0.00     0.094 A 
ATOM     16  C   UNL     1      43.457 131.713  17.793  1.00  0.00     0.023 A 
ATOM     17  C   UNL     1      45.646 130.867  17.236  1.00  0.00     0.040 A 
ATOM     18  C   UNL     1      43.124 131.915  16.455  1.00  0.00     0.013 A 
ATOM     19  C   UNL     1      45.354 131.068  15.867  1.00  0.00    -0.010 A 
ATOM     20  C   UNL     1      44.087 131.583  15.485  1.00  0.00     0.010 A 
ATOM     21  C   UNL     1      41.383 132.472  19.111  1.00  0.00     0.067 C 
BRANCH  19  22
ATOM     22  C   UNL     1      46.350 130.713  14.832  1.00  0.00     0.049 A 
ATOM     23  C   UNL     1      46.804 129.387  14.640  1.00  0.00    -0.028 A 
ATOM     24  C   UNL     1      46.869 131.728  14.012  1.00  0.00     0.317 A 
ATOM     25  C   UNL     1      47.715 129.120  13.608  1.00  0.00     0.118 A 
ATOM     26  N   UNL     1      47.765 131.436  13.032  1.00  0.00    -0.186 N 
ATOM     27  C   UNL     1      48.189 130.164  12.813  1.00  0.00     0.358 A 
ATOM     28  C   UNL     1      46.326 128.247  15.503  1.00  0.00     0.045 C 
ATOM     29  H   UNL     1      48.131 132.208  12.431  1.00  0.00     0.456 HD
ATOM     30  F   UNL     1      49.077 129.907  11.822  1.00  0.00    -0.136 F 
ENDBRANCH  19  22
ENDBRANCH   1  12
TORSDOF 7
ENDMDL
MODEL 5
REMARK VINA RESULT:      -4.3      7.358     10.942
REMARK SMILES CC[C@](C)(N)/C=C(\O)n1nc2cc(-c3c[nH+]c(F)cc3C)ccc2c1C
REMARK SMILES IDX 7 1 8 2 6 4 3 5 4 6 5 7 2 10 1 11 9 12 10 13 25 14 11 15
REMARK SMILES IDX 24 16 12 17 23 18 13 19 22 20 26 21 14 22 20 23 15 24 19 25
REMARK SMILES IDX 16 26 17 27 21 28 18 30
REMARK H PARENT 8 3 5 8 5 9 16 29
ROOT
ATOM      1  C   UNL     1      51.544 122.834  20.262  1.00  0.00     0.209 C 
ENDROOT
BRANCH   1   2
ATOM      2  O   UNL     1      52.785 122.547  20.841  1.00  0.00    -0.493 OA
ATOM      3  H   UNL     1      53.577 122.160  20.352  1.00  0.00     0.295 HD
ENDBRANCH   1   2
BRANCH   1   4
ATOM      4  C   UNL     1      51.254 122.505  18.981  1.00  0.00     0.062 C 
BRANCH   4   5
ATOM      5  C   UNL     1      51.979 122.995  17.732  1.00  0.00     0.036 C 
ATOM      6  C   UNL     1      53.430 122.450  17.746  1.00  0.00     0.033 C 
BRANCH   5   7
ATOM      7  N   UNL     1      51.301 122.477  16.535  1.00  0.00    -0.322 NA
ATOM      8  H   UNL     1      51.985 121.951  15.943  1.00  0.00     0.119 HD
ATOM      9  H   UNL     1      50.552 121.803  16.818  1.00  0.00     0.119 HD
ENDBRANCH   5   7
BRANCH   5  10
ATOM     10  C   UNL     1      52.004 124.551  17.674  1.00  0.00     0.023 C 
ATOM     11  C   UNL     1      53.261 125.194  18.274  1.00  0.00     0.006 C 
ENDBRANCH   5  10
ENDBRANCH   4   5
ENDBRANCH   1   4
BRANCH   1  12
ATOM     12  N   UNL     1      50.546 123.495  21.067  1.00  0.00    -0.205 N 
ATOM     13  N   UNL     1      49.237 123.354  20.870  1.00  0.00    -0.165 NA
ATOM     14  C   UNL     1      50.762 124.310  22.138  1.00  0.00     0.052 A 
ATOM     15  C   UNL     1      48.616 124.077  21.817  1.00  0.00     0.094 A 
ATOM     16  C   UNL     1      49.529 124.685  22.633  1.00  0.00     0.023 A 
ATOM     17  C   UNL     1      47.245 124.221  22.008  1.00  0.00     0.040 A 
ATOM     18  C   UNL     1      49.140 125.483  23.707  1.00  0.00     0.013 A 
ATOM     19  C   UNL     1      46.807 125.033  23.079  1.00  0.00    -0.010 A 
ATOM     20  C   UNL     1      47.761 125.652  23.930  1.00  0.00     0.010 A 
ATOM     21  C   UNL     1      52.099 124.718  22.681  1.00  0.00     0.067 C 
BRANCH  19  22
ATOM     22  C   UNL     1      45.362 125.214  23.338  1.00  0.00     0.049 A 
ATOM     23  C   UNL     1      44.628 126.303  22.809  1.00  0.00    -0.028 A 
ATOM     24  C   UNL     1      44.693 124.276  24.140  1.00  0.00     0.317 A 
ATOM     25  C   UNL     1      43.251 126.382  23.060  1.00  0.00     0.118 A 
ATOM     26  N   UNL     1      43.359 124.394  24.377  1.00  0.00    -0.186 N 
ATOM     27  C   UNL     1      42.632 125.415  23.852  1.00  0.00     0.358 A 
ATOM     28  C   UNL     1      45.279 127.373  21.972  1.00  0.00     0.045 C 
ATOM     29  H   UNL     1      42.883 123.679  24.971  1.00  0.00     0.456 HD
ATOM     30  F   UNL     1      41.302 125.498  24.103  1.00  0.00    -0.136 F 
ENDBRANCH  19  22
ENDBRANCH   1  12
TORSDOF 7
ENDMDL
MODEL 6
REMARK VINA RESULT:      -4.0      1.680      2.189
REMARK SMILES CC[C@](C)(N)/C=C(\O)n1nc2cc(-c3c[nH+]c(F)cc3C)ccc2c1C
REMARK SMILES IDX 7 1 8 2 6 4 3 5 4 6 5 7 2 10 1 11 9 12 10 13 25 14 11 15
REMARK SMILES IDX 24 16 12 17 23 18 13 19 22 20 26 21 14 22 20 23 15 24 19 25
REMARK SMILES IDX 16 26 17 27 21 28 18 30
REMARK H PARENT 8 3 5 8 5 9 16 29
ROOT
ATOM      1  C   UNL     1      42.862 131.632  21.416  1.00  0.00     0.209 C 
ENDROOT
BRANCH   1   2
ATOM      2  O   UNL     1      42.525 132.890  21.929  1.00  0.00    -0.493 OA
ATOM      3  H   UNL     1      41.797 133.063  22.605  1.00  0.00     0.295 HD
ENDBRANCH   1   2
BRANCH   1   4
ATOM      4  C   UNL     1      42.780 130.505  22.160  1.00  0.00     0.062 C 
BRANCH   4   5
ATOM      5  C   UNL     1      43.661 130.137  23.350  1.00  0.00     0.036 C 
ATOM      6  C   UNL     1      44.606 131.325  23.663  1.00  0.00     0.033 C 
BRANCH   5   7
ATOM      7  N   UNL     1      42.818 129.892  24.528  1.00  0.00    -0.322 NA
ATOM      8  H   UNL     1      42.988 128.923  24.888  1.00  0.00     0.119 HD
ATOM      9  H   UNL     1      43.078 130.556  25.293  1.00  0.00     0.119 HD
ENDBRANCH   5   7
BRANCH   5  10
ATOM     10  C   UNL     1      44.504 128.862  23.048  1.00  0.00     0.023 C 
ATOM     11  C   UNL     1      43.806 127.539  23.387  1.00  0.00     0.006 C 
ENDBRANCH   5  10
ENDBRANCH   4   5
ENDBRANCH   1   4
BRANCH   1  12
ATOM     12  N   UNL     1      43.302 131.546  20.044  1.00  0.00    -0.205 N 
ATOM     13  N   UNL     1      44.488 131.060  19.687  1.00  0.00    -0.165 NA
ATOM     14  C   UNL     1      42.597 131.899  18.932  1.00  0.00     0.052 A 
ATOM     15  C   UNL     1      44.542 131.098  18.345  1.00  0.00     0.094 A 
ATOM     16  C   UNL     1      43.382 131.609  17.833  1.00  0.00     0.023 A 
ATOM     17  C   UNL     1      45.589 130.683  17.527  1.00  0.00     0.040 A 
ATOM     18  C   UNL     1      43.177 131.741  16.461  1.00  0.00     0.013 A 
ATOM     19  C   UNL     1      45.428 130.812  16.129  1.00  0.00    -0.010 A 
ATOM     20  C   UNL     1      44.216 131.332  15.604  1.00  0.00     0.010 A 
ATOM     21  C   UNL     1      41.219 132.489  18.910  1.00  0.00     0.067 C 
BRANCH  19  22
ATOM     22  C   UNL     1      46.503 130.376  15.211  1.00  0.00     0.049 A 
ATOM     23  C   UNL     1      46.552 130.781  13.855  1.00  0.00    -0.028 A 
ATOM     24  C   UNL     1      47.509 129.526  15.697  1.00  0.00     0.317 A 
ATOM     25  C   UNL     1      47.628 130.364  13.058  1.00  0.00     0.118 A 
ATOM     26  N   UNL     1      48.527 129.126  14.890  1.00  0.00    -0.186 N 
ATOM     27  C   UNL     1      48.608 129.530  13.595  1.00  0.00     0.358 A 
ATOM     28  C   UNL     1      45.491 131.661  13.246  1.00  0.00     0.045 C 
ATOM     29  H   UNL     1      49.268 128.499  15.278  1.00  0.00     0.456 HD
ATOM     30  F   UNL     1      49.643 129.119  12.821  1.00  0.00    -0.136 F 
ENDBRANCH  19  22
ENDBRANCH   1  12
TORSDOF 7
ENDMDL
MODEL 7
REMARK VINA RESULT:      -4.0      1.463      1.871
REMARK SMILES CC[C@](C)(N)/C=C(\O)n1nc2cc(-c3c[nH+]c(F)cc3C)ccc2c1C
REMARK SMILES IDX 7 1 8 2 6 4 3 5 4 6 5 7 2 10 1 11 9 12 10 13 25 14 11 15
REMARK SMILES IDX 24 16 12 17 23 18 13 19 22 20 26 21 14 22 20 23 15 24 19 25
REMARK SMILES IDX 16 26 17 27 21 28 18 30
REMARK H PARENT 8 3 5 8 5 9 16 29
ROOT
ATOM      1  C   UNL     1      43.006 132.005  21.813  1.00  0.00     0.209 C 
ENDROOT
BRANCH   1   2
ATOM      2  O   UNL     1      41.848 132.679  22.216  1.00  0.00    -0.493 OA
ATOM      3  H   UNL     1      41.417 132.597  23.124  1.00  0.00     0.295 HD
ENDBRANCH   1   2
BRANCH   1   4
ATOM      4  C   UNL     1      43.845 131.421  22.700  1.00  0.00     0.062 C 
BRANCH   4   5
ATOM      5  C   UNL     1      43.931 129.933  23.024  1.00  0.00     0.036 C 
ATOM      6  C   UNL     1      44.686 129.212  21.879  1.00  0.00     0.033 C 
BRANCH   5   7
ATOM      7  N   UNL     1      44.687 129.744  24.270  1.00  0.00    -0.322 NA
ATOM      8  H   UNL     1      45.429 129.019  24.125  1.00  0.00     0.119 HD
ATOM      9  H   UNL     1      45.171 130.635  24.528  1.00  0.00     0.119 HD
ENDBRANCH   5   7
BRANCH   5  10
ATOM     10  C   UNL     1      42.511 129.313  23.187  1.00  0.00     0.023 C 
ATOM     11  C   UNL     1      42.149 128.912  24.622  1.00  0.00     0.006 C 
ENDBRANCH   5  10
ENDBRANCH   4   5
ENDBRANCH   1   4
BRANCH   1  12
ATOM     12  N   UNL     1      43.301 131.929  20.403  1.00  0.00    -0.205 N 
ATOM     13  N   UNL     1      44.475 131.525  19.923  1.00  0.00    -0.165 NA
ATOM     14  C   UNL     1      42.457 132.210  19.370  1.00  0.00     0.052 A 
ATOM     15  C   UNL     1      44.382 131.545  18.583  1.00  0.00     0.094 A 
ATOM     16  C   UNL     1      43.138 131.961  18.195  1.00  0.00     0.023 A 
ATOM     17  C   UNL     1      45.363 131.196  17.660  1.00  0.00     0.040 A 
ATOM     18  C   UNL     1      42.778 132.054  16.852  1.00  0.00     0.013 A 
ATOM     19  C   UNL     1      45.043 131.289  16.286  1.00  0.00    -0.010 A 
ATOM     20  C   UNL     1      43.746 131.709  15.891  1.00  0.00     0.010 A 
ATOM     21  C   UNL     1      41.043 132.695  19.493  1.00  0.00     0.067 C 
BRANCH  19  22
ATOM     22  C   UNL     1      46.044 130.919  15.260  1.00  0.00     0.049 A 
ATOM     23  C   UNL     1      46.782 129.713  15.323  1.00  0.00    -0.028 A 
ATOM     24  C   UNL     1      46.275 131.796  14.189  1.00  0.00     0.317 A 
ATOM     25  C   UNL     1      47.680 129.410  14.290  1.00  0.00     0.118 A 
ATOM     26  N   UNL     1      47.167 131.477  13.214  1.00  0.00    -0.186 N 
ATOM     27  C   UNL     1      47.862 130.310  13.240  1.00  0.00     0.358 A 
ATOM     28  C   UNL     1      46.621 128.737  16.460  1.00  0.00     0.045 C 
ATOM     29  H   UNL     1      47.316 132.144  12.423  1.00  0.00     0.456 HD
ATOM     30  F   UNL     1      48.737 130.021  12.247  1.00  0.00    -0.136 F 
ENDBRANCH  19  22
ENDBRANCH   1  12
TORSDOF 7
ENDMDL
MODEL 8
REMARK VINA RESULT:      -3.9      7.475     10.000
REMARK SMILES CC[C@](C)(N)/C=C(\O)n1nc2cc(-c3c[nH+]c(F)cc3C)ccc2c1C
REMARK SMILES IDX 7 1 8 2 6 4 3 5 4 6 5 7 2 10 1 11 9 12 10 13 25 14 11 15
REMARK SMILES IDX 24 16 12 17 23 18 13 19 22 20 26 21 14 22 20 23 15 24 19 25
REMARK SMILES IDX 16 26 17 27 21 28 18 30
REMARK H PARENT 8 3 5 8 5 9 16 29
ROOT
ATOM      1  C   UNL     1      49.875 124.644  22.054  1.00  0.00     0.209 C 
ENDROOT
BRANCH   1   2
ATOM      2  O   UNL     1      50.006 124.654  20.661  1.00  0.00    -0.493 OA
ATOM      3  H   UNL     1      50.116 125.481  20.096  1.00  0.00     0.295 HD
ENDBRANCH   1   2
BRANCH   1   4
ATOM      4  C   UNL     1      50.947 124.588  22.878  1.00  0.00     0.062 C 
BRANCH   4   5
ATOM      5  C   UNL     1      52.180 125.484  22.823  1.00  0.00     0.036 C 
ATOM      6  C   UNL     1      53.450 124.598  22.902  1.00  0.00     0.033 C 
BRANCH   5   7
ATOM      7  N   UNL     1      52.202 126.213  21.547  1.00  0.00    -0.322 NA
ATOM      8  H   UNL     1      51.414 125.885  20.941  1.00  0.00     0.119 HD
ATOM      9  H   UNL     1      52.053 127.234  21.722  1.00  0.00     0.119 HD
ENDBRANCH   5   7
BRANCH   5  10
ATOM     10  C   UNL     1      52.182 126.507  23.998  1.00  0.00     0.023 C 
ATOM     11  C   UNL     1      50.800 126.792  24.600  1.00  0.00     0.006 C 
ENDBRANCH   5  10
ENDBRANCH   4   5
ENDBRANCH   1   4
BRANCH   1  12
ATOM     12  N   UNL     1      48.548 124.706  22.620  1.00  0.00    -0.205 N 
ATOM     13  N   UNL     1      47.751 125.765  22.498  1.00  0.00    -0.165 NA
ATOM     14  C   UNL     1      47.904 123.724  23.311  1.00  0.00     0.052 A 
ATOM     15  C   UNL     1      46.595 125.460  23.110  1.00  0.00     0.094 A 
ATOM     16  C   UNL     1      46.645 124.194  23.626  1.00  0.00     0.023 A 
ATOM     17  C   UNL     1      45.463 126.260  23.230  1.00  0.00     0.040 A 
ATOM     18  C   UNL     1      45.562 123.630  24.300  1.00  0.00     0.013 A 
ATOM     19  C   UNL     1      44.346 125.731  23.917  1.00  0.00    -0.010 A 
ATOM     20  C   UNL     1      44.401 124.412  24.440  1.00  0.00     0.010 A 
ATOM     21  C   UNL     1      48.463 122.377  23.660  1.00  0.00     0.067 C 
BRANCH  19  22
ATOM     22  C   UNL     1      43.112 126.533  24.064  1.00  0.00     0.049 A 
ATOM     23  C   UNL     1      41.825 125.994  23.822  1.00  0.00    -0.028 A 
ATOM     24  C   UNL     1      43.217 127.878  24.452  1.00  0.00     0.317 A 
ATOM     25  C   UNL     1      40.699 126.803  24.027  1.00  0.00     0.118 A 
ATOM     26  N   UNL     1      42.104 128.639  24.623  1.00  0.00    -0.186 N 
ATOM     27  C   UNL     1      40.859 128.130  24.426  1.00  0.00     0.358 A 
ATOM     28  C   UNL     1      41.629 124.572  23.366  1.00  0.00     0.045 C 
ATOM     29  H   UNL     1      42.208 129.635  24.919  1.00  0.00     0.456 HD
ATOM     30  F   UNL     1      39.769 128.915  24.614  1.00  0.00    -0.136 F 
ENDBRANCH  19  22
ENDBRANCH   1  12
TORSDOF 7
ENDMDL
MODEL 9
REMARK VINA RESULT:      -3.7      1.420      1.748
REMARK SMILES CC[C@](C)(N)/C=C(\O)n1nc2cc(-c3c[nH+]c(F)cc3C)ccc2c1C
REMARK SMILES IDX 7 1 8 2 6 4 3 5 4 6 5 7 2 10 1 11 9 12 10 13 25 14 11 15
REMARK SMILES IDX 24 16 12 17 23 18 13 19 22 20 26 21 14 22 20 23 15 24 19 25
REMARK SMILES IDX 16 26 17 27 21 28 18 30
REMARK H PARENT 8 3 5 8 5 9 16 29
ROOT
ATOM      1  C   UNL     1      43.597 130.936  23.455  1.00  0.00     0.209 C 
ENDROOT
BRANCH   1   2
ATOM      2  O   UNL     1      43.651 132.070  24.272  1.00  0.00    -0.493 OA
ATOM      3  H   UNL     1      43.045 132.872  24.190  1.00  0.00     0.295 HD
ENDBRANCH   1   2
BRANCH   1   4
ATOM      4  C   UNL     1      43.436 129.691  23.961  1.00  0.00     0.062 C 
BRANCH   4   5
ATOM      5  C   UNL     1      44.123 128.418  23.474  1.00  0.00     0.036 C 
ATOM      6  C   UNL     1      45.231 128.800  22.461  1.00  0.00     0.033 C 
BRANCH   5   7
ATOM      7  N   UNL     1      44.751 127.733  24.613  1.00  0.00    -0.322 NA
ATOM      8  H   UNL     1      45.779 127.635  24.441  1.00  0.00     0.119 HD
ATOM      9  H   UNL     1      44.635 128.309  25.479  1.00  0.00     0.119 HD
ENDBRANCH   5   7
BRANCH   5  10
ATOM     10  C   UNL     1      43.102 127.456  22.797  1.00  0.00     0.023 C 
ATOM     11  C   UNL     1      43.600 126.016  22.621  1.00  0.00     0.006 C 
ENDBRANCH   5  10
ENDBRANCH   4   5
ENDBRANCH   1   4
BRANCH   1  12
ATOM     12  N   UNL     1      43.709 131.112  22.027  1.00  0.00    -0.205 N 
ATOM     13  N   UNL     1      44.693 130.585  21.302  1.00  0.00    -0.165 NA
ATOM     14  C   UNL     1      42.850 131.787  21.213  1.00  0.00     0.052 A 
ATOM     15  C   UNL     1      44.461 130.920  20.021  1.00  0.00     0.094 A 
ATOM     16  C   UNL     1      43.319 131.664  19.920  1.00  0.00     0.023 A 
ATOM     17  C   UNL     1      45.223 130.582  18.906  1.00  0.00     0.040 A 
ATOM     18  C   UNL     1      42.848 132.127  18.692  1.00  0.00     0.013 A 
ATOM     19  C   UNL     1      44.787 131.042  17.643  1.00  0.00    -0.010 A 
ATOM     20  C   UNL     1      43.594 131.805  17.543  1.00  0.00     0.010 A 
ATOM     21  C   UNL     1      41.617 132.522  21.645  1.00  0.00     0.067 C 
BRANCH  19  22
ATOM     22  C   UNL     1      45.551 130.704  16.421  1.00  0.00     0.049 A 
ATOM     23  C   UNL     1      44.998 130.826  15.124  1.00  0.00    -0.028 A 
ATOM     24  C   UNL     1      46.869 130.240  16.551  1.00  0.00     0.317 A 
ATOM     25  C   UNL     1      45.798 130.530  14.012  1.00  0.00     0.118 A 
ATOM     26  N   UNL     1      47.611 129.945  15.451  1.00  0.00    -0.186 N 
ATOM     27  C   UNL     1      47.108 130.086  14.196  1.00  0.00     0.358 A 
ATOM     28  C   UNL     1      43.578 131.280  14.901  1.00  0.00     0.045 C 
ATOM     29  H   UNL     1      48.592 129.608  15.573  1.00  0.00     0.456 HD
ATOM     30  F   UNL     1      47.878 129.790  13.120  1.00  0.00    -0.136 F 
ENDBRANCH  19  22
ENDBRANCH   1  12
TORSDOF 7
ENDMDL


