REMARK SMILES C=c1ccc(=C(O)C(N=[N+]=[N-])=c2ccc(=C)cc2)cc1
REMARK SMILES IDX 8 1 6 2 7 3 5 5 4 6 19 7 3 8 20 9 2 10 1 11 9 12 10 13 11 14
REMARK SMILES IDX 12 15 13 16 18 17 14 18 17 19 15 20 16 21
REMARK H PARENT 7 4
ROOT
ATOM      1  C   UNL     1      -0.225  -1.363   1.848  1.00  0.00     0.087 C 
ENDROOT
BRANCH   1   2
ATOM      2  C   UNL     1      -0.881  -0.056   1.602  1.00  0.00     0.132 C 
BRANCH   2   3
ATOM      3  O   UNL     1      -0.872   0.833   2.684  1.00  0.00    -0.507 OA
ATOM      4  H   UNL     1      -1.129   1.808   2.638  1.00  0.00     0.293 HD
ENDBRANCH   2   3
BRANCH   2   5
ATOM      5  C   UNL     1      -1.458   0.241   0.402  1.00  0.00     0.017 A 
ATOM      6  C   UNL     1      -1.336  -0.642  -0.700  1.00  0.00     0.012 A 
ATOM      7  C   UNL     1      -2.201   1.430   0.204  1.00  0.00     0.012 A 
ATOM      8  C   UNL     1      -1.916  -0.344  -1.936  1.00  0.00     0.008 A 
ATOM      9  C   UNL     1      -2.780   1.723  -1.034  1.00  0.00     0.008 A 
ATOM     10  C   UNL     1      -2.641   0.841  -2.114  1.00  0.00    -0.033 A 
ATOM     11  C   UNL     1      -3.195   1.126  -3.298  1.00  0.00     0.017 C 
ENDBRANCH   2   5
ENDBRANCH   1   2
BRANCH   1  12
ATOM     12  N   UNL     1      -1.107  -2.484   2.013  1.00  0.00    -0.056 NA
BRANCH  12  13
ATOM     13  N   UNL     1      -1.028  -3.232   2.988  1.00  0.00     0.006 N 
ATOM     14  N   UNL     1      -0.952  -3.980   3.962  1.00  0.00    -0.003 NA
ENDBRANCH  12  13
ENDBRANCH   1  12
BRANCH   1  15
ATOM     15  C   UNL     1       1.133  -1.487   1.892  1.00  0.00    -0.012 A 
ATOM     16  C   UNL     1       1.976  -0.351   1.816  1.00  0.00     0.009 A 
ATOM     17  C   UNL     1       1.754  -2.756   1.969  1.00  0.00     0.009 A 
ATOM     18  C   UNL     1       3.367  -0.478   1.857  1.00  0.00     0.008 A 
ATOM     19  C   UNL     1       3.146  -2.879   2.009  1.00  0.00     0.008 A 
ATOM     20  C   UNL     1       3.964  -1.742   1.958  1.00  0.00    -0.033 A 
ATOM     21  C   UNL     1       5.295  -1.863   1.998  1.00  0.00     0.017 C 
ENDBRANCH   1  15
TORSDOF 6


