REMARK SMILES CC(=O)[N@@H+](C)[C@@H](C)C(=O)N(c1cn2ccccc2n1)c1cc2ccccc2[n-]1
REMARK SMILES IDX 6 1 7 2 4 3 5 4 2 6 1 7 3 8 8 9 9 10 10 11 11 12 12 13 19 14
REMARK SMILES IDX 13 15 18 16 14 17 17 18 15 19 16 20 20 21 21 22 28 23 22 24
REMARK SMILES IDX 27 25 23 26 26 27 24 28 25 29
REMARK H PARENT 4 5
ROOT
ATOM      1  C   UNL     1       1.965  -0.933   0.669  1.00  0.00     0.257 C 
ATOM      2  C   UNL     1       2.620  -1.654   1.868  1.00  0.00     0.085 C 
ENDROOT
BRANCH   1   3
ATOM      3  N   UNL     1       2.930  -0.228  -0.227  1.00  0.00    -0.266 N 
ATOM      4  C   UNL     1       3.711  -1.157  -1.067  1.00  0.00     0.341 C 
ATOM      5  H   UNL     1       2.353   0.315  -0.916  1.00  0.00     0.357 HD
BRANCH   3   6
ATOM      6  C   UNL     1       3.775   0.743   0.459  1.00  0.00     0.309 C 
ATOM      7  C   UNL     1       5.060   0.371   1.160  1.00  0.00     0.164 C 
ATOM      8  O   UNL     1       3.432   1.918   0.488  1.00  0.00    -0.231 OA
ENDBRANCH   3   6
ENDBRANCH   1   3
BRANCH   1   9
ATOM      9  C   UNL     1       0.888   0.027   1.159  1.00  0.00     0.210 C 
ATOM     10  O   UNL     1       1.147   0.764   2.152  1.00  0.00    -0.292 OA
BRANCH   9  11
ATOM     11  N   UNL     1      -0.358   0.201   0.435  1.00  0.00    -0.366 N 
BRANCH  11  12
ATOM     12  C   UNL     1      -1.087   1.443   0.497  1.00  0.00     0.077 A 
ATOM     13  C   UNL     1      -1.303   2.207   1.639  1.00  0.00     0.117 A 
ATOM     14  N   UNL     1      -1.753   1.973  -0.562  1.00  0.00    -0.233 NA
ATOM     15  N   UNL     1      -2.095   3.225   1.274  1.00  0.00    -0.307 N 
ATOM     16  C   UNL     1      -2.345   3.065  -0.037  1.00  0.00     0.136 A 
ATOM     17  C   UNL     1      -2.617   4.231   2.020  1.00  0.00     0.093 A 
ATOM     18  C   UNL     1      -3.169   3.959  -0.722  1.00  0.00     0.048 A 
ATOM     19  C   UNL     1      -3.453   5.163   1.383  1.00  0.00     0.018 A 
ATOM     20  C   UNL     1      -3.726   5.023   0.007  1.00  0.00     0.005 A 
ENDBRANCH  11  12
BRANCH  11  21
ATOM     21  C   UNL     1      -0.924  -0.875  -0.333  1.00  0.00    -0.049 A 
ATOM     22  C   UNL     1      -1.090  -2.175   0.141  1.00  0.00     0.008 A 
ATOM     23  N   UNL     1      -1.403  -0.719  -1.591  1.00  0.00    -0.435 NA
ATOM     24  C   UNL     1      -1.687  -2.842  -0.898  1.00  0.00    -0.023 A 
ATOM     25  C   UNL     1      -1.862  -1.942  -1.918  1.00  0.00    -0.034 A 
ATOM     26  C   UNL     1      -2.082  -4.173  -1.014  1.00  0.00     0.008 A 
ATOM     27  C   UNL     1      -2.452  -2.314  -3.127  1.00  0.00     0.004 A 
ATOM     28  C   UNL     1      -2.675  -4.578  -2.225  1.00  0.00     0.001 A 
ATOM     29  C   UNL     1      -2.859  -3.653  -3.276  1.00  0.00     0.000 A 
ENDBRANCH  11  21
ENDBRANCH   9  11
ENDBRANCH   1   9
TORSDOF 6


