MODEL 1
REMARK VINA RESULT:      -9.7      0.000      0.000
REMARK SMILES O=C1[N-]Cc2ncc(-c3ccc4[nH]ccc4c3)cc21
REMARK SMILES IDX 1 1 2 2 3 3 4 4 5 5 6 6 7 7 8 8 18 9 19 10 9 11 10 12 17 13
REMARK SMILES IDX 11 14 16 15 12 16 15 17 13 18 14 19
REMARK H PARENT 13 20
ROOT
ATOM      1  O   UNL     1      41.552 133.046  20.611  1.00  0.00    -0.315 OA
ATOM      2  C   UNL     1      42.480 132.352  21.102  1.00  0.00     0.084 C 
ATOM      3  N   UNL     1      42.592 132.043  22.489  1.00  0.00    -0.644 NA
ATOM      4  C   UNL     1      43.795 131.219  22.662  1.00  0.00    -0.059 C 
ATOM      5  C   UNL     1      44.341 131.093  21.274  1.00  0.00     0.032 A 
ATOM      6  N   UNL     1      45.453 130.417  20.889  1.00  0.00    -0.262 NA
ATOM      7  C   UNL     1      45.813 130.396  19.572  1.00  0.00     0.120 A 
ATOM      8  C   UNL     1      45.037 131.074  18.595  1.00  0.00     0.001 A 
ATOM      9  C   UNL     1      43.882 131.773  19.014  1.00  0.00     0.022 A 
ATOM     10  C   UNL     1      43.566 131.759  20.366  1.00  0.00     0.020 A 
ENDROOT
BRANCH   8  11
ATOM     11  C   UNL     1      45.427 131.050  17.164  1.00  0.00    -0.016 A 
ATOM     12  C   UNL     1      44.775 131.897  16.224  1.00  0.00     0.011 A 
ATOM     13  C   UNL     1      46.455 130.183  16.718  1.00  0.00     0.019 A 
ATOM     14  C   UNL     1      45.137 131.881  14.866  1.00  0.00     0.027 A 
ATOM     15  C   UNL     1      46.785 130.195  15.365  1.00  0.00    -0.000 A 
ATOM     16  C   UNL     1      46.151 131.013  14.471  1.00  0.00     0.045 A 
ATOM     17  C   UNL     1      47.723 129.468  14.665  1.00  0.00     0.028 A 
ATOM     18  N   UNL     1      46.643 130.841  13.234  1.00  0.00    -0.361 N 
ATOM     19  C   UNL     1      47.606 129.898  13.347  1.00  0.00     0.083 A 
ATOM     20  H   UNL     1      46.347 131.332  12.361  1.00  0.00     0.166 HD
ENDBRANCH   8  11
TORSDOF 1
ENDMDL
MODEL 2
REMARK VINA RESULT:      -8.2      2.054      6.867
REMARK SMILES O=C1[N-]Cc2ncc(-c3ccc4[nH]ccc4c3)cc21
REMARK SMILES IDX 1 1 2 2 3 3 4 4 5 5 6 6 7 7 8 8 18 9 19 10 9 11 10 12 17 13
REMARK SMILES IDX 11 14 16 15 12 16 15 17 13 18 14 19
REMARK H PARENT 13 20
ROOT
ATOM      1  O   UNL     1      43.271 131.990  14.098  1.00  0.00    -0.315 OA
ATOM      2  C   UNL     1      44.309 131.425  14.531  1.00  0.00     0.084 C 
ATOM      3  N   UNL     1      45.342 130.911  13.695  1.00  0.00    -0.644 NA
ATOM      4  C   UNL     1      46.372 130.335  14.568  1.00  0.00    -0.059 C 
ATOM      5  C   UNL     1      45.838 130.567  15.948  1.00  0.00     0.032 A 
ATOM      6  N   UNL     1      46.423 130.221  17.121  1.00  0.00    -0.262 NA
ATOM      7  C   UNL     1      45.800 130.511  18.302  1.00  0.00     0.120 A 
ATOM      8  C   UNL     1      44.544 131.173  18.318  1.00  0.00     0.001 A 
ATOM      9  C   UNL     1      43.949 131.526  17.085  1.00  0.00     0.022 A 
ATOM     10  C   UNL     1      44.629 131.205  15.917  1.00  0.00     0.020 A 
ENDROOT
BRANCH   8  11
ATOM     11  C   UNL     1      43.868 131.489  19.600  1.00  0.00    -0.016 A 
ATOM     12  C   UNL     1      42.652 132.229  19.611  1.00  0.00     0.011 A 
ATOM     13  C   UNL     1      44.427 131.058  20.828  1.00  0.00     0.019 A 
ATOM     14  C   UNL     1      42.005 132.535  20.821  1.00  0.00     0.027 A 
ATOM     15  C   UNL     1      43.757 131.380  22.005  1.00  0.00    -0.000 A 
ATOM     16  C   UNL     1      42.590 132.092  22.003  1.00  0.00     0.045 A 
ATOM     17  C   UNL     1      44.067 131.099  23.318  1.00  0.00     0.028 A 
ATOM     18  N   UNL     1      42.140 132.277  23.255  1.00  0.00    -0.361 N 
ATOM     19  C   UNL     1      43.040 131.670  24.064  1.00  0.00     0.083 A 
ATOM     20  H   UNL     1      41.275 132.783  23.549  1.00  0.00     0.166 HD
ENDBRANCH   8  11
TORSDOF 1
ENDMDL
MODEL 3
REMARK VINA RESULT:      -8.2      1.639      2.093
REMARK SMILES O=C1[N-]Cc2ncc(-c3ccc4[nH]ccc4c3)cc21
REMARK SMILES IDX 1 1 2 2 3 3 4 4 5 5 6 6 7 7 8 8 18 9 19 10 9 11 10 12 17 13
REMARK SMILES IDX 11 14 16 15 12 16 15 17 13 18 14 19
REMARK H PARENT 13 20
ROOT
ATOM      1  O   UNL     1      45.754 131.285  21.670  1.00  0.00    -0.315 OA
ATOM      2  C   UNL     1      44.620 131.549  21.191  1.00  0.00     0.084 C 
ATOM      3  N   UNL     1      43.483 131.887  21.980  1.00  0.00    -0.644 NA
ATOM      4  C   UNL     1      42.362 132.124  21.062  1.00  0.00    -0.059 C 
ATOM      5  C   UNL     1      42.958 131.894  19.708  1.00  0.00     0.032 A 
ATOM      6  N   UNL     1      42.331 131.993  18.510  1.00  0.00    -0.262 NA
ATOM      7  C   UNL     1      43.025 131.754  17.358  1.00  0.00     0.120 A 
ATOM      8  C   UNL     1      44.400 131.401  17.398  1.00  0.00     0.001 A 
ATOM      9  C   UNL     1      45.037 131.302  18.656  1.00  0.00     0.022 A 
ATOM     10  C   UNL     1      44.280 131.557  19.792  1.00  0.00     0.020 A 
ENDROOT
BRANCH   8  11
ATOM     11  C   UNL     1      45.154 131.142  16.147  1.00  0.00    -0.016 A 
ATOM     12  C   UNL     1      44.709 131.687  14.911  1.00  0.00     0.011 A 
ATOM     13  C   UNL     1      46.327 130.348  16.170  1.00  0.00     0.019 A 
ATOM     14  C   UNL     1      45.415 131.447  13.719  1.00  0.00     0.027 A 
ATOM     15  C   UNL     1      46.999 130.131  14.971  1.00  0.00    -0.000 A 
ATOM     16  C   UNL     1      46.561 130.660  13.789  1.00  0.00     0.045 A 
ATOM     17  C   UNL     1      48.143 129.410  14.701  1.00  0.00     0.028 A 
ATOM     18  N   UNL     1      47.373 130.310  12.778  1.00  0.00    -0.361 N 
ATOM     19  C   UNL     1      48.343 129.546  13.332  1.00  0.00     0.083 A 
ATOM     20  H   UNL     1      47.280 130.572  11.771  1.00  0.00     0.166 HD
ENDBRANCH   8  11
TORSDOF 1
ENDMDL
MODEL 4
REMARK VINA RESULT:      -8.1      1.695      2.437
REMARK SMILES O=C1[N-]Cc2ncc(-c3ccc4[nH]ccc4c3)cc21
REMARK SMILES IDX 1 1 2 2 3 3 4 4 5 5 6 6 7 7 8 8 18 9 19 10 9 11 10 12 17 13
REMARK SMILES IDX 11 14 16 15 12 16 15 17 13 18 14 19
REMARK H PARENT 13 20
ROOT
ATOM      1  O   UNL     1      44.810 131.492  22.081  1.00  0.00    -0.315 OA
ATOM      2  C   UNL     1      43.856 131.838  21.336  1.00  0.00     0.084 C 
ATOM      3  N   UNL     1      42.636 132.397  21.815  1.00  0.00    -0.644 NA
ATOM      4  C   UNL     1      41.785 132.667  20.649  1.00  0.00    -0.059 C 
ATOM      5  C   UNL     1      42.620 132.218  19.490  1.00  0.00     0.032 A 
ATOM      6  N   UNL     1      42.287 132.260  18.176  1.00  0.00    -0.262 NA
ATOM      7  C   UNL     1      43.171 131.812  17.236  1.00  0.00     0.120 A 
ATOM      8  C   UNL     1      44.440 131.300  17.617  1.00  0.00     0.001 A 
ATOM      9  C   UNL     1      44.770 131.263  18.991  1.00  0.00     0.022 A 
ATOM     10  C   UNL     1      43.830 131.733  19.900  1.00  0.00     0.020 A 
ENDROOT
BRANCH   8  11
ATOM     11  C   UNL     1      45.401 130.815  16.596  1.00  0.00    -0.016 A 
ATOM     12  C   UNL     1      46.003 129.532  16.726  1.00  0.00     0.011 A 
ATOM     13  C   UNL     1      45.728 131.624  15.481  1.00  0.00     0.019 A 
ATOM     14  C   UNL     1      46.915 129.063  15.765  1.00  0.00     0.027 A 
ATOM     15  C   UNL     1      46.636 131.126  14.551  1.00  0.00    -0.000 A 
ATOM     16  C   UNL     1      47.209 129.892  14.686  1.00  0.00     0.045 A 
ATOM     17  C   UNL     1      47.133 131.686  13.394  1.00  0.00     0.028 A 
ATOM     18  N   UNL     1      48.047 129.639  13.668  1.00  0.00    -0.361 N 
ATOM     19  C   UNL     1      48.003 130.734  12.874  1.00  0.00     0.083 A 
ATOM     20  H   UNL     1      48.617 128.777  13.515  1.00  0.00     0.166 HD
ENDBRANCH   8  11
TORSDOF 1
ENDMDL
MODEL 5
REMARK VINA RESULT:      -7.8      2.442      7.184
REMARK SMILES O=C1[N-]Cc2ncc(-c3ccc4[nH]ccc4c3)cc21
REMARK SMILES IDX 1 1 2 2 3 3 4 4 5 5 6 6 7 7 8 8 18 9 19 10 9 11 10 12 17 13
REMARK SMILES IDX 11 14 16 15 12 16 15 17 13 18 14 19
REMARK H PARENT 13 20
ROOT
ATOM      1  O   UNL     1      48.261 129.385  15.040  1.00  0.00    -0.315 OA
ATOM      2  C   UNL     1      47.240 130.029  14.681  1.00  0.00     0.084 C 
ATOM      3  N   UNL     1      46.933 130.340  13.325  1.00  0.00    -0.644 NA
ATOM      4  C   UNL     1      45.673 131.093  13.318  1.00  0.00    -0.059 C 
ATOM      5  C   UNL     1      45.302 131.177  14.767  1.00  0.00     0.032 A 
ATOM      6  N   UNL     1      44.207 131.774  15.299  1.00  0.00    -0.262 NA
ATOM      7  C   UNL     1      44.014 131.757  16.651  1.00  0.00     0.120 A 
ATOM      8  C   UNL     1      44.947 131.120  17.511  1.00  0.00     0.001 A 
ATOM      9  C   UNL     1      46.083 130.503  16.939  1.00  0.00     0.022 A 
ATOM     10  C   UNL     1      46.226 130.552  15.559  1.00  0.00     0.020 A 
ENDROOT
BRANCH   8  11
ATOM     11  C   UNL     1      44.736 131.100  18.980  1.00  0.00    -0.016 A 
ATOM     12  C   UNL     1      45.683 130.471  19.835  1.00  0.00     0.011 A 
ATOM     13  C   UNL     1      43.589 131.708  19.545  1.00  0.00     0.019 A 
ATOM     14  C   UNL     1      45.492 130.446  21.228  1.00  0.00     0.027 A 
ATOM     15  C   UNL     1      43.434 131.663  20.928  1.00  0.00    -0.000 A 
ATOM     16  C   UNL     1      44.350 131.055  21.741  1.00  0.00     0.045 A 
ATOM     17  C   UNL     1      42.432 132.159  21.735  1.00  0.00     0.028 A 
ATOM     18  N   UNL     1      43.979 131.141  23.028  1.00  0.00    -0.361 N 
ATOM     19  C   UNL     1      42.806 131.816  23.030  1.00  0.00     0.083 A 
ATOM     20  H   UNL     1      44.487 130.766  23.860  1.00  0.00     0.166 HD
ENDBRANCH   8  11
TORSDOF 1
ENDMDL
MODEL 6
REMARK VINA RESULT:      -7.7      1.711      2.167
REMARK SMILES O=C1[N-]Cc2ncc(-c3ccc4[nH]ccc4c3)cc21
REMARK SMILES IDX 1 1 2 2 3 3 4 4 5 5 6 6 7 7 8 8 18 9 19 10 9 11 10 12 17 13
REMARK SMILES IDX 11 14 16 15 12 16 15 17 13 18 14 19
REMARK H PARENT 13 20
ROOT
ATOM      1  O   UNL     1      44.909 129.738  22.794  1.00  0.00    -0.315 OA
ATOM      2  C   UNL     1      44.020 130.588  22.531  1.00  0.00     0.084 C 
ATOM      3  N   UNL     1      43.159 131.166  23.509  1.00  0.00    -0.644 NA
ATOM      4  C   UNL     1      42.269 132.106  22.815  1.00  0.00    -0.059 C 
ATOM      5  C   UNL     1      42.698 132.008  21.384  1.00  0.00     0.032 A 
ATOM      6  N   UNL     1      42.185 132.687  20.327  1.00  0.00    -0.262 NA
ATOM      7  C   UNL     1      42.697 132.484  19.077  1.00  0.00     0.120 A 
ATOM      8  C   UNL     1      43.761 131.569  18.867  1.00  0.00     0.001 A 
ATOM      9  C   UNL     1      44.283 130.869  19.979  1.00  0.00     0.022 A 
ATOM     10  C   UNL     1      43.723 131.117  21.226  1.00  0.00     0.020 A 
ENDROOT
BRANCH   8  11
ATOM     11  C   UNL     1      44.317 131.349  17.508  1.00  0.00    -0.016 A 
ATOM     12  C   UNL     1      43.622 131.823  16.361  1.00  0.00     0.011 A 
ATOM     13  C   UNL     1      45.546 130.666  17.341  1.00  0.00     0.019 A 
ATOM     14  C   UNL     1      44.140 131.619  15.069  1.00  0.00     0.027 A 
ATOM     15  C   UNL     1      46.027 130.483  16.047  1.00  0.00    -0.000 A 
ATOM     16  C   UNL     1      45.350 130.942  14.951  1.00  0.00     0.045 A 
ATOM     17  C   UNL     1      47.171 129.862  15.595  1.00  0.00     0.028 A 
ATOM     18  N   UNL     1      46.011 130.643  13.821  1.00  0.00    -0.361 N 
ATOM     19  C   UNL     1      47.127 129.983  14.210  1.00  0.00     0.083 A 
ATOM     20  H   UNL     1      45.727 130.871  12.842  1.00  0.00     0.166 HD
ENDBRANCH   8  11
TORSDOF 1
ENDMDL
MODEL 7
REMARK VINA RESULT:      -7.7      1.816      2.185
REMARK SMILES O=C1[N-]Cc2ncc(-c3ccc4[nH]ccc4c3)cc21
REMARK SMILES IDX 1 1 2 2 3 3 4 4 5 5 6 6 7 7 8 8 18 9 19 10 9 11 10 12 17 13
REMARK SMILES IDX 11 14 16 15 12 16 15 17 13 18 14 19
REMARK H PARENT 13 20
ROOT
ATOM      1  O   UNL     1      45.728 128.417  22.064  1.00  0.00    -0.315 OA
ATOM      2  C   UNL     1      44.933 129.388  21.964  1.00  0.00     0.084 C 
ATOM      3  N   UNL     1      44.079 129.827  23.016  1.00  0.00    -0.644 NA
ATOM      4  C   UNL     1      43.313 130.975  22.514  1.00  0.00    -0.059 C 
ATOM      5  C   UNL     1      43.805 131.142  21.109  1.00  0.00     0.032 A 
ATOM      6  N   UNL     1      43.411 132.077  20.210  1.00  0.00    -0.262 NA
ATOM      7  C   UNL     1      43.966 132.095  18.962  1.00  0.00     0.120 A 
ATOM      8  C   UNL     1      44.953 131.144  18.592  1.00  0.00     0.001 A 
ATOM      9  C   UNL     1      45.351 130.176  19.542  1.00  0.00     0.022 A 
ATOM     10  C   UNL     1      44.752 130.208  20.795  1.00  0.00     0.020 A 
ENDROOT
BRANCH   8  11
ATOM     11  C   UNL     1      45.557 131.164  17.236  1.00  0.00    -0.016 A 
ATOM     12  C   UNL     1      45.470 132.331  16.426  1.00  0.00     0.011 A 
ATOM     13  C   UNL     1      46.225 130.021  16.734  1.00  0.00     0.019 A 
ATOM     14  C   UNL     1      46.038 132.360  15.140  1.00  0.00     0.027 A 
ATOM     15  C   UNL     1      46.773 130.087  15.456  1.00  0.00    -0.000 A 
ATOM     16  C   UNL     1      46.684 131.214  14.687  1.00  0.00     0.045 A 
ATOM     17  C   UNL     1      47.463 129.143  14.726  1.00  0.00     0.028 A 
ATOM     18  N   UNL     1      47.286 131.031  13.500  1.00  0.00    -0.361 N 
ATOM     19  C   UNL     1      47.765 129.766  13.520  1.00  0.00     0.083 A 
ATOM     20  H   UNL     1      47.370 131.721  12.720  1.00  0.00     0.166 HD
ENDBRANCH   8  11
TORSDOF 1
ENDMDL
MODEL 8
REMARK VINA RESULT:      -7.6      0.938      1.406
REMARK SMILES O=C1[N-]Cc2ncc(-c3ccc4[nH]ccc4c3)cc21
REMARK SMILES IDX 1 1 2 2 3 3 4 4 5 5 6 6 7 7 8 8 18 9 19 10 9 11 10 12 17 13
REMARK SMILES IDX 11 14 16 15 12 16 15 17 13 18 14 19
REMARK H PARENT 13 20
ROOT
ATOM      1  O   UNL     1      41.428 133.091  19.612  1.00  0.00    -0.315 OA
ATOM      2  C   UNL     1      42.307 132.537  20.323  1.00  0.00     0.084 C 
ATOM      3  N   UNL     1      42.281 132.519  21.747  1.00  0.00    -0.644 NA
ATOM      4  C   UNL     1      43.466 131.782  22.202  1.00  0.00    -0.059 C 
ATOM      5  C   UNL     1      44.151 131.392  20.929  1.00  0.00     0.032 A 
ATOM      6  N   UNL     1      45.302 130.685  20.801  1.00  0.00    -0.262 NA
ATOM      7  C   UNL     1      45.794 130.408  19.558  1.00  0.00     0.120 A 
ATOM      8  C   UNL     1      45.116 130.852  18.392  1.00  0.00     0.001 A 
ATOM      9  C   UNL     1      43.919 131.588  18.544  1.00  0.00     0.022 A 
ATOM     10  C   UNL     1      43.467 131.839  19.833  1.00  0.00     0.020 A 
ENDROOT
BRANCH   8  11
ATOM     11  C   UNL     1      45.650 130.550  17.041  1.00  0.00    -0.016 A 
ATOM     12  C   UNL     1      45.634 129.219  16.541  1.00  0.00     0.011 A 
ATOM     13  C   UNL     1      46.183 131.586  16.235  1.00  0.00     0.019 A 
ATOM     14  C   UNL     1      46.139 128.922  15.263  1.00  0.00     0.027 A 
ATOM     15  C   UNL     1      46.674 131.254  14.976  1.00  0.00    -0.000 A 
ATOM     16  C   UNL     1      46.654 129.970  14.505  1.00  0.00     0.045 A 
ATOM     17  C   UNL     1      47.243 132.042  13.998  1.00  0.00     0.028 A 
ATOM     18  N   UNL     1      47.182 129.904  13.273  1.00  0.00    -0.361 N 
ATOM     19  C   UNL     1      47.543 131.169  12.958  1.00  0.00     0.083 A 
ATOM     20  H   UNL     1      47.293 129.054  12.676  1.00  0.00     0.166 HD
ENDBRANCH   8  11
TORSDOF 1
ENDMDL
MODEL 9
REMARK VINA RESULT:      -7.5      0.986      1.093
REMARK SMILES O=C1[N-]Cc2ncc(-c3ccc4[nH]ccc4c3)cc21
REMARK SMILES IDX 1 1 2 2 3 3 4 4 5 5 6 6 7 7 8 8 18 9 19 10 9 11 10 12 17 13
REMARK SMILES IDX 11 14 16 15 12 16 15 17 13 18 14 19
REMARK H PARENT 13 20
ROOT
ATOM      1  O   UNL     1      42.115 132.492  22.035  1.00  0.00    -0.315 OA
ATOM      2  C   UNL     1      42.972 131.603  22.281  1.00  0.00     0.084 C 
ATOM      3  N   UNL     1      43.129 130.980  23.553  1.00  0.00    -0.644 NA
ATOM      4  C   UNL     1      44.221 130.005  23.437  1.00  0.00    -0.059 C 
ATOM      5  C   UNL     1      44.657 130.131  22.009  1.00  0.00     0.032 A 
ATOM      6  N   UNL     1      45.643 129.435  21.391  1.00  0.00    -0.262 NA
ATOM      7  C   UNL     1      45.914 129.668  20.072  1.00  0.00     0.120 A 
ATOM      8  C   UNL     1      45.175 130.633  19.338  1.00  0.00     0.001 A 
ATOM      9  C   UNL     1      44.152 131.349  19.999  1.00  0.00     0.022 A 
ATOM     10  C   UNL     1      43.922 131.069  21.340  1.00  0.00     0.020 A 
ENDROOT
BRANCH   8  11
ATOM     11  C   UNL     1      45.469 130.885  17.905  1.00  0.00    -0.016 A 
ATOM     12  C   UNL     1      44.950 132.040  17.256  1.00  0.00     0.011 A 
ATOM     13  C   UNL     1      46.271 129.979  17.170  1.00  0.00     0.019 A 
ATOM     14  C   UNL     1      45.222 132.288  15.899  1.00  0.00     0.027 A 
ATOM     15  C   UNL     1      46.518 130.257  15.828  1.00  0.00    -0.000 A 
ATOM     16  C   UNL     1      46.013 131.370  15.214  1.00  0.00     0.045 A 
ATOM     17  C   UNL     1      47.246 129.562  14.887  1.00  0.00     0.028 A 
ATOM     18  N   UNL     1      46.387 131.416  13.925  1.00  0.00    -0.361 N 
ATOM     19  C   UNL     1      47.142 130.312  13.721  1.00  0.00     0.083 A 
ATOM     20  H   UNL     1      46.147 132.150  13.222  1.00  0.00     0.166 HD
ENDBRANCH   8  11
TORSDOF 1
ENDMDL


