REMARK SMILES O=C(C(=O)[C@@H]1CCc2nc(-c3ccc4[nH]ccc4c3)ncc2[C@H]1F)c1ccccc1
REMARK SMILES IDX 5 1 6 2 7 3 8 4 9 5 10 6 20 7 21 8 22 9 23 10 24 11 3 12
REMARK SMILES IDX 4 13 2 14 1 15 25 16 26 17 30 18 27 19 29 20 28 21 11 22
REMARK SMILES IDX 12 23 19 24 13 25 18 26 14 27 17 28 15 29 16 30
REMARK H PARENT 15 31
ROOT
ATOM      1  C   UNL     1      -1.227   3.691   0.267  1.00  0.00     0.104 C 
ATOM      2  C   UNL     1      -2.288   3.010  -0.615  1.00  0.00     0.022 C 
ATOM      3  C   UNL     1      -1.853   1.601  -1.041  1.00  0.00     0.057 C 
ATOM      4  C   UNL     1      -0.435   1.557  -1.543  1.00  0.00     0.051 A 
ATOM      5  N   UNL     1      -0.025   0.461  -2.236  1.00  0.00    -0.233 NA
ATOM      6  C   UNL     1       1.258   0.323  -2.665  1.00  0.00     0.159 A 
ATOM      7  N   UNL     1       2.162   1.301  -2.388  1.00  0.00    -0.236 NA
ATOM      8  C   UNL     1       1.810   2.410  -1.689  1.00  0.00     0.122 A 
ATOM      9  C   UNL     1       0.498   2.565  -1.229  1.00  0.00     0.027 A 
ATOM     10  C   UNL     1       0.099   3.834  -0.512  1.00  0.00     0.211 C 
ATOM     11  F   UNL     1      -0.033   4.844  -1.452  1.00  0.00    -0.241 F 
ENDROOT
BRANCH   1  12
ATOM     12  C   UNL     1      -1.059   2.955   1.584  1.00  0.00     0.209 C 
ATOM     13  O   UNL     1      -0.083   2.173   1.748  1.00  0.00    -0.290 OA
BRANCH  12  14
ATOM     14  C   UNL     1      -2.051   3.122   2.671  1.00  0.00     0.228 C 
ATOM     15  O   UNL     1      -2.824   4.119   2.648  1.00  0.00    -0.285 OA
BRANCH  14  16
ATOM     16  C   UNL     1      -2.156   2.161   3.795  1.00  0.00     0.026 A 
ATOM     17  C   UNL     1      -1.933   0.785   3.600  1.00  0.00     0.012 A 
ATOM     18  C   UNL     1      -2.527   2.616   5.074  1.00  0.00     0.012 A 
ATOM     19  C   UNL     1      -2.053  -0.110   4.668  1.00  0.00     0.001 A 
ATOM     20  C   UNL     1      -2.645   1.718   6.139  1.00  0.00     0.001 A 
ATOM     21  C   UNL     1      -2.405   0.357   5.937  1.00  0.00     0.000 A 
ENDBRANCH  14  16
ENDBRANCH  12  14
ENDBRANCH   1  12
BRANCH   6  22
ATOM     22  C   UNL     1       1.668  -0.883  -3.425  1.00  0.00     0.020 A 
ATOM     23  C   UNL     1       3.009  -1.031  -3.876  1.00  0.00     0.014 A 
ATOM     24  C   UNL     1       0.726  -1.903  -3.709  1.00  0.00     0.022 A 
ATOM     25  C   UNL     1       3.407  -2.172  -4.596  1.00  0.00     0.027 A 
ATOM     26  C   UNL     1       1.158  -3.018  -4.424  1.00  0.00     0.000 A 
ATOM     27  C   UNL     1       2.450  -3.148  -4.853  1.00  0.00     0.045 A 
ATOM     28  C   UNL     1       0.472  -4.140  -4.834  1.00  0.00     0.028 A 
ATOM     29  N   UNL     1       2.618  -4.303  -5.517  1.00  0.00    -0.361 N 
ATOM     30  C   UNL     1       1.411  -4.914  -5.508  1.00  0.00     0.083 A 
ATOM     31  H   UNL     1       3.498  -4.660  -5.952  1.00  0.00     0.166 HD
ENDBRANCH   6  22
TORSDOF 4


