REMARK SMILES Cc1cccc(C(=O)[N-]c2ccc(-c3ccc(C)c4n[n-]cc34)cc2C(=O)[O-])c1
REMARK SMILES IDX 9 1 7 2 8 3 6 4 2 5 3 6 29 7 4 8 5 9 1 10 10 11 11 12 25 13
REMARK SMILES IDX 12 14 24 15 13 16 26 17 27 18 28 19 14 20 15 21 23 22 16 23
REMARK SMILES IDX 22 24 19 25 17 26 21 27 20 28 18 29
REMARK H PARENT
ROOT
ATOM      1  N   UNL     1      -2.731  -1.190  -1.876  1.00  0.00    -0.622 NA
ENDROOT
BRANCH   1   2
ATOM      2  C   UNL     1      -3.574  -0.067  -2.167  1.00  0.00     0.085 C 
ATOM      3  O   UNL     1      -4.814  -0.258  -2.282  1.00  0.00    -0.315 OA
BRANCH   2   4
ATOM      4  C   UNL     1      -3.025   1.293  -2.385  1.00  0.00    -0.000 A 
ATOM      5  C   UNL     1      -3.299   3.716  -2.298  1.00  0.00    -0.050 A 
ATOM      6  C   UNL     1      -1.996   3.876  -2.791  1.00  0.00     0.003 A 
ATOM      7  C   UNL     1      -3.805   2.424  -2.087  1.00  0.00     0.013 A 
ATOM      8  C   UNL     1      -1.222   2.756  -3.104  1.00  0.00     0.001 A 
ATOM      9  C   UNL     1      -1.734   1.471  -2.911  1.00  0.00     0.010 A 
ATOM     10  C   UNL     1      -4.118   4.918  -1.929  1.00  0.00     0.044 C 
ENDBRANCH   2   4
ENDBRANCH   1   2
BRANCH   1  11
ATOM     11  C   UNL     1      -1.520  -1.165  -1.103  1.00  0.00    -0.125 A 
ATOM     12  C   UNL     1      -1.346  -0.197  -0.098  1.00  0.00    -0.015 A 
ATOM     13  C   UNL     1      -0.517  -2.146  -1.307  1.00  0.00    -0.017 A 
ATOM     14  C   UNL     1      -0.182  -0.165   0.667  1.00  0.00     0.007 A 
ATOM     15  C   UNL     1       0.651  -2.099  -0.522  1.00  0.00     0.017 A 
ATOM     16  C   UNL     1       0.832  -1.106   0.453  1.00  0.00    -0.017 A 
BRANCH  13  17
ATOM     17  C   UNL     1      -0.647  -3.217  -2.332  1.00  0.00     0.070 C 
ATOM     18  O   UNL     1      -1.654  -3.283  -3.085  1.00  0.00    -0.545 OA
ATOM     19  O   UNL     1       0.355  -4.170  -2.479  1.00  0.00    -0.545 OA
ENDBRANCH  13  17
BRANCH  16  20
ATOM     20  C   UNL     1       2.066  -1.068   1.271  1.00  0.00    -0.011 A 
ATOM     21  C   UNL     1       1.999  -0.961   2.679  1.00  0.00     0.010 A 
ATOM     22  C   UNL     1       3.345  -1.138   0.702  1.00  0.00    -0.014 A 
ATOM     23  C   UNL     1       3.176  -0.938   3.460  1.00  0.00     0.006 A 
ATOM     24  C   UNL     1       3.787  -1.207  -0.602  1.00  0.00    -0.113 A 
ATOM     25  C   UNL     1       4.484  -1.109   1.458  1.00  0.00     0.050 A 
ATOM     26  C   UNL     1       4.446  -1.001   2.850  1.00  0.00    -0.027 A 
ATOM     27  N   UNL     1       5.140  -1.230  -0.591  1.00  0.00    -0.581 NA
ATOM     28  N   UNL     1       5.569  -1.170   0.666  1.00  0.00    -0.367 NA
ATOM     29  C   UNL     1       5.705  -1.001   3.667  1.00  0.00     0.046 C 
ENDBRANCH  16  20
ENDBRANCH   1  11
TORSDOF 5


