REMARK SMILES N#C[C@H]1C[C@@H]1C(=O)N(c1ccc2cc[nH]c2c1)c1c2o[nH]cc-2cc(-n2nc3ccccc3n2)c1=O
REMARK SMILES IDX 6 1 7 2 5 3 3 4 4 5 2 6 1 7 8 8 9 9 10 10 17 11 11 12 16 13
REMARK SMILES IDX 12 14 15 15 13 16 14 17 18 19 19 20 35 21 20 22 23 23 25 24
REMARK SMILES IDX 21 25 22 26 24 27 36 28 26 30 27 31 34 32 28 33 33 34 29 35
REMARK SMILES IDX 32 36 30 37 31 38
REMARK H PARENT 15 18 21 29
ROOT
ATOM      1  C   UNL     1       1.202  -3.169  -0.275  1.00  0.00     0.236 C 
ATOM      2  O   UNL     1       1.176  -4.399  -0.553  1.00  0.00    -0.274 OA
ENDROOT
BRANCH   1   3
ATOM      3  C   UNL     1       2.446  -2.383  -0.579  1.00  0.00     0.098 C 
ATOM      4  C   UNL     1       2.209  -1.150  -1.442  1.00  0.00     0.106 C 
ATOM      5  C   UNL     1       2.854  -2.385  -2.048  1.00  0.00     0.034 C 
BRANCH   4   6
ATOM      6  C   UNL     1       3.143  -0.051  -1.169  1.00  0.00     0.066 C 
ATOM      7  N   UNL     1       3.877   0.817  -0.953  1.00  0.00    -0.198 NA
ENDBRANCH   4   6
ENDBRANCH   1   3
BRANCH   1   8
ATOM      8  N   UNL     1       0.062  -2.545   0.350  1.00  0.00    -0.273 N 
BRANCH   8   9
ATOM      9  C   UNL     1      -1.264  -3.087   0.163  1.00  0.00     0.051 A 
ATOM     10  C   UNL     1      -2.192  -3.097   1.239  1.00  0.00     0.027 A 
ATOM     11  C   UNL     1      -1.663  -3.579  -1.103  1.00  0.00     0.053 A 
ATOM     12  C   UNL     1      -3.496  -3.591   1.062  1.00  0.00     0.012 A 
ATOM     13  C   UNL     1      -2.961  -4.066  -1.241  1.00  0.00     0.047 A 
ATOM     14  C   UNL     1      -3.844  -4.070  -0.198  1.00  0.00    -0.000 A 
ATOM     15  N   UNL     1      -3.531  -4.565  -2.351  1.00  0.00    -0.361 N 
ATOM     16  C   UNL     1      -5.031  -4.593  -0.663  1.00  0.00     0.028 A 
ATOM     17  C   UNL     1      -4.797  -4.888  -2.003  1.00  0.00     0.083 A 
ATOM     18  H   UNL     1      -3.092  -4.674  -3.291  1.00  0.00     0.166 HD
ENDBRANCH   8   9
BRANCH   8  19
ATOM     19  C   UNL     1       0.245  -1.367   1.162  1.00  0.00     0.145 A 
ATOM     20  C   UNL     1       1.146  -1.361   2.218  1.00  0.00     0.192 A 
ATOM     21  C   UNL     1      -0.465  -0.164   0.905  1.00  0.00     0.234 A 
ATOM     22  O   UNL     1       1.915  -2.318   2.675  1.00  0.00    -0.380 OA
ATOM     23  C   UNL     1       1.357  -0.199   3.011  1.00  0.00     0.044 A 
ATOM     24  C   UNL     1      -0.265   1.007   1.712  1.00  0.00     0.136 A 
ATOM     25  N   UNL     1       2.609  -1.878   3.692  1.00  0.00    -0.229 N 
ATOM     26  C   UNL     1       2.300  -0.582   3.936  1.00  0.00     0.132 A 
ATOM     27  C   UNL     1       0.669   0.978   2.779  1.00  0.00     0.048 A 
ATOM     28  O   UNL     1      -1.270  -0.132  -0.065  1.00  0.00    -0.285 OA
ATOM     29  H   UNL     1       3.293  -2.454   4.230  1.00  0.00     0.208 HD
BRANCH  24  30
ATOM     30  N   UNL     1      -0.999   2.226   1.460  1.00  0.00    -0.146 N 
ATOM     31  N   UNL     1      -0.781   3.362   2.124  1.00  0.00    -0.148 NA
ATOM     32  N   UNL     1      -1.974   2.342   0.557  1.00  0.00    -0.148 NA
ATOM     33  C   UNL     1      -1.659   4.237   1.614  1.00  0.00     0.113 A 
ATOM     34  C   UNL     1      -2.390   3.612   0.655  1.00  0.00     0.113 A 
ATOM     35  C   UNL     1      -1.860   5.573   1.950  1.00  0.00     0.032 A 
ATOM     36  C   UNL     1      -3.392   4.263  -0.059  1.00  0.00     0.032 A 
ATOM     37  C   UNL     1      -2.867   6.269   1.251  1.00  0.00     0.002 A 
ATOM     38  C   UNL     1      -3.631   5.617   0.252  1.00  0.00     0.002 A 
ENDBRANCH  24  30
ENDBRANCH   8  19
ENDBRANCH   1   8
TORSDOF 6


