REMARK SMILES [O-]C(N[C@H]1Cc2ccccc2[C@@H]1O)=C1CCCC1
REMARK SMILES IDX 4 1 5 2 6 3 7 4 8 5 9 6 10 7 11 8 12 9 3 10 2 12 1 13 14 14
REMARK SMILES IDX 15 15 18 16 16 17 17 18 13 19
REMARK H PARENT 3 11 13 20
ROOT
ATOM      1  C   UNL     1       2.090   0.131   0.759  1.00  0.00     0.115 C 
ATOM      2  C   UNL     1       2.443  -0.775   1.967  1.00  0.00     0.063 C 
ATOM      3  C   UNL     1       2.266  -2.149   1.445  1.00  0.00    -0.040 A 
ATOM      4  C   UNL     1       2.345  -3.337   2.176  1.00  0.00     0.004 A 
ATOM      5  C   UNL     1       2.171  -4.556   1.502  1.00  0.00     0.000 A 
ATOM      6  C   UNL     1       1.929  -4.570   0.117  1.00  0.00     0.000 A 
ATOM      7  C   UNL     1       1.861  -3.364  -0.599  1.00  0.00     0.007 A 
ATOM      8  C   UNL     1       2.034  -2.161   0.092  1.00  0.00    -0.014 A 
ATOM      9  C   UNL     1       2.012  -0.796  -0.485  1.00  0.00     0.167 C 
ENDROOT
BRANCH   1  10
ATOM     10  N   UNL     1       0.805   0.811   0.962  1.00  0.00    -0.391 N 
ATOM     11  H   UNL     1       0.175   0.489   1.730  1.00  0.00     0.159 HD
BRANCH  10  12
ATOM     12  C   UNL     1       0.404   1.910   0.124  1.00  0.00    -0.046 C 
ATOM     13  O   UNL     1       1.286   2.386  -0.844  1.00  0.00    -0.860 OA
BRANCH  12  14
ATOM     14  C   UNL     1      -0.803   2.490   0.252  1.00  0.00    -0.062 C 
ATOM     15  C   UNL     1      -1.242   3.641  -0.585  1.00  0.00     0.032 C 
ATOM     16  C   UNL     1      -1.851   2.069   1.224  1.00  0.00     0.032 C 
ATOM     17  C   UNL     1      -2.563   4.084   0.032  1.00  0.00     0.005 C 
ATOM     18  C   UNL     1      -3.071   2.907   0.863  1.00  0.00     0.005 C 
ENDBRANCH  12  14
ENDBRANCH  10  12
ENDBRANCH   1  10
BRANCH   9  19
ATOM     19  O   UNL     1       3.134  -0.621  -1.307  1.00  0.00    -0.386 OA
ATOM     20  H   UNL     1       2.981   0.218  -1.815  1.00  0.00     0.211 HD
ENDBRANCH   9  19
TORSDOF 4


