MODEL 1
REMARK VINA RESULT:      -9.2      0.000      0.000
REMARK SMILES CC(=O)c1ccc(/C(O)=N/[C@@H]2C=CCC2)c(F)c1O
REMARK SMILES IDX 7 1 6 2 5 3 4 4 18 5 16 6 17 7 8 8 9 9 10 11 11 12 12 13
REMARK SMILES IDX 15 14 13 15 14 16 19 17 2 19 3 20 1 21
REMARK H PARENT 9 10 19 18
ROOT
ATOM      1  C   UNL     1      45.074 130.910  17.903  1.00  0.00     0.076 A 
ATOM      2  C   UNL     1      45.414 130.855  19.265  1.00  0.00     0.018 A 
ATOM      3  C   UNL     1      44.552 131.358  20.239  1.00  0.00     0.017 A 
ATOM      4  C   UNL     1      43.320 131.935  19.885  1.00  0.00     0.062 A 
ATOM      5  C   UNL     1      42.970 132.000  18.517  1.00  0.00     0.163 A 
ATOM      6  C   UNL     1      43.841 131.488  17.538  1.00  0.00     0.178 A 
ATOM      7  F   UNL     1      43.474 131.566  16.233  1.00  0.00    -0.202 F 
ENDROOT
BRANCH   1   8
ATOM      8  C   UNL     1      46.006 130.366  16.876  1.00  0.00     0.217 C 
BRANCH   8   9
ATOM      9  O   UNL     1      46.752 129.217  17.163  1.00  0.00    -0.493 OA
ATOM     10  H   UNL     1      47.395 129.149  17.939  1.00  0.00     0.295 HD
ENDBRANCH   8   9
BRANCH   8  11
ATOM     11  N   UNL     1      46.113 130.967  15.723  1.00  0.00    -0.244 NA
BRANCH  11  12
ATOM     12  C   UNL     1      46.198 130.316  14.418  1.00  0.00     0.132 C 
ATOM     13  C   UNL     1      47.365 129.394  14.406  1.00  0.00    -0.005 C 
ATOM     14  C   UNL     1      46.508 131.327  13.298  1.00  0.00     0.036 C 
ATOM     15  C   UNL     1      48.269 129.732  13.505  1.00  0.00    -0.029 C 
ATOM     16  C   UNL     1      47.884 130.946  12.742  1.00  0.00     0.029 C 
ENDBRANCH  11  12
ENDBRANCH   8  11
ENDBRANCH   1   8
BRANCH   5  17
ATOM     17  O   UNL     1      41.763 132.584  18.130  1.00  0.00    -0.504 OA
ATOM     18  H   UNL     1      40.871 132.119  18.255  1.00  0.00     0.293 HD
ENDBRANCH   5  17
BRANCH   4  19
ATOM     19  C   UNL     1      42.408 132.459  20.942  1.00  0.00     0.163 C 
ATOM     20  O   UNL     1      41.503 133.285  20.646  1.00  0.00    -0.294 OA
ATOM     21  C   UNL     1      42.508 132.001  22.367  1.00  0.00     0.093 C 
ENDBRANCH   4  19
TORSDOF 6
ENDMDL
MODEL 2
REMARK VINA RESULT:      -9.2      1.963      2.308
REMARK SMILES CC(=O)c1ccc(/C(O)=N/[C@@H]2C=CCC2)c(F)c1O
REMARK SMILES IDX 7 1 6 2 5 3 4 4 18 5 16 6 17 7 8 8 9 9 10 11 11 12 12 13
REMARK SMILES IDX 15 14 13 15 14 16 19 17 2 19 3 20 1 21
REMARK H PARENT 9 10 19 18
ROOT
ATOM      1  C   UNL     1      44.701 131.441  18.409  1.00  0.00     0.076 A 
ATOM      2  C   UNL     1      45.721 130.798  19.132  1.00  0.00     0.018 A 
ATOM      3  C   UNL     1      45.593 130.571  20.501  1.00  0.00     0.017 A 
ATOM      4  C   UNL     1      44.442 130.979  21.197  1.00  0.00     0.062 A 
ATOM      5  C   UNL     1      43.412 131.631  20.482  1.00  0.00     0.163 A 
ATOM      6  C   UNL     1      43.544 131.855  19.099  1.00  0.00     0.178 A 
ATOM      7  F   UNL     1      42.535 132.483  18.441  1.00  0.00    -0.202 F 
ENDROOT
BRANCH   1   8
ATOM      8  C   UNL     1      44.854 131.674  16.946  1.00  0.00     0.217 C 
BRANCH   8   9
ATOM      9  O   UNL     1      45.693 132.699  16.495  1.00  0.00    -0.493 OA
ATOM     10  H   UNL     1      46.610 132.538  16.101  1.00  0.00     0.295 HD
ENDBRANCH   8   9
BRANCH   8  11
ATOM     11  N   UNL     1      44.204 130.918  16.104  1.00  0.00    -0.244 NA
BRANCH  11  12
ATOM     12  C   UNL     1      44.788 130.166  14.995  1.00  0.00     0.132 C 
ATOM     13  C   UNL     1      45.980 129.424  15.482  1.00  0.00    -0.005 C 
ATOM     14  C   UNL     1      45.348 131.103  13.908  1.00  0.00     0.036 C 
ATOM     15  C   UNL     1      47.094 129.802  14.881  1.00  0.00    -0.029 C 
ATOM     16  C   UNL     1      46.862 130.872  13.878  1.00  0.00     0.029 C 
ENDBRANCH  11  12
ENDBRANCH   8  11
ENDBRANCH   1   8
BRANCH   5  17
ATOM     17  O   UNL     1      42.264 132.066  21.145  1.00  0.00    -0.504 OA
ATOM     18  H   UNL     1      41.423 132.341  20.652  1.00  0.00     0.293 HD
ENDBRANCH   5  17
BRANCH   4  19
ATOM     19  C   UNL     1      44.321 130.718  22.661  1.00  0.00     0.163 C 
ATOM     20  O   UNL     1      44.067 131.664  23.454  1.00  0.00    -0.294 OA
ATOM     21  C   UNL     1      44.454 129.336  23.229  1.00  0.00     0.093 C 
ENDBRANCH   4  19
TORSDOF 6
ENDMDL
MODEL 3
REMARK VINA RESULT:      -9.2      1.458      1.551
REMARK SMILES CC(=O)c1ccc(/C(O)=N/[C@@H]2C=CCC2)c(F)c1O
REMARK SMILES IDX 7 1 6 2 5 3 4 4 18 5 16 6 17 7 8 8 9 9 10 11 11 12 12 13
REMARK SMILES IDX 15 14 13 15 14 16 19 17 2 19 3 20 1 21
REMARK H PARENT 9 10 19 18
ROOT
ATOM      1  C   UNL     1      45.252 131.246  17.965  1.00  0.00     0.076 A 
ATOM      2  C   UNL     1      46.026 130.787  19.044  1.00  0.00     0.018 A 
ATOM      3  C   UNL     1      45.503 130.756  20.337  1.00  0.00     0.017 A 
ATOM      4  C   UNL     1      44.190 131.183  20.596  1.00  0.00     0.062 A 
ATOM      5  C   UNL     1      43.404 131.651  19.518  1.00  0.00     0.163 A 
ATOM      6  C   UNL     1      43.933 131.678  18.216  1.00  0.00     0.178 A 
ATOM      7  F   UNL     1      43.152 132.132  17.202  1.00  0.00    -0.202 F 
ENDROOT
BRANCH   1   8
ATOM      8  C   UNL     1      45.825 131.270  16.590  1.00  0.00     0.217 C 
BRANCH   8   9
ATOM      9  O   UNL     1      45.809 132.463  15.858  1.00  0.00    -0.493 OA
ATOM     10  H   UNL     1      45.380 132.552  14.947  1.00  0.00     0.295 HD
ENDBRANCH   8   9
BRANCH   8  11
ATOM     11  N   UNL     1      46.336 130.180  16.088  1.00  0.00    -0.244 NA
BRANCH  11  12
ATOM     12  C   UNL     1      46.312 129.788  14.680  1.00  0.00     0.132 C 
ATOM     13  C   UNL     1      47.614 129.166  14.324  1.00  0.00    -0.005 C 
ATOM     14  C   UNL     1      46.215 131.013  13.752  1.00  0.00     0.036 C 
ATOM     15  C   UNL     1      48.261 129.841  13.391  1.00  0.00    -0.029 C 
ATOM     16  C   UNL     1      47.517 131.046  12.946  1.00  0.00     0.029 C 
ENDBRANCH  11  12
ENDBRANCH   8  11
ENDBRANCH   1   8
BRANCH   5  17
ATOM     17  O   UNL     1      42.102 132.101  19.744  1.00  0.00    -0.504 OA
ATOM     18  H   UNL     1      41.883 132.802  20.441  1.00  0.00     0.293 HD
ENDBRANCH   5  17
BRANCH   4  19
ATOM     19  C   UNL     1      43.647 131.133  21.984  1.00  0.00     0.163 C 
ATOM     20  O   UNL     1      42.600 130.475  22.232  1.00  0.00    -0.294 OA
ATOM     21  C   UNL     1      44.336 131.821  23.125  1.00  0.00     0.093 C 
ENDBRANCH   4  19
TORSDOF 6
ENDMDL
MODEL 4
REMARK VINA RESULT:      -9.1      1.854      2.533
REMARK SMILES CC(=O)c1ccc(/C(O)=N/[C@@H]2C=CCC2)c(F)c1O
REMARK SMILES IDX 7 1 6 2 5 3 4 4 18 5 16 6 17 7 8 8 9 9 10 11 11 12 12 13
REMARK SMILES IDX 15 14 13 15 14 16 19 17 2 19 3 20 1 21
REMARK H PARENT 9 10 19 18
ROOT
ATOM      1  C   UNL     1      44.318 131.522  17.005  1.00  0.00     0.076 A 
ATOM      2  C   UNL     1      43.154 131.980  17.644  1.00  0.00     0.018 A 
ATOM      3  C   UNL     1      43.032 131.927  19.032  1.00  0.00     0.017 A 
ATOM      4  C   UNL     1      44.068 131.413  19.830  1.00  0.00     0.062 A 
ATOM      5  C   UNL     1      45.242 130.944  19.197  1.00  0.00     0.163 A 
ATOM      6  C   UNL     1      45.363 131.003  17.797  1.00  0.00     0.178 A 
ATOM      7  F   UNL     1      46.504 130.545  17.220  1.00  0.00    -0.202 F 
ENDROOT
BRANCH   1   8
ATOM      8  C   UNL     1      44.432 131.588  15.521  1.00  0.00     0.217 C 
BRANCH   8   9
ATOM      9  O   UNL     1      43.274 131.707  14.746  1.00  0.00    -0.493 OA
ATOM     10  H   UNL     1      43.101 132.478  14.115  1.00  0.00     0.295 HD
ENDBRANCH   8   9
BRANCH   8  11
ATOM     11  N   UNL     1      45.611 131.536  14.965  1.00  0.00    -0.244 NA
BRANCH  11  12
ATOM     12  C   UNL     1      46.016 130.631  13.891  1.00  0.00     0.132 C 
ATOM     13  C   UNL     1      46.537 129.371  14.482  1.00  0.00    -0.005 C 
ATOM     14  C   UNL     1      47.210 131.193  13.096  1.00  0.00     0.036 C 
ATOM     15  C   UNL     1      47.804 129.154  14.180  1.00  0.00    -0.029 C 
ATOM     16  C   UNL     1      48.377 130.229  13.331  1.00  0.00     0.029 C 
ENDBRANCH  11  12
ENDBRANCH   8  11
ENDBRANCH   1   8
BRANCH   5  17
ATOM     17  O   UNL     1      46.283 130.410  19.958  1.00  0.00    -0.504 OA
ATOM     18  H   UNL     1      46.591 130.829  20.827  1.00  0.00     0.293 HD
ENDBRANCH   5  17
BRANCH   4  19
ATOM     19  C   UNL     1      43.922 131.373  21.314  1.00  0.00     0.163 C 
ATOM     20  O   UNL     1      44.900 131.044  22.038  1.00  0.00    -0.294 OA
ATOM     21  C   UNL     1      42.638 131.754  21.989  1.00  0.00     0.093 C 
ENDBRANCH   4  19
TORSDOF 6
ENDMDL
MODEL 5
REMARK VINA RESULT:      -9.0      1.785      6.889
REMARK SMILES CC(=O)c1ccc(/C(O)=N/[C@@H]2C=CCC2)c(F)c1O
REMARK SMILES IDX 7 1 6 2 5 3 4 4 18 5 16 6 17 7 8 8 9 9 10 11 11 12 12 13
REMARK SMILES IDX 15 14 13 15 14 16 19 17 2 19 3 20 1 21
REMARK H PARENT 9 10 19 18
ROOT
ATOM      1  C   UNL     1      44.361 131.315  16.653  1.00  0.00     0.076 A 
ATOM      2  C   UNL     1      44.266 131.741  15.318  1.00  0.00     0.018 A 
ATOM      3  C   UNL     1      45.241 131.393  14.384  1.00  0.00     0.017 A 
ATOM      4  C   UNL     1      46.347 130.607  14.753  1.00  0.00     0.062 A 
ATOM      5  C   UNL     1      46.455 130.176  16.095  1.00  0.00     0.163 A 
ATOM      6  C   UNL     1      45.467 130.527  17.032  1.00  0.00     0.178 A 
ATOM      7  F   UNL     1      45.601 130.096  18.313  1.00  0.00    -0.202 F 
ENDROOT
BRANCH   1   8
ATOM      8  C   UNL     1      43.309 131.695  17.637  1.00  0.00     0.217 C 
BRANCH   8   9
ATOM      9  O   UNL     1      42.216 132.460  17.215  1.00  0.00    -0.493 OA
ATOM     10  H   UNL     1      42.095 133.436  17.449  1.00  0.00     0.295 HD
ENDBRANCH   8   9
BRANCH   8  11
ATOM     11  N   UNL     1      43.421 131.307  18.878  1.00  0.00    -0.244 NA
BRANCH  11  12
ATOM     12  C   UNL     1      43.684 132.170  20.028  1.00  0.00     0.132 C 
ATOM     13  C   UNL     1      45.057 131.907  20.532  1.00  0.00    -0.005 C 
ATOM     14  C   UNL     1      42.773 131.820  21.220  1.00  0.00     0.036 C 
ATOM     15  C   UNL     1      45.063 131.451  21.772  1.00  0.00    -0.029 C 
ATOM     16  C   UNL     1      43.696 131.318  22.334  1.00  0.00     0.029 C 
ENDBRANCH  11  12
ENDBRANCH   8  11
ENDBRANCH   1   8
BRANCH   5  17
ATOM     17  O   UNL     1      47.550 129.410  16.499  1.00  0.00    -0.504 OA
ATOM     18  H   UNL     1      48.020 129.559  17.384  1.00  0.00     0.293 HD
ENDBRANCH   5  17
BRANCH   4  19
ATOM     19  C   UNL     1      47.374 130.237  13.737  1.00  0.00     0.163 C 
ATOM     20  O   UNL     1      47.954 129.120  13.800  1.00  0.00    -0.294 OA
ATOM     21  C   UNL     1      47.722 131.151  12.599  1.00  0.00     0.093 C 
ENDBRANCH   4  19
TORSDOF 6
ENDMDL
MODEL 6
REMARK VINA RESULT:      -8.9      1.797      2.222
REMARK SMILES CC(=O)c1ccc(/C(O)=N/[C@@H]2C=CCC2)c(F)c1O
REMARK SMILES IDX 7 1 6 2 5 3 4 4 18 5 16 6 17 7 8 8 9 9 10 11 11 12 12 13
REMARK SMILES IDX 15 14 13 15 14 16 19 17 2 19 3 20 1 21
REMARK H PARENT 9 10 19 18
ROOT
ATOM      1  C   UNL     1      44.639 131.360  18.301  1.00  0.00     0.076 A 
ATOM      2  C   UNL     1      45.699 130.782  19.021  1.00  0.00     0.018 A 
ATOM      3  C   UNL     1      45.617 130.613  20.403  1.00  0.00     0.017 A 
ATOM      4  C   UNL     1      44.474 131.018  21.114  1.00  0.00     0.062 A 
ATOM      5  C   UNL     1      43.404 131.605  20.400  1.00  0.00     0.163 A 
ATOM      6  C   UNL     1      43.489 131.769  19.006  1.00  0.00     0.178 A 
ATOM      7  F   UNL     1      42.443 132.336  18.350  1.00  0.00    -0.202 F 
ENDROOT
BRANCH   1   8
ATOM      8  C   UNL     1      44.743 131.530  16.825  1.00  0.00     0.217 C 
BRANCH   8   9
ATOM      9  O   UNL     1      43.694 132.139  16.126  1.00  0.00    -0.493 OA
ATOM     10  H   UNL     1      43.618 132.133  15.118  1.00  0.00     0.295 HD
ENDBRANCH   8   9
BRANCH   8  11
ATOM     11  N   UNL     1      45.810 131.111  16.204  1.00  0.00    -0.244 NA
BRANCH  11  12
ATOM     12  C   UNL     1      45.839 130.400  14.927  1.00  0.00     0.132 C 
ATOM     13  C   UNL     1      46.901 129.361  14.969  1.00  0.00    -0.005 C 
ATOM     14  C   UNL     1      46.267 131.326  13.772  1.00  0.00     0.036 C 
ATOM     15  C   UNL     1      47.846 129.563  14.069  1.00  0.00    -0.029 C 
ATOM     16  C   UNL     1      47.600 130.779  13.252  1.00  0.00     0.029 C 
ENDBRANCH  11  12
ENDBRANCH   8  11
ENDBRANCH   1   8
BRANCH   5  17
ATOM     17  O   UNL     1      42.262 132.034  21.078  1.00  0.00    -0.504 OA
ATOM     18  H   UNL     1      41.327 131.782  20.780  1.00  0.00     0.293 HD
ENDBRANCH   5  17
BRANCH   4  19
ATOM     19  C   UNL     1      44.402 130.820  22.590  1.00  0.00     0.163 C 
ATOM     20  O   UNL     1      44.452 129.659  23.078  1.00  0.00    -0.294 OA
ATOM     21  C   UNL     1      44.308 131.980  23.536  1.00  0.00     0.093 C 
ENDBRANCH   4  19
TORSDOF 6
ENDMDL
MODEL 7
REMARK VINA RESULT:      -8.8      1.828      7.048
REMARK SMILES CC(=O)c1ccc(/C(O)=N/[C@@H]2C=CCC2)c(F)c1O
REMARK SMILES IDX 7 1 6 2 5 3 4 4 18 5 16 6 17 7 8 8 9 9 10 11 11 12 12 13
REMARK SMILES IDX 15 14 13 15 14 16 19 17 2 19 3 20 1 21
REMARK H PARENT 9 10 19 18
ROOT
ATOM      1  C   UNL     1      44.493 131.429  17.141  1.00  0.00     0.076 A 
ATOM      2  C   UNL     1      44.284 131.878  15.827  1.00  0.00     0.018 A 
ATOM      3  C   UNL     1      45.142 131.497  14.795  1.00  0.00     0.017 A 
ATOM      4  C   UNL     1      46.240 130.655  15.042  1.00  0.00     0.062 A 
ATOM      5  C   UNL     1      46.463 130.201  16.362  1.00  0.00     0.163 A 
ATOM      6  C   UNL     1      45.593 130.584  17.399  1.00  0.00     0.178 A 
ATOM      7  F   UNL     1      45.834 130.130  18.656  1.00  0.00    -0.202 F 
ENDROOT
BRANCH   1   8
ATOM      8  C   UNL     1      43.566 131.844  18.230  1.00  0.00     0.217 C 
BRANCH   8   9
ATOM      9  O   UNL     1      42.247 132.194  17.916  1.00  0.00    -0.493 OA
ATOM     10  H   UNL     1      41.866 133.118  18.061  1.00  0.00     0.295 HD
ENDBRANCH   8   9
BRANCH   8  11
ATOM     11  N   UNL     1      43.994 131.875  19.462  1.00  0.00    -0.244 NA
BRANCH  11  12
ATOM     12  C   UNL     1      43.491 131.064  20.568  1.00  0.00     0.132 C 
ATOM     13  C   UNL     1      42.559 131.881  21.389  1.00  0.00    -0.005 C 
ATOM     14  C   UNL     1      44.615 130.680  21.548  1.00  0.00     0.036 C 
ATOM     15  C   UNL     1      42.982 132.039  22.631  1.00  0.00    -0.029 C 
ATOM     16  C   UNL     1      44.278 131.360  22.879  1.00  0.00     0.029 C 
ENDBRANCH  11  12
ENDBRANCH   8  11
ENDBRANCH   1   8
BRANCH   5  17
ATOM     17  O   UNL     1      47.554 129.378  16.646  1.00  0.00    -0.504 OA
ATOM     18  H   UNL     1      47.478 128.368  16.679  1.00  0.00     0.293 HD
ENDBRANCH   5  17
BRANCH   4  19
ATOM     19  C   UNL     1      47.141 130.251  13.924  1.00  0.00     0.163 C 
ATOM     20  O   UNL     1      47.632 129.091  13.893  1.00  0.00    -0.294 OA
ATOM     21  C   UNL     1      47.458 131.184  12.793  1.00  0.00     0.093 C 
ENDBRANCH   4  19
TORSDOF 6
ENDMDL
MODEL 8
REMARK VINA RESULT:      -8.7      1.627      2.183
REMARK SMILES CC(=O)c1ccc(/C(O)=N/[C@@H]2C=CCC2)c(F)c1O
REMARK SMILES IDX 7 1 6 2 5 3 4 4 18 5 16 6 17 7 8 8 9 9 10 11 11 12 12 13
REMARK SMILES IDX 15 14 13 15 14 16 19 17 2 19 3 20 1 21
REMARK H PARENT 9 10 19 18
ROOT
ATOM      1  C   UNL     1      44.512 131.104  17.325  1.00  0.00     0.076 A 
ATOM      2  C   UNL     1      45.582 130.521  18.024  1.00  0.00     0.018 A 
ATOM      3  C   UNL     1      45.609 130.517  19.419  1.00  0.00     0.017 A 
ATOM      4  C   UNL     1      44.567 131.096  20.163  1.00  0.00     0.062 A 
ATOM      5  C   UNL     1      43.487 131.690  19.470  1.00  0.00     0.163 A 
ATOM      6  C   UNL     1      43.462 131.688  18.064  1.00  0.00     0.178 A 
ATOM      7  F   UNL     1      42.410 132.265  17.428  1.00  0.00    -0.202 F 
ENDROOT
BRANCH   1   8
ATOM      8  C   UNL     1      44.499 131.097  15.836  1.00  0.00     0.217 C 
BRANCH   8   9
ATOM      9  O   UNL     1      43.574 131.893  15.151  1.00  0.00    -0.493 OA
ATOM     10  H   UNL     1      42.674 132.154  15.531  1.00  0.00     0.295 HD
ENDBRANCH   8   9
BRANCH   8  11
ATOM     11  N   UNL     1      45.351 130.349  15.190  1.00  0.00    -0.244 NA
BRANCH  11  12
ATOM     12  C   UNL     1      46.788 130.589  15.072  1.00  0.00     0.132 C 
ATOM     13  C   UNL     1      47.032 131.570  13.983  1.00  0.00    -0.005 C 
ATOM     14  C   UNL     1      47.538 129.324  14.613  1.00  0.00     0.036 C 
ATOM     15  C   UNL     1      47.755 131.066  12.999  1.00  0.00    -0.029 C 
ATOM     16  C   UNL     1      48.130 129.650  13.238  1.00  0.00     0.029 C 
ENDBRANCH  11  12
ENDBRANCH   8  11
ENDBRANCH   1   8
BRANCH   5  17
ATOM     17  O   UNL     1      42.445 132.290  20.178  1.00  0.00    -0.504 OA
ATOM     18  H   UNL     1      42.608 132.964  20.917  1.00  0.00     0.293 HD
ENDBRANCH   5  17
BRANCH   4  19
ATOM     19  C   UNL     1      44.609 131.074  21.654  1.00  0.00     0.163 C 
ATOM     20  O   UNL     1      44.736 132.149  22.300  1.00  0.00    -0.294 OA
ATOM     21  C   UNL     1      44.466 129.797  22.427  1.00  0.00     0.093 C 
ENDBRANCH   4  19
TORSDOF 6
ENDMDL
MODEL 9
REMARK VINA RESULT:      -8.6      1.885      2.620
REMARK SMILES CC(=O)c1ccc(/C(O)=N/[C@@H]2C=CCC2)c(F)c1O
REMARK SMILES IDX 7 1 6 2 5 3 4 4 18 5 16 6 17 7 8 8 9 9 10 11 11 12 12 13
REMARK SMILES IDX 15 14 13 15 14 16 19 17 2 19 3 20 1 21
REMARK H PARENT 9 10 19 18
ROOT
ATOM      1  C   UNL     1      44.366 131.252  17.038  1.00  0.00     0.076 A 
ATOM      2  C   UNL     1      43.159 131.735  17.572  1.00  0.00     0.018 A 
ATOM      3  C   UNL     1      42.970 131.821  18.951  1.00  0.00     0.017 A 
ATOM      4  C   UNL     1      43.980 131.426  19.845  1.00  0.00     0.062 A 
ATOM      5  C   UNL     1      45.196 130.934  19.319  1.00  0.00     0.163 A 
ATOM      6  C   UNL     1      45.384 130.853  17.928  1.00  0.00     0.178 A 
ATOM      7  F   UNL     1      46.565 130.376  17.455  1.00  0.00    -0.202 F 
ENDROOT
BRANCH   1   8
ATOM      8  C   UNL     1      44.552 131.170  15.563  1.00  0.00     0.217 C 
BRANCH   8   9
ATOM      9  O   UNL     1      43.769 131.971  14.724  1.00  0.00    -0.493 OA
ATOM     10  H   UNL     1      43.801 131.920  13.715  1.00  0.00     0.295 HD
ENDBRANCH   8   9
BRANCH   8  11
ATOM     11  N   UNL     1      45.443 130.352  15.073  1.00  0.00    -0.244 NA
BRANCH  11  12
ATOM     12  C   UNL     1      46.869 130.628  14.917  1.00  0.00     0.132 C 
ATOM     13  C   UNL     1      47.071 131.515  13.742  1.00  0.00    -0.005 C 
ATOM     14  C   UNL     1      47.658 129.353  14.564  1.00  0.00     0.036 C 
ATOM     15  C   UNL     1      47.802 130.950  12.799  1.00  0.00    -0.029 C 
ATOM     16  C   UNL     1      48.227 129.574  13.159  1.00  0.00     0.029 C 
ENDBRANCH  11  12
ENDBRANCH   8  11
ENDBRANCH   1   8
BRANCH   5  17
ATOM     17  O   UNL     1      46.213 130.515  20.179  1.00  0.00    -0.504 OA
ATOM     18  H   UNL     1      46.545 131.088  20.946  1.00  0.00     0.293 HD
ENDBRANCH   5  17
BRANCH   4  19
ATOM     19  C   UNL     1      43.761 131.534  21.316  1.00  0.00     0.163 C 
ATOM     20  O   UNL     1      44.668 131.184  22.119  1.00  0.00    -0.294 OA
ATOM     21  C   UNL     1      42.490 132.090  21.885  1.00  0.00     0.093 C 
ENDBRANCH   4  19
TORSDOF 6
ENDMDL


