REMARK SMILES C=C[C@@H]1CN[C@H](c2ccc3nc[nH+]n3c2)/[N+](=C(\O)C[C@H]2C[C@@H](C)C2)C1
REMARK SMILES IDX 17 1 18 2 16 4 25 5 6 6 3 7 5 8 4 9 7 11 8 12 15 13 9 14
REMARK SMILES IDX 14 15 10 16 13 17 11 18 12 19 2 21 1 22 19 23 20 24 24 25
REMARK SMILES IDX 21 26 22 27 23 28
REMARK H PARENT 18 3 5 10 13 20
ROOT
ATOM      1  C   UNL     1       0.717  -1.074   0.210  1.00  0.00     0.335 C 
ENDROOT
BRANCH   1   2
ATOM      2  O   UNL     1       0.993  -0.851   1.564  1.00  0.00    -0.463 OA
ATOM      3  H   UNL     1       1.931  -0.675   1.902  1.00  0.00     0.299 HD
ENDBRANCH   1   2
BRANCH   1   4
ATOM      4  N   UNL     1      -0.528  -1.313  -0.172  1.00  0.00    -0.181 N 
ATOM      5  C   UNL     1      -0.840  -1.585  -1.599  1.00  0.00     0.365 C 
ATOM      6  C   UNL     1      -1.604  -1.152   0.853  1.00  0.00     0.370 C 
ATOM      7  C   UNL     1      -2.243  -2.160  -1.834  1.00  0.00     0.091 C 
ATOM      8  N   UNL     1      -2.894  -1.753   0.474  1.00  0.00    -0.254 NA
ATOM      9  C   UNL     1      -3.257  -1.493  -0.915  1.00  0.00     0.102 C 
ATOM     10  H   UNL     1      -2.850  -2.788   0.631  1.00  0.00     0.129 HD
BRANCH   6  11
ATOM     11  C   UNL     1      -1.813   0.305   1.228  1.00  0.00     0.056 A 
ATOM     12  C   UNL     1      -1.616   1.359   0.296  1.00  0.00     0.020 A 
ATOM     13  C   UNL     1      -2.257   0.631   2.526  1.00  0.00     0.150 A 
ATOM     14  C   UNL     1      -1.833   2.696   0.666  1.00  0.00     0.080 A 
ATOM     15  N   UNL     1      -2.451   1.938   2.829  1.00  0.00    -0.151 N 
ATOM     16  C   UNL     1      -2.256   2.941   1.967  1.00  0.00     0.282 A 
ATOM     17  N   UNL     1      -2.850   2.455   3.971  1.00  0.00    -0.166 N 
ATOM     18  N   UNL     1      -2.521   4.143   2.518  1.00  0.00    -0.025 NA
ATOM     19  C   UNL     1      -2.890   3.792   3.779  1.00  0.00     0.472 A 
ATOM     20  H   UNL     1      -3.083   1.925   4.840  1.00  0.00     0.340 HD
ENDBRANCH   6  11
BRANCH   7  21
ATOM     21  C   UNL     1      -2.655  -2.065  -3.288  1.00  0.00    -0.024 C 
ATOM     22  C   UNL     1      -2.843  -0.900  -3.919  1.00  0.00     0.004 C 
ENDBRANCH   7  21
ENDBRANCH   1   4
BRANCH   1  23
ATOM     23  C   UNL     1       1.887  -0.963  -0.753  1.00  0.00     0.156 C 
BRANCH  23  24
ATOM     24  C   UNL     1       1.960   0.443  -1.383  1.00  0.00     0.003 C 
ATOM     25  C   UNL     1       2.435   1.543  -0.431  1.00  0.00     0.007 C 
ATOM     26  C   UNL     1       3.202   0.654  -2.249  1.00  0.00     0.007 C 
ATOM     27  C   UNL     1       3.668   1.764  -1.306  1.00  0.00    -0.014 C 
ATOM     28  C   UNL     1       4.989   1.451  -0.596  1.00  0.00     0.007 C 
ENDBRANCH  23  24
ENDBRANCH   1  23
TORSDOF 6


