REMARK SMILES C=C(C)C(=O)Oc1c([NH2+]N)cc(C)cc1-n1nc2ccccc2[nH+]1
REMARK SMILES IDX 7 1 8 2 11 3 12 4 13 5 14 6 15 7 6 8 4 9 5 10 2 11 1 12 3 13
REMARK SMILES IDX 9 14 10 17 16 20 17 21 24 22 18 23 23 24 19 25 22 26 20 27
REMARK SMILES IDX 21 28
REMARK H PARENT 9 15 9 16 10 18 10 19 24 29
ROOT
ATOM      1  C   UNL     1      -1.483   0.083  -0.402  1.00  0.00     0.224 A 
ATOM      2  C   UNL     1      -2.645   0.778  -0.810  1.00  0.00     0.194 A 
ATOM      3  C   UNL     1      -3.611   0.109  -1.579  1.00  0.00     0.077 A 
ATOM      4  C   UNL     1      -3.435  -1.230  -1.944  1.00  0.00    -0.042 A 
ATOM      5  C   UNL     1      -4.500  -1.946  -2.722  1.00  0.00     0.044 C 
ATOM      6  C   UNL     1      -2.288  -1.915  -1.526  1.00  0.00     0.042 A 
ATOM      7  C   UNL     1      -1.298  -1.268  -0.769  1.00  0.00     0.177 A 
ENDROOT
BRANCH   1   8
ATOM      8  O   UNL     1      -0.491   0.745   0.328  1.00  0.00    -0.414 OA
BRANCH   8   9
ATOM      9  C   UNL     1      -0.598   0.993   1.702  1.00  0.00     0.338 C 
ATOM     10  O   UNL     1      -1.619   0.609   2.337  1.00  0.00    -0.246 OA
BRANCH   9  11
ATOM     11  C   UNL     1       0.506   1.686   2.401  1.00  0.00     0.027 C 
ATOM     12  C   UNL     1       0.459   1.899   3.722  1.00  0.00     0.020 C 
ATOM     13  C   UNL     1       1.728   2.084   1.620  1.00  0.00     0.051 C 
ENDBRANCH   9  11
ENDBRANCH   8   9
ENDBRANCH   1   8
BRANCH   2  14
ATOM     14  N   UNL     1      -2.812   2.180  -0.512  1.00  0.00    -0.236 N 
ATOM     15  H   UNL     1      -2.582   2.366   0.490  1.00  0.00     0.376 HD
ATOM     16  H   UNL     1      -3.796   2.495  -0.684  1.00  0.00     0.376 HD
BRANCH  14  17
ATOM     17  N   UNL     1      -1.935   2.922  -1.330  1.00  0.00    -0.178 NA
ATOM     18  H   UNL     1      -1.968   3.920  -1.015  1.00  0.00     0.183 HD
ATOM     19  H   UNL     1      -2.305   2.909  -2.310  1.00  0.00     0.183 HD
ENDBRANCH  14  17
ENDBRANCH   2  14
BRANCH   7  20
ATOM     20  N   UNL     1      -0.113  -1.987  -0.372  1.00  0.00    -0.009 N 
ATOM     21  N   UNL     1       0.571  -1.732   0.744  1.00  0.00     0.054 NA
ATOM     22  N   UNL     1       0.431  -2.982  -1.072  1.00  0.00    -0.161 N 
ATOM     23  C   UNL     1       1.591  -2.607   0.739  1.00  0.00     0.249 A 
ATOM     24  C   UNL     1       1.506  -3.378  -0.379  1.00  0.00     0.198 A 
ATOM     25  C   UNL     1       2.613  -2.762   1.670  1.00  0.00     0.064 A 
ATOM     26  C   UNL     1       2.436  -4.371  -0.673  1.00  0.00     0.058 A 
ATOM     27  C   UNL     1       3.575  -3.760   1.413  1.00  0.00     0.005 A 
ATOM     28  C   UNL     1       3.486  -4.561   0.247  1.00  0.00     0.005 A 
ATOM     29  H   UNL     1       0.100  -3.350  -1.992  1.00  0.00     0.340 HD
ENDBRANCH   7  20
TORSDOF 6


