REMARK SMILES c1nc2cc(-c3ncc([C@H]4CO4)c[nH+]3)c[nH+]c2o1
REMARK SMILES IDX 1 1 2 2 3 3 4 4 5 5 15 6 16 7 17 8 18 9 6 11 7 12 14 13 8 14
REMARK SMILES IDX 13 15 9 16 10 18 11 19 12 20
REMARK H PARENT 16 10 14 17
ROOT
ATOM      1  C   UNL     1      -0.849   4.406   2.609  1.00  0.00     0.316 A 
ATOM      2  N   UNL     1      -0.534   3.140   2.999  1.00  0.00    -0.209 NA
ATOM      3  C   UNL     1      -0.799   2.431   1.889  1.00  0.00     0.180 A 
ATOM      4  C   UNL     1      -0.674   1.064   1.681  1.00  0.00     0.062 A 
ATOM      5  C   UNL     1      -1.026   0.560   0.404  1.00  0.00     0.134 A 
ATOM      6  C   UNL     1      -1.499   1.470  -0.584  1.00  0.00     0.326 A 
ATOM      7  N   UNL     1      -1.599   2.808  -0.316  1.00  0.00    -0.177 N 
ATOM      8  C   UNL     1      -1.246   3.253   0.913  1.00  0.00     0.399 A 
ATOM      9  O   UNL     1      -1.277   4.479   1.357  1.00  0.00    -0.391 OA
ATOM     10  H   UNL     1      -1.943   3.472  -1.044  1.00  0.00     0.457 HD
ENDROOT
BRANCH   5  11
ATOM     11  C   UNL     1      -0.933  -0.889   0.096  1.00  0.00     0.334 A 
ATOM     12  N   UNL     1      -1.761  -1.424  -0.843  1.00  0.00    -0.049 NA
ATOM     13  N   UNL     1      -0.028  -1.694   0.729  1.00  0.00    -0.243 N 
ATOM     14  C   UNL     1      -1.713  -2.743  -1.161  1.00  0.00     0.264 A 
ATOM     15  C   UNL     1       0.048  -3.021   0.440  1.00  0.00     0.208 A 
ATOM     16  C   UNL     1      -0.791  -3.579  -0.528  1.00  0.00     0.066 A 
ATOM     17  H   UNL     1       0.641  -1.306   1.429  1.00  0.00     0.312 HD
BRANCH  16  18
ATOM     18  C   UNL     1      -0.748  -5.046  -0.837  1.00  0.00     0.181 C 
ATOM     19  C   UNL     1      -0.340  -5.410  -2.214  1.00  0.00     0.198 C 
ATOM     20  O   UNL     1       0.561  -5.478  -1.133  1.00  0.00    -0.368 OA
ENDBRANCH  16  18
ENDBRANCH   5  11
TORSDOF 2


