REMARK SMILES O=C([N-][C@H]1CC12CCC2)c1ccc(C(=O)N[C@@H]2C=CCC2)c(F)c1[O-]
REMARK SMILES IDX 10 1 11 2 12 3 13 4 22 5 23 6 24 7 25 8 2 9 1 10 3 11 4 12
REMARK SMILES IDX 5 13 6 14 7 15 9 16 8 17 14 18 16 19 15 20 17 22 18 23 21 24
REMARK SMILES IDX 19 25 20 26
REMARK H PARENT 16 21
ROOT
ATOM      1  C   UNL     1       0.965   0.076   0.874  1.00  0.00    -0.006 A 
ATOM      2  C   UNL     1       0.761   0.206  -0.512  1.00  0.00     0.010 A 
ATOM      3  C   UNL     1      -0.525   0.356  -1.034  1.00  0.00     0.017 A 
ATOM      4  C   UNL     1      -1.641   0.391  -0.187  1.00  0.00     0.074 A 
ATOM      5  C   UNL     1      -1.450   0.243   1.199  1.00  0.00     0.128 A 
ATOM      6  F   UNL     1      -2.513   0.196   2.043  1.00  0.00    -0.207 F 
ATOM      7  C   UNL     1      -0.161   0.090   1.727  1.00  0.00    -0.062 A 
ATOM      8  O   UNL     1      -0.019  -0.053   3.104  1.00  0.00    -0.870 OA
ENDROOT
BRANCH   1   9
ATOM      9  C   UNL     1       2.347  -0.082   1.400  1.00  0.00     0.082 C 
ATOM     10  O   UNL     1       2.551  -0.231   2.636  1.00  0.00    -0.315 OA
BRANCH   9  11
ATOM     11  N   UNL     1       3.462  -0.068   0.503  1.00  0.00    -0.646 NA
BRANCH  11  12
ATOM     12  C   UNL     1       4.835  -0.237   0.957  1.00  0.00    -0.100 C 
ATOM     13  C   UNL     1       5.304  -1.696   0.976  1.00  0.00    -0.010 C 
ATOM     14  C   UNL     1       5.745  -0.746  -0.132  1.00  0.00    -0.044 C 
ATOM     15  C   UNL     1       7.221  -0.559  -0.327  1.00  0.00     0.006 C 
ATOM     16  C   UNL     1       5.470  -1.165  -1.548  1.00  0.00     0.006 C 
ATOM     17  C   UNL     1       6.983  -0.984  -1.792  1.00  0.00     0.001 C 
ENDBRANCH  11  12
ENDBRANCH   9  11
ENDBRANCH   1   9
BRANCH   4  18
ATOM     18  C   UNL     1      -2.993   0.556  -0.766  1.00  0.00     0.254 C 
ATOM     19  N   UNL     1      -4.009   1.297  -0.073  1.00  0.00    -0.346 N 
ATOM     20  O   UNL     1      -3.245   0.059  -1.898  1.00  0.00    -0.269 OA
ATOM     21  H   UNL     1      -3.732   1.889   0.744  1.00  0.00     0.164 HD
BRANCH  19  22
ATOM     22  C   UNL     1      -5.401   1.312  -0.532  1.00  0.00     0.105 C 
ATOM     23  C   UNL     1      -6.209   2.291   0.247  1.00  0.00    -0.007 C 
ATOM     24  C   UNL     1      -6.090  -0.038  -0.272  1.00  0.00     0.033 C 
ATOM     25  C   UNL     1      -7.246   1.729   0.841  1.00  0.00    -0.029 C 
ATOM     26  C   UNL     1      -7.327   0.269   0.579  1.00  0.00     0.029 C 
ENDBRANCH  19  22
ENDBRANCH   4  18
TORSDOF 5


