MODEL 1
REMARK VINA RESULT:      -7.6      0.000      0.000
REMARK SMILES O=C([N-][C@H]1CC12CCC2)c1ccc(C(=O)N[C@@H]2C=CCC2)c(F)c1O
REMARK SMILES IDX 10 1 11 2 12 3 13 4 22 5 23 6 24 7 2 8 1 9 3 10 4 11 5 12
REMARK SMILES IDX 6 13 7 14 9 15 8 16 25 17 14 19 16 20 15 21 17 23 18 24
REMARK SMILES IDX 21 25 19 26 20 27
REMARK H PARENT 25 18 16 22
ROOT
ATOM      1  C   UNL     1      44.683 131.484  20.365  1.00  0.00     0.044 A 
ATOM      2  C   UNL     1      45.785 130.786  19.836  1.00  0.00     0.015 A 
ATOM      3  C   UNL     1      45.872 130.513  18.471  1.00  0.00     0.018 A 
ATOM      4  C   UNL     1      44.868 130.939  17.592  1.00  0.00     0.079 A 
ATOM      5  C   UNL     1      43.751 131.622  18.108  1.00  0.00     0.178 A 
ATOM      6  F   UNL     1      42.729 131.978  17.287  1.00  0.00    -0.202 F 
ATOM      7  C   UNL     1      43.656 131.900  19.484  1.00  0.00     0.161 A 
ENDROOT
BRANCH   1   8
ATOM      8  C   UNL     1      44.634 131.759  21.828  1.00  0.00     0.086 C 
ATOM      9  O   UNL     1      45.508 132.499  22.358  1.00  0.00    -0.315 OA
BRANCH   8  10
ATOM     10  N   UNL     1      43.604 131.200  22.646  1.00  0.00    -0.646 NA
BRANCH  10  11
ATOM     11  C   UNL     1      43.880 130.530  23.909  1.00  0.00    -0.100 C 
ATOM     12  C   UNL     1      42.644 129.892  24.553  1.00  0.00    -0.010 C 
ATOM     13  C   UNL     1      43.677 129.038  23.827  1.00  0.00    -0.044 C 
ATOM     14  C   UNL     1      43.186 128.160  22.713  1.00  0.00     0.006 C 
ATOM     15  C   UNL     1      44.322 127.928  24.605  1.00  0.00     0.006 C 
ATOM     16  C   UNL     1      43.836 126.989  23.480  1.00  0.00     0.001 C 
ENDBRANCH  10  11
ENDBRANCH   8  10
ENDBRANCH   1   8
BRANCH   7  17
ATOM     17  O   UNL     1      42.539 132.583  19.969  1.00  0.00    -0.504 OA
ATOM     18  H   UNL     1      42.299 133.518  19.662  1.00  0.00     0.293 HD
ENDBRANCH   7  17
BRANCH   4  19
ATOM     19  C   UNL     1      44.988 130.641  16.147  1.00  0.00     0.254 C 
ATOM     20  N   UNL     1      46.069 129.838  15.647  1.00  0.00    -0.346 N 
ATOM     21  O   UNL     1      44.117 131.083  15.350  1.00  0.00    -0.269 OA
ATOM     22  H   UNL     1      46.648 129.294  16.327  1.00  0.00     0.164 HD
BRANCH  20  23
ATOM     23  C   UNL     1      46.328 129.702  14.211  1.00  0.00     0.105 C 
ATOM     24  C   UNL     1      47.684 129.132  13.970  1.00  0.00    -0.007 C 
ATOM     25  C   UNL     1      46.370 131.077  13.521  1.00  0.00     0.033 C 
ATOM     26  C   UNL     1      48.467 129.959  13.300  1.00  0.00    -0.029 C 
ATOM     27  C   UNL     1      47.790 131.238  12.967  1.00  0.00     0.029 C 
ENDBRANCH  20  23
ENDBRANCH   4  19
TORSDOF 6
ENDMDL
MODEL 2
REMARK VINA RESULT:      -7.3      1.315      1.787
REMARK SMILES O=C([N-][C@H]1CC12CCC2)c1ccc(C(=O)N[C@@H]2C=CCC2)c(F)c1O
REMARK SMILES IDX 10 1 11 2 12 3 13 4 22 5 23 6 24 7 2 8 1 9 3 10 4 11 5 12
REMARK SMILES IDX 6 13 7 14 9 15 8 16 25 17 14 19 16 20 15 21 17 23 18 24
REMARK SMILES IDX 21 25 19 26 20 27
REMARK H PARENT 25 18 16 22
ROOT
ATOM      1  C   UNL     1      43.475 131.439  20.155  1.00  0.00     0.044 A 
ATOM      2  C   UNL     1      42.551 131.755  19.142  1.00  0.00     0.015 A 
ATOM      3  C   UNL     1      42.891 131.622  17.796  1.00  0.00     0.018 A 
ATOM      4  C   UNL     1      44.159 131.161  17.421  1.00  0.00     0.079 A 
ATOM      5  C   UNL     1      45.100 130.859  18.423  1.00  0.00     0.178 A 
ATOM      6  F   UNL     1      46.361 130.483  18.084  1.00  0.00    -0.202 F 
ATOM      7  C   UNL     1      44.765 130.991  19.783  1.00  0.00     0.161 A 
ENDROOT
BRANCH   1   8
ATOM      8  C   UNL     1      43.068 131.590  21.580  1.00  0.00     0.086 C 
ATOM      9  O   UNL     1      42.748 132.726  22.025  1.00  0.00    -0.315 OA
BRANCH   8  10
ATOM     10  N   UNL     1      43.029 130.461  22.456  1.00  0.00    -0.646 NA
BRANCH  10  11
ATOM     11  C   UNL     1      44.217 129.932  23.110  1.00  0.00    -0.100 C 
ATOM     12  C   UNL     1      44.039 129.689  24.613  1.00  0.00    -0.010 C 
ATOM     13  C   UNL     1      44.016 128.529  23.625  1.00  0.00    -0.044 C 
ATOM     14  C   UNL     1      42.808 127.637  23.636  1.00  0.00     0.006 C 
ATOM     15  C   UNL     1      45.007 127.422  23.838  1.00  0.00     0.006 C 
ATOM     16  C   UNL     1      43.794 126.469  23.855  1.00  0.00     0.001 C 
ENDBRANCH  10  11
ENDBRANCH   8  10
ENDBRANCH   1   8
BRANCH   7  17
ATOM     17  O   UNL     1      45.717 130.681  20.756  1.00  0.00    -0.504 OA
ATOM     18  H   UNL     1      45.647 131.015  21.710  1.00  0.00     0.293 HD
ENDBRANCH   7  17
BRANCH   4  19
ATOM     19  C   UNL     1      44.492 131.024  15.985  1.00  0.00     0.254 C 
ATOM     20  N   UNL     1      45.453 130.055  15.540  1.00  0.00    -0.346 N 
ATOM     21  O   UNL     1      43.906 131.756  15.142  1.00  0.00    -0.269 OA
ATOM     22  H   UNL     1      45.761 129.309  16.205  1.00  0.00     0.164 HD
BRANCH  20  23
ATOM     23  C   UNL     1      45.952 130.040  14.163  1.00  0.00     0.105 C 
ATOM     24  C   UNL     1      47.207 129.242  14.062  1.00  0.00    -0.007 C 
ATOM     25  C   UNL     1      46.366 131.451  13.705  1.00  0.00     0.033 C 
ATOM     26  C   UNL     1      48.236 129.969  13.664  1.00  0.00    -0.029 C 
ATOM     27  C   UNL     1      47.870 131.387  13.423  1.00  0.00     0.029 C 
ENDBRANCH  20  23
ENDBRANCH   4  19
TORSDOF 6
ENDMDL
MODEL 3
REMARK VINA RESULT:      -7.2      1.349      1.464
REMARK SMILES O=C([N-][C@H]1CC12CCC2)c1ccc(C(=O)N[C@@H]2C=CCC2)c(F)c1O
REMARK SMILES IDX 10 1 11 2 12 3 13 4 22 5 23 6 24 7 2 8 1 9 3 10 4 11 5 12
REMARK SMILES IDX 6 13 7 14 9 15 8 16 25 17 14 19 16 20 15 21 17 23 18 24
REMARK SMILES IDX 21 25 19 26 20 27
REMARK H PARENT 25 18 16 22
ROOT
ATOM      1  C   UNL     1      43.250 131.858  20.199  1.00  0.00     0.044 A 
ATOM      2  C   UNL     1      44.576 131.391  20.145  1.00  0.00     0.015 A 
ATOM      3  C   UNL     1      45.213 131.181  18.922  1.00  0.00     0.018 A 
ATOM      4  C   UNL     1      44.548 131.442  17.717  1.00  0.00     0.079 A 
ATOM      5  C   UNL     1      43.215 131.892  17.754  1.00  0.00     0.178 A 
ATOM      6  F   UNL     1      42.525 132.078  16.600  1.00  0.00    -0.202 F 
ATOM      7  C   UNL     1      42.566 132.104  18.985  1.00  0.00     0.161 A 
ENDROOT
BRANCH   1   8
ATOM      8  C   UNL     1      42.611 132.073  21.527  1.00  0.00     0.086 C 
ATOM      9  O   UNL     1      41.721 132.958  21.661  1.00  0.00    -0.315 OA
BRANCH   8  10
ATOM     10  N   UNL     1      42.988 131.287  22.660  1.00  0.00    -0.646 NA
BRANCH  10  11
ATOM     11  C   UNL     1      44.188 130.463  22.681  1.00  0.00    -0.100 C 
ATOM     12  C   UNL     1      44.639 130.063  24.090  1.00  0.00    -0.010 C 
ATOM     13  C   UNL     1      43.921 129.068  23.187  1.00  0.00    -0.044 C 
ATOM     14  C   UNL     1      42.674 128.426  23.724  1.00  0.00     0.006 C 
ATOM     15  C   UNL     1      44.625 127.776  22.889  1.00  0.00     0.006 C 
ATOM     16  C   UNL     1      43.362 127.075  23.432  1.00  0.00     0.001 C 
ENDBRANCH  10  11
ENDBRANCH   8  10
ENDBRANCH   1   8
BRANCH   7  17
ATOM     17  O   UNL     1      41.244 132.554  18.993  1.00  0.00    -0.504 OA
ATOM     18  H   UNL     1      40.467 131.953  19.240  1.00  0.00     0.293 HD
ENDBRANCH   7  17
BRANCH   4  19
ATOM     19  C   UNL     1      45.249 131.217  16.433  1.00  0.00     0.254 C 
ATOM     20  N   UNL     1      44.776 130.235  15.497  1.00  0.00    -0.346 N 
ATOM     21  O   UNL     1      46.262 131.912  16.150  1.00  0.00    -0.269 OA
ATOM     22  H   UNL     1      43.821 129.829  15.633  1.00  0.00     0.164 HD
BRANCH  20  23
ATOM     23  C   UNL     1      45.563 129.847  14.324  1.00  0.00     0.105 C 
ATOM     24  C   UNL     1      46.829 129.177  14.733  1.00  0.00    -0.007 C 
ATOM     25  C   UNL     1      46.030 131.082  13.533  1.00  0.00     0.033 C 
ATOM     26  C   UNL     1      47.902 129.839  14.337  1.00  0.00    -0.029 C 
ATOM     27  C   UNL     1      47.561 131.076  13.589  1.00  0.00     0.029 C 
ENDBRANCH  20  23
ENDBRANCH   4  19
TORSDOF 6
ENDMDL
MODEL 4
REMARK VINA RESULT:      -7.1      1.305      1.599
REMARK SMILES O=C([N-][C@H]1CC12CCC2)c1ccc(C(=O)N[C@@H]2C=CCC2)c(F)c1O
REMARK SMILES IDX 10 1 11 2 12 3 13 4 22 5 23 6 24 7 2 8 1 9 3 10 4 11 5 12
REMARK SMILES IDX 6 13 7 14 9 15 8 16 25 17 14 19 16 20 15 21 17 23 18 24
REMARK SMILES IDX 21 25 19 26 20 27
REMARK H PARENT 25 18 16 22
ROOT
ATOM      1  C   UNL     1      43.874 131.376  21.315  1.00  0.00     0.044 A 
ATOM      2  C   UNL     1      45.057 130.972  20.667  1.00  0.00     0.015 A 
ATOM      3  C   UNL     1      45.167 131.026  19.278  1.00  0.00     0.018 A 
ATOM      4  C   UNL     1      44.104 131.495  18.495  1.00  0.00     0.079 A 
ATOM      5  C   UNL     1      42.908 131.885  19.127  1.00  0.00     0.178 A 
ATOM      6  F   UNL     1      41.838 132.271  18.385  1.00  0.00    -0.202 F 
ATOM      7  C   UNL     1      42.790 131.832  20.528  1.00  0.00     0.161 A 
ENDROOT
BRANCH   1   8
ATOM      8  C   UNL     1      43.803 131.307  22.801  1.00  0.00     0.086 C 
ATOM      9  O   UNL     1      43.250 132.239  23.447  1.00  0.00    -0.315 OA
BRANCH   8  10
ATOM     10  N   UNL     1      44.349 130.194  23.512  1.00  0.00    -0.646 NA
BRANCH  10  11
ATOM     11  C   UNL     1      43.533 129.304  24.327  1.00  0.00    -0.100 C 
ATOM     12  C   UNL     1      42.344 128.695  23.575  1.00  0.00    -0.010 C 
ATOM     13  C   UNL     1      43.596 127.873  23.857  1.00  0.00    -0.044 C 
ATOM     14  C   UNL     1      44.285 127.240  22.682  1.00  0.00     0.006 C 
ATOM     15  C   UNL     1      43.422 126.593  24.622  1.00  0.00     0.006 C 
ATOM     16  C   UNL     1      44.127 125.902  23.435  1.00  0.00     0.001 C 
ENDBRANCH  10  11
ENDBRANCH   8  10
ENDBRANCH   1   8
BRANCH   7  17
ATOM     17  O   UNL     1      41.594 132.228  21.129  1.00  0.00    -0.504 OA
ATOM     18  H   UNL     1      40.885 131.565  21.418  1.00  0.00     0.293 HD
ENDBRANCH   7  17
BRANCH   4  19
ATOM     19  C   UNL     1      44.249 131.548  17.023  1.00  0.00     0.254 C 
ATOM     20  N   UNL     1      45.547 131.526  16.408  1.00  0.00    -0.346 N 
ATOM     21  O   UNL     1      43.216 131.591  16.300  1.00  0.00    -0.269 OA
ATOM     22  H   UNL     1      46.375 131.264  16.991  1.00  0.00     0.164 HD
BRANCH  20  23
ATOM     23  C   UNL     1      45.727 131.786  14.978  1.00  0.00     0.105 C 
ATOM     24  C   UNL     1      45.442 130.561  14.177  1.00  0.00    -0.007 C 
ATOM     25  C   UNL     1      47.194 132.116  14.651  1.00  0.00     0.033 C 
ATOM     26  C   UNL     1      46.498 130.145  13.499  1.00  0.00    -0.029 C 
ATOM     27  C   UNL     1      47.687 131.008  13.715  1.00  0.00     0.029 C 
ENDBRANCH  20  23
ENDBRANCH   4  19
TORSDOF 6
ENDMDL
MODEL 5
REMARK VINA RESULT:      -7.0      0.802      1.146
REMARK SMILES O=C([N-][C@H]1CC12CCC2)c1ccc(C(=O)N[C@@H]2C=CCC2)c(F)c1O
REMARK SMILES IDX 10 1 11 2 12 3 13 4 22 5 23 6 24 7 2 8 1 9 3 10 4 11 5 12
REMARK SMILES IDX 6 13 7 14 9 15 8 16 25 17 14 19 16 20 15 21 17 23 18 24
REMARK SMILES IDX 21 25 19 26 20 27
REMARK H PARENT 25 18 16 22
ROOT
ATOM      1  C   UNL     1      44.933 131.318  20.635  1.00  0.00     0.044 A 
ATOM      2  C   UNL     1      45.968 130.504  20.138  1.00  0.00     0.015 A 
ATOM      3  C   UNL     1      46.026 130.165  18.786  1.00  0.00     0.018 A 
ATOM      4  C   UNL     1      45.059 130.637  17.889  1.00  0.00     0.079 A 
ATOM      5  C   UNL     1      44.007 131.436  18.375  1.00  0.00     0.178 A 
ATOM      6  F   UNL     1      43.017 131.843  17.539  1.00  0.00    -0.202 F 
ATOM      7  C   UNL     1      43.942 131.781  19.737  1.00  0.00     0.161 A 
ENDROOT
BRANCH   1   8
ATOM      8  C   UNL     1      44.913 131.660  22.085  1.00  0.00     0.086 C 
ATOM      9  O   UNL     1      45.473 132.717  22.488  1.00  0.00    -0.315 OA
BRANCH   8  10
ATOM     10  N   UNL     1      44.263 130.810  23.032  1.00  0.00    -0.646 NA
BRANCH  10  11
ATOM     11  C   UNL     1      44.284 129.358  22.928  1.00  0.00    -0.100 C 
ATOM     12  C   UNL     1      44.456 128.645  24.274  1.00  0.00    -0.010 C 
ATOM     13  C   UNL     1      43.094 128.715  23.595  1.00  0.00    -0.044 C 
ATOM     14  C   UNL     1      41.958 129.301  24.384  1.00  0.00     0.006 C 
ATOM     15  C   UNL     1      42.402 127.415  23.301  1.00  0.00     0.006 C 
ATOM     16  C   UNL     1      41.211 127.979  24.105  1.00  0.00     0.001 C 
ENDBRANCH  10  11
ENDBRANCH   8  10
ENDBRANCH   1   8
BRANCH   7  17
ATOM     17  O   UNL     1      42.890 132.579  20.192  1.00  0.00    -0.504 OA
ATOM     18  H   UNL     1      42.992 133.575  20.349  1.00  0.00     0.293 HD
ENDBRANCH   7  17
BRANCH   4  19
ATOM     19  C   UNL     1      45.147 130.266  16.459  1.00  0.00     0.254 C 
ATOM     20  N   UNL     1      46.410 130.258  15.776  1.00  0.00    -0.346 N 
ATOM     21  O   UNL     1      44.099 129.934  15.840  1.00  0.00    -0.269 OA
ATOM     22  H   UNL     1      47.289 130.312  16.341  1.00  0.00     0.164 HD
BRANCH  20  23
ATOM     23  C   UNL     1      46.499 130.100  14.322  1.00  0.00     0.105 C 
ATOM     24  C   UNL     1      47.613 129.180  13.956  1.00  0.00    -0.007 C 
ATOM     25  C   UNL     1      46.869 131.429  13.639  1.00  0.00     0.033 C 
ATOM     26  C   UNL     1      48.539 129.775  13.224  1.00  0.00    -0.029 C 
ATOM     27  C   UNL     1      48.224 131.202  12.961  1.00  0.00     0.029 C 
ENDBRANCH  20  23
ENDBRANCH   4  19
TORSDOF 6
ENDMDL
MODEL 6
REMARK VINA RESULT:      -6.6      1.612      8.443
REMARK SMILES O=C([N-][C@H]1CC12CCC2)c1ccc(C(=O)N[C@@H]2C=CCC2)c(F)c1O
REMARK SMILES IDX 10 1 11 2 12 3 13 4 22 5 23 6 24 7 2 8 1 9 3 10 4 11 5 12
REMARK SMILES IDX 6 13 7 14 9 15 8 16 25 17 14 19 16 20 15 21 17 23 18 24
REMARK SMILES IDX 21 25 19 26 20 27
REMARK H PARENT 25 18 16 22
ROOT
ATOM      1  C   UNL     1      44.100 131.589  17.419  1.00  0.00     0.044 A 
ATOM      2  C   UNL     1      42.867 131.975  17.978  1.00  0.00     0.015 A 
ATOM      3  C   UNL     1      42.627 131.843  19.345  1.00  0.00     0.018 A 
ATOM      4  C   UNL     1      43.614 131.333  20.198  1.00  0.00     0.079 A 
ATOM      5  C   UNL     1      44.846 130.926  19.652  1.00  0.00     0.178 A 
ATOM      6  F   UNL     1      45.790 130.358  20.446  1.00  0.00    -0.202 F 
ATOM      7  C   UNL     1      45.094 131.054  18.273  1.00  0.00     0.161 A 
ENDROOT
BRANCH   1   8
ATOM      8  C   UNL     1      44.316 131.753  15.955  1.00  0.00     0.086 C 
ATOM      9  O   UNL     1      43.323 131.837  15.180  1.00  0.00    -0.315 OA
BRANCH   8  10
ATOM     10  N   UNL     1      45.635 131.821  15.409  1.00  0.00    -0.646 NA
BRANCH  10  11
ATOM     11  C   UNL     1      46.538 130.679  15.390  1.00  0.00    -0.100 C 
ATOM     12  C   UNL     1      46.046 129.517  14.520  1.00  0.00    -0.010 C 
ATOM     13  C   UNL     1      47.147 130.448  14.031  1.00  0.00    -0.044 C 
ATOM     14  C   UNL     1      46.934 131.138  12.714  1.00  0.00     0.006 C 
ATOM     15  C   UNL     1      48.458 129.824  13.649  1.00  0.00     0.006 C 
ATOM     16  C   UNL     1      48.278 130.516  12.281  1.00  0.00     0.001 C 
ENDBRANCH  10  11
ENDBRANCH   8  10
ENDBRANCH   1   8
BRANCH   7  17
ATOM     17  O   UNL     1      46.327 130.646  17.758  1.00  0.00    -0.504 OA
ATOM     18  H   UNL     1      46.748 131.083  16.948  1.00  0.00     0.293 HD
ENDBRANCH   7  17
BRANCH   4  19
ATOM     19  C   UNL     1      43.336 131.209  21.646  1.00  0.00     0.254 C 
ATOM     20  N   UNL     1      44.047 130.260  22.456  1.00  0.00    -0.346 N 
ATOM     21  O   UNL     1      42.475 131.963  22.177  1.00  0.00    -0.269 OA
ATOM     22  H   UNL     1      44.904 129.806  22.063  1.00  0.00     0.164 HD
BRANCH  20  23
ATOM     23  C   UNL     1      43.649 129.972  23.836  1.00  0.00     0.105 C 
ATOM     24  C   UNL     1      44.268 128.702  24.311  1.00  0.00    -0.007 C 
ATOM     25  C   UNL     1      42.135 129.713  23.936  1.00  0.00     0.033 C 
ATOM     26  C   UNL     1      43.366 127.787  24.622  1.00  0.00    -0.029 C 
ATOM     27  C   UNL     1      41.976 128.266  24.415  1.00  0.00     0.029 C 
ENDBRANCH  20  23
ENDBRANCH   4  19
TORSDOF 6
ENDMDL
MODEL 7
REMARK VINA RESULT:      -6.3      2.147      8.120
REMARK SMILES O=C([N-][C@H]1CC12CCC2)c1ccc(C(=O)N[C@@H]2C=CCC2)c(F)c1O
REMARK SMILES IDX 10 1 11 2 12 3 13 4 22 5 23 6 24 7 2 8 1 9 3 10 4 11 5 12
REMARK SMILES IDX 6 13 7 14 9 15 8 16 25 17 14 19 16 20 15 21 17 23 18 24
REMARK SMILES IDX 21 25 19 26 20 27
REMARK H PARENT 25 18 16 22
ROOT
ATOM      1  C   UNL     1      44.640 131.243  19.431  1.00  0.00     0.044 A 
ATOM      2  C   UNL     1      45.675 130.332  19.715  1.00  0.00     0.015 A 
ATOM      3  C   UNL     1      45.739 129.683  20.949  1.00  0.00     0.018 A 
ATOM      4  C   UNL     1      44.767 129.916  21.930  1.00  0.00     0.079 A 
ATOM      5  C   UNL     1      43.737 130.839  21.667  1.00  0.00     0.178 A 
ATOM      6  F   UNL     1      42.826 131.139  22.629  1.00  0.00    -0.202 F 
ATOM      7  C   UNL     1      43.666 131.498  20.425  1.00  0.00     0.161 A 
ENDROOT
BRANCH   1   8
ATOM      8  C   UNL     1      44.607 131.908  18.098  1.00  0.00     0.086 C 
ATOM      9  O   UNL     1      43.619 132.624  17.778  1.00  0.00    -0.315 OA
BRANCH   8  10
ATOM     10  N   UNL     1      45.685 131.752  17.173  1.00  0.00    -0.646 NA
BRANCH  10  11
ATOM     11  C   UNL     1      46.070 130.460  16.624  1.00  0.00    -0.100 C 
ATOM     12  C   UNL     1      45.080 129.906  15.594  1.00  0.00    -0.010 C 
ATOM     13  C   UNL     1      46.398 130.531  15.154  1.00  0.00    -0.044 C 
ATOM     14  C   UNL     1      46.330 131.666  14.174  1.00  0.00     0.006 C 
ATOM     15  C   UNL     1      47.318 129.685  14.323  1.00  0.00     0.006 C 
ATOM     16  C   UNL     1      47.277 130.829  13.288  1.00  0.00     0.001 C 
ENDBRANCH  10  11
ENDBRANCH   8  10
ENDBRANCH   1   8
BRANCH   7  17
ATOM     17  O   UNL     1      42.632 132.405  20.189  1.00  0.00    -0.504 OA
ATOM     18  H   UNL     1      42.800 133.343  19.847  1.00  0.00     0.293 HD
ENDBRANCH   7  17
BRANCH   4  19
ATOM     19  C   UNL     1      44.855 129.211  23.228  1.00  0.00     0.254 C 
ATOM     20  N   UNL     1      45.444 127.904  23.318  1.00  0.00    -0.346 N 
ATOM     21  O   UNL     1      44.425 129.776  24.270  1.00  0.00    -0.269 OA
ATOM     22  H   UNL     1      45.995 127.543  22.506  1.00  0.00     0.164 HD
BRANCH  20  23
ATOM     23  C   UNL     1      45.356 127.102  24.541  1.00  0.00     0.105 C 
ATOM     24  C   UNL     1      46.480 126.126  24.616  1.00  0.00    -0.007 C 
ATOM     25  C   UNL     1      44.094 126.222  24.541  1.00  0.00     0.033 C 
ATOM     26  C   UNL     1      46.061 124.873  24.625  1.00  0.00    -0.029 C 
ATOM     27  C   UNL     1      44.581 124.770  24.557  1.00  0.00     0.029 C 
ENDBRANCH  20  23
ENDBRANCH   4  19
TORSDOF 6
ENDMDL
MODEL 8
REMARK VINA RESULT:      -6.2      1.580      8.415
REMARK SMILES O=C([N-][C@H]1CC12CCC2)c1ccc(C(=O)N[C@@H]2C=CCC2)c(F)c1O
REMARK SMILES IDX 10 1 11 2 12 3 13 4 22 5 23 6 24 7 2 8 1 9 3 10 4 11 5 12
REMARK SMILES IDX 6 13 7 14 9 15 8 16 25 17 14 19 16 20 15 21 17 23 18 24
REMARK SMILES IDX 21 25 19 26 20 27
REMARK H PARENT 25 18 16 22
ROOT
ATOM      1  C   UNL     1      44.335 131.345  17.432  1.00  0.00     0.044 A 
ATOM      2  C   UNL     1      43.253 131.835  18.188  1.00  0.00     0.015 A 
ATOM      3  C   UNL     1      43.218 131.678  19.574  1.00  0.00     0.018 A 
ATOM      4  C   UNL     1      44.266 131.038  20.247  1.00  0.00     0.079 A 
ATOM      5  C   UNL     1      45.346 130.526  19.503  1.00  0.00     0.178 A 
ATOM      6  F   UNL     1      46.336 129.835  20.124  1.00  0.00    -0.202 F 
ATOM      7  C   UNL     1      45.387 130.680  18.105  1.00  0.00     0.161 A 
ENDROOT
BRANCH   1   8
ATOM      8  C   UNL     1      44.334 131.541  15.956  1.00  0.00     0.086 C 
ATOM      9  O   UNL     1      43.711 132.515  15.451  1.00  0.00    -0.315 OA
BRANCH   8  10
ATOM     10  N   UNL     1      45.035 130.640  15.096  1.00  0.00    -0.646 NA
BRANCH  10  11
ATOM     11  C   UNL     1      45.698 131.075  13.874  1.00  0.00    -0.100 C 
ATOM     12  C   UNL     1      46.862 132.042  14.114  1.00  0.00    -0.010 C 
ATOM     13  C   UNL     1      47.119 130.578  13.781  1.00  0.00    -0.044 C 
ATOM     14  C   UNL     1      47.962 129.789  14.741  1.00  0.00     0.006 C 
ATOM     15  C   UNL     1      47.966 130.283  12.578  1.00  0.00     0.006 C 
ATOM     16  C   UNL     1      48.861 129.461  13.530  1.00  0.00     0.001 C 
ENDBRANCH  10  11
ENDBRANCH   8  10
ENDBRANCH   1   8
BRANCH   7  17
ATOM     17  O   UNL     1      46.472 130.166  17.392  1.00  0.00    -0.504 OA
ATOM     18  H   UNL     1      46.975 129.339  17.689  1.00  0.00     0.293 HD
ENDBRANCH   7  17
BRANCH   4  19
ATOM     19  C   UNL     1      44.206 130.889  21.718  1.00  0.00     0.254 C 
ATOM     20  N   UNL     1      44.680 129.694  22.359  1.00  0.00    -0.346 N 
ATOM     21  O   UNL     1      43.752 131.835  22.418  1.00  0.00    -0.269 OA
ATOM     22  H   UNL     1      45.255 129.020  21.804  1.00  0.00     0.164 HD
BRANCH  20  23
ATOM     23  C   UNL     1      44.442 129.437  23.781  1.00  0.00     0.105 C 
ATOM     24  C   UNL     1      45.009 128.118  24.183  1.00  0.00    -0.007 C 
ATOM     25  C   UNL     1      42.938 129.306  24.080  1.00  0.00     0.033 C 
ATOM     26  C   UNL     1      44.083 127.281  24.616  1.00  0.00    -0.029 C 
ATOM     27  C   UNL     1      42.723 127.876  24.587  1.00  0.00     0.029 C 
ENDBRANCH  20  23
ENDBRANCH   4  19
TORSDOF 6
ENDMDL
MODEL 9
REMARK VINA RESULT:      -6.1      2.612      8.041
REMARK SMILES O=C([N-][C@H]1CC12CCC2)c1ccc(C(=O)N[C@@H]2C=CCC2)c(F)c1O
REMARK SMILES IDX 10 1 11 2 12 3 13 4 22 5 23 6 24 7 2 8 1 9 3 10 4 11 5 12
REMARK SMILES IDX 6 13 7 14 9 15 8 16 25 17 14 19 16 20 15 21 17 23 18 24
REMARK SMILES IDX 21 25 19 26 20 27
REMARK H PARENT 25 18 16 22
ROOT
ATOM      1  C   UNL     1      44.741 131.078  20.545  1.00  0.00     0.044 A 
ATOM      2  C   UNL     1      45.714 130.063  20.615  1.00  0.00     0.015 A 
ATOM      3  C   UNL     1      45.608 129.031  21.547  1.00  0.00     0.018 A 
ATOM      4  C   UNL     1      44.521 128.975  22.429  1.00  0.00     0.079 A 
ATOM      5  C   UNL     1      43.550 129.992  22.384  1.00  0.00     0.178 A 
ATOM      6  F   UNL     1      42.528 130.001  23.279  1.00  0.00    -0.202 F 
ATOM      7  C   UNL     1      43.651 131.037  21.447  1.00  0.00     0.161 A 
ENDROOT
BRANCH   1   8
ATOM      8  C   UNL     1      44.892 132.158  19.530  1.00  0.00     0.086 C 
ATOM      9  O   UNL     1      44.719 133.362  19.864  1.00  0.00    -0.315 OA
BRANCH   8  10
ATOM     10  N   UNL     1      45.235 131.851  18.177  1.00  0.00    -0.646 NA
BRANCH  10  11
ATOM     11  C   UNL     1      44.577 130.798  17.418  1.00  0.00    -0.100 C 
ATOM     12  C   UNL     1      43.819 131.305  16.186  1.00  0.00    -0.010 C 
ATOM     13  C   UNL     1      45.172 130.619  16.044  1.00  0.00    -0.044 C 
ATOM     14  C   UNL     1      46.255 131.369  15.323  1.00  0.00     0.006 C 
ATOM     15  C   UNL     1      45.238 129.402  15.167  1.00  0.00     0.006 C 
ATOM     16  C   UNL     1      46.356 130.137  14.398  1.00  0.00     0.001 C 
ENDBRANCH  10  11
ENDBRANCH   8  10
ENDBRANCH   1   8
BRANCH   7  17
ATOM     17  O   UNL     1      42.671 132.031  21.422  1.00  0.00    -0.504 OA
ATOM     18  H   UNL     1      42.890 133.005  21.248  1.00  0.00     0.293 HD
ENDBRANCH   7  17
BRANCH   4  19
ATOM     19  C   UNL     1      44.429 127.865  23.404  1.00  0.00     0.254 C 
ATOM     20  N   UNL     1      44.114 126.531  22.976  1.00  0.00    -0.346 N 
ATOM     21  O   UNL     1      44.651 128.094  24.625  1.00  0.00    -0.269 OA
ATOM     22  H   UNL     1      44.155 126.307  21.956  1.00  0.00     0.164 HD
BRANCH  20  23
ATOM     23  C   UNL     1      43.813 125.465  23.935  1.00  0.00     0.105 C 
ATOM     24  C   UNL     1      43.666 124.154  23.241  1.00  0.00    -0.007 C 
ATOM     25  C   UNL     1      42.447 125.690  24.607  1.00  0.00     0.033 C 
ATOM     26  C   UNL     1      42.458 123.639  23.386  1.00  0.00    -0.029 C 
ATOM     27  C   UNL     1      41.567 124.503  24.201  1.00  0.00     0.029 C 
ENDBRANCH  20  23
ENDBRANCH   4  19
TORSDOF 6
ENDMDL


