MODEL 1
REMARK VINA RESULT:      -7.7      0.000      0.000
REMARK SMILES CCC[C@@H](N)/C=C(\O)N1CC[C@@H](C)[C@@H](c2cc3cc(F)ccc3[nH]2)[C@H]1F
REMARK SMILES IDX 6 1 7 2 8 3 9 5 10 6 25 7 11 8 14 9 12 10 26 11 13 12 15 13
REMARK SMILES IDX 16 14 24 15 17 16 23 17 18 18 22 19 19 20 21 21 20 23 4 24
REMARK SMILES IDX 5 25 3 28 2 29 1 30
REMARK H PARENT 8 4 24 22 5 26 5 27
ROOT
ATOM      1  C   UNL     1      45.468 131.816  17.115  1.00  0.00     0.057 C 
ENDROOT
BRANCH   1   2
ATOM      2  C   UNL     1      45.387 130.998  18.172  1.00  0.00     0.186 C 
BRANCH   2   3
ATOM      3  O   UNL     1      46.007 129.749  18.132  1.00  0.00    -0.495 OA
ATOM      4  H   UNL     1      46.478 129.366  18.942  1.00  0.00     0.295 HD
ENDBRANCH   2   3
BRANCH   2   5
ATOM      5  N   UNL     1      44.681 131.410  19.357  1.00  0.00    -0.313 N 
ATOM      6  C   UNL     1      43.294 131.870  19.216  1.00  0.00     0.123 C 
ATOM      7  C   UNL     1      45.431 131.854  20.545  1.00  0.00     0.274 C 
ATOM      8  C   UNL     1      42.482 131.559  20.478  1.00  0.00     0.026 C 
ATOM      9  C   UNL     1      44.653 131.540  21.839  1.00  0.00     0.094 C 
ATOM     10  C   UNL     1      43.197 132.070  21.743  1.00  0.00     0.001 C 
ATOM     11  F   UNL     1      46.690 131.274  20.599  1.00  0.00    -0.223 F 
ATOM     12  C   UNL     1      42.377 131.751  23.001  1.00  0.00     0.008 C 
BRANCH   9  13
ATOM     13  C   UNL     1      44.738 130.074  22.219  1.00  0.00     0.024 A 
ATOM     14  C   UNL     1      45.324 129.050  21.470  1.00  0.00     0.032 A 
ATOM     15  N   UNL     1      44.201 129.581  23.361  1.00  0.00    -0.358 N 
ATOM     16  C   UNL     1      45.129 127.907  22.212  1.00  0.00     0.003 A 
ATOM     17  C   UNL     1      44.448 128.262  23.346  1.00  0.00     0.046 A 
ATOM     18  C   UNL     1      45.502 126.589  21.959  1.00  0.00     0.049 A 
ATOM     19  C   UNL     1      44.091 127.321  24.310  1.00  0.00     0.029 A 
ATOM     20  C   UNL     1      45.157 125.615  22.915  1.00  0.00     0.123 A 
ATOM     21  C   UNL     1      44.454 125.980  24.085  1.00  0.00     0.041 A 
ATOM     22  H   UNL     1      43.694 130.115  24.102  1.00  0.00     0.166 HD
ATOM     23  F   UNL     1      45.501 124.319  22.711  1.00  0.00    -0.207 F 
ENDBRANCH   9  13
ENDBRANCH   2   5
ENDBRANCH   1   2
BRANCH   1  24
ATOM     24  C   UNL     1      45.315 131.320  15.698  1.00  0.00     0.079 C 
BRANCH  24  25
ATOM     25  N   UNL     1      44.344 130.223  15.675  1.00  0.00    -0.324 NA
ATOM     26  H   UNL     1      43.898 130.148  16.619  1.00  0.00     0.119 HD
ATOM     27  H   UNL     1      43.589 130.441  14.986  1.00  0.00     0.119 HD
ENDBRANCH  24  25
BRANCH  24  28
ATOM     28  C   UNL     1      46.668 130.856  15.107  1.00  0.00     0.023 C 
BRANCH  28  29
ATOM     29  C   UNL     1      46.803 131.087  13.589  1.00  0.00    -0.002 C 
ATOM     30  C   UNL     1      48.082 130.489  13.006  1.00  0.00     0.004 C 
ENDBRANCH  28  29
ENDBRANCH  24  28
ENDBRANCH   1  24
TORSDOF 8
ENDMDL
MODEL 2
REMARK VINA RESULT:      -7.7      1.445      1.799
REMARK SMILES CCC[C@@H](N)/C=C(\O)N1CC[C@@H](C)[C@@H](c2cc3cc(F)ccc3[nH]2)[C@H]1F
REMARK SMILES IDX 6 1 7 2 8 3 9 5 10 6 25 7 11 8 14 9 12 10 26 11 13 12 15 13
REMARK SMILES IDX 16 14 24 15 17 16 23 17 18 18 22 19 19 20 21 21 20 23 4 24
REMARK SMILES IDX 5 25 3 28 2 29 1 30
REMARK H PARENT 8 4 24 22 5 26 5 27
ROOT
ATOM      1  C   UNL     1      44.928 130.492  16.286  1.00  0.00     0.057 C 
ENDROOT
BRANCH   1   2
ATOM      2  C   UNL     1      45.159 130.676  17.593  1.00  0.00     0.186 C 
BRANCH   2   3
ATOM      3  O   UNL     1      46.297 130.122  18.180  1.00  0.00    -0.495 OA
ATOM      4  H   UNL     1      47.068 129.781  17.619  1.00  0.00     0.295 HD
ENDBRANCH   2   3
BRANCH   2   5
ATOM      5  N   UNL     1      44.251 131.459  18.390  1.00  0.00    -0.313 N 
ATOM      6  C   UNL     1      42.935 131.784  17.825  1.00  0.00     0.123 C 
ATOM      7  C   UNL     1      44.769 132.328  19.459  1.00  0.00     0.274 C 
ATOM      8  C   UNL     1      41.882 131.916  18.931  1.00  0.00     0.026 C 
ATOM      9  C   UNL     1      43.743 132.471  20.601  1.00  0.00     0.094 C 
ATOM     10  C   UNL     1      42.353 132.874  20.040  1.00  0.00     0.001 C 
ATOM     11  F   UNL     1      45.973 131.855  19.962  1.00  0.00    -0.223 F 
ATOM     12  C   UNL     1      41.293 132.998  21.144  1.00  0.00     0.008 C 
BRANCH   9  13
ATOM     13  C   UNL     1      43.701 131.243  21.492  1.00  0.00     0.024 A 
ATOM     14  C   UNL     1      44.740 130.335  21.712  1.00  0.00     0.032 A 
ATOM     15  N   UNL     1      42.590 130.869  22.171  1.00  0.00    -0.358 N 
ATOM     16  C   UNL     1      44.216 129.391  22.566  1.00  0.00     0.003 A 
ATOM     17  C   UNL     1      42.918 129.742  22.822  1.00  0.00     0.046 A 
ATOM     18  C   UNL     1      44.796 128.254  23.124  1.00  0.00     0.049 A 
ATOM     19  C   UNL     1      42.104 128.978  23.657  1.00  0.00     0.029 A 
ATOM     20  C   UNL     1      44.000 127.462  23.973  1.00  0.00     0.123 A 
ATOM     21  C   UNL     1      42.659 127.822  24.238  1.00  0.00     0.041 A 
ATOM     22  H   UNL     1      41.664 131.353  22.183  1.00  0.00     0.166 HD
ATOM     23  F   UNL     1      44.523 126.346  24.540  1.00  0.00    -0.207 F 
ENDBRANCH   9  13
ENDBRANCH   2   5
ENDBRANCH   1   2
BRANCH   1  24
ATOM     24  C   UNL     1      45.292 131.527  15.250  1.00  0.00     0.079 C 
BRANCH  24  25
ATOM     25  N   UNL     1      44.315 131.480  14.160  1.00  0.00    -0.324 NA
ATOM     26  H   UNL     1      44.754 131.874  13.296  1.00  0.00     0.119 HD
ATOM     27  H   UNL     1      44.065 130.484  13.960  1.00  0.00     0.119 HD
ENDBRANCH  24  25
BRANCH  24  28
ATOM     28  C   UNL     1      46.723 131.307  14.703  1.00  0.00     0.023 C 
BRANCH  28  29
ATOM     29  C   UNL     1      46.874 130.046  13.829  1.00  0.00    -0.002 C 
ATOM     30  C   UNL     1      48.331 129.719  13.502  1.00  0.00     0.004 C 
ENDBRANCH  28  29
ENDBRANCH  24  28
ENDBRANCH   1  24
TORSDOF 8
ENDMDL
MODEL 3
REMARK VINA RESULT:      -7.2      1.083      1.494
REMARK SMILES CCC[C@@H](N)/C=C(\O)N1CC[C@@H](C)[C@@H](c2cc3cc(F)ccc3[nH]2)[C@H]1F
REMARK SMILES IDX 6 1 7 2 8 3 9 5 10 6 25 7 11 8 14 9 12 10 26 11 13 12 15 13
REMARK SMILES IDX 16 14 24 15 17 16 23 17 18 18 22 19 19 20 21 21 20 23 4 24
REMARK SMILES IDX 5 25 3 28 2 29 1 30
REMARK H PARENT 8 4 24 22 5 26 5 27
ROOT
ATOM      1  C   UNL     1      45.826 131.118  16.412  1.00  0.00     0.057 C 
ENDROOT
BRANCH   1   2
ATOM      2  C   UNL     1      45.666 130.514  17.597  1.00  0.00     0.186 C 
BRANCH   2   3
ATOM      3  O   UNL     1      46.263 129.274  17.828  1.00  0.00    -0.495 OA
ATOM      4  H   UNL     1      47.061 129.179  18.442  1.00  0.00     0.295 HD
ENDBRANCH   2   3
BRANCH   2   5
ATOM      5  N   UNL     1      44.901 131.147  18.639  1.00  0.00    -0.313 N 
ATOM      6  C   UNL     1      43.571 131.672  18.303  1.00  0.00     0.123 C 
ATOM      7  C   UNL     1      45.584 131.715  19.813  1.00  0.00     0.274 C 
ATOM      8  C   UNL     1      42.636 131.610  19.516  1.00  0.00     0.026 C 
ATOM      9  C   UNL     1      44.680 131.653  21.061  1.00  0.00     0.094 C 
ATOM     10  C   UNL     1      43.283 132.258  20.754  1.00  0.00     0.001 C 
ATOM     11  F   UNL     1      46.784 131.067  20.069  1.00  0.00    -0.223 F 
ATOM     12  C   UNL     1      42.340 132.190  21.964  1.00  0.00     0.008 C 
BRANCH   9  13
ATOM     13  C   UNL     1      44.616 130.259  21.656  1.00  0.00     0.024 A 
ATOM     14  C   UNL     1      43.777 129.830  22.689  1.00  0.00     0.032 A 
ATOM     15  N   UNL     1      45.424 129.251  21.249  1.00  0.00    -0.358 N 
ATOM     16  C   UNL     1      44.104 128.508  22.889  1.00  0.00     0.003 A 
ATOM     17  C   UNL     1      45.100 128.191  22.006  1.00  0.00     0.046 A 
ATOM     18  C   UNL     1      43.592 127.576  23.788  1.00  0.00     0.049 A 
ATOM     19  C   UNL     1      45.658 126.914  21.960  1.00  0.00     0.029 A 
ATOM     20  C   UNL     1      44.134 126.277  23.766  1.00  0.00     0.123 A 
ATOM     21  C   UNL     1      45.163 125.948  22.855  1.00  0.00     0.041 A 
ATOM     22  H   UNL     1      46.154 129.289  20.503  1.00  0.00     0.166 HD
ATOM     23  F   UNL     1      43.665 125.336  24.623  1.00  0.00    -0.207 F 
ENDBRANCH   9  13
ENDBRANCH   2   5
ENDBRANCH   1   2
BRANCH   1  24
ATOM     24  C   UNL     1      44.998 130.755  15.203  1.00  0.00     0.079 C 
BRANCH  24  25
ATOM     25  N   UNL     1      44.558 129.363  15.323  1.00  0.00    -0.324 NA
ATOM     26  H   UNL     1      44.775 128.863  14.430  1.00  0.00     0.119 HD
ATOM     27  H   UNL     1      45.097 128.893  16.086  1.00  0.00     0.119 HD
ENDBRANCH  24  25
BRANCH  24  28
ATOM     28  C   UNL     1      45.788 130.961  13.888  1.00  0.00     0.023 C 
BRANCH  28  29
ATOM     29  C   UNL     1      47.319 130.911  14.061  1.00  0.00    -0.002 C 
ATOM     30  C   UNL     1      47.892 129.505  13.887  1.00  0.00     0.004 C 
ENDBRANCH  28  29
ENDBRANCH  24  28
ENDBRANCH   1  24
TORSDOF 8
ENDMDL
MODEL 4
REMARK VINA RESULT:      -6.7      1.376      1.580
REMARK SMILES CCC[C@@H](N)/C=C(\O)N1CC[C@@H](C)[C@@H](c2cc3cc(F)ccc3[nH]2)[C@H]1F
REMARK SMILES IDX 6 1 7 2 8 3 9 5 10 6 25 7 11 8 14 9 12 10 26 11 13 12 15 13
REMARK SMILES IDX 16 14 24 15 17 16 23 17 18 18 22 19 19 20 21 21 20 23 4 24
REMARK SMILES IDX 5 25 3 28 2 29 1 30
REMARK H PARENT 8 4 24 22 5 26 5 27
ROOT
ATOM      1  C   UNL     1      45.423 131.063  16.691  1.00  0.00     0.057 C 
ENDROOT
BRANCH   1   2
ATOM      2  C   UNL     1      45.227 130.662  17.954  1.00  0.00     0.186 C 
BRANCH   2   3
ATOM      3  O   UNL     1      45.897 129.538  18.437  1.00  0.00    -0.495 OA
ATOM      4  H   UNL     1      46.700 129.154  17.954  1.00  0.00     0.295 HD
ENDBRANCH   2   3
BRANCH   2   5
ATOM      5  N   UNL     1      44.344 131.398  18.821  1.00  0.00    -0.313 N 
ATOM      6  C   UNL     1      43.056 131.849  18.281  1.00  0.00     0.123 C 
ATOM      7  C   UNL     1      44.887 132.118  19.986  1.00  0.00     0.274 C 
ATOM      8  C   UNL     1      41.992 131.913  19.382  1.00  0.00     0.026 C 
ATOM      9  C   UNL     1      43.850 132.186  21.125  1.00  0.00     0.094 C 
ATOM     10  C   UNL     1      42.491 132.719  20.596  1.00  0.00     0.001 C 
ATOM     11  F   UNL     1      46.057 131.533  20.448  1.00  0.00    -0.223 F 
ATOM     12  C   UNL     1      41.419 132.774  21.694  1.00  0.00     0.008 C 
BRANCH   9  13
ATOM     13  C   UNL     1      43.732 130.872  21.875  1.00  0.00     0.024 A 
ATOM     14  C   UNL     1      44.689 129.856  21.933  1.00  0.00     0.032 A 
ATOM     15  N   UNL     1      42.623 130.522  22.570  1.00  0.00    -0.358 N 
ATOM     16  C   UNL     1      44.118 128.870  22.705  1.00  0.00     0.003 A 
ATOM     17  C   UNL     1      42.872 129.302  23.071  1.00  0.00     0.046 A 
ATOM     18  C   UNL     1      44.612 127.629  23.099  1.00  0.00     0.049 A 
ATOM     19  C   UNL     1      42.029 128.522  23.860  1.00  0.00     0.029 A 
ATOM     20  C   UNL     1      43.785 126.817  23.898  1.00  0.00     0.123 A 
ATOM     21  C   UNL     1      42.498 127.263  24.277  1.00  0.00     0.041 A 
ATOM     22  H   UNL     1      41.749 131.082  22.688  1.00  0.00     0.166 HD
ATOM     23  F   UNL     1      44.225 125.601  24.307  1.00  0.00    -0.207 F 
ENDBRANCH   9  13
ENDBRANCH   2   5
ENDBRANCH   1   2
BRANCH   1  24
ATOM     24  C   UNL     1      46.189 130.232  15.691  1.00  0.00     0.079 C 
BRANCH  24  25
ATOM     25  N   UNL     1      47.347 129.628  16.355  1.00  0.00    -0.324 NA
ATOM     26  H   UNL     1      47.529 130.142  17.248  1.00  0.00     0.119 HD
ATOM     27  H   UNL     1      47.128 128.636  16.601  1.00  0.00     0.119 HD
ENDBRANCH  24  25
BRANCH  24  28
ATOM     28  C   UNL     1      46.641 131.076  14.475  1.00  0.00     0.023 C 
BRANCH  28  29
ATOM     29  C   UNL     1      47.596 130.337  13.518  1.00  0.00    -0.002 C 
ATOM     30  C   UNL     1      47.577 130.907  12.100  1.00  0.00     0.004 C 
ENDBRANCH  28  29
ENDBRANCH  24  28
ENDBRANCH   1  24
TORSDOF 8
ENDMDL
MODEL 5
REMARK VINA RESULT:      -6.6      1.346      1.743
REMARK SMILES CCC[C@@H](N)/C=C(\O)N1CC[C@@H](C)[C@@H](c2cc3cc(F)ccc3[nH]2)[C@H]1F
REMARK SMILES IDX 6 1 7 2 8 3 9 5 10 6 25 7 11 8 14 9 12 10 26 11 13 12 15 13
REMARK SMILES IDX 16 14 24 15 17 16 23 17 18 18 22 19 19 20 21 21 20 23 4 24
REMARK SMILES IDX 5 25 3 28 2 29 1 30
REMARK H PARENT 8 4 24 22 5 26 5 27
ROOT
ATOM      1  C   UNL     1      45.168 130.707  18.118  1.00  0.00     0.057 C 
ENDROOT
BRANCH   1   2
ATOM      2  C   UNL     1      44.108 131.434  18.497  1.00  0.00     0.186 C 
BRANCH   2   3
ATOM      3  O   UNL     1      43.184 131.862  17.543  1.00  0.00    -0.495 OA
ATOM      4  H   UNL     1      43.422 131.905  16.560  1.00  0.00     0.295 HD
ENDBRANCH   2   3
BRANCH   2   5
ATOM      5  N   UNL     1      43.907 131.757  19.886  1.00  0.00    -0.313 N 
ATOM      6  C   UNL     1      42.677 132.465  20.263  1.00  0.00     0.123 C 
ATOM      7  C   UNL     1      45.062 131.862  20.793  1.00  0.00     0.274 C 
ATOM      8  C   UNL     1      42.244 132.091  21.685  1.00  0.00     0.026 C 
ATOM      9  C   UNL     1      44.670 131.474  22.233  1.00  0.00     0.094 C 
ATOM     10  C   UNL     1      43.406 132.254  22.684  1.00  0.00     0.001 C 
ATOM     11  F   UNL     1      46.121 131.074  20.365  1.00  0.00    -0.223 F 
ATOM     12  C   UNL     1      42.963 131.875  24.104  1.00  0.00     0.008 C 
BRANCH   9  13
ATOM     13  C   UNL     1      44.548 129.972  22.411  1.00  0.00     0.024 A 
ATOM     14  C   UNL     1      43.547 129.293  23.112  1.00  0.00     0.032 A 
ATOM     15  N   UNL     1      45.456 129.099  21.912  1.00  0.00    -0.358 N 
ATOM     16  C   UNL     1      43.880 127.961  23.011  1.00  0.00     0.003 A 
ATOM     17  C   UNL     1      45.036 127.879  22.283  1.00  0.00     0.046 A 
ATOM     18  C   UNL     1      43.244 126.829  23.514  1.00  0.00     0.049 A 
ATOM     19  C   UNL     1      45.641 126.654  22.005  1.00  0.00     0.029 A 
ATOM     20  C   UNL     1      43.829 125.576  23.250  1.00  0.00     0.123 A 
ATOM     21  C   UNL     1      45.024 125.490  22.498  1.00  0.00     0.041 A 
ATOM     22  H   UNL     1      46.312 129.326  21.358  1.00  0.00     0.166 HD
ATOM     23  F   UNL     1      43.244 124.446  23.719  1.00  0.00    -0.207 F 
ENDBRANCH   9  13
ENDBRANCH   2   5
ENDBRANCH   1   2
BRANCH   1  24
ATOM     24  C   UNL     1      46.066 131.124  16.980  1.00  0.00     0.079 C 
BRANCH  24  25
ATOM     25  N   UNL     1      45.491 132.299  16.320  1.00  0.00    -0.324 NA
ATOM     26  H   UNL     1      44.505 132.084  16.047  1.00  0.00     0.119 HD
ATOM     27  H   UNL     1      45.464 133.097  16.996  1.00  0.00     0.119 HD
ENDBRANCH  24  25
BRANCH  24  28
ATOM     28  C   UNL     1      46.264 129.975  15.961  1.00  0.00     0.023 C 
BRANCH  28  29
ATOM     29  C   UNL     1      45.907 130.354  14.510  1.00  0.00    -0.002 C 
ATOM     30  C   UNL     1      47.135 130.659  13.654  1.00  0.00     0.004 C 
ENDBRANCH  28  29
ENDBRANCH  24  28
ENDBRANCH   1  24
TORSDOF 8
ENDMDL
MODEL 6
REMARK VINA RESULT:      -6.4      1.105      1.508
REMARK SMILES CCC[C@@H](N)/C=C(\O)N1CC[C@@H](C)[C@@H](c2cc3cc(F)ccc3[nH]2)[C@H]1F
REMARK SMILES IDX 6 1 7 2 8 3 9 5 10 6 25 7 11 8 14 9 12 10 26 11 13 12 15 13
REMARK SMILES IDX 16 14 24 15 17 16 23 17 18 18 22 19 19 20 21 21 20 23 4 24
REMARK SMILES IDX 5 25 3 28 2 29 1 30
REMARK H PARENT 8 4 24 22 5 26 5 27
ROOT
ATOM      1  C   UNL     1      44.541 130.581  16.948  1.00  0.00     0.057 C 
ENDROOT
BRANCH   1   2
ATOM      2  C   UNL     1      45.272 130.766  18.056  1.00  0.00     0.186 C 
BRANCH   2   3
ATOM      3  O   UNL     1      46.640 130.494  18.038  1.00  0.00    -0.495 OA
ATOM      4  H   UNL     1      47.310 131.130  18.453  1.00  0.00     0.295 HD
ENDBRANCH   2   3
BRANCH   2   5
ATOM      5  N   UNL     1      44.655 131.263  19.258  1.00  0.00    -0.313 N 
ATOM      6  C   UNL     1      43.329 131.884  19.154  1.00  0.00     0.123 C 
ATOM      7  C   UNL     1      45.487 131.620  20.420  1.00  0.00     0.274 C 
ATOM      8  C   UNL     1      42.523 131.676  20.441  1.00  0.00     0.026 C 
ATOM      9  C   UNL     1      44.717 131.405  21.738  1.00  0.00     0.094 C 
ATOM     10  C   UNL     1      43.331 132.103  21.680  1.00  0.00     0.001 C 
ATOM     11  F   UNL     1      46.670 130.895  20.442  1.00  0.00    -0.223 F 
ATOM     12  C   UNL     1      42.517 131.889  22.965  1.00  0.00     0.008 C 
BRANCH   9  13
ATOM     13  C   UNL     1      44.638 129.941  22.126  1.00  0.00     0.024 A 
ATOM     14  C   UNL     1      43.724 129.359  23.008  1.00  0.00     0.032 A 
ATOM     15  N   UNL     1      45.507 129.011  21.659  1.00  0.00    -0.358 N 
ATOM     16  C   UNL     1      44.068 128.027  23.053  1.00  0.00     0.003 A 
ATOM     17  C   UNL     1      45.147 127.851  22.229  1.00  0.00     0.046 A 
ATOM     18  C   UNL     1      43.504 126.970  23.764  1.00  0.00     0.049 A 
ATOM     19  C   UNL     1      45.742 126.602  22.058  1.00  0.00     0.029 A 
ATOM     20  C   UNL     1      44.081 125.695  23.612  1.00  0.00     0.123 A 
ATOM     21  C   UNL     1      45.196 125.512  22.762  1.00  0.00     0.041 A 
ATOM     22  H   UNL     1      46.299 129.165  20.996  1.00  0.00     0.166 HD
ATOM     23  F   UNL     1      43.565 124.636  24.284  1.00  0.00    -0.207 F 
ENDBRANCH   9  13
ENDBRANCH   2   5
ENDBRANCH   1   2
BRANCH   1  24
ATOM     24  C   UNL     1      44.700 131.449  15.724  1.00  0.00     0.079 C 
BRANCH  24  25
ATOM     25  N   UNL     1      43.418 132.090  15.420  1.00  0.00    -0.324 NA
ATOM     26  H   UNL     1      42.979 131.596  14.608  1.00  0.00     0.119 HD
ATOM     27  H   UNL     1      42.775 131.985  16.238  1.00  0.00     0.119 HD
ENDBRANCH  24  25
BRANCH  24  28
ATOM     28  C   UNL     1      45.199 130.633  14.507  1.00  0.00     0.023 C 
BRANCH  28  29
ATOM     29  C   UNL     1      46.102 129.441  14.878  1.00  0.00    -0.002 C 
ATOM     30  C   UNL     1      47.556 129.640  14.454  1.00  0.00     0.004 C 
ENDBRANCH  28  29
ENDBRANCH  24  28
ENDBRANCH   1  24
TORSDOF 8
ENDMDL
MODEL 7
REMARK VINA RESULT:      -5.9      1.546      1.877
REMARK SMILES CCC[C@@H](N)/C=C(\O)N1CC[C@@H](C)[C@@H](c2cc3cc(F)ccc3[nH]2)[C@H]1F
REMARK SMILES IDX 6 1 7 2 8 3 9 5 10 6 25 7 11 8 14 9 12 10 26 11 13 12 15 13
REMARK SMILES IDX 16 14 24 15 17 16 23 17 18 18 22 19 19 20 21 21 20 23 4 24
REMARK SMILES IDX 5 25 3 28 2 29 1 30
REMARK H PARENT 8 4 24 22 5 26 5 27
ROOT
ATOM      1  C   UNL     1      45.119 129.689  17.061  1.00  0.00     0.057 C 
ENDROOT
BRANCH   1   2
ATOM      2  C   UNL     1      45.363 130.923  17.522  1.00  0.00     0.186 C 
BRANCH   2   3
ATOM      3  O   UNL     1      46.571 131.551  17.218  1.00  0.00    -0.495 OA
ATOM      4  H   UNL     1      47.194 131.879  17.945  1.00  0.00     0.295 HD
ENDBRANCH   2   3
BRANCH   2   5
ATOM      5  N   UNL     1      44.376 131.612  18.312  1.00  0.00    -0.313 N 
ATOM      6  C   UNL     1      43.055 131.854  17.718  1.00  0.00     0.123 C 
ATOM      7  C   UNL     1      44.798 132.487  19.419  1.00  0.00     0.274 C 
ATOM      8  C   UNL     1      41.965 131.875  18.795  1.00  0.00     0.026 C 
ATOM      9  C   UNL     1      43.733 132.519  20.534  1.00  0.00     0.094 C 
ATOM     10  C   UNL     1      42.332 132.833  19.943  1.00  0.00     0.001 C 
ATOM     11  F   UNL     1      46.019 132.091  19.945  1.00  0.00    -0.223 F 
ATOM     12  C   UNL     1      41.236 132.845  21.018  1.00  0.00     0.008 C 
BRANCH   9  13
ATOM     13  C   UNL     1      43.759 131.266  21.390  1.00  0.00     0.024 A 
ATOM     14  C   UNL     1      44.786 130.321  21.455  1.00  0.00     0.032 A 
ATOM     15  N   UNL     1      42.728 130.904  22.191  1.00  0.00    -0.358 N 
ATOM     16  C   UNL     1      44.340 129.366  22.341  1.00  0.00     0.003 A 
ATOM     17  C   UNL     1      43.095 129.748  22.766  1.00  0.00     0.046 A 
ATOM     18  C   UNL     1      44.945 128.196  22.792  1.00  0.00     0.049 A 
ATOM     19  C   UNL     1      42.365 128.983  23.674  1.00  0.00     0.029 A 
ATOM     20  C   UNL     1      44.234 127.402  23.711  1.00  0.00     0.123 A 
ATOM     21  C   UNL     1      42.949 127.795  24.150  1.00  0.00     0.041 A 
ATOM     22  H   UNL     1      41.828 131.415  22.331  1.00  0.00     0.166 HD
ATOM     23  F   UNL     1      44.785 126.254  24.179  1.00  0.00    -0.207 F 
ENDBRANCH   9  13
ENDBRANCH   2   5
ENDBRANCH   1   2
BRANCH   1  24
ATOM     24  C   UNL     1      44.888 129.407  15.597  1.00  0.00     0.079 C 
BRANCH  24  25
ATOM     25  N   UNL     1      45.426 128.084  15.272  1.00  0.00    -0.324 NA
ATOM     26  H   UNL     1      44.688 127.366  15.458  1.00  0.00     0.119 HD
ATOM     27  H   UNL     1      45.655 128.043  14.252  1.00  0.00     0.119 HD
ENDBRANCH  24  25
BRANCH  24  28
ATOM     28  C   UNL     1      45.536 130.489  14.699  1.00  0.00     0.023 C 
BRANCH  28  29
ATOM     29  C   UNL     1      46.851 130.044  14.029  1.00  0.00    -0.002 C 
ATOM     30  C   UNL     1      47.553 131.178  13.282  1.00  0.00     0.004 C 
ENDBRANCH  28  29
ENDBRANCH  24  28
ENDBRANCH   1  24
TORSDOF 8
ENDMDL
MODEL 8
REMARK VINA RESULT:      -5.5      1.016      1.057
REMARK SMILES CCC[C@@H](N)/C=C(\O)N1CC[C@@H](C)[C@@H](c2cc3cc(F)ccc3[nH]2)[C@H]1F
REMARK SMILES IDX 6 1 7 2 8 3 9 5 10 6 25 7 11 8 14 9 12 10 26 11 13 12 15 13
REMARK SMILES IDX 16 14 24 15 17 16 23 17 18 18 22 19 19 20 21 21 20 23 4 24
REMARK SMILES IDX 5 25 3 28 2 29 1 30
REMARK H PARENT 8 4 24 22 5 26 5 27
ROOT
ATOM      1  C   UNL     1      44.816 129.961  17.025  1.00  0.00     0.057 C 
ENDROOT
BRANCH   1   2
ATOM      2  C   UNL     1      45.102 131.133  17.606  1.00  0.00     0.186 C 
BRANCH   2   3
ATOM      3  O   UNL     1      46.081 131.960  17.053  1.00  0.00    -0.495 OA
ATOM      4  H   UNL     1      45.883 132.923  16.812  1.00  0.00     0.295 HD
ENDBRANCH   2   3
BRANCH   2   5
ATOM      5  N   UNL     1      44.390 131.553  18.784  1.00  0.00    -0.313 N 
ATOM      6  C   UNL     1      42.958 131.850  18.662  1.00  0.00     0.123 C 
ATOM      7  C   UNL     1      45.121 132.162  19.909  1.00  0.00     0.274 C 
ATOM      8  C   UNL     1      42.221 131.547  19.972  1.00  0.00     0.026 C 
ATOM      9  C   UNL     1      44.420 131.862  21.250  1.00  0.00     0.094 C 
ATOM     10  C   UNL     1      42.913 132.224  21.171  1.00  0.00     0.001 C 
ATOM     11  F   UNL     1      46.437 131.726  19.958  1.00  0.00    -0.223 F 
ATOM     12  C   UNL     1      42.169 131.913  22.478  1.00  0.00     0.008 C 
BRANCH   9  13
ATOM     13  C   UNL     1      44.676 130.446  21.728  1.00  0.00     0.024 A 
ATOM     14  C   UNL     1      45.380 129.449  21.047  1.00  0.00     0.032 A 
ATOM     15  N   UNL     1      44.199 129.972  22.905  1.00  0.00    -0.358 N 
ATOM     16  C   UNL     1      45.320 128.344  21.866  1.00  0.00     0.003 A 
ATOM     17  C   UNL     1      44.600 128.693  22.978  1.00  0.00     0.046 A 
ATOM     18  C   UNL     1      45.846 127.065  21.702  1.00  0.00     0.049 A 
ATOM     19  C   UNL     1      44.354 127.785  24.006  1.00  0.00     0.029 A 
ATOM     20  C   UNL     1      45.616 126.125  22.724  1.00  0.00     0.123 A 
ATOM     21  C   UNL     1      44.873 126.484  23.871  1.00  0.00     0.041 A 
ATOM     22  H   UNL     1      43.631 130.492  23.611  1.00  0.00     0.166 HD
ATOM     23  F   UNL     1      46.111 124.867  22.607  1.00  0.00    -0.207 F 
ENDBRANCH   9  13
ENDBRANCH   2   5
ENDBRANCH   1   2
BRANCH   1  24
ATOM     24  C   UNL     1      44.947 129.745  15.537  1.00  0.00     0.079 C 
BRANCH  24  25
ATOM     25  N   UNL     1      45.803 128.582  15.293  1.00  0.00    -0.324 NA
ATOM     26  H   UNL     1      45.205 127.723  15.267  1.00  0.00     0.119 HD
ATOM     27  H   UNL     1      46.259 128.676  14.357  1.00  0.00     0.119 HD
ENDBRANCH  24  25
BRANCH  24  28
ATOM     28  C   UNL     1      45.520 130.996  14.828  1.00  0.00     0.023 C 
BRANCH  28  29
ATOM     29  C   UNL     1      47.018 130.890  14.482  1.00  0.00    -0.002 C 
ATOM     30  C   UNL     1      47.285 130.914  12.977  1.00  0.00     0.004 C 
ENDBRANCH  28  29
ENDBRANCH  24  28
ENDBRANCH   1  24
TORSDOF 8
ENDMDL
MODEL 9
REMARK VINA RESULT:      -5.2      1.287      1.497
REMARK SMILES CCC[C@@H](N)/C=C(\O)N1CC[C@@H](C)[C@@H](c2cc3cc(F)ccc3[nH]2)[C@H]1F
REMARK SMILES IDX 6 1 7 2 8 3 9 5 10 6 25 7 11 8 14 9 12 10 26 11 13 12 15 13
REMARK SMILES IDX 16 14 24 15 17 16 23 17 18 18 22 19 19 20 21 21 20 23 4 24
REMARK SMILES IDX 5 25 3 28 2 29 1 30
REMARK H PARENT 8 4 24 22 5 26 5 27
ROOT
ATOM      1  C   UNL     1      45.509 131.148  16.014  1.00  0.00     0.057 C 
ENDROOT
BRANCH   1   2
ATOM      2  C   UNL     1      44.841 130.500  16.977  1.00  0.00     0.186 C 
BRANCH   2   3
ATOM      3  O   UNL     1      44.790 129.105  16.968  1.00  0.00    -0.495 OA
ATOM      4  H   UNL     1      44.690 128.575  17.824  1.00  0.00     0.295 HD
ENDBRANCH   2   3
BRANCH   2   5
ATOM      5  N   UNL     1      44.194 131.233  18.033  1.00  0.00    -0.313 N 
ATOM      6  C   UNL     1      42.795 131.636  17.844  1.00  0.00     0.123 C 
ATOM      7  C   UNL     1      45.000 131.998  19.001  1.00  0.00     0.274 C 
ATOM      8  C   UNL     1      42.056 131.699  19.185  1.00  0.00     0.026 C 
ATOM      9  C   UNL     1      44.297 132.067  20.372  1.00  0.00     0.094 C 
ATOM     10  C   UNL     1      42.830 132.549  20.210  1.00  0.00     0.001 C 
ATOM     11  F   UNL     1      46.269 131.456  19.149  1.00  0.00    -0.223 F 
ATOM     12  C   UNL     1      42.084 132.604  21.551  1.00  0.00     0.008 C 
BRANCH   9  13
ATOM     13  C   UNL     1      44.424 130.770  21.149  1.00  0.00     0.024 A 
ATOM     14  C   UNL     1      45.283 129.705  20.863  1.00  0.00     0.032 A 
ATOM     15  N   UNL     1      43.659 130.487  22.231  1.00  0.00    -0.358 N 
ATOM     16  C   UNL     1      45.015 128.759  21.826  1.00  0.00     0.003 A 
ATOM     17  C   UNL     1      44.030 129.261  22.635  1.00  0.00     0.046 A 
ATOM     18  C   UNL     1      45.569 127.499  22.036  1.00  0.00     0.049 A 
ATOM     19  C   UNL     1      43.528 128.536  23.713  1.00  0.00     0.029 A 
ATOM     20  C   UNL     1      45.084 126.742  23.119  1.00  0.00     0.123 A 
ATOM     21  C   UNL     1      44.067 127.259  23.954  1.00  0.00     0.041 A 
ATOM     22  H   UNL     1      42.926 131.093  22.662  1.00  0.00     0.166 HD
ATOM     23  F   UNL     1      45.595 125.509  23.362  1.00  0.00    -0.207 F 
ENDBRANCH   9  13
ENDBRANCH   2   5
ENDBRANCH   1   2
BRANCH   1  24
ATOM     24  C   UNL     1      46.559 130.472  15.166  1.00  0.00     0.079 C 
BRANCH  24  25
ATOM     25  N   UNL     1      47.600 129.922  16.037  1.00  0.00    -0.324 NA
ATOM     26  H   UNL     1      47.148 129.530  16.895  1.00  0.00     0.119 HD
ATOM     27  H   UNL     1      48.083 129.134  15.547  1.00  0.00     0.119 HD
ENDBRANCH  24  25
BRANCH  24  28
ATOM     28  C   UNL     1      47.176 131.449  14.136  1.00  0.00     0.023 C 
BRANCH  28  29
ATOM     29  C   UNL     1      47.388 130.837  12.738  1.00  0.00    -0.002 C 
ATOM     30  C   UNL     1      48.600 129.908  12.672  1.00  0.00     0.004 C 
ENDBRANCH  28  29
ENDBRANCH  24  28
ENDBRANCH   1  24
TORSDOF 8
ENDMDL


