MODEL 1
REMARK VINA RESULT:      -3.7      0.000      0.000
REMARK SMILES CC(C)[C@H](N=O)C(=O)N(c1ccc2[nH]ccc2c1)c1cccc2c1CCC2
REMARK SMILES IDX 7 1 8 2 4 3 2 4 1 5 3 6 5 7 6 8 9 9 10 10 11 11 18 12 12 13
REMARK SMILES IDX 17 14 13 15 16 16 14 17 15 18 19 20 20 21 24 22 21 23 23 24
REMARK SMILES IDX 25 25 22 26 27 27 26 28
REMARK H PARENT 14 19
ROOT
ATOM      1  C   UNL     1      46.375 132.216  21.352  1.00  0.00     0.260 C 
ATOM      2  O   UNL     1      47.383 131.592  20.920  1.00  0.00    -0.271 OA
ENDROOT
BRANCH   1   3
ATOM      3  C   UNL     1      46.590 133.491  22.150  1.00  0.00     0.243 C 
BRANCH   3   4
ATOM      4  C   UNL     1      47.927 134.185  21.765  1.00  0.00     0.021 C 
ATOM      5  C   UNL     1      47.708 135.669  21.421  1.00  0.00     0.010 C 
ATOM      6  C   UNL     1      48.957 134.079  22.902  1.00  0.00     0.010 C 
ENDBRANCH   3   4
BRANCH   3   7
ATOM      7  N   UNL     1      46.539 133.197  23.568  1.00  0.00    -0.056 NA
ATOM      8  O   UNL     1      45.499 133.029  24.134  1.00  0.00    -0.150 OA
ENDBRANCH   3   7
ENDBRANCH   1   3
BRANCH   1   9
ATOM      9  N   UNL     1      45.051 131.735  21.026  1.00  0.00    -0.279 N 
BRANCH   9  10
ATOM     10  C   UNL     1      44.589 131.715  19.658  1.00  0.00     0.050 A 
ATOM     11  C   UNL     1      43.209 131.880  19.359  1.00  0.00     0.029 A 
ATOM     12  C   UNL     1      45.507 131.510  18.600  1.00  0.00     0.037 A 
ATOM     13  C   UNL     1      42.750 131.854  18.030  1.00  0.00     0.029 A 
ATOM     14  C   UNL     1      45.018 131.490  17.298  1.00  0.00     0.001 A 
ATOM     15  C   UNL     1      43.689 131.657  17.021  1.00  0.00     0.045 A 
ATOM     16  C   UNL     1      45.671 131.320  16.097  1.00  0.00     0.028 A 
ATOM     17  N   UNL     1      43.465 131.601  15.697  1.00  0.00    -0.361 N 
ATOM     18  C   UNL     1      44.675 131.395  15.128  1.00  0.00     0.083 A 
ATOM     19  H   UNL     1      42.550 131.697  15.206  1.00  0.00     0.166 HD
ENDBRANCH   9  10
BRANCH   9  20
ATOM     20  C   UNL     1      44.173 131.249  22.056  1.00  0.00     0.052 A 
ATOM     21  C   UNL     1      43.178 132.085  22.593  1.00  0.00     0.027 A 
ATOM     22  C   UNL     1      44.263 129.928  22.526  1.00  0.00    -0.021 A 
ATOM     23  C   UNL     1      42.313 131.607  23.592  1.00  0.00     0.002 A 
ATOM     24  C   UNL     1      43.409 129.463  23.495  1.00  0.00    -0.043 A 
ATOM     25  C   UNL     1      45.194 128.871  22.060  1.00  0.00     0.038 C 
ATOM     26  C   UNL     1      42.427 130.287  24.051  1.00  0.00     0.004 A 
ATOM     27  C   UNL     1      43.656 128.043  23.826  1.00  0.00     0.036 C 
ATOM     28  C   UNL     1      44.767 127.619  22.849  1.00  0.00     0.010 C 
ENDBRANCH   9  20
ENDBRANCH   1   9
TORSDOF 6
ENDMDL
MODEL 2
REMARK VINA RESULT:      -2.0      0.835      1.330
REMARK SMILES CC(C)[C@H](N=O)C(=O)N(c1ccc2[nH]ccc2c1)c1cccc2c1CCC2
REMARK SMILES IDX 7 1 8 2 4 3 2 4 1 5 3 6 5 7 6 8 9 9 10 10 11 11 18 12 12 13
REMARK SMILES IDX 17 14 13 15 16 16 14 17 15 18 19 20 20 21 24 22 21 23 23 24
REMARK SMILES IDX 25 25 22 26 27 27 26 28
REMARK H PARENT 14 19
ROOT
ATOM      1  C   UNL     1      46.764 132.178  21.116  1.00  0.00     0.260 C 
ATOM      2  O   UNL     1      47.885 131.715  20.770  1.00  0.00    -0.271 OA
ENDROOT
BRANCH   1   3
ATOM      3  C   UNL     1      46.722 133.449  21.949  1.00  0.00     0.243 C 
BRANCH   3   4
ATOM      4  C   UNL     1      48.040 134.263  21.812  1.00  0.00     0.021 C 
ATOM      5  C   UNL     1      47.756 135.731  21.451  1.00  0.00     0.010 C 
ATOM      6  C   UNL     1      48.863 134.214  23.110  1.00  0.00     0.010 C 
ENDBRANCH   3   4
BRANCH   3   7
ATOM      7  N   UNL     1      46.450 133.119  23.334  1.00  0.00    -0.056 NA
ATOM      8  O   UNL     1      45.922 133.900  24.070  1.00  0.00    -0.150 OA
ENDBRANCH   3   7
ENDBRANCH   1   3
BRANCH   1   9
ATOM      9  N   UNL     1      45.555 131.525  20.664  1.00  0.00    -0.279 N 
BRANCH   9  10
ATOM     10  C   UNL     1      45.373 131.196  19.270  1.00  0.00     0.050 A 
ATOM     11  C   UNL     1      46.178 130.202  18.650  1.00  0.00     0.029 A 
ATOM     12  C   UNL     1      44.399 131.877  18.500  1.00  0.00     0.037 A 
ATOM     13  C   UNL     1      46.011 129.882  17.291  1.00  0.00     0.029 A 
ATOM     14  C   UNL     1      44.262 131.535  17.159  1.00  0.00     0.001 A 
ATOM     15  C   UNL     1      45.037 130.571  16.575  1.00  0.00     0.045 A 
ATOM     16  C   UNL     1      43.409 132.019  16.192  1.00  0.00     0.028 A 
ATOM     17  N   UNL     1      44.717 130.421  15.279  1.00  0.00    -0.361 N 
ATOM     18  C   UNL     1      43.720 131.304  15.040  1.00  0.00     0.083 A 
ATOM     19  H   UNL     1      45.144 129.758  14.594  1.00  0.00     0.166 HD
ENDBRANCH   9  10
BRANCH   9  20
ATOM     20  C   UNL     1      44.519 131.172  21.596  1.00  0.00     0.052 A 
ATOM     21  C   UNL     1      43.507 132.096  21.915  1.00  0.00     0.027 A 
ATOM     22  C   UNL     1      44.470 129.896  22.182  1.00  0.00    -0.021 A 
ATOM     23  C   UNL     1      42.488 131.746  22.818  1.00  0.00     0.002 A 
ATOM     24  C   UNL     1      43.468 129.558  23.056  1.00  0.00    -0.043 A 
ATOM     25  C   UNL     1      45.397 128.763  21.943  1.00  0.00     0.038 C 
ATOM     26  C   UNL     1      42.465 130.470  23.396  1.00  0.00     0.004 A 
ATOM     27  C   UNL     1      43.588 128.164  23.536  1.00  0.00     0.036 C 
ATOM     28  C   UNL     1      44.798 127.606  22.765  1.00  0.00     0.010 C 
ENDBRANCH   9  20
ENDBRANCH   1   9
TORSDOF 6
ENDMDL
MODEL 3
REMARK VINA RESULT:      -1.9      2.047      5.933
REMARK SMILES CC(C)[C@H](N=O)C(=O)N(c1ccc2[nH]ccc2c1)c1cccc2c1CCC2
REMARK SMILES IDX 7 1 8 2 4 3 2 4 1 5 3 6 5 7 6 8 9 9 10 10 11 11 18 12 12 13
REMARK SMILES IDX 17 14 13 15 16 16 14 17 15 18 19 20 20 21 24 22 21 23 23 24
REMARK SMILES IDX 25 25 22 26 27 27 26 28
REMARK H PARENT 14 19
ROOT
ATOM      1  C   UNL     1      44.528 129.768  22.414  1.00  0.00     0.260 C 
ATOM      2  O   UNL     1      44.755 128.798  21.639  1.00  0.00    -0.271 OA
ENDROOT
BRANCH   1   3
ATOM      3  C   UNL     1      44.245 129.483  23.879  1.00  0.00     0.243 C 
BRANCH   3   4
ATOM      4  C   UNL     1      44.662 128.037  24.270  1.00  0.00     0.021 C 
ATOM      5  C   UNL     1      43.433 127.134  24.467  1.00  0.00     0.010 C 
ATOM      6  C   UNL     1      45.579 127.415  23.203  1.00  0.00     0.010 C 
ENDBRANCH   3   4
BRANCH   3   7
ATOM      7  N   UNL     1      42.843 129.721  24.164  1.00  0.00    -0.056 NA
ATOM      8  O   UNL     1      42.361 130.810  24.061  1.00  0.00    -0.150 OA
ENDBRANCH   3   7
ENDBRANCH   1   3
BRANCH   1   9
ATOM      9  N   UNL     1      44.601 131.118  21.900  1.00  0.00    -0.279 N 
BRANCH   9  10
ATOM     10  C   UNL     1      45.492 132.086  22.495  1.00  0.00     0.050 A 
ATOM     11  C   UNL     1      45.268 132.556  23.818  1.00  0.00     0.029 A 
ATOM     12  C   UNL     1      46.589 132.592  21.757  1.00  0.00     0.037 A 
ATOM     13  C   UNL     1      46.125 133.505  24.402  1.00  0.00     0.029 A 
ATOM     14  C   UNL     1      47.416 133.530  22.366  1.00  0.00     0.001 A 
ATOM     15  C   UNL     1      47.195 133.970  23.642  1.00  0.00     0.045 A 
ATOM     16  C   UNL     1      48.538 134.175  21.896  1.00  0.00     0.028 A 
ATOM     17  N   UNL     1      48.127 134.867  24.006  1.00  0.00    -0.361 N 
ATOM     18  C   UNL     1      48.951 134.996  22.941  1.00  0.00     0.083 A 
ATOM     19  H   UNL     1      48.203 135.363  24.921  1.00  0.00     0.166 HD
ENDBRANCH   9  10
BRANCH   9  20
ATOM     20  C   UNL     1      43.802 131.518  20.773  1.00  0.00     0.052 A 
ATOM     21  C   UNL     1      42.575 132.176  20.972  1.00  0.00     0.027 A 
ATOM     22  C   UNL     1      44.238 131.297  19.456  1.00  0.00    -0.021 A 
ATOM     23  C   UNL     1      41.800 132.577  19.870  1.00  0.00     0.002 A 
ATOM     24  C   UNL     1      43.481 131.699  18.385  1.00  0.00    -0.043 A 
ATOM     25  C   UNL     1      45.515 130.677  19.026  1.00  0.00     0.038 C 
ATOM     26  C   UNL     1      42.252 132.338  18.565  1.00  0.00     0.004 A 
ATOM     27  C   UNL     1      44.132 131.394  17.092  1.00  0.00     0.036 C 
ATOM     28  C   UNL     1      45.492 130.794  17.490  1.00  0.00     0.010 C 
ENDBRANCH   9  20
ENDBRANCH   1   9
TORSDOF 6
ENDMDL
MODEL 4
REMARK VINA RESULT:      -1.4      1.809      5.819
REMARK SMILES CC(C)[C@H](N=O)C(=O)N(c1ccc2[nH]ccc2c1)c1cccc2c1CCC2
REMARK SMILES IDX 7 1 8 2 4 3 2 4 1 5 3 6 5 7 6 8 9 9 10 10 11 11 18 12 12 13
REMARK SMILES IDX 17 14 13 15 16 16 14 17 15 18 19 20 20 21 24 22 21 23 23 24
REMARK SMILES IDX 25 25 22 26 27 27 26 28
REMARK H PARENT 14 19
ROOT
ATOM      1  C   UNL     1      45.120 130.372  21.768  1.00  0.00     0.260 C 
ATOM      2  O   UNL     1      45.718 129.357  21.316  1.00  0.00    -0.271 OA
ENDROOT
BRANCH   1   3
ATOM      3  C   UNL     1      44.492 130.298  23.150  1.00  0.00     0.243 C 
BRANCH   3   4
ATOM      4  C   UNL     1      43.778 128.936  23.378  1.00  0.00     0.021 C 
ATOM      5  C   UNL     1      44.326 128.219  24.625  1.00  0.00     0.010 C 
ATOM      6  C   UNL     1      42.259 129.122  23.532  1.00  0.00     0.010 C 
ENDBRANCH   3   4
BRANCH   3   7
ATOM      7  N   UNL     1      43.578 131.408  23.334  1.00  0.00    -0.056 NA
ATOM      8  O   UNL     1      43.274 131.792  24.424  1.00  0.00    -0.150 OA
ENDBRANCH   3   7
ENDBRANCH   1   3
BRANCH   1   9
ATOM      9  N   UNL     1      45.102 131.589  20.987  1.00  0.00    -0.279 N 
BRANCH   9  10
ATOM     10  C   UNL     1      46.051 132.646  21.245  1.00  0.00     0.050 A 
ATOM     11  C   UNL     1      45.901 133.919  20.631  1.00  0.00     0.029 A 
ATOM     12  C   UNL     1      47.156 132.416  22.101  1.00  0.00     0.037 A 
ATOM     13  C   UNL     1      46.825 134.950  20.871  1.00  0.00     0.029 A 
ATOM     14  C   UNL     1      48.051 133.459  22.315  1.00  0.00     0.001 A 
ATOM     15  C   UNL     1      47.892 134.683  21.724  1.00  0.00     0.045 A 
ATOM     16  C   UNL     1      49.189 133.520  23.088  1.00  0.00     0.028 A 
ATOM     17  N   UNL     1      48.879 135.520  22.086  1.00  0.00    -0.361 N 
ATOM     18  C   UNL     1      49.675 134.813  22.921  1.00  0.00     0.083 A 
ATOM     19  H   UNL     1      49.007 136.512  21.788  1.00  0.00     0.166 HD
ENDBRANCH   9  10
BRANCH   9  20
ATOM     20  C   UNL     1      44.148 131.765  19.925  1.00  0.00     0.052 A 
ATOM     21  C   UNL     1      42.886 132.327  20.190  1.00  0.00     0.027 A 
ATOM     22  C   UNL     1      44.460 131.414  18.601  1.00  0.00    -0.021 A 
ATOM     23  C   UNL     1      41.959 132.508  19.150  1.00  0.00     0.002 A 
ATOM     24  C   UNL     1      43.554 131.603  17.588  1.00  0.00    -0.043 A 
ATOM     25  C   UNL     1      45.742 130.864  18.097  1.00  0.00     0.038 C 
ATOM     26  C   UNL     1      42.291 132.144  17.837  1.00  0.00     0.004 A 
ATOM     27  C   UNL     1      44.091 131.193  16.271  1.00  0.00     0.036 C 
ATOM     28  C   UNL     1      45.542 130.778  16.572  1.00  0.00     0.010 C 
ENDBRANCH   9  20
ENDBRANCH   1   9
TORSDOF 6
ENDMDL
MODEL 5
REMARK VINA RESULT:      -1.1      2.874      4.782
REMARK SMILES CC(C)[C@H](N=O)C(=O)N(c1ccc2[nH]ccc2c1)c1cccc2c1CCC2
REMARK SMILES IDX 7 1 8 2 4 3 2 4 1 5 3 6 5 7 6 8 9 9 10 10 11 11 18 12 12 13
REMARK SMILES IDX 17 14 13 15 16 16 14 17 15 18 19 20 20 21 24 22 21 23 23 24
REMARK SMILES IDX 25 25 22 26 27 27 26 28
REMARK H PARENT 14 19
ROOT
ATOM      1  C   UNL     1      44.258 129.316  23.627  1.00  0.00     0.260 C 
ATOM      2  O   UNL     1      45.026 129.399  24.625  1.00  0.00    -0.271 OA
ENDROOT
BRANCH   1   3
ATOM      3  C   UNL     1      42.840 129.848  23.748  1.00  0.00     0.243 C 
BRANCH   3   4
ATOM      4  C   UNL     1      42.820 131.291  24.327  1.00  0.00     0.021 C 
ATOM      5  C   UNL     1      44.185 131.981  24.156  1.00  0.00     0.010 C 
ATOM      6  C   UNL     1      41.735 132.147  23.652  1.00  0.00     0.010 C 
ENDBRANCH   3   4
BRANCH   3   7
ATOM      7  N   UNL     1      42.045 128.946  24.558  1.00  0.00    -0.056 NA
ATOM      8  O   UNL     1      40.855 129.046  24.620  1.00  0.00    -0.150 OA
ENDBRANCH   3   7
ENDBRANCH   1   3
BRANCH   1   9
ATOM      9  N   UNL     1      44.766 128.775  22.385  1.00  0.00    -0.279 N 
BRANCH   9  10
ATOM     10  C   UNL     1      44.808 129.584  21.190  1.00  0.00     0.050 A 
ATOM     11  C   UNL     1      45.992 129.653  20.406  1.00  0.00     0.029 A 
ATOM     12  C   UNL     1      43.673 130.334  20.799  1.00  0.00     0.037 A 
ATOM     13  C   UNL     1      46.043 130.445  19.246  1.00  0.00     0.029 A 
ATOM     14  C   UNL     1      43.760 131.107  19.646  1.00  0.00     0.001 A 
ATOM     15  C   UNL     1      44.902 131.161  18.894  1.00  0.00     0.045 A 
ATOM     16  C   UNL     1      42.828 131.918  19.036  1.00  0.00     0.028 A 
ATOM     17  N   UNL     1      44.739 131.969  17.834  1.00  0.00    -0.361 N 
ATOM     18  C   UNL     1      43.471 132.434  17.916  1.00  0.00     0.083 A 
ATOM     19  H   UNL     1      45.442 132.193  17.095  1.00  0.00     0.166 HD
ENDBRANCH   9  10
BRANCH   9  20
ATOM     20  C   UNL     1      45.256 127.424  22.320  1.00  0.00     0.052 A 
ATOM     21  C   UNL     1      46.623 127.175  22.107  1.00  0.00     0.027 A 
ATOM     22  C   UNL     1      44.395 126.328  22.499  1.00  0.00    -0.021 A 
ATOM     23  C   UNL     1      47.103 125.855  22.053  1.00  0.00     0.002 A 
ATOM     24  C   UNL     1      44.871 125.042  22.455  1.00  0.00    -0.043 A 
ATOM     25  C   UNL     1      42.941 126.367  22.790  1.00  0.00     0.038 C 
ATOM     26  C   UNL     1      46.224 124.777  22.228  1.00  0.00     0.004 A 
ATOM     27  C   UNL     1      43.808 124.041  22.693  1.00  0.00     0.036 C 
ATOM     28  C   UNL     1      42.556 124.888  22.986  1.00  0.00     0.010 C 
ENDBRANCH   9  20
ENDBRANCH   1   9
TORSDOF 6
ENDMDL
MODEL 6
REMARK VINA RESULT:      -1.1      2.090      5.882
REMARK SMILES CC(C)[C@H](N=O)C(=O)N(c1ccc2[nH]ccc2c1)c1cccc2c1CCC2
REMARK SMILES IDX 7 1 8 2 4 3 2 4 1 5 3 6 5 7 6 8 9 9 10 10 11 11 18 12 12 13
REMARK SMILES IDX 17 14 13 15 16 16 14 17 15 18 19 20 20 21 24 22 21 23 23 24
REMARK SMILES IDX 25 25 22 26 27 27 26 28
REMARK H PARENT 14 19
ROOT
ATOM      1  C   UNL     1      45.125 131.121  20.310  1.00  0.00     0.260 C 
ATOM      2  O   UNL     1      46.161 130.619  19.792  1.00  0.00    -0.271 OA
ENDROOT
BRANCH   1   3
ATOM      3  C   UNL     1      44.139 131.852  19.414  1.00  0.00     0.243 C 
BRANCH   3   4
ATOM      4  C   UNL     1      42.680 131.699  19.929  1.00  0.00     0.021 C 
ATOM      5  C   UNL     1      42.302 132.844  20.885  1.00  0.00     0.010 C 
ATOM      6  C   UNL     1      41.678 131.665  18.763  1.00  0.00     0.010 C 
ENDBRANCH   3   4
BRANCH   3   7
ATOM      7  N   UNL     1      44.268 131.375  18.051  1.00  0.00    -0.056 NA
ATOM      8  O   UNL     1      44.924 131.964  17.243  1.00  0.00    -0.150 OA
ENDBRANCH   3   7
ENDBRANCH   1   3
BRANCH   1   9
ATOM      9  N   UNL     1      44.878 130.935  21.723  1.00  0.00    -0.279 N 
BRANCH   9  10
ATOM     10  C   UNL     1      44.439 129.658  22.234  1.00  0.00     0.050 A 
ATOM     11  C   UNL     1      43.250 129.558  23.006  1.00  0.00     0.029 A 
ATOM     12  C   UNL     1      45.203 128.492  21.984  1.00  0.00     0.037 A 
ATOM     13  C   UNL     1      42.821 128.320  23.513  1.00  0.00     0.029 A 
ATOM     14  C   UNL     1      44.748 127.284  22.502  1.00  0.00     0.001 A 
ATOM     15  C   UNL     1      43.598 127.198  23.238  1.00  0.00     0.045 A 
ATOM     16  C   UNL     1      45.275 126.014  22.413  1.00  0.00     0.028 A 
ATOM     17  N   UNL     1      43.370 125.931  23.622  1.00  0.00    -0.361 N 
ATOM     18  C   UNL     1      44.393 125.203  23.119  1.00  0.00     0.083 A 
ATOM     19  H   UNL     1      42.568 125.577  24.190  1.00  0.00     0.166 HD
ENDBRANCH   9  10
BRANCH   9  20
ATOM     20  C   UNL     1      45.082 132.014  22.651  1.00  0.00     0.052 A 
ATOM     21  C   UNL     1      44.178 132.220  23.709  1.00  0.00     0.027 A 
ATOM     22  C   UNL     1      46.196 132.863  22.548  1.00  0.00    -0.021 A 
ATOM     23  C   UNL     1      44.383 133.269  24.622  1.00  0.00     0.002 A 
ATOM     24  C   UNL     1      46.397 133.879  23.448  1.00  0.00    -0.043 A 
ATOM     25  C   UNL     1      47.292 132.788  21.551  1.00  0.00     0.038 C 
ATOM     26  C   UNL     1      45.499 134.108  24.494  1.00  0.00     0.004 A 
ATOM     27  C   UNL     1      47.639 134.635  23.175  1.00  0.00     0.036 C 
ATOM     28  C   UNL     1      48.275 133.892  21.986  1.00  0.00     0.010 C 
ENDBRANCH   9  20
ENDBRANCH   1   9
TORSDOF 6
ENDMDL
MODEL 7
REMARK VINA RESULT:      -0.8      1.298      1.626
REMARK SMILES CC(C)[C@H](N=O)C(=O)N(c1ccc2[nH]ccc2c1)c1cccc2c1CCC2
REMARK SMILES IDX 7 1 8 2 4 3 2 4 1 5 3 6 5 7 6 8 9 9 10 10 11 11 18 12 12 13
REMARK SMILES IDX 17 14 13 15 16 16 14 17 15 18 19 20 20 21 24 22 21 23 23 24
REMARK SMILES IDX 25 25 22 26 27 27 26 28
REMARK H PARENT 14 19
ROOT
ATOM      1  C   UNL     1      45.990 133.088  21.036  1.00  0.00     0.260 C 
ATOM      2  O   UNL     1      45.930 134.179  20.405  1.00  0.00    -0.271 OA
ENDROOT
BRANCH   1   3
ATOM      3  C   UNL     1      47.009 132.944  22.154  1.00  0.00     0.243 C 
BRANCH   3   4
ATOM      4  C   UNL     1      47.183 134.273  22.941  1.00  0.00     0.021 C 
ATOM      5  C   UNL     1      46.903 134.077  24.441  1.00  0.00     0.010 C 
ATOM      6  C   UNL     1      48.600 134.844  22.763  1.00  0.00     0.010 C 
ENDBRANCH   3   4
BRANCH   3   7
ATOM      7  N   UNL     1      48.272 132.485  21.611  1.00  0.00    -0.056 NA
ATOM      8  O   UNL     1      48.319 131.803  20.630  1.00  0.00    -0.150 OA
ENDBRANCH   3   7
ENDBRANCH   1   3
BRANCH   1   9
ATOM      9  N   UNL     1      45.053 132.033  20.719  1.00  0.00    -0.279 N 
BRANCH   9  10
ATOM     10  C   UNL     1      44.818 131.642  19.348  1.00  0.00     0.050 A 
ATOM     11  C   UNL     1      43.584 131.946  18.711  1.00  0.00     0.029 A 
ATOM     12  C   UNL     1      45.812 130.932  18.632  1.00  0.00     0.037 A 
ATOM     13  C   UNL     1      43.345 131.561  17.381  1.00  0.00     0.029 A 
ATOM     14  C   UNL     1      45.540 130.567  17.317  1.00  0.00     0.001 A 
ATOM     15  C   UNL     1      44.352 130.872  16.711  1.00  0.00     0.045 A 
ATOM     16  C   UNL     1      46.310 129.890  16.397  1.00  0.00     0.028 A 
ATOM     17  N   UNL     1      44.330 130.418  15.447  1.00  0.00    -0.361 N 
ATOM     18  C   UNL     1      45.527 129.817  15.249  1.00  0.00     0.083 A 
ATOM     19  H   UNL     1      43.554 130.509  14.755  1.00  0.00     0.166 HD
ENDBRANCH   9  10
BRANCH   9  20
ATOM     20  C   UNL     1      44.348 131.339  21.763  1.00  0.00     0.052 A 
ATOM     21  C   UNL     1      43.335 131.991  22.490  1.00  0.00     0.027 A 
ATOM     22  C   UNL     1      44.626 129.995  22.060  1.00  0.00    -0.021 A 
ATOM     23  C   UNL     1      42.640 131.309  23.503  1.00  0.00     0.002 A 
ATOM     24  C   UNL     1      43.937 129.332  23.045  1.00  0.00    -0.043 A 
ATOM     25  C   UNL     1      45.607 129.111  21.384  1.00  0.00     0.038 C 
ATOM     26  C   UNL     1      42.940 129.970  23.786  1.00  0.00     0.004 A 
ATOM     27  C   UNL     1      44.367 127.922  23.178  1.00  0.00     0.036 C 
ATOM     28  C   UNL     1      45.402 127.739  22.054  1.00  0.00     0.010 C 
ENDBRANCH   9  20
ENDBRANCH   1   9
TORSDOF 6
ENDMDL
MODEL 8
REMARK VINA RESULT:      -0.8      1.980      6.058
REMARK SMILES CC(C)[C@H](N=O)C(=O)N(c1ccc2[nH]ccc2c1)c1cccc2c1CCC2
REMARK SMILES IDX 7 1 8 2 4 3 2 4 1 5 3 6 5 7 6 8 9 9 10 10 11 11 18 12 12 13
REMARK SMILES IDX 17 14 13 15 16 16 14 17 15 18 19 20 20 21 24 22 21 23 23 24
REMARK SMILES IDX 25 25 22 26 27 27 26 28
REMARK H PARENT 14 19
ROOT
ATOM      1  C   UNL     1      44.848 131.781  22.783  1.00  0.00     0.260 C 
ATOM      2  O   UNL     1      44.864 132.441  23.857  1.00  0.00    -0.271 OA
ENDROOT
BRANCH   1   3
ATOM      3  C   UNL     1      43.999 130.522  22.710  1.00  0.00     0.243 C 
BRANCH   3   4
ATOM      4  C   UNL     1      42.964 130.465  23.868  1.00  0.00     0.021 C 
ATOM      5  C   UNL     1      42.074 131.721  23.885  1.00  0.00     0.010 C 
ATOM      6  C   UNL     1      42.071 129.217  23.757  1.00  0.00     0.010 C 
ENDBRANCH   3   4
BRANCH   3   7
ATOM      7  N   UNL     1      44.856 129.352  22.713  1.00  0.00    -0.056 NA
ATOM      8  O   UNL     1      44.406 128.249  22.805  1.00  0.00    -0.150 OA
ENDBRANCH   3   7
ENDBRANCH   1   3
BRANCH   1   9
ATOM      9  N   UNL     1      45.584 132.270  21.638  1.00  0.00    -0.279 N 
BRANCH   9  10
ATOM     10  C   UNL     1      46.690 133.183  21.808  1.00  0.00     0.050 A 
ATOM     11  C   UNL     1      47.718 132.905  22.751  1.00  0.00     0.029 A 
ATOM     12  C   UNL     1      46.751 134.376  21.048  1.00  0.00     0.037 A 
ATOM     13  C   UNL     1      48.794 133.793  22.927  1.00  0.00     0.029 A 
ATOM     14  C   UNL     1      47.830 135.231  21.250  1.00  0.00     0.001 A 
ATOM     15  C   UNL     1      48.817 134.950  22.154  1.00  0.00     0.045 A 
ATOM     16  C   UNL     1      48.144 136.434  20.657  1.00  0.00     0.028 A 
ATOM     17  N   UNL     1      49.745 135.921  22.165  1.00  0.00    -0.361 N 
ATOM     18  C   UNL     1      49.338 136.831  21.250  1.00  0.00     0.083 A 
ATOM     19  H   UNL     1      50.606 135.967  22.754  1.00  0.00     0.166 HD
ENDBRANCH   9  10
BRANCH   9  20
ATOM     20  C   UNL     1      45.242 131.843  20.309  1.00  0.00     0.052 A 
ATOM     21  C   UNL     1      46.164 131.113  19.538  1.00  0.00     0.027 A 
ATOM     22  C   UNL     1      43.977 132.112  19.761  1.00  0.00    -0.021 A 
ATOM     23  C   UNL     1      45.825 130.687  18.243  1.00  0.00     0.002 A 
ATOM     24  C   UNL     1      43.648 131.685  18.498  1.00  0.00    -0.043 A 
ATOM     25  C   UNL     1      42.845 132.812  20.417  1.00  0.00     0.038 C 
ATOM     26  C   UNL     1      44.559 130.973  17.714  1.00  0.00     0.004 A 
ATOM     27  C   UNL     1      42.263 132.050  18.126  1.00  0.00     0.036 C 
ATOM     28  C   UNL     1      41.699 132.720  19.391  1.00  0.00     0.010 C 
ENDBRANCH   9  20
ENDBRANCH   1   9
TORSDOF 6
ENDMDL
MODEL 9
REMARK VINA RESULT:      -0.7      1.903      5.553
REMARK SMILES CC(C)[C@H](N=O)C(=O)N(c1ccc2[nH]ccc2c1)c1cccc2c1CCC2
REMARK SMILES IDX 7 1 8 2 4 3 2 4 1 5 3 6 5 7 6 8 9 9 10 10 11 11 18 12 12 13
REMARK SMILES IDX 17 14 13 15 16 16 14 17 15 18 19 20 20 21 24 22 21 23 23 24
REMARK SMILES IDX 25 25 22 26 27 27 26 28
REMARK H PARENT 14 19
ROOT
ATOM      1  C   UNL     1      44.800 131.777  19.211  1.00  0.00     0.260 C 
ATOM      2  O   UNL     1      43.593 132.110  19.056  1.00  0.00    -0.271 OA
ENDROOT
BRANCH   1   3
ATOM      3  C   UNL     1      45.654 131.524  17.980  1.00  0.00     0.243 C 
BRANCH   3   4
ATOM      4  C   UNL     1      44.902 131.912  16.676  1.00  0.00     0.021 C 
ATOM      5  C   UNL     1      45.871 132.460  15.613  1.00  0.00     0.010 C 
ATOM      6  C   UNL     1      44.143 130.708  16.092  1.00  0.00     0.010 C 
ENDBRANCH   3   4
BRANCH   3   7
ATOM      7  N   UNL     1      46.075 130.137  17.952  1.00  0.00    -0.056 NA
ATOM      8  O   UNL     1      46.611 129.667  16.993  1.00  0.00    -0.150 OA
ENDBRANCH   3   7
ENDBRANCH   1   3
BRANCH   1   9
ATOM      9  N   UNL     1      45.349 131.705  20.547  1.00  0.00    -0.279 N 
BRANCH   9  10
ATOM     10  C   UNL     1      46.269 132.712  21.022  1.00  0.00     0.050 A 
ATOM     11  C   UNL     1      46.107 134.073  20.647  1.00  0.00     0.029 A 
ATOM     12  C   UNL     1      47.356 132.346  21.853  1.00  0.00     0.037 A 
ATOM     13  C   UNL     1      47.003 135.057  21.099  1.00  0.00     0.029 A 
ATOM     14  C   UNL     1      48.223 133.346  22.280  1.00  0.00     0.001 A 
ATOM     15  C   UNL     1      48.053 134.655  21.920  1.00  0.00     0.045 A 
ATOM     16  C   UNL     1      49.339 133.282  23.085  1.00  0.00     0.028 A 
ATOM     17  N   UNL     1      49.012 135.427  22.458  1.00  0.00    -0.361 N 
ATOM     18  C   UNL     1      49.801 134.591  23.172  1.00  0.00     0.083 A 
ATOM     19  H   UNL     1      49.128 136.459  22.351  1.00  0.00     0.166 HD
ENDBRANCH   9  10
BRANCH   9  20
ATOM     20  C   UNL     1      44.975 130.639  21.437  1.00  0.00     0.052 A 
ATOM     21  C   UNL     1      45.599 129.383  21.341  1.00  0.00     0.027 A 
ATOM     22  C   UNL     1      44.009 130.832  22.439  1.00  0.00    -0.021 A 
ATOM     23  C   UNL     1      45.241 128.345  22.218  1.00  0.00     0.002 A 
ATOM     24  C   UNL     1      43.670 129.818  23.299  1.00  0.00    -0.043 A 
ATOM     25  C   UNL     1      43.275 132.084  22.749  1.00  0.00     0.038 C 
ATOM     26  C   UNL     1      44.269 128.559  23.205  1.00  0.00     0.004 A 
ATOM     27  C   UNL     1      42.656 130.238  24.291  1.00  0.00     0.036 C 
ATOM     28  C   UNL     1      42.440 131.733  23.995  1.00  0.00     0.010 C 
ENDBRANCH   9  20
ENDBRANCH   1   9
TORSDOF 6
ENDMDL


