REMARK SMILES [H]/N=c1\[nH]cccc1[NH2+]c1ccc(C(C)=O)c(F)c1
REMARK SMILES IDX 9 1 8 4 3 5 4 6 7 7 5 8 6 9 2 11 1 12 10 13 11 14 19 15
REMARK SMILES IDX 12 16 17 17 13 18 18 19 14 20 16 21 15 22
REMARK H PARENT 9 2 9 3 4 10
ROOT
ATOM      1  N   UNL     1       0.499  -0.973  -2.101  1.00  0.00    -0.278 N 
ATOM      2  H   UNL     1       0.246  -0.638  -3.060  1.00  0.00     0.358 HD
ATOM      3  H   UNL     1       1.534  -0.842  -2.010  1.00  0.00     0.358 HD
ENDROOT
BRANCH   1   4
ATOM      4  C   UNL     1       0.150  -2.368  -1.954  1.00  0.00     0.177 A 
ATOM      5  C   UNL     1       0.853  -3.222  -1.072  1.00  0.00     0.185 A 
ATOM      6  N   UNL     1       0.471  -4.528  -0.941  1.00  0.00    -0.342 N 
ATOM      7  C   UNL     1      -0.939  -2.897  -2.668  1.00  0.00     0.074 A 
ATOM      8  C   UNL     1      -0.579  -5.040  -1.637  1.00  0.00     0.084 A 
ATOM      9  C   UNL     1      -1.302  -4.232  -2.512  1.00  0.00     0.024 A 
ATOM     10  H   UNL     1       0.990  -5.163  -0.292  1.00  0.00     0.168 HD
BRANCH   5  11
ATOM     11  N   UNL     1       1.860  -2.770  -0.391  1.00  0.00    -0.279 NA
ATOM     12  H   UNL     1       2.402  -3.373   0.268  1.00  0.00     0.190 HD
ENDBRANCH   5  11
ENDBRANCH   1   4
BRANCH   1  13
ATOM     13  C   UNL     1      -0.201  -0.185  -1.115  1.00  0.00     0.137 A 
ATOM     14  C   UNL     1      -1.524   0.224  -1.342  1.00  0.00     0.069 A 
ATOM     15  C   UNL     1       0.420   0.163   0.095  1.00  0.00     0.108 A 
ATOM     16  C   UNL     1      -2.212   0.965  -0.379  1.00  0.00     0.021 A 
ATOM     17  C   UNL     1      -0.264   0.905   1.063  1.00  0.00     0.139 A 
ATOM     18  C   UNL     1      -1.599   1.311   0.839  1.00  0.00     0.053 A 
ATOM     19  F   UNL     1       0.400   1.243   2.196  1.00  0.00    -0.206 F 
BRANCH  18  20
ATOM     20  C   UNL     1      -2.372   2.095   1.842  1.00  0.00     0.162 C 
ATOM     21  O   UNL     1      -3.385   2.748   1.469  1.00  0.00    -0.294 OA
ATOM     22  C   UNL     1      -1.991   2.150   3.290  1.00  0.00     0.093 C 
ENDBRANCH  18  20
ENDBRANCH   1  13
TORSDOF 4


