REMARK SMILES Cc1ccc(-c2cc(C=O)c([N-]C(=O)[N-][C@@H](c3ccc(F)cc3)C(C)C)cc2F)cc1
REMARK SMILES IDX 13 1 14 2 12 3 11 4 6 5 7 6 28 7 8 8 27 9 29 10 5 11 2 12
REMARK SMILES IDX 3 13 31 14 4 15 30 16 1 17 9 18 10 19 15 20 16 21 17 22
REMARK SMILES IDX 18 23 23 24 19 25 22 26 20 27 21 28 24 29 25 30 26 31
REMARK H PARENT
ROOT
ATOM      1  C   UNL     1       0.945   0.844   2.734  1.00  0.00    -0.036 C 
ATOM      2  O   UNL     1       1.146   1.391   3.850  1.00  0.00    -0.341 OA
ENDROOT
BRANCH   1   3
ATOM      3  N   UNL     1       1.820  -0.202   2.301  1.00  0.00    -0.642 NA
BRANCH   3   4
ATOM      4  C   UNL     1       1.875  -0.758   0.977  1.00  0.00    -0.122 A 
ATOM      5  C   UNL     1       2.012  -1.849  -1.624  1.00  0.00     0.018 A 
ATOM      6  C   UNL     1       2.307  -2.641  -0.502  1.00  0.00     0.022 A 
ATOM      7  C   UNL     1       1.676  -0.497  -1.436  1.00  0.00     0.129 A 
ATOM      8  C   UNL     1       2.249  -2.107   0.798  1.00  0.00     0.000 A 
ATOM      9  C   UNL     1       1.618   0.041  -0.150  1.00  0.00     0.024 A 
ATOM     10  F   UNL     1       1.449   0.316  -2.499  1.00  0.00    -0.206 F 
BRANCH   5  11
ATOM     11  C   UNL     1       2.069  -2.438  -2.984  1.00  0.00    -0.015 A 
ATOM     12  C   UNL     1       2.167  -3.586  -5.556  1.00  0.00    -0.051 A 
ATOM     13  C   UNL     1       1.075  -2.791  -5.177  1.00  0.00     0.004 A 
ATOM     14  C   UNL     1       3.219  -3.788  -4.651  1.00  0.00     0.004 A 
ATOM     15  C   UNL     1       1.022  -2.228  -3.899  1.00  0.00     0.009 A 
ATOM     16  C   UNL     1       3.167  -3.226  -3.372  1.00  0.00     0.009 A 
ATOM     17  C   UNL     1       2.242  -4.158  -6.941  1.00  0.00     0.044 C 
ENDBRANCH   5  11
BRANCH   8  18
ATOM     18  C   UNL     1       2.556  -2.966   1.965  1.00  0.00     0.258 C 
ATOM     19  O   UNL     1       2.890  -4.171   1.815  1.00  0.00    -0.298 OA
ENDBRANCH   8  18
ENDBRANCH   3   4
ENDBRANCH   1   3
BRANCH   1  20
ATOM     20  N   UNL     1      -0.175   1.233   1.931  1.00  0.00    -0.663 NA
BRANCH  20  21
ATOM     21  C   UNL     1      -1.170   2.231   2.321  1.00  0.00    -0.074 C 
BRANCH  21  22
ATOM     22  C   UNL     1      -1.890   2.743   1.085  1.00  0.00    -0.062 A 
ATOM     23  C   UNL     1      -2.221   1.881   0.020  1.00  0.00     0.005 A 
ATOM     24  C   UNL     1      -2.253   4.099   0.998  1.00  0.00     0.005 A 
ATOM     25  C   UNL     1      -2.892   2.370  -1.104  1.00  0.00     0.039 A 
ATOM     26  C   UNL     1      -2.925   4.583  -0.128  1.00  0.00     0.039 A 
ATOM     27  C   UNL     1      -3.244   3.720  -1.179  1.00  0.00     0.123 A 
ATOM     28  F   UNL     1      -3.896   4.191  -2.270  1.00  0.00    -0.207 F 
ENDBRANCH  21  22
BRANCH  21  29
ATOM     29  C   UNL     1      -2.136   1.648   3.392  1.00  0.00    -0.028 C 
ATOM     30  C   UNL     1      -2.934   0.434   2.892  1.00  0.00     0.006 C 
ATOM     31  C   UNL     1      -3.087   2.719   3.947  1.00  0.00     0.006 C 
ENDBRANCH  21  29
ENDBRANCH  20  21
ENDBRANCH   1  20
TORSDOF 8


