REMARK SMILES Cc1ccc(N[C@H]2CC[C@H]3[N+](C)=NN[C@@]3(N)[C@@H]2O)cc1
REMARK SMILES IDX 7 1 8 2 9 3 10 4 11 5 12 6 13 7 14 8 15 9 17 10 6 12 5 14
REMARK SMILES IDX 2 15 3 16 20 17 4 18 19 19 1 20 18 21 16 23
REMARK H PARENT 14 11 6 13 18 22 16 24 16 25
ROOT
ATOM      1  C   UNL     1       0.115   0.242  -0.722  1.00  0.00     0.114 C 
ATOM      2  C   UNL     1       1.235  -0.005  -1.739  1.00  0.00     0.032 C 
ATOM      3  C   UNL     1       2.590   0.148  -1.064  1.00  0.00     0.061 C 
ATOM      4  C   UNL     1       2.791   1.518  -0.377  1.00  0.00     0.266 C 
ATOM      5  N   UNL     1       3.225   2.588  -1.277  1.00  0.00    -0.163 N 
ATOM      6  C   UNL     1       4.351   2.527  -2.204  1.00  0.00     0.319 C 
ATOM      7  N   UNL     1       2.672   3.691  -0.985  1.00  0.00     0.079 NA
ATOM      8  N   UNL     1       1.732   3.549   0.033  1.00  0.00    -0.156 N 
ATOM      9  C   UNL     1       1.538   2.136   0.324  1.00  0.00     0.244 C 
ATOM     10  C   UNL     1       0.159   1.716  -0.290  1.00  0.00     0.206 C 
ATOM     11  H   UNL     1       1.124   4.330   0.365  1.00  0.00     0.337 HD
ENDROOT
BRANCH   1  12
ATOM     12  N   UNL     1      -1.185  -0.080  -1.329  1.00  0.00    -0.379 N 
ATOM     13  H   UNL     1      -1.794   0.713  -1.638  1.00  0.00     0.160 HD
BRANCH  12  14
ATOM     14  C   UNL     1      -1.686  -1.418  -1.529  1.00  0.00     0.034 A 
ATOM     15  C   UNL     1      -2.728  -4.005  -1.961  1.00  0.00    -0.051 A 
ATOM     16  C   UNL     1      -1.505  -3.837  -1.298  1.00  0.00     0.005 A 
ATOM     17  C   UNL     1      -3.441  -2.874  -2.384  1.00  0.00     0.005 A 
ATOM     18  C   UNL     1      -0.984  -2.557  -1.087  1.00  0.00     0.026 A 
ATOM     19  C   UNL     1      -2.921  -1.594  -2.174  1.00  0.00     0.026 A 
ATOM     20  C   UNL     1      -3.304  -5.377  -2.151  1.00  0.00     0.044 C 
ENDBRANCH  12  14
ENDBRANCH   1  12
BRANCH  10  21
ATOM     21  O   UNL     1      -0.888   1.962   0.616  1.00  0.00    -0.384 OA
ATOM     22  H   UNL     1      -1.046   2.942   0.615  1.00  0.00     0.211 HD
ENDBRANCH  10  21
BRANCH   9  23
ATOM     23  N   UNL     1       1.607   1.904   1.772  1.00  0.00    -0.283 NA
ATOM     24  H   UNL     1       1.355   0.909   1.970  1.00  0.00     0.123 HD
ATOM     25  H   UNL     1       0.914   2.514   2.262  1.00  0.00     0.123 HD
ENDBRANCH   9  23
TORSDOF 4


