MODEL 1
REMARK VINA RESULT:      -9.9      0.000      0.000
REMARK SMILES O=C1Cc2ccc(-c3c[n-]c4nccc-4c3)cc2[N-]1
REMARK SMILES IDX 1 1 2 2 3 3 4 4 5 5 6 6 7 7 17 8 18 9 19 10 8 11 9 12 16 13
REMARK SMILES IDX 10 14 15 15 11 16 14 17 12 18 13 19
REMARK H PARENT
ROOT
ATOM      1  O   UNL     1      48.821 129.182  13.190  1.00  0.00    -0.320 OA
ATOM      2  C   UNL     1      47.876 129.706  13.835  1.00  0.00     0.059 C 
ATOM      3  C   UNL     1      46.797 130.531  13.202  1.00  0.00     0.089 C 
ATOM      4  C   UNL     1      45.999 130.864  14.414  1.00  0.00    -0.057 A 
ATOM      5  C   UNL     1      44.838 131.629  14.498  1.00  0.00     0.003 A 
ATOM      6  C   UNL     1      44.249 131.818  15.758  1.00  0.00     0.009 A 
ATOM      7  C   UNL     1      44.822 131.242  16.920  1.00  0.00    -0.020 A 
ATOM      8  C   UNL     1      46.000 130.470  16.798  1.00  0.00    -0.007 A 
ATOM      9  C   UNL     1      46.564 130.300  15.535  1.00  0.00    -0.130 A 
ATOM     10  N   UNL     1      47.740 129.563  15.247  1.00  0.00    -0.626 NA
ENDROOT
BRANCH   7  11
ATOM     11  C   UNL     1      44.193 131.445  18.250  1.00  0.00    -0.022 A 
ATOM     12  C   UNL     1      42.845 131.906  18.346  1.00  0.00    -0.014 A 
ATOM     13  C   UNL     1      44.928 131.182  19.431  1.00  0.00     0.016 A 
ATOM     14  N   UNL     1      42.241 132.101  19.558  1.00  0.00    -0.442 NA
ATOM     15  C   UNL     1      44.287 131.388  20.641  1.00  0.00    -0.026 A 
ATOM     16  C   UNL     1      42.942 131.848  20.685  1.00  0.00    -0.052 A 
ATOM     17  C   UNL     1      44.674 131.235  21.947  1.00  0.00     0.003 A 
ATOM     18  N   UNL     1      42.503 131.980  21.946  1.00  0.00    -0.442 NA
ATOM     19  C   UNL     1      43.563 131.605  22.709  1.00  0.00    -0.022 A 
ENDBRANCH   7  11
TORSDOF 1
ENDMDL
MODEL 2
REMARK VINA RESULT:      -9.6      1.183      1.641
REMARK SMILES O=C1Cc2ccc(-c3c[n-]c4nccc-4c3)cc2[N-]1
REMARK SMILES IDX 1 1 2 2 3 3 4 4 5 5 6 6 7 7 17 8 18 9 19 10 8 11 9 12 16 13
REMARK SMILES IDX 10 14 15 15 11 16 14 17 12 18 13 19
REMARK H PARENT
ROOT
ATOM      1  O   UNL     1      48.631 129.166  12.656  1.00  0.00    -0.320 OA
ATOM      2  C   UNL     1      47.923 129.727  13.533  1.00  0.00     0.059 C 
ATOM      3  C   UNL     1      47.137 130.979  13.289  1.00  0.00     0.089 C 
ATOM      4  C   UNL     1      46.530 131.155  14.637  1.00  0.00    -0.057 A 
ATOM      5  C   UNL     1      45.673 132.163  15.072  1.00  0.00     0.003 A 
ATOM      6  C   UNL     1      45.220 132.133  16.400  1.00  0.00     0.009 A 
ATOM      7  C   UNL     1      45.624 131.097  17.280  1.00  0.00    -0.020 A 
ATOM      8  C   UNL     1      46.493 130.088  16.805  1.00  0.00    -0.007 A 
ATOM      9  C   UNL     1      46.928 130.144  15.483  1.00  0.00    -0.130 A 
ATOM     10  N   UNL     1      47.801 129.217  14.859  1.00  0.00    -0.626 NA
ENDROOT
BRANCH   7  11
ATOM     11  C   UNL     1      45.140 131.070  18.684  1.00  0.00    -0.022 A 
ATOM     12  C   UNL     1      45.866 130.353  19.682  1.00  0.00    -0.014 A 
ATOM     13  C   UNL     1      43.954 131.756  19.040  1.00  0.00     0.016 A 
ATOM     14  N   UNL     1      45.443 130.311  20.982  1.00  0.00    -0.442 NA
ATOM     15  C   UNL     1      43.555 131.696  20.365  1.00  0.00    -0.026 A 
ATOM     16  C   UNL     1      44.312 130.968  21.323  1.00  0.00    -0.052 A 
ATOM     17  C   UNL     1      42.494 132.229  21.051  1.00  0.00     0.003 A 
ATOM     18  N   UNL     1      43.764 131.036  22.545  1.00  0.00    -0.442 NA
ATOM     19  C   UNL     1      42.656 131.805  22.372  1.00  0.00    -0.022 A 
ENDBRANCH   7  11
TORSDOF 1
ENDMDL
MODEL 3
REMARK VINA RESULT:      -9.5      3.010      6.951
REMARK SMILES O=C1Cc2ccc(-c3c[n-]c4nccc-4c3)cc2[N-]1
REMARK SMILES IDX 1 1 2 2 3 3 4 4 5 5 6 6 7 7 17 8 18 9 19 10 8 11 9 12 16 13
REMARK SMILES IDX 10 14 15 15 11 16 14 17 12 18 13 19
REMARK H PARENT
ROOT
ATOM      1  O   UNL     1      44.272 131.334  23.780  1.00  0.00    -0.320 OA
ATOM      2  C   UNL     1      44.113 131.401  22.533  1.00  0.00     0.059 C 
ATOM      3  C   UNL     1      42.826 131.802  21.880  1.00  0.00     0.089 C 
ATOM      4  C   UNL     1      43.232 131.699  20.451  1.00  0.00    -0.057 A 
ATOM      5  C   UNL     1      42.463 131.946  19.317  1.00  0.00     0.003 A 
ATOM      6  C   UNL     1      43.056 131.781  18.054  1.00  0.00     0.009 A 
ATOM      7  C   UNL     1      44.409 131.373  17.937  1.00  0.00    -0.020 A 
ATOM      8  C   UNL     1      45.161 131.132  19.110  1.00  0.00    -0.007 A 
ATOM      9  C   UNL     1      44.547 131.303  20.349  1.00  0.00    -0.130 A 
ATOM     10  N   UNL     1      45.159 131.097  21.611  1.00  0.00    -0.626 NA
ENDROOT
BRANCH   7  11
ATOM     11  C   UNL     1      45.030 131.201  16.600  1.00  0.00    -0.022 A 
ATOM     12  C   UNL     1      44.422 131.779  15.445  1.00  0.00    -0.014 A 
ATOM     13  C   UNL     1      46.230 130.463  16.463  1.00  0.00     0.016 A 
ATOM     14  N   UNL     1      44.974 131.637  14.200  1.00  0.00    -0.442 NA
ATOM     15  C   UNL     1      46.763 130.339  15.191  1.00  0.00    -0.026 A 
ATOM     16  C   UNL     1      46.120 130.934  14.070  1.00  0.00    -0.052 A 
ATOM     17  C   UNL     1      47.882 129.720  14.697  1.00  0.00     0.003 A 
ATOM     18  N   UNL     1      46.793 130.704  12.932  1.00  0.00    -0.442 NA
ATOM     19  C   UNL     1      47.864 129.964  13.322  1.00  0.00    -0.022 A 
ENDBRANCH   7  11
TORSDOF 1
ENDMDL
MODEL 4
REMARK VINA RESULT:      -9.4      3.167      7.244
REMARK SMILES O=C1Cc2ccc(-c3c[n-]c4nccc-4c3)cc2[N-]1
REMARK SMILES IDX 1 1 2 2 3 3 4 4 5 5 6 6 7 7 17 8 18 9 19 10 8 11 9 12 16 13
REMARK SMILES IDX 10 14 15 15 11 16 14 17 12 18 13 19
REMARK H PARENT
ROOT
ATOM      1  O   UNL     1      41.777 132.344  23.106  1.00  0.00    -0.320 OA
ATOM      2  C   UNL     1      42.617 131.968  22.248  1.00  0.00     0.059 C 
ATOM      3  C   UNL     1      43.833 131.156  22.577  1.00  0.00     0.089 C 
ATOM      4  C   UNL     1      44.418 131.025  21.213  1.00  0.00    -0.057 A 
ATOM      5  C   UNL     1      45.585 130.367  20.836  1.00  0.00     0.003 A 
ATOM      6  C   UNL     1      45.952 130.374  19.481  1.00  0.00     0.009 A 
ATOM      7  C   UNL     1      45.150 131.036  18.517  1.00  0.00    -0.020 A 
ATOM      8  C   UNL     1      43.970 131.692  18.935  1.00  0.00    -0.007 A 
ATOM      9  C   UNL     1      43.631 131.670  20.286  1.00  0.00    -0.130 A 
ATOM     10  N   UNL     1      42.490 132.283  20.863  1.00  0.00    -0.626 NA
ENDROOT
BRANCH   7  11
ATOM     11  C   UNL     1      45.543 131.038  17.085  1.00  0.00    -0.022 A 
ATOM     12  C   UNL     1      44.932 131.951  16.173  1.00  0.00    -0.014 A 
ATOM     13  C   UNL     1      46.526 130.134  16.616  1.00  0.00     0.016 A 
ATOM     14  N   UNL     1      45.275 131.975  14.848  1.00  0.00    -0.442 NA
ATOM     15  C   UNL     1      46.852 130.186  15.271  1.00  0.00    -0.026 A 
ATOM     16  C   UNL     1      46.216 131.114  14.401  1.00  0.00    -0.052 A 
ATOM     17  C   UNL     1      47.737 129.487  14.491  1.00  0.00     0.003 A 
ATOM     18  N   UNL     1      46.671 131.009  13.144  1.00  0.00    -0.442 NA
ATOM     19  C   UNL     1      47.597 130.016  13.206  1.00  0.00    -0.022 A 
ENDBRANCH   7  11
TORSDOF 1
ENDMDL
MODEL 5
REMARK VINA RESULT:      -9.1      3.066      7.105
REMARK SMILES O=C1Cc2ccc(-c3c[n-]c4nccc-4c3)cc2[N-]1
REMARK SMILES IDX 1 1 2 2 3 3 4 4 5 5 6 6 7 7 17 8 18 9 19 10 8 11 9 12 16 13
REMARK SMILES IDX 10 14 15 15 11 16 14 17 12 18 13 19
REMARK H PARENT
ROOT
ATOM      1  O   UNL     1      43.320 132.085  23.526  1.00  0.00    -0.320 OA
ATOM      2  C   UNL     1      43.382 131.964  22.274  1.00  0.00     0.059 C 
ATOM      3  C   UNL     1      42.269 132.347  21.347  1.00  0.00     0.089 C 
ATOM      4  C   UNL     1      42.899 131.990  20.046  1.00  0.00    -0.057 A 
ATOM      5  C   UNL     1      42.361 132.108  18.767  1.00  0.00     0.003 A 
ATOM      6  C   UNL     1      43.140 131.704  17.671  1.00  0.00     0.009 A 
ATOM      7  C   UNL     1      44.447 131.187  17.862  1.00  0.00    -0.020 A 
ATOM      8  C   UNL     1      44.962 131.083  19.174  1.00  0.00    -0.007 A 
ATOM      9  C   UNL     1      44.167 131.491  20.243  1.00  0.00    -0.130 A 
ATOM     10  N   UNL     1      44.533 131.445  21.612  1.00  0.00    -0.626 NA
ENDROOT
BRANCH   7  11
ATOM     11  C   UNL     1      45.266 130.762  16.699  1.00  0.00    -0.022 A 
ATOM     12  C   UNL     1      45.439 129.375  16.408  1.00  0.00    -0.014 A 
ATOM     13  C   UNL     1      45.880 131.732  15.870  1.00  0.00     0.016 A 
ATOM     14  N   UNL     1      46.188 128.956  15.343  1.00  0.00    -0.442 NA
ATOM     15  C   UNL     1      46.630 131.274  14.799  1.00  0.00    -0.026 A 
ATOM     16  C   UNL     1      46.772 129.881  14.550  1.00  0.00    -0.052 A 
ATOM     17  C   UNL     1      47.340 131.906  13.811  1.00  0.00     0.003 A 
ATOM     18  N   UNL     1      47.530 129.644  13.469  1.00  0.00    -0.442 NA
ATOM     19  C   UNL     1      47.873 130.882  13.024  1.00  0.00    -0.022 A 
ENDBRANCH   7  11
TORSDOF 1
ENDMDL
MODEL 6
REMARK VINA RESULT:      -8.2      3.078      7.276
REMARK SMILES O=C1Cc2ccc(-c3c[n-]c4nccc-4c3)cc2[N-]1
REMARK SMILES IDX 1 1 2 2 3 3 4 4 5 5 6 6 7 7 17 8 18 9 19 10 8 11 9 12 16 13
REMARK SMILES IDX 10 14 15 15 11 16 14 17 12 18 13 19
REMARK H PARENT
ROOT
ATOM      1  O   UNL     1      40.596 133.383  20.906  1.00  0.00    -0.320 OA
ATOM      2  C   UNL     1      41.620 132.836  20.419  1.00  0.00     0.059 C 
ATOM      3  C   UNL     1      42.729 132.262  21.248  1.00  0.00     0.089 C 
ATOM      4  C   UNL     1      43.623 131.778  20.160  1.00  0.00    -0.057 A 
ATOM      5  C   UNL     1      44.853 131.135  20.278  1.00  0.00     0.003 A 
ATOM      6  C   UNL     1      45.532 130.765  19.106  1.00  0.00     0.009 A 
ATOM      7  C   UNL     1      44.978 131.040  17.831  1.00  0.00    -0.020 A 
ATOM      8  C   UNL     1      43.727 131.692  17.748  1.00  0.00    -0.007 A 
ATOM      9  C   UNL     1      43.075 132.048  18.927  1.00  0.00    -0.130 A 
ATOM     10  N   UNL     1      41.824 132.710  19.013  1.00  0.00    -0.626 NA
ENDROOT
BRANCH   7  11
ATOM     11  C   UNL     1      45.701 130.645  16.595  1.00  0.00    -0.022 A 
ATOM     12  C   UNL     1      45.865 129.266  16.266  1.00  0.00    -0.014 A 
ATOM     13  C   UNL     1      46.233 131.636  15.736  1.00  0.00     0.016 A 
ATOM     14  N   UNL     1      46.527 128.874  15.135  1.00  0.00    -0.442 NA
ATOM     15  C   UNL     1      46.896 131.207  14.598  1.00  0.00    -0.026 A 
ATOM     16  C   UNL     1      47.033 129.821  14.313  1.00  0.00    -0.052 A 
ATOM     17  C   UNL     1      47.514 131.865  13.566  1.00  0.00     0.003 A 
ATOM     18  N   UNL     1      47.699 129.612  13.168  1.00  0.00    -0.442 NA
ATOM     19  C   UNL     1      47.989 130.862  12.719  1.00  0.00    -0.022 A 
ENDBRANCH   7  11
TORSDOF 1
ENDMDL
MODEL 7
REMARK VINA RESULT:      -8.2      1.473      2.189
REMARK SMILES O=C1Cc2ccc(-c3c[n-]c4nccc-4c3)cc2[N-]1
REMARK SMILES IDX 1 1 2 2 3 3 4 4 5 5 6 6 7 7 17 8 18 9 19 10 8 11 9 12 16 13
REMARK SMILES IDX 10 14 15 15 11 16 14 17 12 18 13 19
REMARK H PARENT
ROOT
ATOM      1  O   UNL     1      47.387 130.193  13.420  1.00  0.00    -0.320 OA
ATOM      2  C   UNL     1      46.631 130.476  14.386  1.00  0.00     0.059 C 
ATOM      3  C   UNL     1      45.291 131.127  14.227  1.00  0.00     0.089 C 
ATOM      4  C   UNL     1      44.886 131.207  15.658  1.00  0.00    -0.057 A 
ATOM      5  C   UNL     1      43.710 131.728  16.193  1.00  0.00     0.003 A 
ATOM      6  C   UNL     1      43.538 131.703  17.586  1.00  0.00     0.009 A 
ATOM      7  C   UNL     1      44.539 131.159  18.431  1.00  0.00    -0.020 A 
ATOM      8  C   UNL     1      45.719 130.637  17.854  1.00  0.00    -0.007 A 
ATOM      9  C   UNL     1      45.864 130.675  16.468  1.00  0.00    -0.130 A 
ATOM     10  N   UNL     1      46.984 130.201  15.740  1.00  0.00    -0.626 NA
ENDROOT
BRANCH   7  11
ATOM     11  C   UNL     1      44.350 131.135  19.903  1.00  0.00    -0.022 A 
ATOM     12  C   UNL     1      45.321 130.511  20.743  1.00  0.00    -0.014 A 
ATOM     13  C   UNL     1      43.205 131.732  20.483  1.00  0.00     0.016 A 
ATOM     14  N   UNL     1      45.172 130.475  22.103  1.00  0.00    -0.442 NA
ATOM     15  C   UNL     1      43.085 131.680  21.861  1.00  0.00    -0.026 A 
ATOM     16  C   UNL     1      44.080 131.047  22.656  1.00  0.00    -0.052 A 
ATOM     17  C   UNL     1      42.141 132.145  22.741  1.00  0.00     0.003 A 
ATOM     18  N   UNL     1      43.783 131.106  23.963  1.00  0.00    -0.442 NA
ATOM     19  C   UNL     1      42.601 131.775  24.007  1.00  0.00    -0.022 A 
ENDBRANCH   7  11
TORSDOF 1
ENDMDL
MODEL 8
REMARK VINA RESULT:      -8.1      3.181      6.954
REMARK SMILES O=C1Cc2ccc(-c3c[n-]c4nccc-4c3)cc2[N-]1
REMARK SMILES IDX 1 1 2 2 3 3 4 4 5 5 6 6 7 7 17 8 18 9 19 10 8 11 9 12 16 13
REMARK SMILES IDX 10 14 15 15 11 16 14 17 12 18 13 19
REMARK H PARENT
ROOT
ATOM      1  O   UNL     1      44.576 129.699  24.378  1.00  0.00    -0.320 OA
ATOM      2  C   UNL     1      44.437 130.156  23.214  1.00  0.00     0.059 C 
ATOM      3  C   UNL     1      43.486 131.259  22.863  1.00  0.00     0.089 C 
ATOM      4  C   UNL     1      43.755 131.361  21.402  1.00  0.00    -0.057 A 
ATOM      5  C   UNL     1      43.171 132.222  20.476  1.00  0.00     0.003 A 
ATOM      6  C   UNL     1      43.578 132.141  19.135  1.00  0.00     0.009 A 
ATOM      7  C   UNL     1      44.563 131.204  18.732  1.00  0.00    -0.020 A 
ATOM      8  C   UNL     1      45.135 130.346  19.698  1.00  0.00    -0.007 A 
ATOM      9  C   UNL     1      44.712 130.448  21.022  1.00  0.00    -0.130 A 
ATOM     10  N   UNL     1      45.182 129.660  22.103  1.00  0.00    -0.626 NA
ENDROOT
BRANCH   7  11
ATOM     11  C   UNL     1      44.989 131.124  17.312  1.00  0.00    -0.022 A 
ATOM     12  C   UNL     1      44.253 131.811  16.299  1.00  0.00    -0.014 A 
ATOM     13  C   UNL     1      46.130 130.367  16.953  1.00  0.00     0.016 A 
ATOM     14  N   UNL     1      44.624 131.754  14.983  1.00  0.00    -0.442 NA
ATOM     15  C   UNL     1      46.480 130.332  15.614  1.00  0.00    -0.026 A 
ATOM     16  C   UNL     1      45.714 131.033  14.642  1.00  0.00    -0.052 A 
ATOM     17  C   UNL     1      47.497 129.724  14.924  1.00  0.00     0.003 A 
ATOM     18  N   UNL     1      46.216 130.878  13.408  1.00  0.00    -0.442 NA
ATOM     19  C   UNL     1      47.302 130.079  13.587  1.00  0.00    -0.022 A 
ENDBRANCH   7  11
TORSDOF 1
ENDMDL
MODEL 9
REMARK VINA RESULT:      -8.0      1.163      1.450
REMARK SMILES O=C1Cc2ccc(-c3c[n-]c4nccc-4c3)cc2[N-]1
REMARK SMILES IDX 1 1 2 2 3 3 4 4 5 5 6 6 7 7 17 8 18 9 19 10 8 11 9 12 16 13
REMARK SMILES IDX 10 14 15 15 11 16 14 17 12 18 13 19
REMARK H PARENT
ROOT
ATOM      1  O   UNL     1      48.364 131.577  12.288  1.00  0.00    -0.320 OA
ATOM      2  C   UNL     1      47.658 131.219  13.267  1.00  0.00     0.059 C 
ATOM      3  C   UNL     1      47.256 129.799  13.524  1.00  0.00     0.089 C 
ATOM      4  C   UNL     1      46.462 129.990  14.770  1.00  0.00    -0.057 A 
ATOM      5  C   UNL     1      45.800 129.026  15.526  1.00  0.00     0.003 A 
ATOM      6  C   UNL     1      45.102 129.436  16.674  1.00  0.00     0.009 A 
ATOM      7  C   UNL     1      45.074 130.801  17.055  1.00  0.00    -0.020 A 
ATOM      8  C   UNL     1      45.758 131.753  16.265  1.00  0.00    -0.007 A 
ATOM      9  C   UNL     1      46.441 131.318  15.131  1.00  0.00    -0.130 A 
ATOM     10  N   UNL     1      47.167 132.143  14.235  1.00  0.00    -0.626 NA
ENDROOT
BRANCH   7  11
ATOM     11  C   UNL     1      44.335 131.228  18.270  1.00  0.00    -0.022 A 
ATOM     12  C   UNL     1      43.061 131.860  18.153  1.00  0.00    -0.014 A 
ATOM     13  C   UNL     1      44.892 131.009  19.554  1.00  0.00     0.016 A 
ATOM     14  N   UNL     1      42.359 132.263  19.257  1.00  0.00    -0.442 NA
ATOM     15  C   UNL     1      44.155 131.427  20.649  1.00  0.00    -0.026 A 
ATOM     16  C   UNL     1      42.889 132.053  20.482  1.00  0.00    -0.052 A 
ATOM     17  C   UNL     1      44.371 131.374  22.002  1.00  0.00     0.003 A 
ATOM     18  N   UNL     1      42.335 132.377  21.659  1.00  0.00    -0.442 NA
ATOM     19  C   UNL     1      43.244 131.962  22.581  1.00  0.00    -0.022 A 
ENDBRANCH   7  11
TORSDOF 1
ENDMDL


