REMARK SMILES Cc1[n-]nc2cc(-c3ccc(O)cc3)ccc12
REMARK SMILES IDX 8 1 9 2 10 3 11 4 13 5 14 6 7 7 2 8 3 9 17 10 4 11 16 12
REMARK SMILES IDX 5 13 15 14 6 15 1 16 12 17
REMARK H PARENT 12 18
ROOT
ATOM      1  C   UNL     1       0.956   1.684  -1.003  1.00  0.00    -0.018 A 
ATOM      2  C   UNL     1       2.352   1.700  -0.827  1.00  0.00     0.012 A 
ATOM      3  C   UNL     1       3.088   2.855  -1.106  1.00  0.00     0.047 A 
ATOM      4  C   UNL     1       2.444   4.008  -1.564  1.00  0.00     0.115 A 
ATOM      5  C   UNL     1       1.055   4.002  -1.743  1.00  0.00     0.047 A 
ATOM      6  C   UNL     1       0.315   2.849  -1.464  1.00  0.00     0.012 A 
ENDROOT
BRANCH   1   7
ATOM      7  C   UNL     1       0.172   0.458  -0.707  1.00  0.00    -0.016 A 
ATOM      8  C   UNL     1      -1.755  -3.125  -0.030  1.00  0.00    -0.139 A 
ATOM      9  N   UNL     1      -0.823  -3.954  -0.556  1.00  0.00    -0.578 NA
ATOM     10  C   UNL     1      -1.307  -1.830  -0.150  1.00  0.00    -0.020 A 
ATOM     11  N   UNL     1       0.194  -3.226  -1.011  1.00  0.00    -0.367 NA
ATOM     12  C   UNL     1      -1.846  -0.604   0.223  1.00  0.00     0.009 A 
ATOM     13  C   UNL     1      -0.095  -1.936  -0.766  1.00  0.00     0.048 A 
ATOM     14  C   UNL     1      -1.094   0.551  -0.062  1.00  0.00     0.009 A 
ATOM     15  C   UNL     1       0.678  -0.817  -1.063  1.00  0.00     0.035 A 
ATOM     16  C   UNL     1      -3.027  -3.578   0.607  1.00  0.00     0.019 C 
ENDBRANCH   1   7
BRANCH   4  17
ATOM     17  O   UNL     1       3.191   5.151  -1.838  1.00  0.00    -0.508 OA
ATOM     18  H   UNL     1       2.753   6.002  -2.172  1.00  0.00     0.293 HD
ENDBRANCH   4  17
TORSDOF 2


