REMARK SMILES Cc1[nH+]nc(-c2cc3ccc(F)cc3[nH]2)o1
REMARK SMILES IDX 6 1 7 2 8 3 9 4 10 5 11 6 12 7 13 8 14 9 15 10 5 12 2 13
REMARK SMILES IDX 3 14 16 15 4 16 1 17
REMARK H PARENT 15 11 3 18
ROOT
ATOM      1  C   UNL     1       1.015  -0.139  -0.824  1.00  0.00     0.109 A 
ATOM      2  C   UNL     1       1.471   0.010   0.484  1.00  0.00     0.042 A 
ATOM      3  C   UNL     1       0.336   0.253   1.227  1.00  0.00     0.000 A 
ATOM      4  C   UNL     1       0.177   0.480   2.593  1.00  0.00     0.013 A 
ATOM      5  C   UNL     1      -1.126   0.703   3.074  1.00  0.00     0.040 A 
ATOM      6  C   UNL     1      -2.228   0.694   2.188  1.00  0.00     0.125 A 
ATOM      7  F   UNL     1      -3.478   0.909   2.665  1.00  0.00    -0.207 F 
ATOM      8  C   UNL     1      -2.034   0.461   0.813  1.00  0.00     0.066 A 
ATOM      9  C   UNL     1      -0.732   0.243   0.367  1.00  0.00     0.049 A 
ATOM     10  N   UNL     1      -0.330   0.005  -0.892  1.00  0.00    -0.350 N 
ATOM     11  H   UNL     1      -0.931  -0.057  -1.745  1.00  0.00     0.167 HD
ENDROOT
BRANCH   1  12
ATOM     12  C   UNL     1       1.863  -0.414  -1.989  1.00  0.00     0.312 A 
ATOM     13  C   UNL     1       2.474  -0.785  -3.946  1.00  0.00     0.369 A 
ATOM     14  N   UNL     1       3.579  -0.792  -3.182  1.00  0.00    -0.066 N 
ATOM     15  O   UNL     1       1.410  -0.549  -3.217  1.00  0.00    -0.380 OA
ATOM     16  N   UNL     1       3.203  -0.559  -1.936  1.00  0.00     0.042 NA
ATOM     17  C   UNL     1       2.464  -0.989  -5.423  1.00  0.00     0.176 C 
ATOM     18  H   UNL     1       4.564  -0.947  -3.491  1.00  0.00     0.494 HD
ENDBRANCH   1  12
TORSDOF 1


