REMARK SMILES [H]/N=c1\c([NH2+]c2ccc3c(c2)nnn3C)cccn1C(=S)Nc1ccccc1
REMARK SMILES IDX 3 1 4 2 16 3 17 4 18 5 19 6 2 7 1 8 5 9 6 12 7 13 11 14 8 15
REMARK SMILES IDX 10 16 9 17 12 18 14 19 13 20 15 21 20 22 22 23 21 24 23 26
REMARK SMILES IDX 24 27 28 28 25 29 27 30 26 31
REMARK H PARENT 5 10 5 11 22 25
ROOT
ATOM      1  C   UNL     1      -0.784   0.575  -2.077  1.00  0.00     0.194 A 
ATOM      2  C   UNL     1      -1.314  -0.726  -2.316  1.00  0.00     0.177 A 
ATOM      3  C   UNL     1      -0.428  -1.745  -2.701  1.00  0.00     0.074 A 
ATOM      4  C   UNL     1       0.929  -1.488  -2.840  1.00  0.00     0.025 A 
ATOM      5  C   UNL     1       1.411  -0.207  -2.597  1.00  0.00     0.096 A 
ATOM      6  N   UNL     1       0.566   0.799  -2.226  1.00  0.00    -0.274 N 
ENDROOT
BRANCH   1   7
ATOM      7  N   UNL     1      -1.552   1.559  -1.708  1.00  0.00    -0.279 NA
ATOM      8  H   UNL     1      -2.582   1.500  -1.567  1.00  0.00     0.190 HD
ENDBRANCH   1   7
BRANCH   2   9
ATOM      9  N   UNL     1      -2.719  -1.040  -2.150  1.00  0.00    -0.278 N 
ATOM     10  H   UNL     1      -2.955  -1.934  -2.641  1.00  0.00     0.358 HD
ATOM     11  H   UNL     1      -3.305  -0.304  -2.605  1.00  0.00     0.358 HD
BRANCH   9  12
ATOM     12  C   UNL     1      -3.050  -1.201  -0.752  1.00  0.00     0.137 A 
ATOM     13  C   UNL     1      -2.438  -2.234   0.018  1.00  0.00     0.070 A 
ATOM     14  C   UNL     1      -4.031  -0.374  -0.149  1.00  0.00     0.100 A 
ATOM     15  C   UNL     1      -2.767  -2.416   1.375  1.00  0.00     0.036 A 
ATOM     16  C   UNL     1      -4.324  -0.587   1.193  1.00  0.00     0.119 A 
ATOM     17  C   UNL     1      -3.717  -1.559   1.921  1.00  0.00     0.089 A 
ATOM     18  N   UNL     1      -5.208   0.059   1.977  1.00  0.00    -0.130 NA
ATOM     19  N   UNL     1      -4.227  -1.506   3.159  1.00  0.00    -0.248 N 
ATOM     20  N   UNL     1      -5.126  -0.527   3.171  1.00  0.00    -0.066 NA
ATOM     21  C   UNL     1      -3.916  -2.366   4.293  1.00  0.00     0.176 C 
ENDBRANCH   9  12
ENDBRANCH   2   9
BRANCH   6  22
ATOM     22  C   UNL     1       1.126   2.105  -1.995  1.00  0.00     0.183 C 
ATOM     23  N   UNL     1       2.159   2.267  -1.007  1.00  0.00    -0.332 N 
ATOM     24  S   UNL     1       0.807   3.305  -3.074  1.00  0.00    -0.040 S 
ATOM     25  H   UNL     1       2.671   1.414  -0.689  1.00  0.00     0.169 HD
BRANCH  23  26
ATOM     26  C   UNL     1       2.523   3.523  -0.411  1.00  0.00     0.040 A 
ATOM     27  C   UNL     1       3.854   3.741  -0.022  1.00  0.00     0.026 A 
ATOM     28  C   UNL     1       1.560   4.513  -0.144  1.00  0.00     0.026 A 
ATOM     29  C   UNL     1       4.225   4.944   0.586  1.00  0.00     0.002 A 
ATOM     30  C   UNL     1       1.934   5.715   0.465  1.00  0.00     0.002 A 
ATOM     31  C   UNL     1       3.266   5.933   0.825  1.00  0.00     0.000 A 
ENDBRANCH  23  26
ENDBRANCH   6  22
TORSDOF 5


