MODEL 1
REMARK VINA RESULT:      -7.9      0.000      0.000
REMARK SMILES CC(=O)c1ccc2cc[nH]c2c1N
REMARK SMILES IDX 4 1 5 2 6 3 7 4 8 5 9 6 10 7 11 8 12 9 2 11 1 12 3 13 13 14
REMARK H PARENT 10 10 13 15 13 16
ROOT
ATOM      1  C   UNL     1      44.298 131.386  17.327  1.00  0.00     0.042 A 
ATOM      2  C   UNL     1      43.735 131.793  16.088  1.00  0.00     0.015 A 
ATOM      3  C   UNL     1      44.372 131.502  14.873  1.00  0.00     0.011 A 
ATOM      4  C   UNL     1      45.572 130.805  14.918  1.00  0.00     0.002 A 
ATOM      5  C   UNL     1      46.392 130.386  13.894  1.00  0.00     0.028 A 
ATOM      6  C   UNL     1      47.437 129.718  14.518  1.00  0.00     0.083 A 
ATOM      7  N   UNL     1      47.275 129.722  15.861  1.00  0.00    -0.359 N 
ATOM      8  C   UNL     1      46.133 130.394  16.098  1.00  0.00     0.069 A 
ATOM      9  C   UNL     1      45.521 130.653  17.336  1.00  0.00     0.067 A 
ATOM     10  H   UNL     1      47.919 129.280  16.554  1.00  0.00     0.166 HD
ENDROOT
BRANCH   1  11
ATOM     11  C   UNL     1      43.616 131.783  18.584  1.00  0.00     0.161 C 
ATOM     12  C   UNL     1      42.132 131.978  18.631  1.00  0.00     0.093 C 
ATOM     13  O   UNL     1      44.295 132.037  19.615  1.00  0.00    -0.294 OA
ENDBRANCH   1  11
BRANCH   9  14
ATOM     14  N   UNL     1      46.090 130.143  18.552  1.00  0.00    -0.396 N 
ATOM     15  H   UNL     1      46.226 130.753  19.386  1.00  0.00     0.156 HD
ATOM     16  H   UNL     1      46.464 129.171  18.616  1.00  0.00     0.156 HD
ENDBRANCH   9  14
TORSDOF 2
ENDMDL
MODEL 2
REMARK VINA RESULT:      -7.2      3.004      5.595
REMARK SMILES CC(=O)c1ccc2cc[nH]c2c1N
REMARK SMILES IDX 4 1 5 2 6 3 7 4 8 5 9 6 10 7 11 8 12 9 2 11 1 12 3 13 13 14
REMARK H PARENT 10 10 13 15 13 16
ROOT
ATOM      1  C   UNL     1      44.449 131.437  18.325  1.00  0.00     0.042 A 
ATOM      2  C   UNL     1      45.571 130.869  18.986  1.00  0.00     0.015 A 
ATOM      3  C   UNL     1      45.597 130.736  20.382  1.00  0.00     0.011 A 
ATOM      4  C   UNL     1      44.494 131.179  21.099  1.00  0.00     0.002 A 
ATOM      5  C   UNL     1      44.254 131.162  22.455  1.00  0.00     0.028 A 
ATOM      6  C   UNL     1      42.986 131.707  22.605  1.00  0.00     0.083 A 
ATOM      7  N   UNL     1      42.464 132.045  21.404  1.00  0.00    -0.359 N 
ATOM      8  C   UNL     1      43.397 131.723  20.487  1.00  0.00     0.069 A 
ATOM      9  C   UNL     1      43.323 131.862  19.090  1.00  0.00     0.067 A 
ATOM     10  H   UNL     1      41.523 132.465  21.244  1.00  0.00     0.166 HD
ENDROOT
BRANCH   1  11
ATOM     11  C   UNL     1      44.506 131.617  16.853  1.00  0.00     0.161 C 
ATOM     12  C   UNL     1      45.774 132.027  16.171  1.00  0.00     0.093 C 
ATOM     13  O   UNL     1      43.456 131.500  16.165  1.00  0.00    -0.294 OA
ENDBRANCH   1  11
BRANCH   9  14
ATOM     14  N   UNL     1      42.129 132.363  18.469  1.00  0.00    -0.396 N 
ATOM     15  H   UNL     1      41.977 132.282  17.441  1.00  0.00     0.156 HD
ATOM     16  H   UNL     1      41.415 132.898  19.009  1.00  0.00     0.156 HD
ENDBRANCH   9  14
TORSDOF 2
ENDMDL
MODEL 3
REMARK VINA RESULT:      -7.2      1.363      1.591
REMARK SMILES CC(=O)c1ccc2cc[nH]c2c1N
REMARK SMILES IDX 4 1 5 2 6 3 7 4 8 5 9 6 10 7 11 8 12 9 2 11 1 12 3 13 13 14
REMARK H PARENT 10 10 13 15 13 16
ROOT
ATOM      1  C   UNL     1      45.524 131.237  16.749  1.00  0.00     0.042 A 
ATOM      2  C   UNL     1      45.596 132.401  15.937  1.00  0.00     0.015 A 
ATOM      3  C   UNL     1      46.311 132.398  14.730  1.00  0.00     0.011 A 
ATOM      4  C   UNL     1      46.948 131.224  14.353  1.00  0.00     0.002 A 
ATOM      5  C   UNL     1      47.698 130.943  13.233  1.00  0.00     0.028 A 
ATOM      6  C   UNL     1      48.063 129.610  13.367  1.00  0.00     0.083 A 
ATOM      7  N   UNL     1      47.565 129.089  14.511  1.00  0.00    -0.359 N 
ATOM      8  C   UNL     1      46.887 130.085  15.112  1.00  0.00     0.069 A 
ATOM      9  C   UNL     1      46.171 130.041  16.321  1.00  0.00     0.067 A 
ATOM     10  H   UNL     1      47.691 128.106  14.839  1.00  0.00     0.166 HD
ENDROOT
BRANCH   1  11
ATOM     11  C   UNL     1      44.813 131.318  18.048  1.00  0.00     0.161 C 
ATOM     12  C   UNL     1      43.388 131.770  18.124  1.00  0.00     0.093 C 
ATOM     13  O   UNL     1      45.432 131.079  19.119  1.00  0.00    -0.294 OA
ENDBRANCH   1  11
BRANCH   9  14
ATOM     14  N   UNL     1      46.060 128.813  17.057  1.00  0.00    -0.396 N 
ATOM     15  H   UNL     1      46.898 128.233  17.277  1.00  0.00     0.156 HD
ATOM     16  H   UNL     1      45.132 128.416  17.323  1.00  0.00     0.156 HD
ENDBRANCH   9  14
TORSDOF 2
ENDMDL
MODEL 4
REMARK VINA RESULT:      -7.1      2.525      4.896
REMARK SMILES CC(=O)c1ccc2cc[nH]c2c1N
REMARK SMILES IDX 4 1 5 2 6 3 7 4 8 5 9 6 10 7 11 8 12 9 2 11 1 12 3 13 13 14
REMARK H PARENT 10 10 13 15 13 16
ROOT
ATOM      1  C   UNL     1      45.668 130.663  15.716  1.00  0.00     0.042 A 
ATOM      2  C   UNL     1      46.327 130.308  16.924  1.00  0.00     0.015 A 
ATOM      3  C   UNL     1      45.747 130.581  18.171  1.00  0.00     0.011 A 
ATOM      4  C   UNL     1      44.510 131.210  18.191  1.00  0.00     0.002 A 
ATOM      5  C   UNL     1      43.722 131.582  19.257  1.00  0.00     0.028 A 
ATOM      6  C   UNL     1      42.588 132.147  18.689  1.00  0.00     0.083 A 
ATOM      7  N   UNL     1      42.667 132.127  17.339  1.00  0.00    -0.359 N 
ATOM      8  C   UNL     1      43.850 131.555  17.042  1.00  0.00     0.069 A 
ATOM      9  C   UNL     1      44.388 131.289  15.772  1.00  0.00     0.067 A 
ATOM     10  H   UNL     1      41.940 132.483  16.681  1.00  0.00     0.166 HD
ENDROOT
BRANCH   1  11
ATOM     11  C   UNL     1      46.360 130.414  14.428  1.00  0.00     0.161 C 
ATOM     12  C   UNL     1      47.444 129.387  14.317  1.00  0.00     0.093 C 
ATOM     13  O   UNL     1      46.093 131.125  13.422  1.00  0.00    -0.294 OA
ENDBRANCH   1  11
BRANCH   9  14
ATOM     14  N   UNL     1      43.639 131.591  14.584  1.00  0.00    -0.396 N 
ATOM     15  H   UNL     1      44.082 131.563  13.641  1.00  0.00     0.156 HD
ATOM     16  H   UNL     1      42.653 131.929  14.629  1.00  0.00     0.156 HD
ENDBRANCH   9  14
TORSDOF 2
ENDMDL
MODEL 5
REMARK VINA RESULT:      -7.0      2.185      4.434
REMARK SMILES CC(=O)c1ccc2cc[nH]c2c1N
REMARK SMILES IDX 4 1 5 2 6 3 7 4 8 5 9 6 10 7 11 8 12 9 2 11 1 12 3 13 13 14
REMARK H PARENT 10 10 13 15 13 16
ROOT
ATOM      1  C   UNL     1      46.072 130.624  14.789  1.00  0.00     0.042 A 
ATOM      2  C   UNL     1      44.952 131.283  14.214  1.00  0.00     0.015 A 
ATOM      3  C   UNL     1      43.895 131.743  15.012  1.00  0.00     0.011 A 
ATOM      4  C   UNL     1      43.975 131.534  16.383  1.00  0.00     0.002 A 
ATOM      5  C   UNL     1      43.099 131.885  17.385  1.00  0.00     0.028 A 
ATOM      6  C   UNL     1      43.698 131.449  18.559  1.00  0.00     0.083 A 
ATOM      7  N   UNL     1      44.887 130.858  18.300  1.00  0.00    -0.359 N 
ATOM      8  C   UNL     1      45.047 130.910  16.964  1.00  0.00     0.069 A 
ATOM      9  C   UNL     1      46.133 130.445  16.203  1.00  0.00     0.067 A 
ATOM     10  H   UNL     1      45.535 130.455  19.011  1.00  0.00     0.166 HD
ENDROOT
BRANCH   1  11
ATOM     11  C   UNL     1      47.127 130.097  13.889  1.00  0.00     0.161 C 
ATOM     12  C   UNL     1      47.638 130.905  12.737  1.00  0.00     0.093 C 
ATOM     13  O   UNL     1      47.553 128.920  14.041  1.00  0.00    -0.294 OA
ENDBRANCH   1  11
BRANCH   9  14
ATOM     14  N   UNL     1      47.278 129.865  16.845  1.00  0.00    -0.396 N 
ATOM     15  H   UNL     1      47.427 128.833  16.863  1.00  0.00     0.156 HD
ATOM     16  H   UNL     1      47.955 130.445  17.386  1.00  0.00     0.156 HD
ENDBRANCH   9  14
TORSDOF 2
ENDMDL
MODEL 6
REMARK VINA RESULT:      -7.0      2.528      4.926
REMARK SMILES CC(=O)c1ccc2cc[nH]c2c1N
REMARK SMILES IDX 4 1 5 2 6 3 7 4 8 5 9 6 10 7 11 8 12 9 2 11 1 12 3 13 13 14
REMARK H PARENT 10 10 13 15 13 16
ROOT
ATOM      1  C   UNL     1      45.432 130.770  16.482  1.00  0.00     0.042 A 
ATOM      2  C   UNL     1      46.031 130.499  17.742  1.00  0.00     0.015 A 
ATOM      3  C   UNL     1      45.389 130.845  18.939  1.00  0.00     0.011 A 
ATOM      4  C   UNL     1      44.148 131.464  18.857  1.00  0.00     0.002 A 
ATOM      5  C   UNL     1      43.306 131.895  19.857  1.00  0.00     0.028 A 
ATOM      6  C   UNL     1      42.198 132.413  19.199  1.00  0.00     0.083 A 
ATOM      7  N   UNL     1      42.344 132.308  17.859  1.00  0.00    -0.359 N 
ATOM      8  C   UNL     1      43.544 131.729  17.657  1.00  0.00     0.069 A 
ATOM      9  C   UNL     1      44.146 131.387  16.435  1.00  0.00     0.067 A 
ATOM     10  H   UNL     1      41.649 132.615  17.143  1.00  0.00     0.166 HD
ENDROOT
BRANCH   1  11
ATOM     11  C   UNL     1      46.188 130.446  15.248  1.00  0.00     0.161 C 
ATOM     12  C   UNL     1      46.841 131.519  14.435  1.00  0.00     0.093 C 
ATOM     13  O   UNL     1      46.223 129.259  14.826  1.00  0.00    -0.294 OA
ENDBRANCH   1  11
BRANCH   9  14
ATOM     14  N   UNL     1      43.456 131.606  15.195  1.00  0.00    -0.396 N 
ATOM     15  H   UNL     1      42.905 132.475  15.026  1.00  0.00     0.156 HD
ATOM     16  H   UNL     1      43.411 130.872  14.455  1.00  0.00     0.156 HD
ENDBRANCH   9  14
TORSDOF 2
ENDMDL
MODEL 7
REMARK VINA RESULT:      -7.0      2.486      3.523
REMARK SMILES CC(=O)c1ccc2cc[nH]c2c1N
REMARK SMILES IDX 4 1 5 2 6 3 7 4 8 5 9 6 10 7 11 8 12 9 2 11 1 12 3 13 13 14
REMARK H PARENT 10 10 13 15 13 16
ROOT
ATOM      1  C   UNL     1      43.559 131.793  19.902  1.00  0.00     0.042 A 
ATOM      2  C   UNL     1      44.870 131.276  20.083  1.00  0.00     0.015 A 
ATOM      3  C   UNL     1      45.674 130.941  18.984  1.00  0.00     0.011 A 
ATOM      4  C   UNL     1      45.149 131.128  17.712  1.00  0.00     0.002 A 
ATOM      5  C   UNL     1      45.714 130.895  16.477  1.00  0.00     0.028 A 
ATOM      6  C   UNL     1      44.748 131.283  15.559  1.00  0.00     0.083 A 
ATOM      7  N   UNL     1      43.640 131.735  16.190  1.00  0.00    -0.359 N 
ATOM      8  C   UNL     1      43.892 131.632  17.509  1.00  0.00     0.069 A 
ATOM      9  C   UNL     1      43.059 131.993  18.581  1.00  0.00     0.067 A 
ATOM     10  H   UNL     1      42.777 132.093  15.725  1.00  0.00     0.166 HD
ENDROOT
BRANCH   1  11
ATOM     11  C   UNL     1      42.728 132.064  21.100  1.00  0.00     0.161 C 
ATOM     12  C   UNL     1      42.933 131.303  22.373  1.00  0.00     0.093 C 
ATOM     13  O   UNL     1      41.780 132.892  21.035  1.00  0.00    -0.294 OA
ENDBRANCH   1  11
BRANCH   9  14
ATOM     14  N   UNL     1      41.776 132.592  18.338  1.00  0.00    -0.396 N 
ATOM     15  H   UNL     1      41.691 133.562  17.967  1.00  0.00     0.156 HD
ATOM     16  H   UNL     1      40.889 132.112  18.602  1.00  0.00     0.156 HD
ENDBRANCH   9  14
TORSDOF 2
ENDMDL
MODEL 8
REMARK VINA RESULT:      -6.8      2.902      5.665
REMARK SMILES CC(=O)c1ccc2cc[nH]c2c1N
REMARK SMILES IDX 4 1 5 2 6 3 7 4 8 5 9 6 10 7 11 8 12 9 2 11 1 12 3 13 13 14
REMARK H PARENT 10 10 13 15 13 16
ROOT
ATOM      1  C   UNL     1      45.002 131.119  18.564  1.00  0.00     0.042 A 
ATOM      2  C   UNL     1      45.897 130.592  19.534  1.00  0.00     0.015 A 
ATOM      3  C   UNL     1      45.586 130.628  20.901  1.00  0.00     0.011 A 
ATOM      4  C   UNL     1      44.376 131.196  21.279  1.00  0.00     0.002 A 
ATOM      5  C   UNL     1      43.823 131.352  22.531  1.00  0.00     0.028 A 
ATOM      6  C   UNL     1      42.595 131.958  22.310  1.00  0.00     0.083 A 
ATOM      7  N   UNL     1      42.393 132.169  20.990  1.00  0.00    -0.359 N 
ATOM      8  C   UNL     1      43.492 131.703  20.365  1.00  0.00     0.069 A 
ATOM      9  C   UNL     1      43.758 131.675  18.985  1.00  0.00     0.067 A 
ATOM     10  H   UNL     1      41.545 132.602  20.563  1.00  0.00     0.166 HD
ENDROOT
BRANCH   1  11
ATOM     11  C   UNL     1      45.414 131.117  17.139  1.00  0.00     0.161 C 
ATOM     12  C   UNL     1      45.889 129.864  16.472  1.00  0.00     0.093 C 
ATOM     13  O   UNL     1      45.443 132.198  16.492  1.00  0.00    -0.294 OA
ENDBRANCH   1  11
BRANCH   9  14
ATOM     14  N   UNL     1      42.779 132.143  18.044  1.00  0.00    -0.396 N 
ATOM     15  H   UNL     1      42.684 131.712  17.100  1.00  0.00     0.156 HD
ATOM     16  H   UNL     1      42.188 132.980  18.239  1.00  0.00     0.156 HD
ENDBRANCH   9  14
TORSDOF 2
ENDMDL
MODEL 9
REMARK VINA RESULT:      -6.8      2.084      4.197
REMARK SMILES CC(=O)c1ccc2cc[nH]c2c1N
REMARK SMILES IDX 4 1 5 2 6 3 7 4 8 5 9 6 10 7 11 8 12 9 2 11 1 12 3 13 13 14
REMARK H PARENT 10 10 13 15 13 16
ROOT
ATOM      1  C   UNL     1      44.651 130.999  16.484  1.00  0.00     0.042 A 
ATOM      2  C   UNL     1      43.525 131.695  17.002  1.00  0.00     0.015 A 
ATOM      3  C   UNL     1      43.371 131.898  18.381  1.00  0.00     0.011 A 
ATOM      4  C   UNL     1      44.352 131.396  19.226  1.00  0.00     0.002 A 
ATOM      5  C   UNL     1      44.456 131.460  20.598  1.00  0.00     0.028 A 
ATOM      6  C   UNL     1      45.647 130.814  20.901  1.00  0.00     0.083 A 
ATOM      7  N   UNL     1      46.253 130.374  19.775  1.00  0.00    -0.359 N 
ATOM      8  C   UNL     1      45.451 130.730  18.754  1.00  0.00     0.069 A 
ATOM      9  C   UNL     1      45.651 130.516  17.380  1.00  0.00     0.067 A 
ATOM     10  H   UNL     1      47.164 129.866  19.732  1.00  0.00     0.166 HD
ENDROOT
BRANCH   1  11
ATOM     11  C   UNL     1      44.726 130.753  15.023  1.00  0.00     0.161 C 
ATOM     12  C   UNL     1      43.816 131.463  14.070  1.00  0.00     0.093 C 
ATOM     13  O   UNL     1      45.513 129.877  14.573  1.00  0.00    -0.294 OA
ENDBRANCH   1  11
BRANCH   9  14
ATOM     14  N   UNL     1      46.850 129.884  16.907  1.00  0.00    -0.396 N 
ATOM     15  H   UNL     1      47.609 129.599  17.563  1.00  0.00     0.156 HD
ATOM     16  H   UNL     1      47.041 129.763  15.889  1.00  0.00     0.156 HD
ENDBRANCH   9  14
TORSDOF 2
ENDMDL


