REMARK SMILES Cc1ccc(-c2cc(O)c(F)c(C(=O)[O-])c2)c2ocnc12
REMARK SMILES IDX 6 1 7 2 8 3 10 4 11 5 12 6 16 7 5 8 2 9 3 10 21 11 4 12
REMARK SMILES IDX 20 13 17 14 19 15 18 16 1 17 9 18 13 20 14 21 15 22
REMARK H PARENT 9 19
ROOT
ATOM      1  C   UNL     1       1.821  -0.031   0.207  1.00  0.00    -0.010 A 
ATOM      2  C   UNL     1       3.199  -0.226   0.385  1.00  0.00     0.058 A 
ATOM      3  C   UNL     1       4.080   0.861   0.360  1.00  0.00     0.152 A 
ATOM      4  C   UNL     1       3.591   2.155   0.153  1.00  0.00     0.173 A 
ATOM      5  F   UNL     1       4.471   3.188   0.135  1.00  0.00    -0.202 F 
ATOM      6  C   UNL     1       2.210   2.375  -0.032  1.00  0.00     0.037 A 
ATOM      7  C   UNL     1       1.336   1.271  -0.004  1.00  0.00     0.022 A 
ENDROOT
BRANCH   1   8
ATOM      8  C   UNL     1       0.891  -1.187   0.235  1.00  0.00     0.027 A 
ATOM      9  C   UNL     1      -0.921  -3.396   0.296  1.00  0.00    -0.021 A 
ATOM     10  C   UNL     1       0.320  -3.502  -0.367  1.00  0.00     0.006 A 
ATOM     11  C   UNL     1      -1.206  -2.183   0.930  1.00  0.00     0.113 A 
ATOM     12  C   UNL     1       1.215  -2.408  -0.402  1.00  0.00     0.013 A 
ATOM     13  N   UNL     1      -2.297  -1.861   1.647  1.00  0.00    -0.216 NA
ATOM     14  C   UNL     1      -0.341  -1.130   0.898  1.00  0.00     0.162 A 
ATOM     15  C   UNL     1      -2.027  -0.586   2.026  1.00  0.00     0.309 A 
ATOM     16  O   UNL     1      -0.862  -0.147   1.584  1.00  0.00    -0.443 OA
ATOM     17  C   UNL     1      -1.863  -4.560   0.376  1.00  0.00     0.047 C 
ENDBRANCH   1   8
BRANCH   3  18
ATOM     18  O   UNL     1       5.447   0.664   0.542  1.00  0.00    -0.505 OA
ATOM     19  H   UNL     1       5.835  -0.260   0.694  1.00  0.00     0.293 HD
ENDBRANCH   3  18
BRANCH   6  20
ATOM     20  C   UNL     1       1.672   3.739  -0.258  1.00  0.00     0.075 C 
ATOM     21  O   UNL     1       0.435   3.919  -0.414  1.00  0.00    -0.545 OA
ATOM     22  O   UNL     1       2.517   4.842  -0.301  1.00  0.00    -0.545 OA
ENDBRANCH   6  20
TORSDOF 3


