REMARK SMILES C=Cc1cccc(-c2ccc3c(c2)[C@H](/N=C(\O)[N-]c2cc(F)cc(OC)c2)CC3)c1
REMARK SMILES IDX 16 1 17 2 15 4 14 5 12 6 28 7 13 8 11 9 29 10 8 11 10 12
REMARK SMILES IDX 9 13 7 14 6 15 30 16 5 17 3 18 4 19 2 20 1 21 18 22 19 23
REMARK SMILES IDX 20 24 27 25 21 26 24 27 23 28 22 29 25 30 26 31
REMARK H PARENT 17 3
ROOT
ATOM      1  C   UNL     1       3.217  -2.121   1.634  1.00  0.00     0.094 C 
ENDROOT
BRANCH   1   2
ATOM      2  O   UNL     1       4.168  -2.048   2.648  1.00  0.00    -0.516 OA
ATOM      3  H   UNL     1       5.082  -2.471   2.533  1.00  0.00     0.292 HD
ENDBRANCH   1   2
BRANCH   1   4
ATOM      4  N   UNL     1       2.043  -1.590   1.798  1.00  0.00    -0.427 NA
BRANCH   4   5
ATOM      5  C   UNL     1       1.613  -0.909   3.018  1.00  0.00     0.024 C 
ATOM      6  C   UNL     1       0.394  -0.118   2.730  1.00  0.00    -0.042 A 
ATOM      7  C   UNL     1       1.132  -1.933   4.072  1.00  0.00     0.012 C 
ATOM      8  C   UNL     1       0.317   1.057   1.978  1.00  0.00     0.013 A 
ATOM      9  C   UNL     1      -0.725  -0.675   3.292  1.00  0.00    -0.045 A 
ATOM     10  C   UNL     1      -0.407  -1.900   4.061  1.00  0.00     0.036 C 
ATOM     11  C   UNL     1      -0.940   1.674   1.787  1.00  0.00    -0.018 A 
ATOM     12  C   UNL     1      -1.984  -0.105   3.110  1.00  0.00     0.004 A 
ATOM     13  C   UNL     1      -2.090   1.071   2.353  1.00  0.00     0.009 A 
BRANCH  11  14
ATOM     14  C   UNL     1      -1.055   2.936   1.004  1.00  0.00    -0.018 A 
ATOM     15  C   UNL     1      -1.983   3.925   1.375  1.00  0.00     0.009 A 
ATOM     16  C   UNL     1      -0.241   3.159  -0.123  1.00  0.00     0.016 A 
ATOM     17  C   UNL     1      -2.107   5.096   0.625  1.00  0.00     0.001 A 
ATOM     18  C   UNL     1      -0.353   4.337  -0.880  1.00  0.00    -0.026 A 
ATOM     19  C   UNL     1      -1.306   5.302  -0.498  1.00  0.00     0.008 A 
BRANCH  18  20
ATOM     20  C   UNL     1       0.516   4.497  -2.072  1.00  0.00     0.000 C 
ATOM     21  C   UNL     1       0.731   5.656  -2.697  1.00  0.00     0.009 C 
ENDBRANCH  18  20
ENDBRANCH  11  14
ENDBRANCH   4   5
ENDBRANCH   1   4
BRANCH   1  22
ATOM     22  N   UNL     1       3.538  -2.829   0.428  1.00  0.00    -0.405 NA
BRANCH  22  23
ATOM     23  C   UNL     1       2.728  -2.947  -0.752  1.00  0.00    -0.033 A 
ATOM     24  C   UNL     1       2.857  -4.100  -1.535  1.00  0.00     0.043 A 
ATOM     25  C   UNL     1       1.843  -1.931  -1.161  1.00  0.00     0.050 A 
ATOM     26  C   UNL     1       2.080  -4.266  -2.683  1.00  0.00     0.127 A 
ATOM     27  C   UNL     1       1.054  -2.098  -2.318  1.00  0.00     0.122 A 
ATOM     28  C   UNL     1       1.177  -3.273  -3.067  1.00  0.00     0.085 A 
ATOM     29  F   UNL     1       2.194  -5.399  -3.420  1.00  0.00    -0.207 F 
BRANCH  27  30
ATOM     30  O   UNL     1       0.142  -1.126  -2.755  1.00  0.00    -0.497 OA
ATOM     31  C   UNL     1      -0.066   0.127  -2.112  1.00  0.00     0.278 C 
ENDBRANCH  27  30
ENDBRANCH  22  23
ENDBRANCH   1  22
TORSDOF 8


