REMARK SMILES Fc1ccc2cc(-c3nc[nH+]cc3F)[nH]c2c1
REMARK SMILES IDX 1 1 2 2 3 3 4 4 5 5 6 6 7 7 15 8 16 9 17 10 8 12 9 13 13 14
REMARK SMILES IDX 10 15 12 16 11 17 14 18
REMARK H PARENT 15 11 11 19
ROOT
ATOM      1  F   UNL     1       0.363  -5.698   0.597  1.00  0.00    -0.207 F 
ATOM      2  C   UNL     1       0.329  -4.473   0.017  1.00  0.00     0.125 A 
ATOM      3  C   UNL     1      -0.113  -4.339  -1.319  1.00  0.00     0.040 A 
ATOM      4  C   UNL     1      -0.154  -3.074  -1.932  1.00  0.00     0.013 A 
ATOM      5  C   UNL     1       0.254  -1.974  -1.180  1.00  0.00     0.000 A 
ATOM      6  C   UNL     1       0.320  -0.638  -1.510  1.00  0.00     0.041 A 
ATOM      7  C   UNL     1       0.803   0.001  -0.361  1.00  0.00     0.095 A 
ATOM      8  N   UNL     1       1.020  -0.907   0.624  1.00  0.00    -0.351 N 
ATOM      9  C   UNL     1       0.682  -2.101   0.113  1.00  0.00     0.049 A 
ATOM     10  C   UNL     1       0.734  -3.341   0.749  1.00  0.00     0.066 A 
ATOM     11  H   UNL     1       1.377  -0.724   1.588  1.00  0.00     0.167 HD
ENDROOT
BRANCH   7  12
ATOM     12  C   UNL     1       1.063   1.452  -0.176  1.00  0.00     0.237 A 
ATOM     13  N   UNL     1       1.535   1.869   1.031  1.00  0.00    -0.044 NA
ATOM     14  C   UNL     1       0.845   2.414  -1.183  1.00  0.00     0.215 A 
ATOM     15  C   UNL     1       1.799   3.177   1.284  1.00  0.00     0.449 A 
ATOM     16  C   UNL     1       1.123   3.753  -0.901  1.00  0.00     0.241 A 
ATOM     17  N   UNL     1       1.593   4.111   0.321  1.00  0.00    -0.247 N 
ATOM     18  F   UNL     1       0.378   2.091  -2.412  1.00  0.00    -0.198 F 
ATOM     19  H   UNL     1       1.798   5.115   0.523  1.00  0.00     0.311 HD
ENDBRANCH   7  12
TORSDOF 1


