REMARK SMILES Cc1ccc(-c2ccc(O)cc2)c2c[n-]nc12
REMARK SMILES IDX 6 1 7 2 8 3 9 4 11 5 12 6 5 7 2 8 3 9 17 10 4 11 16 12 13 13
REMARK SMILES IDX 15 14 14 15 1 16 10 17
REMARK H PARENT 10 18
ROOT
ATOM      1  C   UNL     1       0.773   0.268   1.066  1.00  0.00    -0.018 A 
ATOM      2  C   UNL     1       0.466  -0.390   2.270  1.00  0.00     0.012 A 
ATOM      3  C   UNL     1       0.859   0.158   3.495  1.00  0.00     0.047 A 
ATOM      4  C   UNL     1       1.557   1.372   3.532  1.00  0.00     0.115 A 
ATOM      5  C   UNL     1       1.856   2.036   2.338  1.00  0.00     0.047 A 
ATOM      6  C   UNL     1       1.465   1.491   1.112  1.00  0.00     0.012 A 
ENDROOT
BRANCH   1   7
ATOM      7  C   UNL     1       0.346  -0.310  -0.229  1.00  0.00    -0.011 A 
ATOM      8  C   UNL     1      -0.483  -1.418  -2.729  1.00  0.00    -0.027 A 
ATOM      9  C   UNL     1      -1.391  -1.305  -1.655  1.00  0.00     0.006 A 
ATOM     10  C   UNL     1       0.820  -0.959  -2.518  1.00  0.00     0.050 A 
ATOM     11  C   UNL     1      -0.979  -0.766  -0.416  1.00  0.00     0.010 A 
ATOM     12  N   UNL     1       1.850  -0.979  -3.382  1.00  0.00    -0.367 NA
ATOM     13  C   UNL     1       1.218  -0.432  -1.321  1.00  0.00    -0.014 A 
ATOM     14  N   UNL     1       2.906  -0.478  -2.751  1.00  0.00    -0.581 NA
ATOM     15  C   UNL     1       2.554  -0.139  -1.490  1.00  0.00    -0.113 A 
ATOM     16  C   UNL     1      -0.911  -1.966  -4.058  1.00  0.00     0.046 C 
ENDBRANCH   1   7
BRANCH   4  17
ATOM     17  O   UNL     1       1.954   1.927   4.746  1.00  0.00    -0.508 OA
ATOM     18  H   UNL     1       1.751   1.471   5.628  1.00  0.00     0.293 HD
ENDBRANCH   4  17
TORSDOF 2


