REMARK SMILES C=Cc1cc(C2=CC=C[C@@]3(F)N=CO[C@@]23O)cc(O)c1F
REMARK SMILES IDX 6 1 7 2 8 3 9 4 10 5 11 6 12 7 13 8 14 9 15 10 5 11 3 12
REMARK SMILES IDX 4 13 20 14 18 15 17 16 21 17 2 18 1 19 19 20 16 22
REMARK H PARENT 19 21 16 23
ROOT
ATOM      1  C   UNL     1       0.350   0.199  -0.189  1.00  0.00     0.037 C 
ATOM      2  C   UNL     1       1.412   0.852   0.308  1.00  0.00     0.011 C 
ATOM      3  C   UNL     1       2.134   1.872  -0.456  1.00  0.00     0.002 C 
ATOM      4  C   UNL     1       1.751   2.240  -1.674  1.00  0.00     0.045 C 
ATOM      5  C   UNL     1       0.584   1.617  -2.389  1.00  0.00     0.291 C 
ATOM      6  F   UNL     1      -0.320   2.615  -2.712  1.00  0.00    -0.205 F 
ATOM      7  N   UNL     1       1.075   1.004  -3.616  1.00  0.00    -0.208 NA
ATOM      8  C   UNL     1       0.872  -0.264  -3.574  1.00  0.00     0.304 C 
ATOM      9  O   UNL     1       0.233  -0.682  -2.426  1.00  0.00    -0.442 OA
ATOM     10  C   UNL     1      -0.113   0.436  -1.625  1.00  0.00     0.295 C 
ENDROOT
BRANCH   1  11
ATOM     11  C   UNL     1      -0.401  -0.742   0.690  1.00  0.00    -0.011 A 
ATOM     12  C   UNL     1      -1.528  -2.888   1.052  1.00  0.00     0.014 A 
ATOM     13  C   UNL     1      -0.805  -2.006   0.223  1.00  0.00     0.020 A 
ATOM     14  C   UNL     1      -1.869  -2.476   2.352  1.00  0.00     0.172 A 
ATOM     15  C   UNL     1      -1.476  -1.220   2.824  1.00  0.00     0.152 A 
ATOM     16  C   UNL     1      -0.744  -0.360   1.999  1.00  0.00     0.058 A 
ATOM     17  F   UNL     1      -2.573  -3.298   3.172  1.00  0.00    -0.202 F 
BRANCH  12  18
ATOM     18  C   UNL     1      -1.971  -4.225   0.580  1.00  0.00     0.003 C 
ATOM     19  C   UNL     1      -1.384  -4.897  -0.411  1.00  0.00     0.009 C 
ENDBRANCH  12  18
BRANCH  15  20
ATOM     20  O   UNL     1      -1.820  -0.834   4.118  1.00  0.00    -0.505 OA
ATOM     21  H   UNL     1      -1.551   0.070   4.491  1.00  0.00     0.293 HD
ENDBRANCH  15  20
ENDBRANCH   1  11
BRANCH  10  22
ATOM     22  O   UNL     1      -1.512   0.587  -1.659  1.00  0.00    -0.348 OA
ATOM     23  H   UNL     1      -1.742   1.351  -1.068  1.00  0.00     0.215 HD
ENDBRANCH  10  22
TORSDOF 4


