REMARK SMILES Cc1cc2ccc([C@H]3O[C@@H](C)NN3C(O)=C3C[NH2+]C3)cc2[nH]1
REMARK SMILES IDX 8 1 9 2 10 3 11 4 12 5 13 6 7 8 2 9 3 10 22 11 4 12 21 13
REMARK SMILES IDX 5 14 20 15 6 16 1 17 14 19 15 20 16 22 17 23 19 24 18 25
REMARK H PARENT 12 7 22 18 15 21 18 26 18 27
ROOT
ATOM      1  C   UNL     1       1.830  -0.505  -1.123  1.00  0.00     0.267 C 
ATOM      2  O   UNL     1       2.369   0.619  -1.771  1.00  0.00    -0.333 OA
ATOM      3  C   UNL     1       3.256   1.228  -0.849  1.00  0.00     0.204 C 
ATOM      4  C   UNL     1       3.107   2.750  -0.914  1.00  0.00     0.058 C 
ATOM      5  N   UNL     1       3.011   0.710   0.502  1.00  0.00    -0.201 NA
ATOM      6  N   UNL     1       2.223  -0.410   0.262  1.00  0.00    -0.243 N 
ATOM      7  H   UNL     1       2.417   1.377   1.049  1.00  0.00     0.151 HD
ENDROOT
BRANCH   1   8
ATOM      8  C   UNL     1       0.327  -0.494  -1.253  1.00  0.00     0.005 A 
ATOM      9  C   UNL     1      -3.911   0.989  -0.804  1.00  0.00     0.013 A 
ATOM     10  C   UNL     1      -3.798  -0.236  -1.458  1.00  0.00     0.031 A 
ATOM     11  N   UNL     1      -2.695   1.470  -0.456  1.00  0.00    -0.359 N 
ATOM     12  C   UNL     1      -2.446  -0.500  -1.480  1.00  0.00    -0.000 A 
ATOM     13  C   UNL     1      -1.810   0.548  -0.869  1.00  0.00     0.046 A 
ATOM     14  C   UNL     1      -1.743  -1.580  -2.006  1.00  0.00     0.011 A 
ATOM     15  C   UNL     1      -0.424   0.589  -0.739  1.00  0.00     0.035 A 
ATOM     16  C   UNL     1      -0.342  -1.573  -1.888  1.00  0.00     0.009 A 
ATOM     17  C   UNL     1      -5.187   1.734  -0.593  1.00  0.00     0.064 C 
ATOM     18  H   UNL     1      -2.487   2.375   0.022  1.00  0.00     0.166 HD
ENDBRANCH   1   8
BRANCH   6  19
ATOM     19  C   UNL     1       1.981  -1.436   1.240  1.00  0.00     0.214 C 
BRANCH  19  20
ATOM     20  O   UNL     1       1.288  -2.587   0.865  1.00  0.00    -0.493 OA
ATOM     21  H   UNL     1       1.090  -3.333   1.523  1.00  0.00     0.295 HD
ENDBRANCH  19  20
BRANCH  19  22
ATOM     22  C   UNL     1       2.407  -1.306   2.499  1.00  0.00     0.099 C 
ATOM     23  C   UNL     1       3.156  -0.324   3.372  1.00  0.00     0.304 C 
ATOM     24  C   UNL     1       2.370  -2.101   3.783  1.00  0.00     0.304 C 
ATOM     25  N   UNL     1       3.093  -1.128   4.572  1.00  0.00    -0.339 N 
ATOM     26  H   UNL     1       2.500  -0.694   5.318  1.00  0.00     0.346 HD
ATOM     27  H   UNL     1       4.034  -1.475   4.874  1.00  0.00     0.346 HD
ENDBRANCH  19  22
ENDBRANCH   6  19
TORSDOF 4


