MODEL 1
REMARK VINA RESULT:      -6.3      0.000      0.000
REMARK SMILES C=C[C@@H](Oc1ncnc(C)c1C)c1cc(-c2c[n-]c3nccc-3c2)cc2c1CC(O)=N2
REMARK SMILES IDX 3 1 2 2 1 3 4 4 5 5 6 6 11 7 7 8 9 9 8 10 12 11 10 12 13 13
REMARK SMILES IDX 14 14 27 15 15 16 26 17 28 18 25 19 31 20 29 21 16 22 17 23
REMARK SMILES IDX 24 24 18 25 23 26 19 27 22 28 20 29 21 30 30 31
REMARK H PARENT 30 32
ROOT
ATOM      1  C   UNL     1      45.530 128.425  22.545  1.00  0.00     0.228 C 
ENDROOT
BRANCH   1   2
ATOM      2  C   UNL     1      44.702 128.182  23.778  1.00  0.00     0.014 C 
ATOM      3  C   UNL     1      43.461 127.692  23.702  1.00  0.00     0.008 C 
ENDBRANCH   1   2
BRANCH   1   4
ATOM      4  O   UNL     1      45.568 127.233  21.763  1.00  0.00    -0.465 OA
BRANCH   4   5
ATOM      5  C   UNL     1      46.186 126.048  22.185  1.00  0.00     0.220 A 
ATOM      6  N   UNL     1      47.520 126.029  22.449  1.00  0.00    -0.202 NA
ATOM      7  C   UNL     1      45.429 124.871  22.332  1.00  0.00     0.032 A 
ATOM      8  C   UNL     1      48.146 124.893  22.840  1.00  0.00     0.226 A 
ATOM      9  C   UNL     1      46.107 123.693  22.715  1.00  0.00     0.047 A 
ATOM     10  N   UNL     1      47.443 123.740  22.967  1.00  0.00    -0.241 NA
ATOM     11  C   UNL     1      43.954 124.859  22.013  1.00  0.00     0.052 C 
ATOM     12  C   UNL     1      45.396 122.381  22.871  1.00  0.00     0.067 C 
ENDBRANCH   4   5
ENDBRANCH   1   4
BRANCH   1  13
ATOM     13  C   UNL     1      44.945 129.566  21.738  1.00  0.00     0.003 A 
ATOM     14  C   UNL     1      45.228 129.684  20.361  1.00  0.00     0.017 A 
ATOM     15  C   UNL     1      44.123 130.542  22.319  1.00  0.00    -0.006 A 
ATOM     16  C   UNL     1      44.687 130.746  19.593  1.00  0.00    -0.016 A 
ATOM     17  C   UNL     1      43.604 131.572  21.581  1.00  0.00     0.071 A 
ATOM     18  C   UNL     1      43.648 130.697  23.724  1.00  0.00     0.135 C 
ATOM     19  C   UNL     1      43.864 131.704  20.220  1.00  0.00     0.037 A 
ATOM     20  N   UNL     1      42.802 132.435  22.369  1.00  0.00    -0.218 NA
ATOM     21  C   UNL     1      42.826 131.946  23.570  1.00  0.00     0.190 C 
BRANCH  16  22
ATOM     22  C   UNL     1      44.981 130.846  18.140  1.00  0.00    -0.022 A 
ATOM     23  C   UNL     1      44.191 131.689  17.302  1.00  0.00    -0.014 A 
ATOM     24  C   UNL     1      46.048 130.102  17.579  1.00  0.00     0.016 A 
ATOM     25  N   UNL     1      44.439 131.797  15.962  1.00  0.00    -0.442 NA
ATOM     26  C   UNL     1      46.271 130.235  16.220  1.00  0.00    -0.026 A 
ATOM     27  C   UNL     1      45.456 131.086  15.425  1.00  0.00    -0.052 A 
ATOM     28  C   UNL     1      47.183 129.679  15.359  1.00  0.00     0.003 A 
ATOM     29  N   UNL     1      45.831 131.074  14.137  1.00  0.00    -0.442 NA
ATOM     30  C   UNL     1      46.882 130.214  14.104  1.00  0.00    -0.022 A 
ENDBRANCH  16  22
BRANCH  21  31
ATOM     31  O   UNL     1      42.140 132.539  24.625  1.00  0.00    -0.496 OA
ATOM     32  H   UNL     1      42.580 133.252  25.194  1.00  0.00     0.294 HD
ENDBRANCH  21  31
ENDBRANCH   1  13
TORSDOF 6
ENDMDL
MODEL 2
REMARK VINA RESULT:      -6.0      1.012      1.096
REMARK SMILES C=C[C@@H](Oc1ncnc(C)c1C)c1cc(-c2c[n-]c3nccc-3c2)cc2c1CC(O)=N2
REMARK SMILES IDX 3 1 2 2 1 3 4 4 5 5 6 6 11 7 7 8 9 9 8 10 12 11 10 12 13 13
REMARK SMILES IDX 14 14 27 15 15 16 26 17 28 18 25 19 31 20 29 21 16 22 17 23
REMARK SMILES IDX 24 24 18 25 23 26 19 27 22 28 20 29 21 30 30 31
REMARK H PARENT 30 32
ROOT
ATOM      1  C   UNL     1      45.276 129.003  22.024  1.00  0.00     0.228 C 
ENDROOT
BRANCH   1   2
ATOM      2  C   UNL     1      44.411 128.949  23.254  1.00  0.00     0.014 C 
ATOM      3  C   UNL     1      44.853 129.379  24.440  1.00  0.00     0.008 C 
ENDBRANCH   1   2
BRANCH   1   4
ATOM      4  O   UNL     1      45.347 127.701  21.443  1.00  0.00    -0.465 OA
BRANCH   4   5
ATOM      5  C   UNL     1      45.765 126.562  22.143  1.00  0.00     0.220 A 
ATOM      6  N   UNL     1      47.079 126.389  22.448  1.00  0.00    -0.202 NA
ATOM      7  C   UNL     1      44.826 125.587  22.529  1.00  0.00     0.032 A 
ATOM      8  C   UNL     1      47.513 125.288  23.107  1.00  0.00     0.226 A 
ATOM      9  C   UNL     1      45.305 124.435  23.192  1.00  0.00     0.047 A 
ATOM     10  N   UNL     1      46.631 124.324  23.470  1.00  0.00    -0.241 NA
ATOM     11  C   UNL     1      43.368 125.739  22.173  1.00  0.00     0.052 C 
ATOM     12  C   UNL     1      44.389 123.326  23.618  1.00  0.00     0.067 C 
ENDBRANCH   4   5
ENDBRANCH   1   4
BRANCH   1  13
ATOM     13  C   UNL     1      44.711 129.994  21.029  1.00  0.00     0.003 A 
ATOM     14  C   UNL     1      45.177 130.012  19.697  1.00  0.00     0.017 A 
ATOM     15  C   UNL     1      43.727 130.927  21.386  1.00  0.00    -0.006 A 
ATOM     16  C   UNL     1      44.657 130.934  18.753  1.00  0.00    -0.016 A 
ATOM     17  C   UNL     1      43.226 131.822  20.478  1.00  0.00     0.071 A 
ATOM     18  C   UNL     1      43.042 131.160  22.689  1.00  0.00     0.135 C 
ATOM     19  C   UNL     1      43.667 131.853  19.158  1.00  0.00     0.037 A 
ATOM     20  N   UNL     1      42.243 132.664  21.054  1.00  0.00    -0.218 NA
ATOM     21  C   UNL     1      42.138 132.295  22.293  1.00  0.00     0.190 C 
BRANCH  16  22
ATOM     22  C   UNL     1      45.147 130.928  17.352  1.00  0.00    -0.022 A 
ATOM     23  C   UNL     1      44.462 131.676  16.347  1.00  0.00    -0.014 A 
ATOM     24  C   UNL     1      46.297 130.178  17.004  1.00  0.00     0.016 A 
ATOM     25  N   UNL     1      44.891 131.686  15.048  1.00  0.00    -0.442 NA
ATOM     26  C   UNL     1      46.703 130.210  15.682  1.00  0.00    -0.026 A 
ATOM     27  C   UNL     1      45.988 130.969  14.716  1.00  0.00    -0.052 A 
ATOM     28  C   UNL     1      47.737 129.618  15.002  1.00  0.00     0.003 A 
ATOM     29  N   UNL     1      46.537 130.867  13.496  1.00  0.00    -0.442 NA
ATOM     30  C   UNL     1      47.601 130.042  13.678  1.00  0.00    -0.022 A 
ENDBRANCH  16  22
BRANCH  21  31
ATOM     31  O   UNL     1      41.256 132.908  23.176  1.00  0.00    -0.496 OA
ATOM     32  H   UNL     1      41.127 132.547  24.114  1.00  0.00     0.294 HD
ENDBRANCH  21  31
ENDBRANCH   1  13
TORSDOF 6
ENDMDL
MODEL 3
REMARK VINA RESULT:      -5.6      4.220      7.282
REMARK SMILES C=C[C@@H](Oc1ncnc(C)c1C)c1cc(-c2c[n-]c3nccc-3c2)cc2c1CC(O)=N2
REMARK SMILES IDX 3 1 2 2 1 3 4 4 5 5 6 6 11 7 7 8 9 9 8 10 12 11 10 12 13 13
REMARK SMILES IDX 14 14 27 15 15 16 26 17 28 18 25 19 31 20 29 21 16 22 17 23
REMARK SMILES IDX 24 24 18 25 23 26 19 27 22 28 20 29 21 30 30 31
REMARK H PARENT 30 32
ROOT
ATOM      1  C   UNL     1      44.294 131.490  19.047  1.00  0.00     0.228 C 
ENDROOT
BRANCH   1   2
ATOM      2  C   UNL     1      43.068 132.281  18.679  1.00  0.00     0.014 C 
ATOM      3  C   UNL     1      41.855 131.722  18.657  1.00  0.00     0.008 C 
ENDBRANCH   1   2
BRANCH   1   4
ATOM      4  O   UNL     1      45.312 131.722  18.074  1.00  0.00    -0.465 OA
BRANCH   4   5
ATOM      5  C   UNL     1      45.524 130.896  16.963  1.00  0.00     0.220 A 
ATOM      6  N   UNL     1      45.356 129.550  17.068  1.00  0.00    -0.202 NA
ATOM      7  C   UNL     1      45.918 131.455  15.733  1.00  0.00     0.032 A 
ATOM      8  C   UNL     1      45.573 128.727  16.015  1.00  0.00     0.226 A 
ATOM      9  C   UNL     1      46.165 130.574  14.656  1.00  0.00     0.047 A 
ATOM     10  N   UNL     1      45.975 129.238  14.825  1.00  0.00    -0.241 NA
ATOM     11  C   UNL     1      46.144 132.940  15.600  1.00  0.00     0.052 C 
ATOM     12  C   UNL     1      46.616 131.069  13.314  1.00  0.00     0.067 C 
ENDBRANCH   4   5
ENDBRANCH   1   4
BRANCH   1  13
ATOM     13  C   UNL     1      44.781 131.888  20.424  1.00  0.00     0.003 A 
ATOM     14  C   UNL     1      45.915 132.716  20.569  1.00  0.00     0.017 A 
ATOM     15  C   UNL     1      44.143 131.449  21.594  1.00  0.00    -0.006 A 
ATOM     16  C   UNL     1      46.382 133.097  21.852  1.00  0.00    -0.016 A 
ATOM     17  C   UNL     1      44.596 131.811  22.835  1.00  0.00     0.071 A 
ATOM     18  C   UNL     1      42.946 130.580  21.776  1.00  0.00     0.135 C 
ATOM     19  C   UNL     1      45.708 132.632  23.000  1.00  0.00     0.037 A 
ATOM     20  N   UNL     1      43.801 131.258  23.869  1.00  0.00    -0.218 NA
ATOM     21  C   UNL     1      42.876 130.567  23.278  1.00  0.00     0.190 C 
BRANCH  16  22
ATOM     22  C   UNL     1      47.567 133.982  21.986  1.00  0.00    -0.022 A 
ATOM     23  C   UNL     1      48.584 133.684  22.942  1.00  0.00    -0.014 A 
ATOM     24  C   UNL     1      47.692 135.129  21.165  1.00  0.00     0.016 A 
ATOM     25  N   UNL     1      49.684 134.484  23.087  1.00  0.00    -0.442 NA
ATOM     26  C   UNL     1      48.817 135.917  21.337  1.00  0.00    -0.026 A 
ATOM     27  C   UNL     1      49.803 135.579  22.304  1.00  0.00    -0.052 A 
ATOM     28  C   UNL     1      49.256 137.072  20.742  1.00  0.00     0.003 A 
ATOM     29  N   UNL     1      50.810 136.467  22.319  1.00  0.00    -0.442 NA
ATOM     30  C   UNL     1      50.469 137.373  21.366  1.00  0.00    -0.022 A 
ENDBRANCH  16  22
BRANCH  21  31
ATOM     31  O   UNL     1      41.901 129.874  23.987  1.00  0.00    -0.496 OA
ATOM     32  H   UNL     1      42.118 128.996  24.444  1.00  0.00     0.294 HD
ENDBRANCH  21  31
ENDBRANCH   1  13
TORSDOF 6
ENDMDL
MODEL 4
REMARK VINA RESULT:      -5.3      1.619      7.297
REMARK SMILES C=C[C@@H](Oc1ncnc(C)c1C)c1cc(-c2c[n-]c3nccc-3c2)cc2c1CC(O)=N2
REMARK SMILES IDX 3 1 2 2 1 3 4 4 5 5 6 6 11 7 7 8 9 9 8 10 12 11 10 12 13 13
REMARK SMILES IDX 14 14 27 15 15 16 26 17 28 18 25 19 31 20 29 21 16 22 17 23
REMARK SMILES IDX 24 24 18 25 23 26 19 27 22 28 20 29 21 30 30 31
REMARK H PARENT 30 32
ROOT
ATOM      1  C   UNL     1      44.669 131.387  20.010  1.00  0.00     0.228 C 
ENDROOT
BRANCH   1   2
ATOM      2  C   UNL     1      45.885 132.247  20.225  1.00  0.00     0.014 C 
ATOM      3  C   UNL     1      46.948 131.799  20.899  1.00  0.00     0.008 C 
ENDBRANCH   1   2
BRANCH   1   4
ATOM      4  O   UNL     1      44.903 130.511  18.908  1.00  0.00    -0.465 OA
BRANCH   4   5
ATOM      5  C   UNL     1      44.690 130.873  17.571  1.00  0.00     0.220 A 
ATOM      6  N   UNL     1      43.566 131.554  17.217  1.00  0.00    -0.202 NA
ATOM      7  C   UNL     1      45.635 130.528  16.588  1.00  0.00     0.032 A 
ATOM      8  C   UNL     1      43.327 131.899  15.930  1.00  0.00     0.226 A 
ATOM      9  C   UNL     1      45.351 130.875  15.248  1.00  0.00     0.047 A 
ATOM     10  N   UNL     1      44.211 131.559  14.960  1.00  0.00    -0.241 NA
ATOM     11  C   UNL     1      46.872 129.743  16.949  1.00  0.00     0.052 C 
ATOM     12  C   UNL     1      46.280 130.527  14.123  1.00  0.00     0.067 C 
ENDBRANCH   4   5
ENDBRANCH   1   4
BRANCH   1  13
ATOM     13  C   UNL     1      44.363 130.590  21.261  1.00  0.00     0.003 A 
ATOM     14  C   UNL     1      45.059 129.392  21.532  1.00  0.00     0.017 A 
ATOM     15  C   UNL     1      43.385 130.996  22.180  1.00  0.00    -0.006 A 
ATOM     16  C   UNL     1      44.784 128.636  22.699  1.00  0.00    -0.016 A 
ATOM     17  C   UNL     1      43.113 130.265  23.306  1.00  0.00     0.071 A 
ATOM     18  C   UNL     1      42.492 132.189  22.179  1.00  0.00     0.135 C 
ATOM     19  C   UNL     1      43.791 129.084  23.596  1.00  0.00     0.037 A 
ATOM     20  N   UNL     1      42.095 130.861  24.089  1.00  0.00    -0.218 NA
ATOM     21  C   UNL     1      41.745 131.940  23.460  1.00  0.00     0.190 C 
BRANCH  16  22
ATOM     22  C   UNL     1      45.536 127.387  22.978  1.00  0.00    -0.022 A 
ATOM     23  C   UNL     1      45.593 126.861  24.303  1.00  0.00    -0.014 A 
ATOM     24  C   UNL     1      46.204 126.711  21.927  1.00  0.00     0.016 A 
ATOM     25  N   UNL     1      46.281 125.713  24.587  1.00  0.00    -0.442 NA
ATOM     26  C   UNL     1      46.891 125.553  22.249  1.00  0.00    -0.026 A 
ATOM     27  C   UNL     1      46.920 125.069  23.585  1.00  0.00    -0.052 A 
ATOM     28  C   UNL     1      47.636 124.668  21.512  1.00  0.00     0.003 A 
ATOM     29  N   UNL     1      47.639 123.941  23.690  1.00  0.00    -0.442 NA
ATOM     30  C   UNL     1      48.072 123.704  22.424  1.00  0.00    -0.022 A 
ENDBRANCH  16  22
BRANCH  21  31
ATOM     31  O   UNL     1      40.756 132.791  23.942  1.00  0.00    -0.496 OA
ATOM     32  H   UNL     1      40.964 133.472  24.662  1.00  0.00     0.294 HD
ENDBRANCH  21  31
ENDBRANCH   1  13
TORSDOF 6
ENDMDL
MODEL 5
REMARK VINA RESULT:      -4.9      4.105      7.186
REMARK SMILES C=C[C@@H](Oc1ncnc(C)c1C)c1cc(-c2c[n-]c3nccc-3c2)cc2c1CC(O)=N2
REMARK SMILES IDX 3 1 2 2 1 3 4 4 5 5 6 6 11 7 7 8 9 9 8 10 12 11 10 12 13 13
REMARK SMILES IDX 14 14 27 15 15 16 26 17 28 18 25 19 31 20 29 21 16 22 17 23
REMARK SMILES IDX 24 24 18 25 23 26 19 27 22 28 20 29 21 30 30 31
REMARK H PARENT 30 32
ROOT
ATOM      1  C   UNL     1      43.903 131.400  19.457  1.00  0.00     0.228 C 
ENDROOT
BRANCH   1   2
ATOM      2  C   UNL     1      42.427 131.686  19.498  1.00  0.00     0.014 C 
ATOM      3  C   UNL     1      41.851 132.520  18.626  1.00  0.00     0.008 C 
ENDBRANCH   1   2
BRANCH   1   4
ATOM      4  O   UNL     1      44.493 132.132  18.384  1.00  0.00    -0.465 OA
BRANCH   4   5
ATOM      5  C   UNL     1      44.606 131.637  17.078  1.00  0.00     0.220 A 
ATOM      6  N   UNL     1      43.787 132.104  16.097  1.00  0.00    -0.202 NA
ATOM      7  C   UNL     1      45.562 130.651  16.777  1.00  0.00     0.032 A 
ATOM      8  C   UNL     1      43.861 131.629  14.831  1.00  0.00     0.226 A 
ATOM      9  C   UNL     1      45.603 130.152  15.456  1.00  0.00     0.047 A 
ATOM     10  N   UNL     1      44.759 130.662  14.520  1.00  0.00    -0.241 NA
ATOM     11  C   UNL     1      46.458 130.092  17.855  1.00  0.00     0.052 C 
ATOM     12  C   UNL     1      46.567 129.079  15.042  1.00  0.00     0.067 C 
ENDBRANCH   4   5
ENDBRANCH   1   4
BRANCH   1  13
ATOM     13  C   UNL     1      44.548 131.782  20.773  1.00  0.00     0.003 A 
ATOM     14  C   UNL     1      45.655 132.658  20.798  1.00  0.00     0.017 A 
ATOM     15  C   UNL     1      44.087 131.282  22.000  1.00  0.00    -0.006 A 
ATOM     16  C   UNL     1      46.269 133.025  22.022  1.00  0.00    -0.016 A 
ATOM     17  C   UNL     1      44.682 131.631  23.183  1.00  0.00     0.071 A 
ATOM     18  C   UNL     1      42.962 130.354  22.305  1.00  0.00     0.135 C 
ATOM     19  C   UNL     1      45.770 132.497  23.231  1.00  0.00     0.037 A 
ATOM     20  N   UNL     1      44.053 131.013  24.292  1.00  0.00    -0.218 NA
ATOM     21  C   UNL     1      43.089 130.297  23.802  1.00  0.00     0.190 C 
BRANCH  16  22
ATOM     22  C   UNL     1      47.422 133.960  22.031  1.00  0.00    -0.022 A 
ATOM     23  C   UNL     1      48.533 133.725  22.897  1.00  0.00    -0.014 A 
ATOM     24  C   UNL     1      47.425 135.092  21.181  1.00  0.00     0.016 A 
ATOM     25  N   UNL     1      49.606 134.572  22.927  1.00  0.00    -0.442 NA
ATOM     26  C   UNL     1      48.526 135.929  21.236  1.00  0.00    -0.026 A 
ATOM     27  C   UNL     1      49.609 135.653  22.116  1.00  0.00    -0.052 A 
ATOM     28  C   UNL     1      48.860 137.087  20.582  1.00  0.00     0.003 A 
ATOM     29  N   UNL     1      50.574 136.581  22.023  1.00  0.00    -0.442 NA
ATOM     30  C   UNL     1      50.111 137.451  21.088  1.00  0.00    -0.022 A 
ENDBRANCH  16  22
BRANCH  21  31
ATOM     31  O   UNL     1      42.245 129.539  24.608  1.00  0.00    -0.496 OA
ATOM     32  H   UNL     1      41.727 128.757  24.226  1.00  0.00     0.294 HD
ENDBRANCH  21  31
ENDBRANCH   1  13
TORSDOF 6
ENDMDL
MODEL 6
REMARK VINA RESULT:      -4.4      4.212      7.380
REMARK SMILES C=C[C@@H](Oc1ncnc(C)c1C)c1cc(-c2c[n-]c3nccc-3c2)cc2c1CC(O)=N2
REMARK SMILES IDX 3 1 2 2 1 3 4 4 5 5 6 6 11 7 7 8 9 9 8 10 12 11 10 12 13 13
REMARK SMILES IDX 14 14 27 15 15 16 26 17 28 18 25 19 31 20 29 21 16 22 17 23
REMARK SMILES IDX 24 24 18 25 23 26 19 27 22 28 20 29 21 30 30 31
REMARK H PARENT 30 32
ROOT
ATOM      1  C   UNL     1      44.251 131.352  19.404  1.00  0.00     0.228 C 
ENDROOT
BRANCH   1   2
ATOM      2  C   UNL     1      43.094 132.213  18.974  1.00  0.00     0.014 C 
ATOM      3  C   UNL     1      41.834 131.774  19.042  1.00  0.00     0.008 C 
ENDBRANCH   1   2
BRANCH   1   4
ATOM      4  O   UNL     1      45.283 131.429  18.421  1.00  0.00    -0.465 OA
BRANCH   4   5
ATOM      5  C   UNL     1      45.055 131.289  17.046  1.00  0.00     0.220 A 
ATOM      6  N   UNL     1      43.954 131.847  16.474  1.00  0.00    -0.202 NA
ATOM      7  C   UNL     1      45.962 130.564  16.251  1.00  0.00     0.032 A 
ATOM      8  C   UNL     1      43.700 131.711  15.151  1.00  0.00     0.226 A 
ATOM      9  C   UNL     1      45.662 130.412  14.878  1.00  0.00     0.047 A 
ATOM     10  N   UNL     1      44.546 130.998  14.367  1.00  0.00    -0.241 NA
ATOM     11  C   UNL     1      47.172 129.907  16.867  1.00  0.00     0.052 C 
ATOM     12  C   UNL     1      46.550 129.634  13.953  1.00  0.00     0.067 C 
ENDBRANCH   4   5
ENDBRANCH   1   4
BRANCH   1  13
ATOM     13  C   UNL     1      44.772 131.808  20.751  1.00  0.00     0.003 A 
ATOM     14  C   UNL     1      45.905 132.646  20.832  1.00  0.00     0.017 A 
ATOM     15  C   UNL     1      44.166 131.415  21.953  1.00  0.00    -0.006 A 
ATOM     16  C   UNL     1      46.403 133.081  22.085  1.00  0.00    -0.016 A 
ATOM     17  C   UNL     1      44.649 131.830  23.166  1.00  0.00     0.071 A 
ATOM     18  C   UNL     1      42.978 130.551  22.201  1.00  0.00     0.135 C 
ATOM     19  C   UNL     1      45.761 132.661  23.269  1.00  0.00     0.037 A 
ATOM     20  N   UNL     1      43.883 131.317  24.242  1.00  0.00    -0.218 NA
ATOM     21  C   UNL     1      42.947 130.600  23.704  1.00  0.00     0.190 C 
BRANCH  16  22
ATOM     22  C   UNL     1      47.587 133.975  22.152  1.00  0.00    -0.022 A 
ATOM     23  C   UNL     1      47.695 135.094  21.273  1.00  0.00    -0.014 A 
ATOM     24  C   UNL     1      48.618 133.719  23.089  1.00  0.00     0.016 A 
ATOM     25  N   UNL     1      48.776 135.931  21.312  1.00  0.00    -0.442 NA
ATOM     26  C   UNL     1      49.697 134.585  23.102  1.00  0.00    -0.026 A 
ATOM     27  C   UNL     1      49.760 135.687  22.205  1.00  0.00    -0.052 A 
ATOM     28  C   UNL     1      50.848 134.642  23.846  1.00  0.00     0.003 A 
ATOM     29  N   UNL     1      50.883 136.401  22.373  1.00  0.00    -0.442 NA
ATOM     30  C   UNL     1      51.541 135.758  23.373  1.00  0.00    -0.022 A 
ENDBRANCH  16  22
BRANCH  21  31
ATOM     31  O   UNL     1      41.993 129.932  24.466  1.00  0.00    -0.496 OA
ATOM     32  H   UNL     1      41.490 129.139  24.088  1.00  0.00     0.294 HD
ENDBRANCH  21  31
ENDBRANCH   1  13
TORSDOF 6
ENDMDL


