REMARK SMILES O=C=Nc1c(/C(O)=N/Cc2ccc[nH]2)ccc2cc[nH]c12
REMARK SMILES IDX 6 1 7 2 8 4 9 5 10 6 11 7 14 8 12 9 13 10 5 12 15 13 4 14
REMARK SMILES IDX 16 15 21 16 17 17 20 18 18 19 19 20 3 22 2 23 1 24
REMARK H PARENT 7 3 14 11 20 21
ROOT
ATOM      1  C   UNL     1       2.863   0.105   0.773  1.00  0.00     0.216 C 
ENDROOT
BRANCH   1   2
ATOM      2  O   UNL     1       4.158   0.614   0.891  1.00  0.00    -0.493 OA
ATOM      3  H   UNL     1       4.878   0.406   0.210  1.00  0.00     0.295 HD
ENDBRANCH   1   2
BRANCH   1   4
ATOM      4  N   UNL     1       2.008   0.276   1.736  1.00  0.00    -0.245 NA
BRANCH   4   5
ATOM      5  C   UNL     1       2.317   0.994   2.966  1.00  0.00     0.199 C 
BRANCH   5   6
ATOM      6  C   UNL     1       1.111   0.999   3.850  1.00  0.00     0.037 A 
ATOM      7  C   UNL     1       0.789   0.023   4.771  1.00  0.00     0.025 A 
ATOM      8  N   UNL     1       0.136   1.924   3.786  1.00  0.00    -0.363 N 
ATOM      9  C   UNL     1      -0.433   0.386   5.304  1.00  0.00     0.020 A 
ATOM     10  C   UNL     1      -0.805   1.559   4.676  1.00  0.00     0.082 A 
ATOM     11  H   UNL     1       0.105   2.760   3.160  1.00  0.00     0.166 HD
ENDBRANCH   5   6
ENDBRANCH   4   5
ENDBRANCH   1   4
BRANCH   1  12
ATOM     12  C   UNL     1       2.456  -0.652  -0.433  1.00  0.00     0.065 A 
ATOM     13  C   UNL     1       1.667  -1.819  -0.272  1.00  0.00     0.017 A 
ATOM     14  C   UNL     1       2.817  -0.211  -1.737  1.00  0.00     0.113 A 
ATOM     15  C   UNL     1       1.265  -2.577  -1.380  1.00  0.00     0.011 A 
ATOM     16  C   UNL     1       2.417  -1.018  -2.828  1.00  0.00     0.073 A 
ATOM     17  C   UNL     1       1.666  -2.152  -2.639  1.00  0.00     0.002 A 
ATOM     18  N   UNL     1       2.705  -0.875  -4.138  1.00  0.00    -0.359 N 
ATOM     19  C   UNL     1       1.454  -2.732  -3.870  1.00  0.00     0.028 A 
ATOM     20  C   UNL     1       2.116  -1.913  -4.773  1.00  0.00     0.083 A 
ATOM     21  H   UNL     1       3.297  -0.153  -4.600  1.00  0.00     0.166 HD
BRANCH  14  22
ATOM     22  N   UNL     1       3.517   1.038  -1.890  1.00  0.00    -0.165 NA
BRANCH  22  23
ATOM     23  C   UNL     1       3.516   1.753  -2.941  1.00  0.00     0.240 C 
ATOM     24  O   UNL     1       3.515   2.455  -3.961  1.00  0.00    -0.211 OA
ENDBRANCH  22  23
ENDBRANCH  14  22
ENDBRANCH   1  12
TORSDOF 7


