REMARK SMILES CCNC(=O)N/C=C(\O)n1nc2cc(-c3cnc(F)cc3C)ccc2c1C
REMARK SMILES IDX 8 1 9 2 7 4 6 5 4 6 3 7 5 9 2 11 1 12 10 13 11 14 26 15
REMARK SMILES IDX 12 16 25 17 13 18 24 19 14 20 23 21 27 22 15 23 16 24 21 25
REMARK SMILES IDX 17 26 20 27 18 28 22 29 19 30
REMARK H PARENT 9 3 6 8 3 10
ROOT
ATOM      1  C   UNL     1      -1.403  -2.229  -0.793  1.00  0.00     0.229 C 
ENDROOT
BRANCH   1   2
ATOM      2  O   UNL     1      -2.627  -2.615  -1.350  1.00  0.00    -0.492 OA
ATOM      3  H   UNL     1      -2.986  -3.559  -1.338  1.00  0.00     0.295 HD
ENDBRANCH   1   2
BRANCH   1   4
ATOM      4  C   UNL     1      -0.519  -3.141  -0.340  1.00  0.00     0.155 C 
BRANCH   4   5
ATOM      5  N   UNL     1      -0.701  -4.558  -0.490  1.00  0.00    -0.309 N 
ATOM      6  C   UNL     1       0.114  -5.501   0.220  1.00  0.00     0.318 C 
ATOM      7  N   UNL     1      -0.035  -6.903  -0.034  1.00  0.00    -0.338 N 
ATOM      8  H   UNL     1      -1.372  -4.938  -1.192  1.00  0.00     0.171 HD
ATOM      9  O   UNL     1       0.956  -5.100   1.070  1.00  0.00    -0.249 OA
ATOM     10  H   UNL     1      -0.742  -7.212  -0.740  1.00  0.00     0.165 HD
BRANCH   7  11
ATOM     11  C   UNL     1       0.775  -7.897   0.671  1.00  0.00     0.114 C 
ATOM     12  C   UNL     1       0.422  -9.310   0.219  1.00  0.00     0.027 C 
ENDBRANCH   7  11
ENDBRANCH   4   5
ENDBRANCH   1   4
BRANCH   1  13
ATOM     13  N   UNL     1      -1.102  -0.820  -0.683  1.00  0.00    -0.203 N 
ATOM     14  N   UNL     1      -0.090  -0.344   0.041  1.00  0.00    -0.165 NA
ATOM     15  C   UNL     1      -1.775   0.215  -1.261  1.00  0.00     0.052 A 
ATOM     16  C   UNL     1      -0.120   0.995  -0.070  1.00  0.00     0.094 A 
ATOM     17  C   UNL     1      -1.157   1.386  -0.870  1.00  0.00     0.023 A 
ATOM     18  C   UNL     1       0.745   1.912   0.518  1.00  0.00     0.039 A 
ATOM     19  C   UNL     1      -1.406   2.730  -1.146  1.00  0.00     0.013 A 
ATOM     20  C   UNL     1       0.521   3.286   0.273  1.00  0.00    -0.014 A 
ATOM     21  C   UNL     1      -0.550   3.686  -0.568  1.00  0.00     0.009 A 
ATOM     22  C   UNL     1      -2.970   0.100  -2.161  1.00  0.00     0.067 C 
BRANCH  20  23
ATOM     23  C   UNL     1       1.423   4.297   0.869  1.00  0.00     0.003 A 
ATOM     24  C   UNL     1       2.795   4.238   0.579  1.00  0.00     0.123 A 
ATOM     25  C   UNL     1       0.952   5.320   1.727  1.00  0.00    -0.037 A 
ATOM     26  N   UNL     1       3.647   5.166   1.086  1.00  0.00    -0.228 NA
ATOM     27  C   UNL     1       1.861   6.269   2.218  1.00  0.00     0.064 A 
ATOM     28  C   UNL     1       3.213   6.172   1.887  1.00  0.00     0.213 A 
ATOM     29  C   UNL     1      -0.499   5.430   2.118  1.00  0.00     0.045 C 
ATOM     30  F   UNL     1       4.097   7.080   2.368  1.00  0.00    -0.185 F 
ENDBRANCH  20  23
ENDBRANCH   1  13
TORSDOF 6


