REMARK SMILES CCCO/C(O)=[N+]1\C[C@H](c2ccc3cc[nH]c3c2)[C@H](C)C[C@H]1F
REMARK SMILES IDX 5 1 6 2 4 4 3 5 2 6 1 7 7 8 8 9 22 10 9 11 21 12 19 13 23 14
REMARK SMILES IDX 20 15 10 16 11 17 18 18 12 19 17 20 13 21 16 22 14 23 15 24
REMARK H PARENT 6 3 16 25
ROOT
ATOM      1  C   UNL     1      -2.475  -1.835   0.275  1.00  0.00     0.549 C 
ENDROOT
BRANCH   1   2
ATOM      2  O   UNL     1      -3.113  -2.748  -0.572  1.00  0.00    -0.430 OA
ATOM      3  H   UNL     1      -4.005  -2.556  -1.008  1.00  0.00     0.303 HD
ENDBRANCH   1   2
BRANCH   1   4
ATOM      4  O   UNL     1      -3.048  -0.577   0.510  1.00  0.00    -0.415 OA
BRANCH   4   5
ATOM      5  C   UNL     1      -4.132  -0.042  -0.241  1.00  0.00     0.239 C 
BRANCH   5   6
ATOM      6  C   UNL     1      -4.328   1.430   0.115  1.00  0.00     0.038 C 
ATOM      7  C   UNL     1      -3.088   2.260  -0.212  1.00  0.00     0.007 C 
ENDBRANCH   5   6
ENDBRANCH   4   5
ENDBRANCH   1   4
BRANCH   1   8
ATOM      8  N   UNL     1      -1.325  -2.141   0.830  1.00  0.00    -0.131 N 
ATOM      9  C   UNL     1      -0.641  -1.215   1.751  1.00  0.00     0.369 C 
ATOM     10  C   UNL     1      -0.634  -3.412   0.548  1.00  0.00     0.449 C 
ATOM     11  C   UNL     1       0.777  -0.879   1.248  1.00  0.00     0.088 C 
ATOM     12  C   UNL     1       0.759  -3.129  -0.033  1.00  0.00     0.119 C 
ATOM     13  C   UNL     1       1.565  -2.167   0.864  1.00  0.00     0.009 C 
ATOM     14  F   UNL     1      -0.513  -4.142   1.720  1.00  0.00    -0.175 F 
ATOM     15  C   UNL     1       2.930  -1.852   0.239  1.00  0.00     0.009 C 
BRANCH  11  16
ATOM     16  C   UNL     1       0.767   0.212   0.178  1.00  0.00    -0.036 A 
ATOM     17  C   UNL     1       0.045   0.073  -1.041  1.00  0.00     0.005 A 
ATOM     18  C   UNL     1       1.495   1.405   0.409  1.00  0.00     0.031 A 
ATOM     19  C   UNL     1       0.036   1.101  -1.999  1.00  0.00     0.010 A 
ATOM     20  C   UNL     1       1.465   2.403  -0.562  1.00  0.00     0.046 A 
ATOM     21  C   UNL     1       0.758   2.255  -1.722  1.00  0.00    -0.001 A 
ATOM     22  N   UNL     1       2.078   3.597  -0.525  1.00  0.00    -0.361 N 
ATOM     23  C   UNL     1       0.926   3.408  -2.458  1.00  0.00     0.028 A 
ATOM     24  C   UNL     1       1.751   4.216  -1.683  1.00  0.00     0.083 A 
ATOM     25  H   UNL     1       2.683   3.975   0.237  1.00  0.00     0.166 HD
ENDBRANCH  11  16
ENDBRANCH   1   8
TORSDOF 6


