MODEL 1
REMARK VINA RESULT:      -4.0      0.000      0.000
REMARK SMILES CSc1ccc([NH2+]C(=S)Oc2ccc(-c3ccc(C)c4n[n-]cc34)cc2)cc1
REMARK SMILES IDX 8 1 9 2 7 3 6 6 3 7 4 8 28 9 5 10 27 11 2 12 1 13 10 14
REMARK SMILES IDX 11 15 12 16 26 17 13 18 25 19 14 20 15 21 16 22 24 23 17 24
REMARK SMILES IDX 23 25 20 26 18 27 22 28 21 29 19 30
REMARK H PARENT 7 4 7 5
ROOT
ATOM      1  C   UNL     1      43.486 130.636  23.110  1.00  0.00     0.370 C 
ATOM      2  S   UNL     1      42.845 131.557  24.304  1.00  0.00     0.028 S 
ENDROOT
BRANCH   1   3
ATOM      3  N   UNL     1      42.780 129.464  22.646  1.00  0.00    -0.239 N 
ATOM      4  H   UNL     1      41.816 129.460  23.045  1.00  0.00     0.362 HD
ATOM      5  H   UNL     1      42.680 129.487  21.604  1.00  0.00     0.362 HD
BRANCH   3   6
ATOM      6  C   UNL     1      43.502 128.266  23.003  1.00  0.00     0.137 A 
ATOM      7  C   UNL     1      44.930 125.946  23.701  1.00  0.00     0.007 A 
ATOM      8  C   UNL     1      44.055 126.533  24.620  1.00  0.00     0.021 A 
ATOM      9  C   UNL     1      45.089 126.511  22.431  1.00  0.00     0.021 A 
ATOM     10  C   UNL     1      43.337 127.681  24.272  1.00  0.00     0.069 A 
ATOM     11  C   UNL     1      44.376 127.661  22.080  1.00  0.00     0.069 A 
BRANCH   7  12
ATOM     12  S   UNL     1      45.857 124.478  24.154  1.00  0.00    -0.130 SA
ATOM     13  C   UNL     1      46.857 124.493  22.633  1.00  0.00     0.091 C 
ENDBRANCH   7  12
ENDBRANCH   3   6
ENDBRANCH   1   3
BRANCH   1  14
ATOM     14  O   UNL     1      44.689 131.060  22.526  1.00  0.00    -0.404 OA
BRANCH  14  15
ATOM     15  C   UNL     1      44.949 131.054  21.153  1.00  0.00     0.134 A 
ATOM     16  C   UNL     1      46.084 130.417  20.629  1.00  0.00     0.048 A 
ATOM     17  C   UNL     1      44.071 131.717  20.291  1.00  0.00     0.048 A 
ATOM     18  C   UNL     1      46.307 130.402  19.249  1.00  0.00     0.012 A 
ATOM     19  C   UNL     1      44.290 131.701  18.911  1.00  0.00     0.012 A 
ATOM     20  C   UNL     1      45.410 131.043  18.377  1.00  0.00    -0.018 A 
BRANCH  20  21
ATOM     21  C   UNL     1      45.634 130.999  16.915  1.00  0.00    -0.011 A 
ATOM     22  C   UNL     1      46.904 130.674  16.387  1.00  0.00     0.010 A 
ATOM     23  C   UNL     1      44.617 131.276  15.991  1.00  0.00    -0.014 A 
ATOM     24  C   UNL     1      47.117 130.621  14.992  1.00  0.00     0.006 A 
ATOM     25  C   UNL     1      43.307 131.678  16.134  1.00  0.00    -0.113 A 
ATOM     26  C   UNL     1      44.824 131.227  14.640  1.00  0.00     0.050 A 
ATOM     27  C   UNL     1      46.063 130.887  14.092  1.00  0.00    -0.027 A 
ATOM     28  N   UNL     1      42.777 131.845  14.901  1.00  0.00    -0.581 NA
ATOM     29  N   UNL     1      43.701 131.571  13.985  1.00  0.00    -0.367 NA
ATOM     30  C   UNL     1      46.287 130.880  12.609  1.00  0.00     0.046 C 
ENDBRANCH  20  21
ENDBRANCH  14  15
ENDBRANCH   1  14
TORSDOF 6
ENDMDL
MODEL 2
REMARK VINA RESULT:      -3.6      2.033      2.689
REMARK SMILES CSc1ccc([NH2+]C(=S)Oc2ccc(-c3ccc(C)c4n[n-]cc34)cc2)cc1
REMARK SMILES IDX 8 1 9 2 7 3 6 6 3 7 4 8 28 9 5 10 27 11 2 12 1 13 10 14
REMARK SMILES IDX 11 15 12 16 26 17 13 18 25 19 14 20 15 21 16 22 24 23 17 24
REMARK SMILES IDX 23 25 20 26 18 27 22 28 21 29 19 30
REMARK H PARENT 7 4 7 5
ROOT
ATOM      1  C   UNL     1      44.153 129.487  24.088  1.00  0.00     0.370 C 
ATOM      2  S   UNL     1      42.613 129.676  24.615  1.00  0.00     0.028 S 
ENDROOT
BRANCH   1   3
ATOM      3  N   UNL     1      44.837 128.231  24.298  1.00  0.00    -0.239 N 
ATOM      4  H   UNL     1      45.728 128.228  23.755  1.00  0.00     0.362 HD
ATOM      5  H   UNL     1      45.093 128.118  25.306  1.00  0.00     0.362 HD
BRANCH   3   6
ATOM      6  C   UNL     1      43.989 127.125  23.922  1.00  0.00     0.137 A 
ATOM      7  C   UNL     1      42.330 124.966  23.217  1.00  0.00     0.007 A 
ATOM      8  C   UNL     1      41.885 126.280  23.037  1.00  0.00     0.021 A 
ATOM      9  C   UNL     1      43.605 124.728  23.742  1.00  0.00     0.021 A 
ATOM     10  C   UNL     1      42.711 127.354  23.378  1.00  0.00     0.069 A 
ATOM     11  C   UNL     1      44.432 125.799  24.089  1.00  0.00     0.069 A 
BRANCH   7  12
ATOM     12  S   UNL     1      41.264 123.589  22.787  1.00  0.00    -0.130 SA
ATOM     13  C   UNL     1      42.522 122.781  21.750  1.00  0.00     0.091 C 
ENDBRANCH   7  12
ENDBRANCH   3   6
ENDBRANCH   1   3
BRANCH   1  14
ATOM     14  O   UNL     1      44.743 130.546  23.383  1.00  0.00    -0.404 OA
BRANCH  14  15
ATOM     15  C   UNL     1      44.625 130.745  22.004  1.00  0.00     0.134 A 
ATOM     16  C   UNL     1      45.691 130.468  21.135  1.00  0.00     0.048 A 
ATOM     17  C   UNL     1      43.429 131.251  21.489  1.00  0.00     0.048 A 
ATOM     18  C   UNL     1      45.539 130.649  19.758  1.00  0.00     0.012 A 
ATOM     19  C   UNL     1      43.273 131.430  20.112  1.00  0.00     0.012 A 
ATOM     20  C   UNL     1      44.327 131.130  19.233  1.00  0.00    -0.018 A 
BRANCH  20  21
ATOM     21  C   UNL     1      44.160 131.292  17.772  1.00  0.00    -0.011 A 
ATOM     22  C   UNL     1      43.020 131.936  17.241  1.00  0.00     0.010 A 
ATOM     23  C   UNL     1      45.106 130.821  16.851  1.00  0.00    -0.014 A 
ATOM     24  C   UNL     1      42.863 132.102  15.847  1.00  0.00     0.006 A 
ATOM     25  C   UNL     1      46.277 130.110  16.994  1.00  0.00    -0.113 A 
ATOM     26  C   UNL     1      44.954 130.979  15.501  1.00  0.00     0.050 A 
ATOM     27  C   UNL     1      43.847 131.631  14.951  1.00  0.00    -0.027 A 
ATOM     28  N   UNL     1      46.786 129.876  15.763  1.00  0.00    -0.581 NA
ATOM     29  N   UNL     1      45.980 130.405  14.848  1.00  0.00    -0.367 NA
ATOM     30  C   UNL     1      43.671 131.758  13.468  1.00  0.00     0.046 C 
ENDBRANCH  20  21
ENDBRANCH  14  15
ENDBRANCH   1  14
TORSDOF 6
ENDMDL
MODEL 3
REMARK VINA RESULT:      -1.7      6.226      8.437
REMARK SMILES CSc1ccc([NH2+]C(=S)Oc2ccc(-c3ccc(C)c4n[n-]cc34)cc2)cc1
REMARK SMILES IDX 8 1 9 2 7 3 6 6 3 7 4 8 28 9 5 10 27 11 2 12 1 13 10 14
REMARK SMILES IDX 11 15 12 16 26 17 13 18 25 19 14 20 15 21 16 22 24 23 17 24
REMARK SMILES IDX 23 25 20 26 18 27 22 28 21 29 19 30
REMARK H PARENT 7 4 7 5
ROOT
ATOM      1  C   UNL     1      44.544 131.765  21.573  1.00  0.00     0.370 C 
ATOM      2  S   UNL     1      44.458 131.610  23.201  1.00  0.00     0.028 S 
ENDROOT
BRANCH   1   3
ATOM      3  N   UNL     1      43.331 131.859  20.793  1.00  0.00    -0.239 N 
ATOM      4  H   UNL     1      42.657 131.128  21.110  1.00  0.00     0.362 HD
ATOM      5  H   UNL     1      42.870 132.786  20.945  1.00  0.00     0.362 HD
BRANCH   3   6
ATOM      6  C   UNL     1      43.624 131.728  19.385  1.00  0.00     0.137 A 
ATOM      7  C   UNL     1      44.194 131.446  16.646  1.00  0.00     0.007 A 
ATOM      8  C   UNL     1      42.918 131.844  17.059  1.00  0.00     0.021 A 
ATOM      9  C   UNL     1      45.188 131.196  17.598  1.00  0.00     0.021 A 
ATOM     10  C   UNL     1      42.636 131.994  18.420  1.00  0.00     0.069 A 
ATOM     11  C   UNL     1      44.909 131.340  18.959  1.00  0.00     0.069 A 
BRANCH   7  12
ATOM     12  S   UNL     1      44.551 131.247  14.899  1.00  0.00    -0.130 SA
ATOM     13  C   UNL     1      46.323 131.609  15.096  1.00  0.00     0.091 C 
ENDBRANCH   7  12
ENDBRANCH   3   6
ENDBRANCH   1   3
BRANCH   1  14
ATOM     14  O   UNL     1      45.815 131.866  20.987  1.00  0.00    -0.404 OA
BRANCH  14  15
ATOM     15  C   UNL     1      46.759 132.845  21.306  1.00  0.00     0.134 A 
ATOM     16  C   UNL     1      46.416 134.205  21.341  1.00  0.00     0.048 A 
ATOM     17  C   UNL     1      48.076 132.459  21.572  1.00  0.00     0.048 A 
ATOM     18  C   UNL     1      47.373 135.162  21.690  1.00  0.00     0.012 A 
ATOM     19  C   UNL     1      49.034 133.414  21.923  1.00  0.00     0.012 A 
ATOM     20  C   UNL     1      48.691 134.775  21.986  1.00  0.00    -0.018 A 
BRANCH  20  21
ATOM     21  C   UNL     1      49.694 135.788  22.383  1.00  0.00    -0.011 A 
ATOM     22  C   UNL     1      50.539 135.572  23.496  1.00  0.00     0.010 A 
ATOM     23  C   UNL     1      49.855 136.997  21.693  1.00  0.00    -0.014 A 
ATOM     24  C   UNL     1      51.504 136.533  23.870  1.00  0.00     0.006 A 
ATOM     25  C   UNL     1      49.187 137.562  20.629  1.00  0.00    -0.113 A 
ATOM     26  C   UNL     1      50.787 137.928  22.057  1.00  0.00     0.050 A 
ATOM     27  C   UNL     1      51.650 137.730  23.138  1.00  0.00    -0.027 A 
ATOM     28  N   UNL     1      49.728 138.778  20.385  1.00  0.00    -0.581 NA
ATOM     29  N   UNL     1      50.706 139.005  21.256  1.00  0.00    -0.367 NA
ATOM     30  C   UNL     1      52.638 138.779  23.553  1.00  0.00     0.046 C 
ENDBRANCH  20  21
ENDBRANCH  14  15
ENDBRANCH   1  14
TORSDOF 6
ENDMDL
MODEL 4
REMARK VINA RESULT:      -1.4      5.213      8.069
REMARK SMILES CSc1ccc([NH2+]C(=S)Oc2ccc(-c3ccc(C)c4n[n-]cc34)cc2)cc1
REMARK SMILES IDX 8 1 9 2 7 3 6 6 3 7 4 8 28 9 5 10 27 11 2 12 1 13 10 14
REMARK SMILES IDX 11 15 12 16 26 17 13 18 25 19 14 20 15 21 16 22 24 23 17 24
REMARK SMILES IDX 23 25 20 26 18 27 22 28 21 29 19 30
REMARK H PARENT 7 4 7 5
ROOT
ATOM      1  C   UNL     1      42.987 131.722  19.777  1.00  0.00     0.370 C 
ATOM      2  S   UNL     1      42.420 133.238  20.031  1.00  0.00     0.028 S 
ENDROOT
BRANCH   1   3
ATOM      3  N   UNL     1      42.618 131.007  18.576  1.00  0.00    -0.239 N 
ATOM      4  H   UNL     1      42.425 130.009  18.813  1.00  0.00     0.362 HD
ATOM      5  H   UNL     1      41.736 131.401  18.173  1.00  0.00     0.362 HD
BRANCH   3   6
ATOM      6  C   UNL     1      43.658 131.120  17.581  1.00  0.00     0.137 A 
ATOM      7  C   UNL     1      45.680 131.314  15.636  1.00  0.00     0.007 A 
ATOM      8  C   UNL     1      44.415 131.858  15.389  1.00  0.00     0.021 A 
ATOM      9  C   UNL     1      45.939 130.680  16.856  1.00  0.00     0.021 A 
ATOM     10  C   UNL     1      43.412 131.771  16.358  1.00  0.00     0.069 A 
ATOM     11  C   UNL     1      44.938 130.587  17.826  1.00  0.00     0.069 A 
BRANCH   7  12
ATOM     12  S   UNL     1      46.963 131.420  14.387  1.00  0.00    -0.130 SA
ATOM     13  C   UNL     1      47.185 129.616  14.289  1.00  0.00     0.091 C 
ENDBRANCH   7  12
ENDBRANCH   3   6
ENDBRANCH   1   3
BRANCH   1  14
ATOM     14  O   UNL     1      43.878 131.184  20.718  1.00  0.00    -0.404 OA
BRANCH  14  15
ATOM     15  C   UNL     1      44.988 131.858  21.234  1.00  0.00     0.134 A 
ATOM     16  C   UNL     1      46.182 131.959  20.505  1.00  0.00     0.048 A 
ATOM     17  C   UNL     1      44.911 132.419  22.512  1.00  0.00     0.048 A 
ATOM     18  C   UNL     1      47.270 132.662  21.032  1.00  0.00     0.012 A 
ATOM     19  C   UNL     1      45.996 133.124  23.040  1.00  0.00     0.012 A 
ATOM     20  C   UNL     1      47.185 133.252  22.304  1.00  0.00    -0.018 A 
BRANCH  20  21
ATOM     21  C   UNL     1      48.329 134.020  22.846  1.00  0.00    -0.011 A 
ATOM     22  C   UNL     1      48.885 133.698  24.104  1.00  0.00     0.010 A 
ATOM     23  C   UNL     1      48.909 135.092  22.154  1.00  0.00    -0.014 A 
ATOM     24  C   UNL     1      49.983 134.423  24.618  1.00  0.00     0.006 A 
ATOM     25  C   UNL     1      48.602 135.712  20.962  1.00  0.00    -0.113 A 
ATOM     26  C   UNL     1      49.971 135.795  22.652  1.00  0.00     0.050 A 
ATOM     27  C   UNL     1      50.553 135.483  23.883  1.00  0.00    -0.027 A 
ATOM     28  N   UNL     1      49.468 136.735  20.780  1.00  0.00    -0.581 NA
ATOM     29  N   UNL     1      50.306 136.789  21.811  1.00  0.00    -0.367 NA
ATOM     30  C   UNL     1      51.689 136.291  24.438  1.00  0.00     0.046 C 
ENDBRANCH  20  21
ENDBRANCH  14  15
ENDBRANCH   1  14
TORSDOF 6
ENDMDL
MODEL 5
REMARK VINA RESULT:      -1.1      4.415      7.514
REMARK SMILES CSc1ccc([NH2+]C(=S)Oc2ccc(-c3ccc(C)c4n[n-]cc34)cc2)cc1
REMARK SMILES IDX 8 1 9 2 7 3 6 6 3 7 4 8 28 9 5 10 27 11 2 12 1 13 10 14
REMARK SMILES IDX 11 15 12 16 26 17 13 18 25 19 14 20 15 21 16 22 24 23 17 24
REMARK SMILES IDX 23 25 20 26 18 27 22 28 21 29 19 30
REMARK H PARENT 7 4 7 5
ROOT
ATOM      1  C   UNL     1      47.135 124.076  23.320  1.00  0.00     0.370 C 
ATOM      2  S   UNL     1      45.902 123.116  23.812  1.00  0.00     0.028 S 
ENDROOT
BRANCH   1   3
ATOM      3  N   UNL     1      48.462 123.875  23.854  1.00  0.00    -0.239 N 
ATOM      4  H   UNL     1      48.774 124.743  24.342  1.00  0.00     0.362 HD
ATOM      5  H   UNL     1      48.457 123.108  24.567  1.00  0.00     0.362 HD
BRANCH   3   6
ATOM      6  C   UNL     1      49.379 123.505  22.803  1.00  0.00     0.137 A 
ATOM      7  C   UNL     1      51.158 122.805  20.739  1.00  0.00     0.007 A 
ATOM      8  C   UNL     1      51.639 123.411  21.905  1.00  0.00     0.021 A 
ATOM      9  C   UNL     1      49.790 122.542  20.605  1.00  0.00     0.021 A 
ATOM     10  C   UNL     1      50.758 123.750  22.935  1.00  0.00     0.069 A 
ATOM     11  C   UNL     1      48.905 122.884  21.631  1.00  0.00     0.069 A 
BRANCH   7  12
ATOM     12  S   UNL     1      52.290 122.378  19.415  1.00  0.00    -0.130 SA
ATOM     13  C   UNL     1      52.503 124.103  18.877  1.00  0.00     0.091 C 
ENDBRANCH   7  12
ENDBRANCH   3   6
ENDBRANCH   1   3
BRANCH   1  14
ATOM     14  O   UNL     1      46.868 125.036  22.332  1.00  0.00    -0.404 OA
BRANCH  14  15
ATOM     15  C   UNL     1      46.007 126.125  22.496  1.00  0.00     0.134 A 
ATOM     16  C   UNL     1      44.899 126.055  23.353  1.00  0.00     0.048 A 
ATOM     17  C   UNL     1      46.246 127.296  21.771  1.00  0.00     0.048 A 
ATOM     18  C   UNL     1      44.069 127.167  23.520  1.00  0.00     0.012 A 
ATOM     19  C   UNL     1      45.419 128.410  21.938  1.00  0.00     0.012 A 
ATOM     20  C   UNL     1      44.323 128.356  22.815  1.00  0.00    -0.018 A 
BRANCH  20  21
ATOM     21  C   UNL     1      43.459 129.540  23.017  1.00  0.00    -0.011 A 
ATOM     22  C   UNL     1      42.636 129.649  24.162  1.00  0.00     0.010 A 
ATOM     23  C   UNL     1      43.408 130.598  22.100  1.00  0.00    -0.014 A 
ATOM     24  C   UNL     1      41.819 130.783  24.362  1.00  0.00     0.006 A 
ATOM     25  C   UNL     1      44.007 130.805  20.876  1.00  0.00    -0.113 A 
ATOM     26  C   UNL     1      42.616 131.696  22.293  1.00  0.00     0.050 A 
ATOM     27  C   UNL     1      41.810 131.839  23.425  1.00  0.00    -0.027 A 
ATOM     28  N   UNL     1      43.577 131.991  20.388  1.00  0.00    -0.581 NA
ATOM     29  N   UNL     1      42.726 132.538  21.250  1.00  0.00    -0.367 NA
ATOM     30  C   UNL     1      40.912 133.027  23.602  1.00  0.00     0.046 C 
ENDBRANCH  20  21
ENDBRANCH  14  15
ENDBRANCH   1  14
TORSDOF 6
ENDMDL


