REMARK SMILES O=C(Oc1ccc([NH2+]c2ccc3cc[nH]c3c2)c(F)c1)[C@H](O)CC1CC1
REMARK SMILES IDX 3 1 2 2 1 3 21 4 22 5 23 7 24 8 25 9 26 10 4 11 5 12 20 13
REMARK SMILES IDX 6 14 18 15 7 16 19 17 8 18 9 21 10 22 17 23 11 24 16 25
REMARK SMILES IDX 12 26 15 27 13 28 14 29
REMARK H PARENT 22 6 8 19 8 20 15 30
ROOT
ATOM      1  O   UNL     1       1.923   1.557   0.158  1.00  0.00    -0.425 OA
ENDROOT
BRANCH   1   2
ATOM      2  C   UNL     1       3.072   0.834  -0.188  1.00  0.00     0.340 C 
ATOM      3  O   UNL     1       3.025  -0.413  -0.375  1.00  0.00    -0.249 OA
BRANCH   2   4
ATOM      4  C   UNL     1       4.375   1.565  -0.351  1.00  0.00     0.224 C 
BRANCH   4   5
ATOM      5  O   UNL     1       5.047   1.100  -1.492  1.00  0.00    -0.381 OA
ATOM      6  H   UNL     1       4.559   1.458  -2.279  1.00  0.00     0.211 HD
ENDBRANCH   4   5
BRANCH   4   7
ATOM      7  C   UNL     1       5.270   1.361   0.878  1.00  0.00     0.047 C 
BRANCH   7   8
ATOM      8  C   UNL     1       4.658   2.004   2.133  1.00  0.00    -0.008 C 
ATOM      9  C   UNL     1       3.898   1.067   3.062  1.00  0.00     0.004 C 
ATOM     10  C   UNL     1       5.287   1.553   3.442  1.00  0.00     0.004 C 
ENDBRANCH   7   8
ENDBRANCH   4   7
ENDBRANCH   2   4
ENDBRANCH   1   2
BRANCH   1  11
ATOM     11  C   UNL     1       0.736   1.007   0.662  1.00  0.00     0.134 A 
ATOM     12  C   UNL     1       0.715  -0.182   1.412  1.00  0.00     0.053 A 
ATOM     13  C   UNL     1      -0.462   1.695   0.441  1.00  0.00     0.093 A 
ATOM     14  C   UNL     1      -0.493  -0.684   1.904  1.00  0.00     0.075 A 
ATOM     15  C   UNL     1      -1.673   1.197   0.930  1.00  0.00     0.187 A 
ATOM     16  C   UNL     1      -1.700  -0.002   1.670  1.00  0.00     0.170 A 
ATOM     17  F   UNL     1      -2.816   1.885   0.688  1.00  0.00    -0.200 F 
BRANCH  16  18
ATOM     18  N   UNL     1      -2.946  -0.546   2.152  1.00  0.00    -0.279 N 
ATOM     19  H   UNL     1      -3.618   0.225   2.377  1.00  0.00     0.358 HD
ATOM     20  H   UNL     1      -2.788  -1.072   3.043  1.00  0.00     0.358 HD
BRANCH  18  21
ATOM     21  C   UNL     1      -3.508  -1.426   1.159  1.00  0.00     0.136 A 
ATOM     22  C   UNL     1      -3.119  -2.792   1.110  1.00  0.00     0.069 A 
ATOM     23  C   UNL     1      -4.421  -0.928   0.199  1.00  0.00     0.094 A 
ATOM     24  C   UNL     1      -3.636  -3.654   0.127  1.00  0.00     0.016 A 
ATOM     25  C   UNL     1      -4.913  -1.810  -0.761  1.00  0.00     0.051 A 
ATOM     26  C   UNL     1      -4.535  -3.124  -0.794  1.00  0.00    -0.000 A 
ATOM     27  N   UNL     1      -5.779  -1.538  -1.751  1.00  0.00    -0.361 N 
ATOM     28  C   UNL     1      -5.189  -3.716  -1.851  1.00  0.00     0.028 A 
ATOM     29  C   UNL     1      -5.951  -2.701  -2.421  1.00  0.00     0.083 A 
ATOM     30  H   UNL     1      -6.226  -0.620  -1.966  1.00  0.00     0.166 HD
ENDBRANCH  18  21
ENDBRANCH  16  18
ENDBRANCH   1  11
TORSDOF 8


