REMARK SMILES Nc1c(/C(O)=N/Cc2ccc[nH]2)cc(-n2nc3ccccc3n2)c([O-])c1N
REMARK SMILES IDX 4 1 5 2 6 4 7 5 8 6 9 7 12 8 10 9 11 10 3 12 13 13 2 14
REMARK SMILES IDX 14 15 26 16 24 17 25 18 1 19 15 22 16 23 23 24 17 25 22 26
REMARK SMILES IDX 18 27 21 28 19 29 20 30 27 31
REMARK H PARENT 5 3 12 11 1 20 1 21 27 32 27 33
ROOT
ATOM      1  C   UNL     1       0.551   2.189   0.086  1.00  0.00     0.216 C 
ENDROOT
BRANCH   1   2
ATOM      2  O   UNL     1       0.335   3.520   0.460  1.00  0.00    -0.493 OA
ATOM      3  H   UNL     1       1.082   4.191   0.581  1.00  0.00     0.295 HD
ENDBRANCH   1   2
BRANCH   1   4
ATOM      4  N   UNL     1       1.749   1.738  -0.153  1.00  0.00    -0.245 NA
BRANCH   4   5
ATOM      5  C   UNL     1       2.976   2.519  -0.057  1.00  0.00     0.199 C 
BRANCH   5   6
ATOM      6  C   UNL     1       4.139   1.652  -0.413  1.00  0.00     0.037 A 
ATOM      7  C   UNL     1       4.608   1.425  -1.693  1.00  0.00     0.025 A 
ATOM      8  N   UNL     1       4.820   0.903   0.474  1.00  0.00    -0.363 N 
ATOM      9  C   UNL     1       5.634   0.510  -1.569  1.00  0.00     0.020 A 
ATOM     10  C   UNL     1       5.737   0.210  -0.225  1.00  0.00     0.082 A 
ATOM     11  H   UNL     1       4.662   0.857   1.506  1.00  0.00     0.166 HD
ENDBRANCH   5   6
ENDBRANCH   4   5
ENDBRANCH   1   4
BRANCH   1  12
ATOM     12  C   UNL     1      -0.610   1.281  -0.072  1.00  0.00     0.063 A 
ATOM     13  C   UNL     1      -0.600   0.359  -1.131  1.00  0.00     0.045 A 
ATOM     14  C   UNL     1      -1.742   1.359   0.772  1.00  0.00     0.067 A 
ATOM     15  C   UNL     1      -1.702  -0.466  -1.393  1.00  0.00     0.081 A 
ATOM     16  C   UNL     1      -2.856   0.520   0.528  1.00  0.00     0.050 A 
ATOM     17  C   UNL     1      -2.833  -0.378  -0.557  1.00  0.00    -0.055 A 
ATOM     18  O   UNL     1      -3.934  -1.200  -0.779  1.00  0.00    -0.870 OA
BRANCH  14  19
ATOM     19  N   UNL     1      -1.750   2.262   1.889  1.00  0.00    -0.396 N 
ATOM     20  H   UNL     1      -0.867   2.513   2.386  1.00  0.00     0.156 HD
ATOM     21  H   UNL     1      -2.631   2.707   2.225  1.00  0.00     0.156 HD
ENDBRANCH  14  19
BRANCH  15  22
ATOM     22  N   UNL     1      -1.656  -1.382  -2.509  1.00  0.00    -0.151 N 
ATOM     23  N   UNL     1      -0.544  -1.639  -3.200  1.00  0.00    -0.148 NA
ATOM     24  N   UNL     1      -2.711  -2.055  -2.971  1.00  0.00    -0.148 NA
ATOM     25  C   UNL     1      -0.915  -2.518  -4.142  1.00  0.00     0.113 A 
ATOM     26  C   UNL     1      -2.242  -2.772  -4.002  1.00  0.00     0.113 A 
ATOM     27  C   UNL     1      -0.143  -3.118  -5.132  1.00  0.00     0.032 A 
ATOM     28  C   UNL     1      -2.923  -3.650  -4.840  1.00  0.00     0.032 A 
ATOM     29  C   UNL     1      -0.794  -4.015  -6.003  1.00  0.00     0.002 A 
ATOM     30  C   UNL     1      -2.178  -4.280  -5.857  1.00  0.00     0.002 A 
ENDBRANCH  15  22
BRANCH  16  31
ATOM     31  N   UNL     1      -3.995   0.530   1.404  1.00  0.00    -0.397 N 
ATOM     32  H   UNL     1      -4.865   0.006   1.164  1.00  0.00     0.156 HD
ATOM     33  H   UNL     1      -3.972   0.983   2.342  1.00  0.00     0.156 HD
ENDBRANCH  16  31
ENDBRANCH   1  12
TORSDOF 8


