REMARK SMILES O=C(CCc1c(F)ccc(C2CC2)c1F)c1ccc(-c2ccc(O)cc2)c2c[n-]nc12
REMARK SMILES IDX 1 1 2 2 3 3 4 4 5 5 6 6 14 7 8 8 10 9 9 10 7 11 15 12 11 13
REMARK SMILES IDX 12 14 13 15 16 16 17 17 31 18 18 19 30 20 27 21 19 22 29 23
REMARK SMILES IDX 28 24 20 25 21 26 26 27 22 28 25 29 23 30 24 31
REMARK H PARENT 24 32
ROOT
ATOM      1  O   UNL     1       4.510  -1.746  -0.465  1.00  0.00    -0.294 OA
ATOM      2  C   UNL     1       3.375  -1.796   0.082  1.00  0.00     0.165 C 
ENDROOT
BRANCH   2   3
ATOM      3  C   UNL     1       3.277  -2.251   1.517  1.00  0.00     0.086 C 
BRANCH   3   4
ATOM      4  C   UNL     1       3.442  -1.082   2.503  1.00  0.00     0.050 C 
BRANCH   4   5
ATOM      5  C   UNL     1       2.392  -0.011   2.301  1.00  0.00     0.024 A 
ATOM      6  C   UNL     1       2.720   1.197   1.656  1.00  0.00     0.129 A 
ATOM      7  C   UNL     1       1.058  -0.243   2.691  1.00  0.00     0.132 A 
ATOM      8  C   UNL     1       1.729   2.143   1.389  1.00  0.00     0.040 A 
ATOM      9  C   UNL     1       0.056   0.699   2.390  1.00  0.00    -0.009 A 
ATOM     10  C   UNL     1       0.405   1.897   1.752  1.00  0.00     0.010 A 
ATOM     11  F   UNL     1       3.994   1.450   1.261  1.00  0.00    -0.207 F 
ATOM     12  F   UNL     1       0.737  -1.385   3.352  1.00  0.00    -0.206 F 
BRANCH   9  13
ATOM     13  C   UNL     1      -1.370   0.479   2.823  1.00  0.00     0.022 C 
ATOM     14  C   UNL     1      -2.380   0.488   1.681  1.00  0.00     0.009 C 
ATOM     15  C   UNL     1      -2.018  -0.819   2.360  1.00  0.00     0.009 C 
ENDBRANCH   9  13
ENDBRANCH   4   5
ENDBRANCH   3   4
ENDBRANCH   2   3
BRANCH   2  16
ATOM     16  C   UNL     1       2.199  -1.270  -0.647  1.00  0.00     0.042 A 
ATOM     17  C   UNL     1       2.289  -0.043  -1.340  1.00  0.00     0.015 A 
ATOM     18  C   UNL     1       0.948  -1.903  -0.633  1.00  0.00     0.058 A 
ATOM     19  C   UNL     1       1.148   0.545  -1.923  1.00  0.00     0.010 A 
ATOM     20  N   UNL     1       0.623  -3.088  -0.087  1.00  0.00    -0.367 NA
ATOM     21  C   UNL     1      -0.152  -1.344  -1.224  1.00  0.00    -0.014 A 
ATOM     22  C   UNL     1      -0.106  -0.101  -1.867  1.00  0.00    -0.011 A 
ATOM     23  N   UNL     1      -0.673  -3.287  -0.306  1.00  0.00    -0.581 NA
ATOM     24  C   UNL     1      -1.175  -2.236  -0.992  1.00  0.00    -0.113 A 
BRANCH  22  25
ATOM     25  C   UNL     1      -1.310   0.536  -2.444  1.00  0.00    -0.018 A 
ATOM     26  C   UNL     1      -1.629   1.864  -2.116  1.00  0.00     0.012 A 
ATOM     27  C   UNL     1      -2.141  -0.171  -3.329  1.00  0.00     0.012 A 
ATOM     28  C   UNL     1      -2.769   2.470  -2.652  1.00  0.00     0.047 A 
ATOM     29  C   UNL     1      -3.280   0.438  -3.866  1.00  0.00     0.047 A 
ATOM     30  C   UNL     1      -3.598   1.757  -3.529  1.00  0.00     0.115 A 
BRANCH  30  31
ATOM     31  O   UNL     1      -4.736   2.350  -4.070  1.00  0.00    -0.508 OA
ATOM     32  H   UNL     1      -4.993   3.305  -3.846  1.00  0.00     0.293 HD
ENDBRANCH  30  31
ENDBRANCH  22  25
ENDBRANCH   2  16
TORSDOF 7


