REMARK SMILES Cc1cc(-c2cnc3ccnn3c2)ccc1C(=O)[N-][C@H]1CC12CCC2
REMARK SMILES IDX 17 1 18 2 16 3 2 4 3 5 4 6 15 7 14 8 1 9 5 10 6 11 13 12
REMARK SMILES IDX 7 13 12 14 8 15 11 16 9 17 10 18 19 19 20 20 21 21 22 22
REMARK SMILES IDX 23 23 25 24 24 25
REMARK H PARENT
ROOT
ATOM      1  C   UNL     1      -0.263  -1.323   1.667  1.00  0.00     0.082 C 
ATOM      2  O   UNL     1      -0.021  -2.485   2.093  1.00  0.00    -0.315 OA
ENDROOT
BRANCH   1   3
ATOM      3  C   UNL     1       0.661  -0.659   0.714  1.00  0.00     0.002 A 
ATOM      4  C   UNL     1       1.455  -1.381  -0.217  1.00  0.00    -0.041 A 
ATOM      5  C   UNL     1       2.337  -0.682  -1.062  1.00  0.00     0.013 A 
ATOM      6  C   UNL     1       2.423   0.719  -1.022  1.00  0.00    -0.015 A 
ATOM      7  C   UNL     1       0.747   0.744   0.735  1.00  0.00     0.011 A 
ATOM      8  C   UNL     1       1.615   1.423  -0.119  1.00  0.00     0.009 A 
ATOM      9  C   UNL     1       1.384  -2.881  -0.337  1.00  0.00     0.045 C 
BRANCH   6  10
ATOM     10  C   UNL     1       3.352   1.445  -1.926  1.00  0.00     0.019 A 
ATOM     11  C   UNL     1       3.534   1.036  -3.272  1.00  0.00     0.124 A 
ATOM     12  C   UNL     1       4.080   2.564  -1.472  1.00  0.00     0.125 A 
ATOM     13  N   UNL     1       4.389   1.708  -4.096  1.00  0.00    -0.236 NA
ATOM     14  N   UNL     1       4.912   3.181  -2.344  1.00  0.00    -0.222 N 
ATOM     15  C   UNL     1       5.064   2.774  -3.605  1.00  0.00     0.154 A 
ATOM     16  N   UNL     1       5.677   4.232  -2.109  1.00  0.00    -0.175 NA
ATOM     17  C   UNL     1       5.966   3.581  -4.253  1.00  0.00     0.071 A 
ATOM     18  C   UNL     1       6.332   4.496  -3.267  1.00  0.00     0.138 A 
ENDBRANCH   6  10
ENDBRANCH   1   3
BRANCH   1  19
ATOM     19  N   UNL     1      -1.429  -0.633   2.126  1.00  0.00    -0.646 NA
BRANCH  19  20
ATOM     20  C   UNL     1      -2.387  -1.242   3.038  1.00  0.00    -0.100 C 
ATOM     21  C   UNL     1      -3.814  -0.709   2.862  1.00  0.00    -0.010 C 
ATOM     22  C   UNL     1      -3.423  -2.083   2.335  1.00  0.00    -0.044 C 
ATOM     23  C   UNL     1      -4.200  -3.267   2.830  1.00  0.00     0.006 C 
ATOM     24  C   UNL     1      -3.655  -2.364   0.877  1.00  0.00     0.006 C 
ATOM     25  C   UNL     1      -4.463  -3.593   1.345  1.00  0.00     0.001 C 
ENDBRANCH  19  20
ENDBRANCH   1  19
TORSDOF 4


