MODEL 1
REMARK VINA RESULT:      -8.6      0.000      0.000
REMARK SMILES C=Cc1cc(-c2cnc3ccnn3c2)ccc1CC[NH3+]
REMARK SMILES IDX 18 1 17 2 3 3 4 4 5 5 16 6 15 7 2 8 1 9 6 10 7 11 14 12 8 13
REMARK SMILES IDX 13 14 9 15 12 16 10 17 11 18 19 19 20 20
REMARK H PARENT 20 21 20 22 20 23
ROOT
ATOM      1  C   UNL     1      44.123 130.926  22.778  1.00  0.00     0.097 C 
ENDROOT
BRANCH   1   2
ATOM      2  C   UNL     1      44.495 130.998  21.313  1.00  0.00    -0.035 A 
ATOM      3  C   UNL     1      43.677 131.645  20.349  1.00  0.00    -0.022 A 
ATOM      4  C   UNL     1      44.087 131.656  19.001  1.00  0.00     0.017 A 
ATOM      5  C   UNL     1      45.288 131.047  18.600  1.00  0.00    -0.015 A 
ATOM      6  C   UNL     1      45.686 130.380  20.899  1.00  0.00     0.005 A 
ATOM      7  C   UNL     1      46.081 130.409  19.563  1.00  0.00     0.009 A 
BRANCH   3   8
ATOM      8  C   UNL     1      42.382 132.266  20.735  1.00  0.00     0.000 C 
ATOM      9  C   UNL     1      41.772 133.194  19.997  1.00  0.00     0.009 C 
ENDBRANCH   3   8
BRANCH   5  10
ATOM     10  C   UNL     1      45.706 131.070  17.175  1.00  0.00     0.019 A 
ATOM     11  C   UNL     1      45.302 132.120  16.309  1.00  0.00     0.124 A 
ATOM     12  C   UNL     1      46.515 130.048  16.638  1.00  0.00     0.125 A 
ATOM     13  N   UNL     1      45.689 132.133  15.001  1.00  0.00    -0.236 NA
ATOM     14  N   UNL     1      46.859 130.125  15.332  1.00  0.00    -0.222 N 
ATOM     15  C   UNL     1      46.465 131.125  14.541  1.00  0.00     0.154 A 
ATOM     16  N   UNL     1      47.601 129.270  14.650  1.00  0.00    -0.175 NA
ATOM     17  C   UNL     1      46.961 130.942  13.273  1.00  0.00     0.071 A 
ATOM     18  C   UNL     1      47.677 129.752  13.385  1.00  0.00     0.138 A 
ENDBRANCH   5  10
ENDBRANCH   1   2
BRANCH   1  19
ATOM     19  C   UNL     1      44.188 129.479  23.285  1.00  0.00     0.263 C 
BRANCH  19  20
ATOM     20  N   UNL     1      42.872 129.025  23.735  1.00  0.00    -0.357 N 
ATOM     21  H   UNL     1      42.491 129.683  24.453  1.00  0.00     0.344 HD
ATOM     22  H   UNL     1      42.968 128.075  24.164  1.00  0.00     0.344 HD
ATOM     23  H   UNL     1      42.216 128.966  22.924  1.00  0.00     0.344 HD
ENDBRANCH  19  20
ENDBRANCH   1  19
TORSDOF 5
ENDMDL
MODEL 2
REMARK VINA RESULT:      -7.4      2.002      7.225
REMARK SMILES C=Cc1cc(-c2cnc3ccnn3c2)ccc1CC[NH3+]
REMARK SMILES IDX 18 1 17 2 3 3 4 4 5 5 16 6 15 7 2 8 1 9 6 10 7 11 14 12 8 13
REMARK SMILES IDX 13 14 9 15 12 16 10 17 11 18 19 19 20 20
REMARK H PARENT 20 21 20 22 20 23
ROOT
ATOM      1  C   UNL     1      46.551 130.140  14.327  1.00  0.00     0.097 C 
ENDROOT
BRANCH   1   2
ATOM      2  C   UNL     1      45.866 130.481  15.632  1.00  0.00    -0.035 A 
ATOM      3  C   UNL     1      44.701 131.289  15.695  1.00  0.00    -0.022 A 
ATOM      4  C   UNL     1      44.132 131.572  16.953  1.00  0.00     0.017 A 
ATOM      5  C   UNL     1      44.692 131.063  18.137  1.00  0.00    -0.015 A 
ATOM      6  C   UNL     1      46.426 129.989  16.822  1.00  0.00     0.005 A 
ATOM      7  C   UNL     1      45.844 130.270  18.057  1.00  0.00     0.009 A 
BRANCH   3   8
ATOM      8  C   UNL     1      44.106 131.875  14.464  1.00  0.00     0.000 C 
ATOM      9  C   UNL     1      43.025 131.372  13.869  1.00  0.00     0.009 C 
ENDBRANCH   3   8
BRANCH   5  10
ATOM     10  C   UNL     1      44.077 131.370  19.453  1.00  0.00     0.019 A 
ATOM     11  C   UNL     1      42.876 132.120  19.545  1.00  0.00     0.124 A 
ATOM     12  C   UNL     1      44.669 130.924  20.653  1.00  0.00     0.125 A 
ATOM     13  N   UNL     1      42.318 132.398  20.759  1.00  0.00    -0.236 NA
ATOM     14  N   UNL     1      44.062 131.239  21.821  1.00  0.00    -0.222 N 
ATOM     15  C   UNL     1      42.932 131.946  21.877  1.00  0.00     0.154 A 
ATOM     16  N   UNL     1      44.461 130.920  23.039  1.00  0.00    -0.175 NA
ATOM     17  C   UNL     1      42.548 132.113  23.185  1.00  0.00     0.071 A 
ATOM     18  C   UNL     1      43.547 131.445  23.892  1.00  0.00     0.138 A 
ENDBRANCH   5  10
ENDBRANCH   1   2
BRANCH   1  19
ATOM     19  C   UNL     1      47.317 131.353  13.782  1.00  0.00     0.263 C 
BRANCH  19  20
ATOM     20  N   UNL     1      47.893 131.060  12.470  1.00  0.00    -0.357 N 
ATOM     21  H   UNL     1      47.914 131.926  11.885  1.00  0.00     0.344 HD
ATOM     22  H   UNL     1      47.301 130.343  11.990  1.00  0.00     0.344 HD
ATOM     23  H   UNL     1      48.861 130.681  12.579  1.00  0.00     0.344 HD
ENDBRANCH  19  20
ENDBRANCH   1  19
TORSDOF 5
ENDMDL
MODEL 3
REMARK VINA RESULT:      -7.4      1.995      7.189
REMARK SMILES C=Cc1cc(-c2cnc3ccnn3c2)ccc1CC[NH3+]
REMARK SMILES IDX 18 1 17 2 3 3 4 4 5 5 16 6 15 7 2 8 1 9 6 10 7 11 14 12 8 13
REMARK SMILES IDX 13 14 9 15 12 16 10 17 11 18 19 19 20 20
REMARK H PARENT 20 21 20 22 20 23
ROOT
ATOM      1  C   UNL     1      46.367 130.510  13.566  1.00  0.00     0.097 C 
ENDROOT
BRANCH   1   2
ATOM      2  C   UNL     1      45.930 130.656  15.007  1.00  0.00    -0.035 A 
ATOM      3  C   UNL     1      44.761 131.369  15.381  1.00  0.00    -0.022 A 
ATOM      4  C   UNL     1      44.431 131.472  16.747  1.00  0.00     0.017 A 
ATOM      5  C   UNL     1      45.231 130.877  17.737  1.00  0.00    -0.015 A 
ATOM      6  C   UNL     1      46.731 130.078  16.005  1.00  0.00     0.005 A 
ATOM      7  C   UNL     1      46.384 130.181  17.351  1.00  0.00     0.009 A 
BRANCH   3   8
ATOM      8  C   UNL     1      43.913 132.042  14.361  1.00  0.00     0.000 C 
ATOM      9  C   UNL     1      42.933 131.421  13.706  1.00  0.00     0.009 C 
ENDBRANCH   3   8
BRANCH   5  10
ATOM     10  C   UNL     1      44.866 130.994  19.172  1.00  0.00     0.019 A 
ATOM     11  C   UNL     1      45.693 130.449  20.187  1.00  0.00     0.124 A 
ATOM     12  C   UNL     1      43.682 131.651  19.569  1.00  0.00     0.125 A 
ATOM     13  N   UNL     1      45.350 130.560  21.502  1.00  0.00    -0.236 NA
ATOM     14  N   UNL     1      43.404 131.722  20.891  1.00  0.00    -0.222 N 
ATOM     15  C   UNL     1      44.202 131.200  21.824  1.00  0.00     0.154 A 
ATOM     16  N   UNL     1      42.351 132.286  21.456  1.00  0.00    -0.175 NA
ATOM     17  C   UNL     1      43.671 131.420  23.072  1.00  0.00     0.071 A 
ATOM     18  C   UNL     1      42.494 132.113  22.793  1.00  0.00     0.138 A 
ENDBRANCH   5  10
ENDBRANCH   1   2
BRANCH   1  19
ATOM     19  C   UNL     1      47.892 130.628  13.445  1.00  0.00     0.263 C 
BRANCH  19  20
ATOM     20  N   UNL     1      48.514 129.306  13.378  1.00  0.00    -0.357 N 
ATOM     21  H   UNL     1      49.554 129.393  13.458  1.00  0.00     0.344 HD
ATOM     22  H   UNL     1      48.282 128.866  12.458  1.00  0.00     0.344 HD
ATOM     23  H   UNL     1      48.149 128.698  14.146  1.00  0.00     0.344 HD
ENDBRANCH  19  20
ENDBRANCH   1  19
TORSDOF 5
ENDMDL
MODEL 4
REMARK VINA RESULT:      -6.8      1.108      1.193
REMARK SMILES C=Cc1cc(-c2cnc3ccnn3c2)ccc1CC[NH3+]
REMARK SMILES IDX 18 1 17 2 3 3 4 4 5 5 16 6 15 7 2 8 1 9 6 10 7 11 14 12 8 13
REMARK SMILES IDX 13 14 9 15 12 16 10 17 11 18 19 19 20 20
REMARK H PARENT 20 21 20 22 20 23
ROOT
ATOM      1  C   UNL     1      43.206 131.708  22.615  1.00  0.00     0.097 C 
ENDROOT
BRANCH   1   2
ATOM      2  C   UNL     1      43.692 131.610  21.185  1.00  0.00    -0.035 A 
ATOM      3  C   UNL     1      43.040 132.270  20.111  1.00  0.00    -0.022 A 
ATOM      4  C   UNL     1      43.548 132.117  18.805  1.00  0.00     0.017 A 
ATOM      5  C   UNL     1      44.686 131.333  18.553  1.00  0.00    -0.015 A 
ATOM      6  C   UNL     1      44.820 130.817  20.921  1.00  0.00     0.005 A 
ATOM      7  C   UNL     1      45.314 130.684  19.624  1.00  0.00     0.009 A 
BRANCH   3   8
ATOM      8  C   UNL     1      41.811 133.077  20.338  1.00  0.00     0.000 C 
ATOM      9  C   UNL     1      41.065 132.971  21.437  1.00  0.00     0.009 C 
ENDBRANCH   3   8
BRANCH   5  10
ATOM     10  C   UNL     1      45.207 131.185  17.171  1.00  0.00     0.019 A 
ATOM     11  C   UNL     1      44.668 131.940  16.098  1.00  0.00     0.124 A 
ATOM     12  C   UNL     1      46.256 130.286  16.882  1.00  0.00     0.125 A 
ATOM     13  N   UNL     1      45.152 131.798  14.830  1.00  0.00    -0.236 NA
ATOM     14  N   UNL     1      46.685 130.195  15.602  1.00  0.00    -0.222 N 
ATOM     15  C   UNL     1      46.159 130.919  14.613  1.00  0.00     0.154 A 
ATOM     16  N   UNL     1      47.644 129.416  15.136  1.00  0.00    -0.175 NA
ATOM     17  C   UNL     1      46.786 130.620  13.428  1.00  0.00     0.071 A 
ATOM     18  C   UNL     1      47.724 129.660  13.804  1.00  0.00     0.138 A 
ENDBRANCH   5  10
ENDBRANCH   1   2
BRANCH   1  19
ATOM     19  C   UNL     1      44.208 131.054  23.576  1.00  0.00     0.263 C 
BRANCH  19  20
ATOM     20  N   UNL     1      44.967 132.068  24.307  1.00  0.00    -0.357 N 
ATOM     21  H   UNL     1      44.542 132.224  25.250  1.00  0.00     0.344 HD
ATOM     22  H   UNL     1      44.941 132.966  23.772  1.00  0.00     0.344 HD
ATOM     23  H   UNL     1      45.962 131.765  24.412  1.00  0.00     0.344 HD
ENDBRANCH  19  20
ENDBRANCH   1  19
TORSDOF 5
ENDMDL
MODEL 5
REMARK VINA RESULT:      -6.6      1.199      2.101
REMARK SMILES C=Cc1cc(-c2cnc3ccnn3c2)ccc1CC[NH3+]
REMARK SMILES IDX 18 1 17 2 3 3 4 4 5 5 16 6 15 7 2 8 1 9 6 10 7 11 14 12 8 13
REMARK SMILES IDX 13 14 9 15 12 16 10 17 11 18 19 19 20 20
REMARK H PARENT 20 21 20 22 20 23
ROOT
ATOM      1  C   UNL     1      42.763 131.978  22.007  1.00  0.00     0.097 C 
ENDROOT
BRANCH   1   2
ATOM      2  C   UNL     1      43.389 131.789  20.642  1.00  0.00    -0.035 A 
ATOM      3  C   UNL     1      44.794 131.721  20.450  1.00  0.00    -0.022 A 
ATOM      4  C   UNL     1      45.299 131.558  19.145  1.00  0.00     0.017 A 
ATOM      5  C   UNL     1      44.438 131.454  18.039  1.00  0.00    -0.015 A 
ATOM      6  C   UNL     1      42.539 131.699  19.529  1.00  0.00     0.005 A 
ATOM      7  C   UNL     1      43.055 131.528  18.246  1.00  0.00     0.009 A 
BRANCH   3   8
ATOM      8  C   UNL     1      45.733 131.866  21.595  1.00  0.00     0.000 C 
ATOM      9  C   UNL     1      46.789 132.679  21.571  1.00  0.00     0.009 C 
ENDBRANCH   3   8
BRANCH   5  10
ATOM     10  C   UNL     1      44.988 131.280  16.671  1.00  0.00     0.019 A 
ATOM     11  C   UNL     1      44.290 131.758  15.532  1.00  0.00     0.124 A 
ATOM     12  C   UNL     1      46.223 130.631  16.461  1.00  0.00     0.125 A 
ATOM     13  N   UNL     1      44.802 131.594  14.279  1.00  0.00    -0.236 NA
ATOM     14  N   UNL     1      46.669 130.501  15.190  1.00  0.00    -0.222 N 
ATOM     15  C   UNL     1      45.990 130.962  14.138  1.00  0.00     0.154 A 
ATOM     16  N   UNL     1      47.790 129.925  14.792  1.00  0.00    -0.175 NA
ATOM     17  C   UNL     1      46.678 130.690  12.981  1.00  0.00     0.071 A 
ATOM     18  C   UNL     1      47.816 130.030  13.441  1.00  0.00     0.138 A 
ENDBRANCH   5  10
ENDBRANCH   1   2
BRANCH   1  19
ATOM     19  C   UNL     1      42.585 130.629  22.716  1.00  0.00     0.263 C 
BRANCH  19  20
ATOM     20  N   UNL     1      43.684 130.382  23.649  1.00  0.00    -0.357 N 
ATOM     21  H   UNL     1      43.381 129.708  24.390  1.00  0.00     0.344 HD
ATOM     22  H   UNL     1      43.955 131.284  24.104  1.00  0.00     0.344 HD
ATOM     23  H   UNL     1      44.511 129.998  23.137  1.00  0.00     0.344 HD
ENDBRANCH  19  20
ENDBRANCH   1  19
TORSDOF 5
ENDMDL
MODEL 6
REMARK VINA RESULT:      -6.5      0.962      2.217
REMARK SMILES C=Cc1cc(-c2cnc3ccnn3c2)ccc1CC[NH3+]
REMARK SMILES IDX 18 1 17 2 3 3 4 4 5 5 16 6 15 7 2 8 1 9 6 10 7 11 14 12 8 13
REMARK SMILES IDX 13 14 9 15 12 16 10 17 11 18 19 19 20 20
REMARK H PARENT 20 21 20 22 20 23
ROOT
ATOM      1  C   UNL     1      43.808 131.242  22.837  1.00  0.00     0.097 C 
ENDROOT
BRANCH   1   2
ATOM      2  C   UNL     1      44.274 131.152  21.400  1.00  0.00    -0.035 A 
ATOM      3  C   UNL     1      45.142 130.126  20.943  1.00  0.00    -0.022 A 
ATOM      4  C   UNL     1      45.542 130.121  19.591  1.00  0.00     0.017 A 
ATOM      5  C   UNL     1      45.092 131.104  18.695  1.00  0.00    -0.015 A 
ATOM      6  C   UNL     1      43.842 132.138  20.499  1.00  0.00     0.005 A 
ATOM      7  C   UNL     1      44.240 132.112  19.164  1.00  0.00     0.009 A 
BRANCH   3   8
ATOM      8  C   UNL     1      45.667 129.092  21.875  1.00  0.00     0.000 C 
ATOM      9  C   UNL     1      45.341 127.803  21.788  1.00  0.00     0.009 C 
ENDBRANCH   3   8
BRANCH   5  10
ATOM     10  C   UNL     1      45.522 131.081  17.273  1.00  0.00     0.019 A 
ATOM     11  C   UNL     1      45.031 132.033  16.342  1.00  0.00     0.124 A 
ATOM     12  C   UNL     1      46.433 130.110  16.806  1.00  0.00     0.125 A 
ATOM     13  N   UNL     1      45.431 132.004  15.039  1.00  0.00    -0.236 NA
ATOM     14  N   UNL     1      46.783 130.141  15.499  1.00  0.00    -0.222 N 
ATOM     15  C   UNL     1      46.306 131.049  14.646  1.00  0.00     0.154 A 
ATOM     16  N   UNL     1      47.612 129.321  14.876  1.00  0.00    -0.175 NA
ATOM     17  C   UNL     1      46.831 130.838  13.395  1.00  0.00     0.071 A 
ATOM     18  C   UNL     1      47.657 129.731  13.584  1.00  0.00     0.138 A 
ENDBRANCH   5  10
ENDBRANCH   1   2
BRANCH   1  19
ATOM     19  C   UNL     1      42.699 130.219  23.114  1.00  0.00     0.263 C 
BRANCH  19  20
ATOM     20  N   UNL     1      41.625 130.815  23.908  1.00  0.00    -0.357 N 
ATOM     21  H   UNL     1      40.731 130.296  23.751  1.00  0.00     0.344 HD
ATOM     22  H   UNL     1      41.495 131.810  23.613  1.00  0.00     0.344 HD
ATOM     23  H   UNL     1      41.875 130.793  24.923  1.00  0.00     0.344 HD
ENDBRANCH  19  20
ENDBRANCH   1  19
TORSDOF 5
ENDMDL
MODEL 7
REMARK VINA RESULT:      -6.3      1.131      1.663
REMARK SMILES C=Cc1cc(-c2cnc3ccnn3c2)ccc1CC[NH3+]
REMARK SMILES IDX 18 1 17 2 3 3 4 4 5 5 16 6 15 7 2 8 1 9 6 10 7 11 14 12 8 13
REMARK SMILES IDX 13 14 9 15 12 16 10 17 11 18 19 19 20 20
REMARK H PARENT 20 21 20 22 20 23
ROOT
ATOM      1  C   UNL     1      43.092 131.760  22.466  1.00  0.00     0.097 C 
ENDROOT
BRANCH   1   2
ATOM      2  C   UNL     1      43.689 131.501  21.100  1.00  0.00    -0.035 A 
ATOM      3  C   UNL     1      43.024 131.855  19.897  1.00  0.00    -0.022 A 
ATOM      4  C   UNL     1      43.641 131.567  18.664  1.00  0.00     0.017 A 
ATOM      5  C   UNL     1      44.900 130.945  18.607  1.00  0.00    -0.015 A 
ATOM      6  C   UNL     1      44.939 130.866  21.033  1.00  0.00     0.005 A 
ATOM      7  C   UNL     1      45.540 130.597  19.804  1.00  0.00     0.009 A 
BRANCH   3   8
ATOM      8  C   UNL     1      41.674 132.480  19.922  1.00  0.00     0.000 C 
ATOM      9  C   UNL     1      41.389 133.567  20.638  1.00  0.00     0.009 C 
ENDBRANCH   3   8
BRANCH   5  10
ATOM     10  C   UNL     1      45.537 130.651  17.298  1.00  0.00     0.019 A 
ATOM     11  C   UNL     1      45.764 129.315  16.876  1.00  0.00     0.124 A 
ATOM     12  C   UNL     1      45.936 131.692  16.435  1.00  0.00     0.125 A 
ATOM     13  N   UNL     1      46.350 129.054  15.673  1.00  0.00    -0.236 NA
ATOM     14  N   UNL     1      46.513 131.359  15.257  1.00  0.00    -0.222 N 
ATOM     15  C   UNL     1      46.714 130.093  14.886  1.00  0.00     0.154 A 
ATOM     16  N   UNL     1      46.955 132.183  14.323  1.00  0.00    -0.175 NA
ATOM     17  C   UNL     1      47.315 130.056  13.651  1.00  0.00     0.071 A 
ATOM     18  C   UNL     1      47.451 131.405  13.329  1.00  0.00     0.138 A 
ENDBRANCH   5  10
ENDBRANCH   1   2
BRANCH   1  19
ATOM     19  C   UNL     1      44.189 131.825  23.536  1.00  0.00     0.263 C 
BRANCH  19  20
ATOM     20  N   UNL     1      44.059 130.719  24.485  1.00  0.00    -0.357 N 
ATOM     21  H   UNL     1      44.617 130.918  25.347  1.00  0.00     0.344 HD
ATOM     22  H   UNL     1      44.424 129.844  24.041  1.00  0.00     0.344 HD
ATOM     23  H   UNL     1      43.055 130.577  24.736  1.00  0.00     0.344 HD
ENDBRANCH  19  20
ENDBRANCH   1  19
TORSDOF 5
ENDMDL
MODEL 8
REMARK VINA RESULT:      -6.2      1.527      2.582
REMARK SMILES C=Cc1cc(-c2cnc3ccnn3c2)ccc1CC[NH3+]
REMARK SMILES IDX 18 1 17 2 3 3 4 4 5 5 16 6 15 7 2 8 1 9 6 10 7 11 14 12 8 13
REMARK SMILES IDX 13 14 9 15 12 16 10 17 11 18 19 19 20 20
REMARK H PARENT 20 21 20 22 20 23
ROOT
ATOM      1  C   UNL     1      42.326 131.631  21.460  1.00  0.00     0.097 C 
ENDROOT
BRANCH   1   2
ATOM      2  C   UNL     1      43.198 131.512  20.230  1.00  0.00    -0.035 A 
ATOM      3  C   UNL     1      44.530 131.024  20.284  1.00  0.00    -0.022 A 
ATOM      4  C   UNL     1      45.283 130.958  19.094  1.00  0.00     0.017 A 
ATOM      5  C   UNL     1      44.735 131.356  17.863  1.00  0.00    -0.015 A 
ATOM      6  C   UNL     1      42.666 131.921  18.997  1.00  0.00     0.005 A 
ATOM      7  C   UNL     1      43.421 131.839  17.828  1.00  0.00     0.009 A 
BRANCH   3   8
ATOM      8  C   UNL     1      45.152 130.631  21.576  1.00  0.00     0.000 C 
ATOM      9  C   UNL     1      44.567 129.803  22.442  1.00  0.00     0.009 C 
ENDBRANCH   3   8
BRANCH   5  10
ATOM     10  C   UNL     1      45.543 131.277  16.619  1.00  0.00     0.019 A 
ATOM     11  C   UNL     1      45.727 132.413  15.789  1.00  0.00     0.124 A 
ATOM     12  C   UNL     1      46.150 130.066  16.223  1.00  0.00     0.125 A 
ATOM     13  N   UNL     1      46.470 132.331  14.648  1.00  0.00    -0.236 NA
ATOM     14  N   UNL     1      46.870 130.058  15.078  1.00  0.00    -0.222 N 
ATOM     15  C   UNL     1      47.028 131.144  14.318  1.00  0.00     0.154 A 
ATOM     16  N   UNL     1      47.506 129.031  14.542  1.00  0.00    -0.175 NA
ATOM     17  C   UNL     1      47.801 130.841  13.223  1.00  0.00     0.071 A 
ATOM     18  C   UNL     1      48.084 129.489  13.404  1.00  0.00     0.138 A 
ENDBRANCH   5  10
ENDBRANCH   1   2
BRANCH   1  19
ATOM     19  C   UNL     1      41.764 133.053  21.593  1.00  0.00     0.263 C 
BRANCH  19  20
ATOM     20  N   UNL     1      40.643 133.259  20.677  1.00  0.00    -0.357 N 
ATOM     21  H   UNL     1      39.967 133.944  21.085  1.00  0.00     0.344 HD
ATOM     22  H   UNL     1      40.152 132.347  20.528  1.00  0.00     0.344 HD
ATOM     23  H   UNL     1      40.992 133.610  19.756  1.00  0.00     0.344 HD
ENDBRANCH  19  20
ENDBRANCH   1  19
TORSDOF 5
ENDMDL
MODEL 9
REMARK VINA RESULT:      -6.0      1.176      2.319
REMARK SMILES C=Cc1cc(-c2cnc3ccnn3c2)ccc1CC[NH3+]
REMARK SMILES IDX 18 1 17 2 3 3 4 4 5 5 16 6 15 7 2 8 1 9 6 10 7 11 14 12 8 13
REMARK SMILES IDX 13 14 9 15 12 16 10 17 11 18 19 19 20 20
REMARK H PARENT 20 21 20 22 20 23
ROOT
ATOM      1  C   UNL     1      42.080 131.979  21.029  1.00  0.00     0.097 C 
ENDROOT
BRANCH   1   2
ATOM      2  C   UNL     1      42.946 131.740  19.812  1.00  0.00    -0.035 A 
ATOM      3  C   UNL     1      44.291 131.298  19.907  1.00  0.00    -0.022 A 
ATOM      4  C   UNL     1      45.036 131.114  18.726  1.00  0.00     0.017 A 
ATOM      5  C   UNL     1      44.468 131.350  17.462  1.00  0.00    -0.015 A 
ATOM      6  C   UNL     1      42.393 131.988  18.546  1.00  0.00     0.005 A 
ATOM      7  C   UNL     1      43.140 131.791  17.386  1.00  0.00     0.009 A 
BRANCH   3   8
ATOM      8  C   UNL     1      44.934 131.075  21.231  1.00  0.00     0.000 C 
ATOM      9  C   UNL     1      45.199 129.861  21.715  1.00  0.00     0.009 C 
ENDBRANCH   3   8
BRANCH   5  10
ATOM     10  C   UNL     1      45.268 131.148  16.227  1.00  0.00     0.019 A 
ATOM     11  C   UNL     1      44.982 131.872  15.041  1.00  0.00     0.124 A 
ATOM     12  C   UNL     1      46.336 130.227  16.197  1.00  0.00     0.125 A 
ATOM     13  N   UNL     1      45.722 131.680  13.911  1.00  0.00    -0.236 NA
ATOM     14  N   UNL     1      47.024 130.086  15.040  1.00  0.00    -0.222 N 
ATOM     15  C   UNL     1      46.733 130.782  13.939  1.00  0.00     0.154 A 
ATOM     16  N   UNL     1      48.045 129.278  14.812  1.00  0.00    -0.175 NA
ATOM     17  C   UNL     1      47.592 130.434  12.925  1.00  0.00     0.071 A 
ATOM     18  C   UNL     1      48.409 129.476  13.521  1.00  0.00     0.138 A 
ENDBRANCH   5  10
ENDBRANCH   1   2
BRANCH   1  19
ATOM     19  C   UNL     1      42.886 131.777  22.319  1.00  0.00     0.263 C 
BRANCH  19  20
ATOM     20  N   UNL     1      42.000 131.505  23.451  1.00  0.00    -0.357 N 
ATOM     21  H   UNL     1      42.207 130.562  23.851  1.00  0.00     0.344 HD
ATOM     22  H   UNL     1      41.008 131.522  23.119  1.00  0.00     0.344 HD
ATOM     23  H   UNL     1      42.123 132.238  24.186  1.00  0.00     0.344 HD
ENDBRANCH  19  20
ENDBRANCH   1  19
TORSDOF 5
ENDMDL


