REMARK SMILES O/C(=C\C[C@@H]1CCC[C@@H]2C=c3ccccc3=C[C@@]12F)c1ccccc1
REMARK SMILES IDX 3 1 2 2 1 3 20 5 21 6 25 7 22 8 24 9 23 10 4 11 5 12 6 13
REMARK SMILES IDX 18 14 7 15 17 16 9 17 8 18 16 19 10 20 15 21 11 22 14 23
REMARK SMILES IDX 12 24 13 25 19 26
REMARK H PARENT 1 4
ROOT
ATOM      1  C   UNL     1       1.225   0.924  -1.078  1.00  0.00     0.020 C 
ENDROOT
BRANCH   1   2
ATOM      2  C   UNL     1       1.513   0.075  -2.078  1.00  0.00     0.118 C 
BRANCH   2   3
ATOM      3  O   UNL     1       0.668   0.012  -3.188  1.00  0.00    -0.508 OA
ATOM      4  H   UNL     1       0.876  -0.575  -3.987  1.00  0.00     0.293 HD
ENDBRANCH   2   3
BRANCH   2   5
ATOM      5  C   UNL     1       2.710  -0.801  -2.014  1.00  0.00     0.016 A 
ATOM      6  C   UNL     1       3.934  -0.328  -1.503  1.00  0.00     0.012 A 
ATOM      7  C   UNL     1       2.634  -2.124  -2.483  1.00  0.00     0.012 A 
ATOM      8  C   UNL     1       5.052  -1.166  -1.456  1.00  0.00     0.001 A 
ATOM      9  C   UNL     1       3.755  -2.959  -2.433  1.00  0.00     0.001 A 
ATOM     10  C   UNL     1       4.963  -2.481  -1.920  1.00  0.00     0.000 A 
ENDBRANCH   2   5
ENDBRANCH   1   2
BRANCH   1  11
ATOM     11  C   UNL     1       0.026   1.835  -1.109  1.00  0.00     0.038 C 
BRANCH  11  12
ATOM     12  C   UNL     1      -1.321   1.066  -0.956  1.00  0.00     0.035 C 
ATOM     13  C   UNL     1      -2.387   1.711  -1.877  1.00  0.00     0.007 C 
ATOM     14  C   UNL     1      -1.847   1.040   0.512  1.00  0.00     0.139 C 
ATOM     15  C   UNL     1      -3.750   1.013  -1.772  1.00  0.00     0.001 C 
ATOM     16  C   UNL     1      -0.902   0.366   1.488  1.00  0.00     0.023 C 
ATOM     17  C   UNL     1      -3.199   0.290   0.568  1.00  0.00     0.054 C 
ATOM     18  C   UNL     1      -4.247   0.969  -0.323  1.00  0.00     0.011 C 
ATOM     19  C   UNL     1      -1.357  -0.074   2.681  1.00  0.00    -0.020 A 
ATOM     20  C   UNL     1      -3.656   0.166   2.001  1.00  0.00    -0.011 C 
ATOM     21  C   UNL     1      -0.447  -0.483   3.672  1.00  0.00     0.008 A 
ATOM     22  C   UNL     1      -2.753  -0.097   2.966  1.00  0.00    -0.022 A 
ATOM     23  C   UNL     1      -0.901  -0.845   4.943  1.00  0.00     0.001 A 
ATOM     24  C   UNL     1      -3.187  -0.433   4.261  1.00  0.00     0.008 A 
ATOM     25  C   UNL     1      -2.264  -0.805   5.240  1.00  0.00     0.001 A 
ATOM     26  F   UNL     1      -2.038   2.345   0.950  1.00  0.00    -0.238 F 
ENDBRANCH  11  12
ENDBRANCH   1  11
TORSDOF 5


