REMARK SMILES O/C(=C/C[C@@H]1CCC[C@@H]2C=c3ccccc3=C[C@]12F)c1ccccc1
REMARK SMILES IDX 3 1 2 2 1 3 20 5 21 6 25 7 22 8 24 9 23 10 4 11 5 12 6 13
REMARK SMILES IDX 18 14 7 15 17 16 9 17 8 18 16 19 10 20 15 21 11 22 14 23
REMARK SMILES IDX 12 24 13 25 19 26
REMARK H PARENT 1 4
ROOT
ATOM      1  C   UNL     1      -3.019   0.713  -0.061  1.00  0.00     0.020 C 
ENDROOT
BRANCH   1   2
ATOM      2  C   UNL     1      -3.886   1.324   0.767  1.00  0.00     0.118 C 
BRANCH   2   3
ATOM      3  O   UNL     1      -5.258   1.167   0.565  1.00  0.00    -0.508 OA
ATOM      4  H   UNL     1      -5.631   0.613  -0.198  1.00  0.00     0.293 HD
ENDBRANCH   2   3
BRANCH   2   5
ATOM      5  C   UNL     1      -3.452   2.139   1.920  1.00  0.00     0.016 A 
ATOM      6  C   UNL     1      -3.881   1.794   3.211  1.00  0.00     0.012 A 
ATOM      7  C   UNL     1      -2.663   3.288   1.739  1.00  0.00     0.012 A 
ATOM      8  C   UNL     1      -3.493   2.566   4.311  1.00  0.00     0.001 A 
ATOM      9  C   UNL     1      -2.277   4.056   2.841  1.00  0.00     0.001 A 
ATOM     10  C   UNL     1      -2.688   3.693   4.127  1.00  0.00     0.000 A 
ENDBRANCH   2   5
ENDBRANCH   1   2
BRANCH   1  11
ATOM     11  C   UNL     1      -1.522   0.731   0.141  1.00  0.00     0.038 C 
BRANCH  11  12
ATOM     12  C   UNL     1      -0.795  -0.277  -0.785  1.00  0.00     0.035 C 
ATOM     13  C   UNL     1      -1.030  -1.729  -0.322  1.00  0.00     0.007 C 
ATOM     14  C   UNL     1       0.726   0.029  -0.938  1.00  0.00     0.139 C 
ATOM     15  C   UNL     1      -0.395  -2.716  -1.305  1.00  0.00     0.001 C 
ATOM     16  C   UNL     1       1.477   0.082   0.382  1.00  0.00     0.023 C 
ATOM     17  C   UNL     1       1.403  -1.010  -1.872  1.00  0.00     0.054 C 
ATOM     18  C   UNL     1       1.107  -2.462  -1.438  1.00  0.00     0.011 C 
ATOM     19  C   UNL     1       2.819  -0.043   0.409  1.00  0.00    -0.020 A 
ATOM     20  C   UNL     1       2.897  -0.794  -1.879  1.00  0.00    -0.011 C 
ATOM     21  C   UNL     1       3.523   0.223   1.598  1.00  0.00     0.008 A 
ATOM     22  C   UNL     1       3.543  -0.414  -0.759  1.00  0.00    -0.022 A 
ATOM     23  C   UNL     1       4.919   0.184   1.617  1.00  0.00     0.001 A 
ATOM     24  C   UNL     1       4.949  -0.420  -0.727  1.00  0.00     0.008 A 
ATOM     25  C   UNL     1       5.629  -0.123   0.456  1.00  0.00     0.001 A 
ATOM     26  F   UNL     1       0.854   1.275  -1.535  1.00  0.00    -0.238 F 
ENDBRANCH  11  12
ENDBRANCH   1  11
TORSDOF 5


