MODEL 1
REMARK VINA RESULT:     -10.8      0.000      0.000
REMARK SMILES Cc1ccc(-c2cc(F)c3[nH+]cccc3c2)c(F)[nH+]1
REMARK SMILES IDX 6 1 7 2 8 3 9 4 10 5 11 6 12 7 13 8 14 9 15 10 16 11 5 13
REMARK SMILES IDX 2 14 3 15 19 16 4 17 17 18 1 19 18 21
REMARK H PARENT 11 12 19 20
ROOT
ATOM      1  C   UNL     1      44.729 131.361  17.787  1.00  0.00    -0.005 A 
ATOM      2  C   UNL     1      43.391 131.774  17.670  1.00  0.00     0.055 A 
ATOM      3  C   UNL     1      42.609 131.990  18.808  1.00  0.00     0.195 A 
ATOM      4  F   UNL     1      41.322 132.395  18.659  1.00  0.00    -0.200 F 
ATOM      5  C   UNL     1      43.153 131.791  20.087  1.00  0.00     0.246 A 
ATOM      6  N   UNL     1      42.401 131.998  21.209  1.00  0.00    -0.209 N 
ATOM      7  C   UNL     1      42.916 131.806  22.456  1.00  0.00     0.307 A 
ATOM      8  C   UNL     1      44.237 131.387  22.616  1.00  0.00     0.071 A 
ATOM      9  C   UNL     1      45.031 131.168  21.492  1.00  0.00     0.021 A 
ATOM     10  C   UNL     1      44.497 131.369  20.212  1.00  0.00     0.050 A 
ATOM     11  C   UNL     1      45.275 131.155  19.065  1.00  0.00     0.024 A 
ATOM     12  H   UNL     1      41.407 132.310  21.131  1.00  0.00     0.453 HD
ENDROOT
BRANCH   1  13
ATOM     13  C   UNL     1      45.548 131.128  16.572  1.00  0.00     0.086 A 
ATOM     14  C   UNL     1      47.074 130.681  14.277  1.00  0.00     0.179 A 
ATOM     15  C   UNL     1      46.653 131.980  14.588  1.00  0.00     0.075 A 
ATOM     16  N   UNL     1      46.759 129.651  15.115  1.00  0.00    -0.183 N 
ATOM     17  C   UNL     1      45.889 132.199  15.732  1.00  0.00     0.025 A 
ATOM     18  C   UNL     1      46.012 129.842  16.238  1.00  0.00     0.366 A 
ATOM     19  C   UNL     1      47.930 130.437  13.070  1.00  0.00     0.123 C 
ATOM     20  H   UNL     1      47.101 128.687  14.901  1.00  0.00     0.456 HD
ATOM     21  F   UNL     1      45.755 128.783  17.049  1.00  0.00    -0.136 F 
ENDBRANCH   1  13
TORSDOF 1
ENDMDL
MODEL 2
REMARK VINA RESULT:     -10.7      1.247      1.547
REMARK SMILES Cc1ccc(-c2cc(F)c3[nH+]cccc3c2)c(F)[nH+]1
REMARK SMILES IDX 6 1 7 2 8 3 9 4 10 5 11 6 12 7 13 8 14 9 15 10 16 11 5 13
REMARK SMILES IDX 2 14 3 15 19 16 4 17 17 18 1 19 18 21
REMARK H PARENT 11 12 19 20
ROOT
ATOM      1  C   UNL     1      44.774 131.231  17.629  1.00  0.00    -0.005 A 
ATOM      2  C   UNL     1      43.451 131.692  17.518  1.00  0.00     0.055 A 
ATOM      3  C   UNL     1      42.682 131.931  18.660  1.00  0.00     0.195 A 
ATOM      4  F   UNL     1      41.409 132.384  18.518  1.00  0.00    -0.200 F 
ATOM      5  C   UNL     1      43.223 131.707  19.937  1.00  0.00     0.246 A 
ATOM      6  N   UNL     1      42.483 131.936  21.062  1.00  0.00    -0.209 N 
ATOM      7  C   UNL     1      42.995 131.719  22.306  1.00  0.00     0.307 A 
ATOM      8  C   UNL     1      44.301 131.253  22.459  1.00  0.00     0.071 A 
ATOM      9  C   UNL     1      45.082 131.010  21.331  1.00  0.00     0.021 A 
ATOM     10  C   UNL     1      44.551 131.236  20.054  1.00  0.00     0.050 A 
ATOM     11  C   UNL     1      45.317 130.999  18.904  1.00  0.00     0.024 A 
ATOM     12  H   UNL     1      41.500 132.284  20.989  1.00  0.00     0.453 HD
ENDROOT
BRANCH   1  13
ATOM     13  C   UNL     1      45.580 130.974  16.410  1.00  0.00     0.086 A 
ATOM     14  C   UNL     1      47.113 130.496  14.126  1.00  0.00     0.179 A 
ATOM     15  C   UNL     1      46.578 129.417  14.840  1.00  0.00     0.075 A 
ATOM     16  N   UNL     1      46.855 131.771  14.537  1.00  0.00    -0.183 N 
ATOM     17  C   UNL     1      45.816 129.658  15.982  1.00  0.00     0.025 A 
ATOM     18  C   UNL     1      46.115 132.031  15.650  1.00  0.00     0.366 A 
ATOM     19  C   UNL     1      47.902 130.250  12.874  1.00  0.00     0.123 C 
ATOM     20  H   UNL     1      47.227 132.578  13.985  1.00  0.00     0.456 HD
ATOM     21  F   UNL     1      45.867 133.321  15.993  1.00  0.00    -0.136 F 
ENDBRANCH   1  13
TORSDOF 1
ENDMDL
MODEL 3
REMARK VINA RESULT:      -9.3      1.526      6.389
REMARK SMILES Cc1ccc(-c2cc(F)c3[nH+]cccc3c2)c(F)[nH+]1
REMARK SMILES IDX 6 1 7 2 8 3 9 4 10 5 11 6 12 7 13 8 14 9 15 10 16 11 5 13
REMARK SMILES IDX 2 14 3 15 19 16 4 17 17 18 1 19 18 21
REMARK H PARENT 11 12 19 20
ROOT
ATOM      1  C   UNL     1      44.531 131.245  17.777  1.00  0.00    -0.005 A 
ATOM      2  C   UNL     1      43.694 131.740  16.762  1.00  0.00     0.055 A 
ATOM      3  C   UNL     1      44.059 131.623  15.418  1.00  0.00     0.195 A 
ATOM      4  F   UNL     1      43.224 132.106  14.462  1.00  0.00    -0.200 F 
ATOM      5  C   UNL     1      45.273 131.012  15.065  1.00  0.00     0.246 A 
ATOM      6  N   UNL     1      45.644 130.891  13.756  1.00  0.00    -0.209 N 
ATOM      7  C   UNL     1      46.820 130.303  13.401  1.00  0.00     0.307 A 
ATOM      8  C   UNL     1      47.683 129.807  14.378  1.00  0.00     0.071 A 
ATOM      9  C   UNL     1      47.335 129.915  15.723  1.00  0.00     0.021 A 
ATOM     10  C   UNL     1      46.122 130.518  16.083  1.00  0.00     0.050 A 
ATOM     11  C   UNL     1      45.749 130.638  17.429  1.00  0.00     0.024 A 
ATOM     12  H   UNL     1      45.025 131.252  12.994  1.00  0.00     0.453 HD
ENDROOT
BRANCH   1  13
ATOM     13  C   UNL     1      44.137 131.380  19.201  1.00  0.00     0.086 A 
ATOM     14  C   UNL     1      43.386 131.616  21.880  1.00  0.00     0.179 A 
ATOM     15  C   UNL     1      44.701 131.261  21.558  1.00  0.00     0.075 A 
ATOM     16  N   UNL     1      42.492 131.871  20.881  1.00  0.00    -0.183 N 
ATOM     17  C   UNL     1      45.072 131.141  20.220  1.00  0.00     0.025 A 
ATOM     18  C   UNL     1      42.832 131.758  19.567  1.00  0.00     0.366 A 
ATOM     19  C   UNL     1      42.984 131.788  23.315  1.00  0.00     0.123 C 
ATOM     20  H   UNL     1      41.518 132.168  21.121  1.00  0.00     0.456 HD
ATOM     21  F   UNL     1      41.907 132.053  18.617  1.00  0.00    -0.136 F 
ENDBRANCH   1  13
TORSDOF 1
ENDMDL
MODEL 4
REMARK VINA RESULT:      -9.2      1.889      2.655
REMARK SMILES Cc1ccc(-c2cc(F)c3[nH+]cccc3c2)c(F)[nH+]1
REMARK SMILES IDX 6 1 7 2 8 3 9 4 10 5 11 6 12 7 13 8 14 9 15 10 16 11 5 13
REMARK SMILES IDX 2 14 3 15 19 16 4 17 17 18 1 19 18 21
REMARK H PARENT 11 12 19 20
ROOT
ATOM      1  C   UNL     1      45.223 131.045  17.812  1.00  0.00    -0.005 A 
ATOM      2  C   UNL     1      45.831 130.456  18.933  1.00  0.00     0.055 A 
ATOM      3  C   UNL     1      45.258 130.581  20.203  1.00  0.00     0.195 A 
ATOM      4  F   UNL     1      45.868 129.994  21.264  1.00  0.00    -0.200 F 
ATOM      5  C   UNL     1      44.067 131.306  20.372  1.00  0.00     0.246 A 
ATOM      6  N   UNL     1      43.496 131.438  21.607  1.00  0.00    -0.209 N 
ATOM      7  C   UNL     1      42.343 132.141  21.785  1.00  0.00     0.307 A 
ATOM      8  C   UNL     1      41.713 132.749  20.699  1.00  0.00     0.071 A 
ATOM      9  C   UNL     1      42.270 132.633  19.427  1.00  0.00     0.021 A 
ATOM     10  C   UNL     1      43.455 131.907  19.249  1.00  0.00     0.050 A 
ATOM     11  C   UNL     1      44.034 131.776  17.978  1.00  0.00     0.024 A 
ATOM     12  H   UNL     1      43.939 130.999  22.445  1.00  0.00     0.453 HD
ENDROOT
BRANCH   1  13
ATOM     13  C   UNL     1      45.842 130.911  16.470  1.00  0.00     0.086 A 
ATOM     14  C   UNL     1      47.025 130.665  13.953  1.00  0.00     0.179 A 
ATOM     15  C   UNL     1      46.705 129.514  14.684  1.00  0.00     0.075 A 
ATOM     16  N   UNL     1      46.728 131.894  14.466  1.00  0.00    -0.183 N 
ATOM     17  C   UNL     1      46.118 129.640  15.942  1.00  0.00     0.025 A 
ATOM     18  C   UNL     1      46.156 132.041  15.693  1.00  0.00     0.366 A 
ATOM     19  C   UNL     1      47.620 130.542  12.582  1.00  0.00     0.123 C 
ATOM     20  H   UNL     1      46.936 132.752  13.906  1.00  0.00     0.456 HD
ATOM     21  F   UNL     1      45.858 133.289  16.138  1.00  0.00    -0.136 F 
ENDBRANCH   1  13
TORSDOF 1
ENDMDL
MODEL 5
REMARK VINA RESULT:      -9.2      1.397      1.572
REMARK SMILES Cc1ccc(-c2cc(F)c3[nH+]cccc3c2)c(F)[nH+]1
REMARK SMILES IDX 6 1 7 2 8 3 9 4 10 5 11 6 12 7 13 8 14 9 15 10 16 11 5 13
REMARK SMILES IDX 2 14 3 15 19 16 4 17 17 18 1 19 18 21
REMARK H PARENT 11 12 19 20
ROOT
ATOM      1  C   UNL     1      44.286 131.384  18.283  1.00  0.00    -0.005 A 
ATOM      2  C   UNL     1      42.995 131.941  18.272  1.00  0.00     0.055 A 
ATOM      3  C   UNL     1      42.315 132.185  19.469  1.00  0.00     0.195 A 
ATOM      4  F   UNL     1      41.072 132.731  19.423  1.00  0.00    -0.200 F 
ATOM      5  C   UNL     1      42.913 131.871  20.700  1.00  0.00     0.246 A 
ATOM      6  N   UNL     1      42.260 132.103  21.877  1.00  0.00    -0.209 N 
ATOM      7  C   UNL     1      42.828 131.800  23.077  1.00  0.00     0.307 A 
ATOM      8  C   UNL     1      44.103 131.237  23.131  1.00  0.00     0.071 A 
ATOM      9  C   UNL     1      44.796 130.987  21.948  1.00  0.00     0.021 A 
ATOM     10  C   UNL     1      44.208 131.304  20.716  1.00  0.00     0.050 A 
ATOM     11  C   UNL     1      44.885 131.062  19.512  1.00  0.00     0.024 A 
ATOM     12  H   UNL     1      41.302 132.522  21.878  1.00  0.00     0.453 HD
ENDROOT
BRANCH   1  13
ATOM     13  C   UNL     1      44.997 131.122  17.008  1.00  0.00     0.086 A 
ATOM     14  C   UNL     1      46.341 130.650  14.606  1.00  0.00     0.179 A 
ATOM     15  C   UNL     1      46.894 130.198  15.810  1.00  0.00     0.075 A 
ATOM     16  N   UNL     1      45.137 131.292  14.616  1.00  0.00    -0.183 N 
ATOM     17  C   UNL     1      46.222 130.438  17.008  1.00  0.00     0.025 A 
ATOM     18  C   UNL     1      44.464 131.539  15.774  1.00  0.00     0.366 A 
ATOM     19  C   UNL     1      47.034 130.364  13.307  1.00  0.00     0.123 C 
ATOM     20  H   UNL     1      44.708 131.601  13.714  1.00  0.00     0.456 HD
ATOM     21  F   UNL     1      43.256 132.156  15.718  1.00  0.00    -0.136 F 
ENDBRANCH   1  13
TORSDOF 1
ENDMDL
MODEL 6
REMARK VINA RESULT:      -9.1      1.762      6.260
REMARK SMILES Cc1ccc(-c2cc(F)c3[nH+]cccc3c2)c(F)[nH+]1
REMARK SMILES IDX 6 1 7 2 8 3 9 4 10 5 11 6 12 7 13 8 14 9 15 10 16 11 5 13
REMARK SMILES IDX 2 14 3 15 19 16 4 17 17 18 1 19 18 21
REMARK H PARENT 11 12 19 20
ROOT
ATOM      1  C   UNL     1      44.543 131.245  18.194  1.00  0.00    -0.005 A 
ATOM      2  C   UNL     1      43.625 131.749  17.256  1.00  0.00     0.055 A 
ATOM      3  C   UNL     1      43.878 131.648  15.885  1.00  0.00     0.195 A 
ATOM      4  F   UNL     1      42.966 132.139  15.007  1.00  0.00    -0.200 F 
ATOM      5  C   UNL     1      45.059 131.043  15.427  1.00  0.00     0.246 A 
ATOM      6  N   UNL     1      45.321 130.938  14.090  1.00  0.00    -0.209 N 
ATOM      7  C   UNL     1      46.464 130.357  13.633  1.00  0.00     0.307 A 
ATOM      8  C   UNL     1      47.406 129.851  14.530  1.00  0.00     0.071 A 
ATOM      9  C   UNL     1      47.170 129.944  15.900  1.00  0.00     0.021 A 
ATOM     10  C   UNL     1      45.990 130.541  16.365  1.00  0.00     0.050 A 
ATOM     11  C   UNL     1      45.730 130.645  17.739  1.00  0.00     0.024 A 
ATOM     12  H   UNL     1      44.641 131.305  13.386  1.00  0.00     0.453 HD
ENDROOT
BRANCH   1  13
ATOM     13  C   UNL     1      44.268 131.364  19.647  1.00  0.00     0.086 A 
ATOM     14  C   UNL     1      43.762 131.604  22.382  1.00  0.00     0.179 A 
ATOM     15  C   UNL     1      42.737 131.859  21.463  1.00  0.00     0.075 A 
ATOM     16  N   UNL     1      44.990 131.212  21.933  1.00  0.00    -0.183 N 
ATOM     17  C   UNL     1      42.994 131.741  20.097  1.00  0.00     0.025 A 
ATOM     18  C   UNL     1      45.264 131.093  20.604  1.00  0.00     0.366 A 
ATOM     19  C   UNL     1      43.488 131.688  23.854  1.00  0.00     0.123 C 
ATOM     20  H   UNL     1      45.745 130.990  22.620  1.00  0.00     0.456 HD
ATOM     21  F   UNL     1      46.495 130.671  20.218  1.00  0.00    -0.136 F 
ENDBRANCH   1  13
TORSDOF 1
ENDMDL
MODEL 7
REMARK VINA RESULT:      -9.1      1.018      1.106
REMARK SMILES Cc1ccc(-c2cc(F)c3[nH+]cccc3c2)c(F)[nH+]1
REMARK SMILES IDX 6 1 7 2 8 3 9 4 10 5 11 6 12 7 13 8 14 9 15 10 16 11 5 13
REMARK SMILES IDX 2 14 3 15 19 16 4 17 17 18 1 19 18 21
REMARK H PARENT 11 12 19 20
ROOT
ATOM      1  C   UNL     1      44.219 131.460  18.534  1.00  0.00    -0.005 A 
ATOM      2  C   UNL     1      42.954 132.071  18.569  1.00  0.00     0.055 A 
ATOM      3  C   UNL     1      42.299 132.284  19.785  1.00  0.00     0.195 A 
ATOM      4  F   UNL     1      41.081 132.883  19.784  1.00  0.00    -0.200 F 
ATOM      5  C   UNL     1      42.897 131.882  20.990  1.00  0.00     0.246 A 
ATOM      6  N   UNL     1      42.269 132.082  22.187  1.00  0.00    -0.209 N 
ATOM      7  C   UNL     1      42.837 131.695  23.362  1.00  0.00     0.307 A 
ATOM      8  C   UNL     1      44.088 131.076  23.370  1.00  0.00     0.071 A 
ATOM      9  C   UNL     1      44.756 130.857  22.167  1.00  0.00     0.021 A 
ATOM     10  C   UNL     1      44.167 131.260  20.961  1.00  0.00     0.050 A 
ATOM     11  C   UNL     1      44.819 131.051  19.737  1.00  0.00     0.024 A 
ATOM     12  H   UNL     1      41.330 132.541  22.222  1.00  0.00     0.453 HD
ENDROOT
BRANCH   1  13
ATOM     13  C   UNL     1      44.904 131.233  17.237  1.00  0.00     0.086 A 
ATOM     14  C   UNL     1      46.183 130.788  14.795  1.00  0.00     0.179 A 
ATOM     15  C   UNL     1      45.087 131.657  14.855  1.00  0.00     0.075 A 
ATOM     16  N   UNL     1      46.633 130.190  15.936  1.00  0.00    -0.183 N 
ATOM     17  C   UNL     1      44.448 131.875  16.075  1.00  0.00     0.025 A 
ATOM     18  C   UNL     1      46.023 130.387  17.139  1.00  0.00     0.366 A 
ATOM     19  C   UNL     1      46.904 130.576  13.497  1.00  0.00     0.123 C 
ATOM     20  H   UNL     1      47.471 129.567  15.898  1.00  0.00     0.456 HD
ATOM     21  F   UNL     1      46.534 129.787  18.245  1.00  0.00    -0.136 F 
ENDBRANCH   1  13
TORSDOF 1
ENDMDL
MODEL 8
REMARK VINA RESULT:      -8.8      1.563      2.164
REMARK SMILES Cc1ccc(-c2cc(F)c3[nH+]cccc3c2)c(F)[nH+]1
REMARK SMILES IDX 6 1 7 2 8 3 9 4 10 5 11 6 12 7 13 8 14 9 15 10 16 11 5 13
REMARK SMILES IDX 2 14 3 15 19 16 4 17 17 18 1 19 18 21
REMARK H PARENT 11 12 19 20
ROOT
ATOM      1  C   UNL     1      45.080 131.154  17.864  1.00  0.00    -0.005 A 
ATOM      2  C   UNL     1      45.716 130.544  18.959  1.00  0.00     0.055 A 
ATOM      3  C   UNL     1      45.173 130.641  20.243  1.00  0.00     0.195 A 
ATOM      4  F   UNL     1      45.809 130.033  21.278  1.00  0.00    -0.200 F 
ATOM      5  C   UNL     1      43.985 131.358  20.456  1.00  0.00     0.246 A 
ATOM      6  N   UNL     1      43.442 131.463  21.706  1.00  0.00    -0.209 N 
ATOM      7  C   UNL     1      42.292 132.158  21.926  1.00  0.00     0.307 A 
ATOM      8  C   UNL     1      41.635 132.787  20.868  1.00  0.00     0.071 A 
ATOM      9  C   UNL     1      42.162 132.699  19.581  1.00  0.00     0.021 A 
ATOM     10  C   UNL     1      43.344 131.981  19.360  1.00  0.00     0.050 A 
ATOM     11  C   UNL     1      43.894 131.878  18.074  1.00  0.00     0.024 A 
ATOM     12  H   UNL     1      43.906 131.008  22.524  1.00  0.00     0.453 HD
ENDROOT
BRANCH   1  13
ATOM     13  C   UNL     1      45.668 131.050  16.506  1.00  0.00     0.086 A 
ATOM     14  C   UNL     1      46.755 130.850  13.942  1.00  0.00     0.179 A 
ATOM     15  C   UNL     1      46.635 132.106  14.547  1.00  0.00     0.075 A 
ATOM     16  N   UNL     1      46.367 129.733  14.623  1.00  0.00    -0.183 N 
ATOM     17  C   UNL     1      46.088 132.204  15.826  1.00  0.00     0.025 A 
ATOM     18  C   UNL     1      45.829 129.804  15.872  1.00  0.00     0.366 A 
ATOM     19  C   UNL     1      47.378 130.728  12.583  1.00  0.00     0.123 C 
ATOM     20  H   UNL     1      46.488 128.792  14.185  1.00  0.00     0.456 HD
ATOM     21  F   UNL     1      45.488 128.656  16.512  1.00  0.00    -0.136 F 
ENDBRANCH   1  13
TORSDOF 1
ENDMDL


