MODEL 1
REMARK VINA RESULT:      -3.6      0.000      0.000
REMARK SMILES C=C[C@@H]1C[NH2+][C@@H](c2ccc3nc[nH+]n3c2)N(C(=O)OCCCCCC)C1
REMARK SMILES IDX 20 1 19 2 17 3 18 4 16 5 3 6 4 7 26 8 5 9 6 10 2 13 1 14
REMARK SMILES IDX 7 15 8 16 15 17 9 18 14 19 10 20 13 21 11 22 12 23 21 25
REMARK SMILES IDX 22 26 23 27 24 28 25 29
REMARK H PARENT 5 11 5 12 13 24
ROOT
ATOM      1  C   UNL     1      45.008 128.689  21.361  1.00  0.00     0.235 C 
ENDROOT
BRANCH   1   2
ATOM      2  O   UNL     1      45.746 128.125  22.441  1.00  0.00    -0.449 OA
BRANCH   2   3
ATOM      3  C   UNL     1      45.164 127.372  23.470  1.00  0.00     0.414 C 
ATOM      4  O   UNL     1      44.975 127.891  24.604  1.00  0.00    -0.224 OA
BRANCH   3   5
ATOM      5  N   UNL     1      44.789 125.999  23.233  1.00  0.00    -0.253 N 
ATOM      6  C   UNL     1      43.125 124.381  22.341  1.00  0.00     0.086 C 
ATOM      7  C   UNL     1      43.916 123.308  23.096  1.00  0.00     0.272 C 
ATOM      8  C   UNL     1      43.357 125.742  23.005  1.00  0.00     0.143 C 
ATOM      9  N   UNL     1      45.347 123.624  23.063  1.00  0.00    -0.322 N 
ATOM     10  C   UNL     1      45.646 124.901  23.743  1.00  0.00     0.323 C 
ATOM     11  H   UNL     1      45.666 123.654  22.066  1.00  0.00     0.348 HD
ATOM     12  H   UNL     1      45.865 122.851  23.545  1.00  0.00     0.348 HD
BRANCH   6  13
ATOM     13  C   UNL     1      41.653 124.039  22.315  1.00  0.00    -0.024 C 
ATOM     14  C   UNL     1      40.748 124.798  22.942  1.00  0.00     0.004 C 
ENDBRANCH   6  13
BRANCH  10  15
ATOM     15  C   UNL     1      47.124 125.213  23.568  1.00  0.00     0.052 A 
ATOM     16  C   UNL     1      47.868 125.795  24.625  1.00  0.00     0.020 A 
ATOM     17  C   UNL     1      47.789 124.909  22.360  1.00  0.00     0.150 A 
ATOM     18  C   UNL     1      49.235 126.079  24.469  1.00  0.00     0.080 A 
ATOM     19  N   UNL     1      49.111 125.200  22.268  1.00  0.00    -0.151 N 
ATOM     20  C   UNL     1      49.824 125.756  23.251  1.00  0.00     0.282 A 
ATOM     21  N   UNL     1      49.914 125.003  21.244  1.00  0.00    -0.166 N 
ATOM     22  N   UNL     1      51.113 125.940  22.903  1.00  0.00    -0.025 NA
ATOM     23  C   UNL     1      51.128 125.453  21.634  1.00  0.00     0.472 A 
ATOM     24  H   UNL     1      49.650 124.587  20.323  1.00  0.00     0.340 HD
ENDBRANCH  10  15
ENDBRANCH   3   5
ENDBRANCH   2   3
ENDBRANCH   1   2
BRANCH   1  25
ATOM     25  C   UNL     1      45.080 130.218  21.410  1.00  0.00     0.042 C 
BRANCH  25  26
ATOM     26  C   UNL     1      44.118 130.785  22.462  1.00  0.00     0.003 C 
BRANCH  26  27
ATOM     27  C   UNL     1      42.688 130.976  21.926  1.00  0.00    -0.000 C 
BRANCH  27  28
ATOM     28  C   UNL     1      42.594 131.243  20.413  1.00  0.00    -0.003 C 
ATOM     29  C   UNL     1      42.417 132.723  20.076  1.00  0.00     0.004 C 
ENDBRANCH  27  28
ENDBRANCH  26  27
ENDBRANCH  25  26
ENDBRANCH   1  25
TORSDOF 9
ENDMDL
MODEL 2
REMARK VINA RESULT:      -2.9      4.928      8.038
REMARK SMILES C=C[C@@H]1C[NH2+][C@@H](c2ccc3nc[nH+]n3c2)N(C(=O)OCCCCCC)C1
REMARK SMILES IDX 20 1 19 2 17 3 18 4 16 5 3 6 4 7 26 8 5 9 6 10 2 13 1 14
REMARK SMILES IDX 7 15 8 16 15 17 9 18 14 19 10 20 13 21 11 22 12 23 21 25
REMARK SMILES IDX 22 26 23 27 24 28 25 29
REMARK H PARENT 5 11 5 12 13 24
ROOT
ATOM      1  C   UNL     1      45.954 128.930  20.833  1.00  0.00     0.235 C 
ENDROOT
BRANCH   1   2
ATOM      2  O   UNL     1      45.762 129.656  19.622  1.00  0.00    -0.449 OA
BRANCH   2   3
ATOM      3  C   UNL     1      45.463 131.025  19.578  1.00  0.00     0.414 C 
ATOM      4  O   UNL     1      46.322 131.872  19.947  1.00  0.00    -0.224 OA
BRANCH   3   5
ATOM      5  N   UNL     1      44.167 131.465  19.120  1.00  0.00    -0.253 N 
ATOM      6  C   UNL     1      42.060 132.698  19.594  1.00  0.00     0.086 C 
ATOM      7  C   UNL     1      41.502 132.017  18.341  1.00  0.00     0.272 C 
ATOM      8  C   UNL     1      43.202 131.848  20.163  1.00  0.00     0.143 C 
ATOM      9  N   UNL     1      42.555 131.885  17.330  1.00  0.00    -0.322 N 
ATOM     10  C   UNL     1      43.662 131.025  17.797  1.00  0.00     0.323 C 
ATOM     11  H   UNL     1      42.909 132.838  17.081  1.00  0.00     0.348 HD
ATOM     12  H   UNL     1      42.133 131.461  16.470  1.00  0.00     0.348 HD
BRANCH   6  13
ATOM     13  C   UNL     1      40.971 132.895  20.624  1.00  0.00    -0.024 C 
ATOM     14  C   UNL     1      40.993 133.926  21.475  1.00  0.00     0.004 C 
ENDBRANCH   6  13
BRANCH  10  15
ATOM     15  C   UNL     1      44.760 131.029  16.745  1.00  0.00     0.052 A 
ATOM     16  C   UNL     1      45.233 132.251  16.203  1.00  0.00     0.020 A 
ATOM     17  C   UNL     1      45.344 129.822  16.304  1.00  0.00     0.150 A 
ATOM     18  C   UNL     1      46.252 132.260  15.236  1.00  0.00     0.080 A 
ATOM     19  N   UNL     1      46.328 129.892  15.372  1.00  0.00    -0.151 N 
ATOM     20  C   UNL     1      46.779 131.034  14.846  1.00  0.00     0.282 A 
ATOM     21  N   UNL     1      46.999 128.900  14.827  1.00  0.00    -0.166 N 
ATOM     22  N   UNL     1      47.758 130.825  13.943  1.00  0.00    -0.025 NA
ATOM     23  C   UNL     1      47.866 129.470  13.962  1.00  0.00     0.472 A 
ATOM     24  H   UNL     1      46.872 127.883  15.031  1.00  0.00     0.340 HD
ENDBRANCH  10  15
ENDBRANCH   3   5
ENDBRANCH   2   3
ENDBRANCH   1   2
BRANCH   1  25
ATOM     25  C   UNL     1      44.932 129.372  21.885  1.00  0.00     0.042 C 
BRANCH  25  26
ATOM     26  C   UNL     1      45.042 128.520  23.157  1.00  0.00     0.003 C 
BRANCH  26  27
ATOM     27  C   UNL     1      44.943 127.010  22.877  1.00  0.00    -0.000 C 
BRANCH  27  28
ATOM     28  C   UNL     1      43.946 126.250  23.770  1.00  0.00    -0.003 C 
ATOM     29  C   UNL     1      42.865 127.153  24.365  1.00  0.00     0.004 C 
ENDBRANCH  27  28
ENDBRANCH  26  27
ENDBRANCH  25  26
ENDBRANCH   1  25
TORSDOF 9
ENDMDL
MODEL 3
REMARK VINA RESULT:      -2.9      2.991      5.832
REMARK SMILES C=C[C@@H]1C[NH2+][C@@H](c2ccc3nc[nH+]n3c2)N(C(=O)OCCCCCC)C1
REMARK SMILES IDX 20 1 19 2 17 3 18 4 16 5 3 6 4 7 26 8 5 9 6 10 2 13 1 14
REMARK SMILES IDX 7 15 8 16 15 17 9 18 14 19 10 20 13 21 11 22 12 23 21 25
REMARK SMILES IDX 22 26 23 27 24 28 25 29
REMARK H PARENT 5 11 5 12 13 24
ROOT
ATOM      1  C   UNL     1      45.665 130.215  18.837  1.00  0.00     0.235 C 
ENDROOT
BRANCH   1   2
ATOM      2  O   UNL     1      46.063 130.230  20.206  1.00  0.00    -0.449 OA
BRANCH   2   3
ATOM      3  C   UNL     1      45.444 129.462  21.202  1.00  0.00     0.414 C 
ATOM      4  O   UNL     1      45.824 128.279  21.417  1.00  0.00    -0.224 OA
BRANCH   3   5
ATOM      5  N   UNL     1      44.361 130.023  21.974  1.00  0.00    -0.253 N 
ATOM      6  C   UNL     1      42.433 131.589  22.093  1.00  0.00     0.086 C 
ATOM      7  C   UNL     1      42.473 131.361  23.607  1.00  0.00     0.272 C 
ATOM      8  C   UNL     1      43.819 131.308  21.502  1.00  0.00     0.143 C 
ATOM      9  N   UNL     1      42.849 129.974  23.895  1.00  0.00    -0.322 N 
ATOM     10  C   UNL     1      44.205 129.656  23.403  1.00  0.00     0.323 C 
ATOM     11  H   UNL     1      42.141 129.333  23.464  1.00  0.00     0.348 HD
ATOM     12  H   UNL     1      42.822 129.836  24.933  1.00  0.00     0.348 HD
BRANCH   6  13
ATOM     13  C   UNL     1      41.990 133.000  21.777  1.00  0.00    -0.024 C 
ATOM     14  C   UNL     1      41.174 133.264  20.752  1.00  0.00     0.004 C 
ENDBRANCH   6  13
BRANCH  10  15
ATOM     15  C   UNL     1      44.474 128.177  23.636  1.00  0.00     0.052 A 
ATOM     16  C   UNL     1      45.612 127.760  24.373  1.00  0.00     0.020 A 
ATOM     17  C   UNL     1      43.588 127.194  23.146  1.00  0.00     0.150 A 
ATOM     18  C   UNL     1      45.861 126.396  24.596  1.00  0.00     0.080 A 
ATOM     19  N   UNL     1      43.876 125.892  23.397  1.00  0.00    -0.151 N 
ATOM     20  C   UNL     1      44.948 125.483  24.081  1.00  0.00     0.282 A 
ATOM     21  N   UNL     1      43.194 124.827  23.034  1.00  0.00    -0.166 N 
ATOM     22  N   UNL     1      45.000 124.140  24.188  1.00  0.00    -0.025 NA
ATOM     23  C   UNL     1      43.878 123.767  23.517  1.00  0.00     0.472 A 
ATOM     24  H   UNL     1      42.307 124.821  22.482  1.00  0.00     0.340 HD
ENDBRANCH  10  15
ENDBRANCH   3   5
ENDBRANCH   2   3
ENDBRANCH   1   2
BRANCH   1  25
ATOM     25  C   UNL     1      45.241 131.618  18.393  1.00  0.00     0.042 C 
BRANCH  25  26
ATOM     26  C   UNL     1      44.401 131.563  17.110  1.00  0.00     0.003 C 
BRANCH  26  27
ATOM     27  C   UNL     1      45.141 130.897  15.937  1.00  0.00    -0.000 C 
BRANCH  27  28
ATOM     28  C   UNL     1      45.882 131.870  15.002  1.00  0.00    -0.003 C 
ATOM     29  C   UNL     1      46.603 131.166  13.853  1.00  0.00     0.004 C 
ENDBRANCH  27  28
ENDBRANCH  26  27
ENDBRANCH  25  26
ENDBRANCH   1  25
TORSDOF 9
ENDMDL
MODEL 4
REMARK VINA RESULT:      -2.8      6.503      8.307
REMARK SMILES C=C[C@@H]1C[NH2+][C@@H](c2ccc3nc[nH+]n3c2)N(C(=O)OCCCCCC)C1
REMARK SMILES IDX 20 1 19 2 17 3 18 4 16 5 3 6 4 7 26 8 5 9 6 10 2 13 1 14
REMARK SMILES IDX 7 15 8 16 15 17 9 18 14 19 10 20 13 21 11 22 12 23 21 25
REMARK SMILES IDX 22 26 23 27 24 28 25 29
REMARK H PARENT 5 11 5 12 13 24
ROOT
ATOM      1  C   UNL     1      46.354 132.305  20.871  1.00  0.00     0.235 C 
ENDROOT
BRANCH   1   2
ATOM      2  O   UNL     1      46.404 130.977  20.355  1.00  0.00    -0.449 OA
BRANCH   2   3
ATOM      3  C   UNL     1      45.573 130.512  19.328  1.00  0.00     0.414 C 
ATOM      4  O   UNL     1      45.873 129.461  18.698  1.00  0.00    -0.224 OA
BRANCH   3   5
ATOM      5  N   UNL     1      44.377 131.242  18.983  1.00  0.00    -0.253 N 
ATOM      6  C   UNL     1      42.537 132.753  19.701  1.00  0.00     0.086 C 
ATOM      7  C   UNL     1      41.854 132.379  18.382  1.00  0.00     0.272 C 
ATOM      8  C   UNL     1      43.506 131.636  20.103  1.00  0.00     0.143 C 
ATOM      9  N   UNL     1      42.858 132.208  17.328  1.00  0.00    -0.322 N 
ATOM     10  C   UNL     1      43.790 131.102  17.628  1.00  0.00     0.323 C 
ATOM     11  H   UNL     1      43.380 133.108  17.207  1.00  0.00     0.348 HD
ATOM     12  H   UNL     1      42.359 132.000  16.430  1.00  0.00     0.348 HD
BRANCH   6  13
ATOM     13  C   UNL     1      41.510 132.990  20.785  1.00  0.00    -0.024 C 
ATOM     14  C   UNL     1      41.507 132.274  21.914  1.00  0.00     0.004 C 
ENDBRANCH   6  13
BRANCH  10  15
ATOM     15  C   UNL     1      44.864 131.063  16.551  1.00  0.00     0.052 A 
ATOM     16  C   UNL     1      45.331 132.262  15.956  1.00  0.00     0.020 A 
ATOM     17  C   UNL     1      45.431 129.838  16.139  1.00  0.00     0.150 A 
ATOM     18  C   UNL     1      46.326 132.231  14.966  1.00  0.00     0.080 A 
ATOM     19  N   UNL     1      46.392 129.869  15.183  1.00  0.00    -0.151 N 
ATOM     20  C   UNL     1      46.838 130.989  14.607  1.00  0.00     0.282 A 
ATOM     21  N   UNL     1      47.046 128.854  14.658  1.00  0.00    -0.166 N 
ATOM     22  N   UNL     1      47.794 130.743  13.689  1.00  0.00    -0.025 NA
ATOM     23  C   UNL     1      47.895 129.389  13.753  1.00  0.00     0.472 A 
ATOM     24  H   UNL     1      46.917 127.846  14.900  1.00  0.00     0.340 HD
ENDBRANCH  10  15
ENDBRANCH   3   5
ENDBRANCH   2   3
ENDBRANCH   1   2
BRANCH   1  25
ATOM     25  C   UNL     1      47.723 132.713  21.423  1.00  0.00     0.042 C 
BRANCH  25  26
ATOM     26  C   UNL     1      47.581 133.735  22.558  1.00  0.00     0.003 C 
BRANCH  26  27
ATOM     27  C   UNL     1      48.894 133.961  23.329  1.00  0.00    -0.000 C 
BRANCH  27  28
ATOM     28  C   UNL     1      49.758 135.124  22.810  1.00  0.00    -0.003 C 
ATOM     29  C   UNL     1      49.051 135.970  21.751  1.00  0.00     0.004 C 
ENDBRANCH  27  28
ENDBRANCH  26  27
ENDBRANCH  25  26
ENDBRANCH   1  25
TORSDOF 9
ENDMDL
MODEL 5
REMARK VINA RESULT:      -2.5      3.831      6.517
REMARK SMILES C=C[C@@H]1C[NH2+][C@@H](c2ccc3nc[nH+]n3c2)N(C(=O)OCCCCCC)C1
REMARK SMILES IDX 20 1 19 2 17 3 18 4 16 5 3 6 4 7 26 8 5 9 6 10 2 13 1 14
REMARK SMILES IDX 7 15 8 16 15 17 9 18 14 19 10 20 13 21 11 22 12 23 21 25
REMARK SMILES IDX 22 26 23 27 24 28 25 29
REMARK H PARENT 5 11 5 12 13 24
ROOT
ATOM      1  C   UNL     1      44.932 130.420  17.668  1.00  0.00     0.235 C 
ENDROOT
BRANCH   1   2
ATOM      2  O   UNL     1      45.573 129.880  18.821  1.00  0.00    -0.449 OA
BRANCH   2   3
ATOM      3  C   UNL     1      45.649 130.548  20.050  1.00  0.00     0.414 C 
ATOM      4  O   UNL     1      46.772 130.864  20.530  1.00  0.00    -0.224 OA
BRANCH   3   5
ATOM      5  N   UNL     1      44.441 130.863  20.774  1.00  0.00    -0.253 N 
ATOM      6  C   UNL     1      42.265 132.065  20.841  1.00  0.00     0.086 C 
ATOM      7  C   UNL     1      42.253 131.748  22.339  1.00  0.00     0.272 C 
ATOM      8  C   UNL     1      43.711 132.065  20.335  1.00  0.00     0.143 C 
ATOM      9  N   UNL     1      42.848 130.429  22.578  1.00  0.00    -0.322 N 
ATOM     10  C   UNL     1      44.265 130.381  22.166  1.00  0.00     0.323 C 
ATOM     11  H   UNL     1      42.290 129.707  22.064  1.00  0.00     0.348 HD
ATOM     12  H   UNL     1      42.783 130.221  23.603  1.00  0.00     0.348 HD
BRANCH   6  13
ATOM     13  C   UNL     1      41.602 133.397  20.572  1.00  0.00    -0.024 C 
ATOM     14  C   UNL     1      40.572 133.826  21.308  1.00  0.00     0.004 C 
ENDBRANCH   6  13
BRANCH  10  15
ATOM     15  C   UNL     1      44.775 128.958  22.337  1.00  0.00     0.052 A 
ATOM     16  C   UNL     1      45.855 128.481  21.553  1.00  0.00     0.020 A 
ATOM     17  C   UNL     1      44.199 128.094  23.293  1.00  0.00     0.150 A 
ATOM     18  C   UNL     1      46.333 127.170  21.712  1.00  0.00     0.080 A 
ATOM     19  N   UNL     1      44.705 126.841  23.407  1.00  0.00    -0.151 N 
ATOM     20  C   UNL     1      45.716 126.373  22.671  1.00  0.00     0.282 A 
ATOM     21  N   UNL     1      44.320 125.883  24.224  1.00  0.00    -0.166 N 
ATOM     22  N   UNL     1      46.025 125.098  22.981  1.00  0.00    -0.025 NA
ATOM     23  C   UNL     1      45.124 124.828  23.963  1.00  0.00     0.472 A 
ATOM     24  H   UNL     1      43.545 125.943  24.923  1.00  0.00     0.340 HD
ENDBRANCH  10  15
ENDBRANCH   3   5
ENDBRANCH   2   3
ENDBRANCH   1   2
BRANCH   1  25
ATOM     25  C   UNL     1      45.932 131.225  16.833  1.00  0.00     0.042 C 
BRANCH  25  26
ATOM     26  C   UNL     1      46.292 130.487  15.536  1.00  0.00     0.003 C 
BRANCH  26  27
ATOM     27  C   UNL     1      46.786 131.432  14.427  1.00  0.00    -0.000 C 
BRANCH  27  28
ATOM     28  C   UNL     1      47.355 130.728  13.182  1.00  0.00    -0.003 C 
ATOM     29  C   UNL     1      48.333 129.604  13.523  1.00  0.00     0.004 C 
ENDBRANCH  27  28
ENDBRANCH  26  27
ENDBRANCH  25  26
ENDBRANCH   1  25
TORSDOF 9
ENDMDL
MODEL 6
REMARK VINA RESULT:      -2.0      5.159      7.893
REMARK SMILES C=C[C@@H]1C[NH2+][C@@H](c2ccc3nc[nH+]n3c2)N(C(=O)OCCCCCC)C1
REMARK SMILES IDX 20 1 19 2 17 3 18 4 16 5 3 6 4 7 26 8 5 9 6 10 2 13 1 14
REMARK SMILES IDX 7 15 8 16 15 17 9 18 14 19 10 20 13 21 11 22 12 23 21 25
REMARK SMILES IDX 22 26 23 27 24 28 25 29
REMARK H PARENT 5 11 5 12 13 24
ROOT
ATOM      1  C   UNL     1      44.604 129.213  21.260  1.00  0.00     0.235 C 
ENDROOT
BRANCH   1   2
ATOM      2  O   UNL     1      45.764 129.699  20.588  1.00  0.00    -0.449 OA
BRANCH   2   3
ATOM      3  C   UNL     1      45.745 130.768  19.683  1.00  0.00     0.414 C 
ATOM      4  O   UNL     1      46.827 131.247  19.246  1.00  0.00    -0.224 OA
BRANCH   3   5
ATOM      5  N   UNL     1      44.486 131.331  19.259  1.00  0.00    -0.253 N 
ATOM      6  C   UNL     1      42.593 132.876  19.724  1.00  0.00     0.086 C 
ATOM      7  C   UNL     1      41.862 132.157  18.586  1.00  0.00     0.272 C 
ATOM      8  C   UNL     1      43.656 131.941  20.311  1.00  0.00     0.143 C 
ATOM      9  N   UNL     1      42.813 131.785  17.534  1.00  0.00    -0.322 N 
ATOM     10  C   UNL     1      43.832 130.835  18.023  1.00  0.00     0.323 C 
ATOM     11  H   UNL     1      43.266 132.654  17.164  1.00  0.00     0.348 HD
ATOM     12  H   UNL     1      42.278 131.339  16.751  1.00  0.00     0.348 HD
BRANCH   6  13
ATOM     13  C   UNL     1      41.616 133.317  20.790  1.00  0.00    -0.024 C 
ATOM     14  C   UNL     1      41.586 132.737  21.994  1.00  0.00     0.004 C 
ENDBRANCH   6  13
BRANCH  10  15
ATOM     15  C   UNL     1      44.842 130.589  16.913  1.00  0.00     0.052 A 
ATOM     16  C   UNL     1      45.251 129.270  16.590  1.00  0.00     0.020 A 
ATOM     17  C   UNL     1      45.375 131.663  16.168  1.00  0.00     0.150 A 
ATOM     18  C   UNL     1      46.178 129.038  15.561  1.00  0.00     0.080 A 
ATOM     19  N   UNL     1      46.263 131.380  15.183  1.00  0.00    -0.151 N 
ATOM     20  C   UNL     1      46.664 130.144  14.872  1.00  0.00     0.282 A 
ATOM     21  N   UNL     1      46.876 132.221  14.377  1.00  0.00    -0.166 N 
ATOM     22  N   UNL     1      47.550 130.138  13.856  1.00  0.00    -0.025 NA
ATOM     23  C   UNL     1      47.654 131.463  13.574  1.00  0.00     0.472 A 
ATOM     24  H   UNL     1      46.772 133.261  14.377  1.00  0.00     0.340 HD
ENDBRANCH  10  15
ENDBRANCH   3   5
ENDBRANCH   2   3
ENDBRANCH   1   2
BRANCH   1  25
ATOM     25  C   UNL     1      44.688 129.528  22.756  1.00  0.00     0.042 C 
BRANCH  25  26
ATOM     26  C   UNL     1      44.141 128.367  23.598  1.00  0.00     0.003 C 
BRANCH  26  27
ATOM     27  C   UNL     1      42.607 128.384  23.717  1.00  0.00    -0.000 C 
BRANCH  27  28
ATOM     28  C   UNL     1      42.034 129.545  24.550  1.00  0.00    -0.003 C 
ATOM     29  C   UNL     1      42.971 130.750  24.621  1.00  0.00     0.004 C 
ENDBRANCH  27  28
ENDBRANCH  26  27
ENDBRANCH  25  26
ENDBRANCH   1  25
TORSDOF 9
ENDMDL
MODEL 7
REMARK VINA RESULT:      -1.7      4.998      8.334
REMARK SMILES C=C[C@@H]1C[NH2+][C@@H](c2ccc3nc[nH+]n3c2)N(C(=O)OCCCCCC)C1
REMARK SMILES IDX 20 1 19 2 17 3 18 4 16 5 3 6 4 7 26 8 5 9 6 10 2 13 1 14
REMARK SMILES IDX 7 15 8 16 15 17 9 18 14 19 10 20 13 21 11 22 12 23 21 25
REMARK SMILES IDX 22 26 23 27 24 28 25 29
REMARK H PARENT 5 11 5 12 13 24
ROOT
ATOM      1  C   UNL     1      45.606 131.379  18.202  1.00  0.00     0.235 C 
ENDROOT
BRANCH   1   2
ATOM      2  O   UNL     1      45.465 130.855  19.520  1.00  0.00    -0.449 OA
BRANCH   2   3
ATOM      3  C   UNL     1      44.700 131.469  20.521  1.00  0.00     0.414 C 
ATOM      4  O   UNL     1      43.444 131.355  20.516  1.00  0.00    -0.224 OA
BRANCH   3   5
ATOM      5  N   UNL     1      45.349 132.242  21.551  1.00  0.00    -0.253 N 
ATOM      6  C   UNL     1      46.612 134.288  22.185  1.00  0.00     0.086 C 
ATOM      7  C   UNL     1      46.914 133.569  23.504  1.00  0.00     0.272 C 
ATOM      8  C   UNL     1      46.323 133.249  21.097  1.00  0.00     0.143 C 
ATOM      9  N   UNL     1      45.762 132.757  23.907  1.00  0.00    -0.322 N 
ATOM     10  C   UNL     1      45.468 131.693  22.924  1.00  0.00     0.323 C 
ATOM     11  H   UNL     1      44.932 133.382  24.032  1.00  0.00     0.348 HD
ATOM     12  H   UNL     1      45.979 132.316  24.832  1.00  0.00     0.348 HD
BRANCH   6  13
ATOM     13  C   UNL     1      47.769 135.177  21.786  1.00  0.00    -0.024 C 
ATOM     14  C   UNL     1      49.029 134.873  22.111  1.00  0.00     0.004 C 
ENDBRANCH   6  13
BRANCH  10  15
ATOM     15  C   UNL     1      44.199 130.971  23.353  1.00  0.00     0.052 A 
ATOM     16  C   UNL     1      43.038 131.704  23.707  1.00  0.00     0.020 A 
ATOM     17  C   UNL     1      44.145 129.561  23.385  1.00  0.00     0.150 A 
ATOM     18  C   UNL     1      41.863 131.042  24.097  1.00  0.00     0.080 A 
ATOM     19  N   UNL     1      42.982 128.975  23.765  1.00  0.00    -0.151 N 
ATOM     20  C   UNL     1      41.883 129.651  24.110  1.00  0.00     0.282 A 
ATOM     21  N   UNL     1      42.718 127.690  23.865  1.00  0.00    -0.166 N 
ATOM     22  N   UNL     1      40.866 128.831  24.445  1.00  0.00    -0.025 NA
ATOM     23  C   UNL     1      41.433 127.607  24.277  1.00  0.00     0.472 A 
ATOM     24  H   UNL     1      43.380 126.906  23.667  1.00  0.00     0.340 HD
ENDBRANCH  10  15
ENDBRANCH   3   5
ENDBRANCH   2   3
ENDBRANCH   1   2
BRANCH   1  25
ATOM     25  C   UNL     1      45.886 130.247  17.209  1.00  0.00     0.042 C 
BRANCH  25  26
ATOM     26  C   UNL     1      45.824 130.753  15.761  1.00  0.00     0.003 C 
BRANCH  26  27
ATOM     27  C   UNL     1      46.264 129.691  14.737  1.00  0.00    -0.000 C 
BRANCH  27  28
ATOM     28  C   UNL     1      47.624 129.961  14.068  1.00  0.00    -0.003 C 
ATOM     29  C   UNL     1      47.541 130.979  12.930  1.00  0.00     0.004 C 
ENDBRANCH  27  28
ENDBRANCH  26  27
ENDBRANCH  25  26
ENDBRANCH   1  25
TORSDOF 9
ENDMDL
MODEL 8
REMARK VINA RESULT:      -1.5      3.626      6.238
REMARK SMILES C=C[C@@H]1C[NH2+][C@@H](c2ccc3nc[nH+]n3c2)N(C(=O)OCCCCCC)C1
REMARK SMILES IDX 20 1 19 2 17 3 18 4 16 5 3 6 4 7 26 8 5 9 6 10 2 13 1 14
REMARK SMILES IDX 7 15 8 16 15 17 9 18 14 19 10 20 13 21 11 22 12 23 21 25
REMARK SMILES IDX 22 26 23 27 24 28 25 29
REMARK H PARENT 5 11 5 12 13 24
ROOT
ATOM      1  C   UNL     1      45.412 130.193  17.783  1.00  0.00     0.235 C 
ENDROOT
BRANCH   1   2
ATOM      2  O   UNL     1      46.155 130.549  18.946  1.00  0.00    -0.449 OA
BRANCH   2   3
ATOM      3  C   UNL     1      45.789 130.172  20.245  1.00  0.00     0.414 C 
ATOM      4  O   UNL     1      46.542 129.420  20.921  1.00  0.00    -0.224 OA
BRANCH   3   5
ATOM      5  N   UNL     1      44.542 130.635  20.805  1.00  0.00    -0.253 N 
ATOM      6  C   UNL     1      42.404 131.864  20.485  1.00  0.00     0.086 C 
ATOM      7  C   UNL     1      42.276 131.830  22.011  1.00  0.00     0.272 C 
ATOM      8  C   UNL     1      43.882 131.746  20.099  1.00  0.00     0.143 C 
ATOM      9  N   UNL     1      42.812 130.570  22.532  1.00  0.00    -0.322 N 
ATOM     10  C   UNL     1      44.253 130.423  22.244  1.00  0.00     0.323 C 
ATOM     11  H   UNL     1      42.271 129.773  22.119  1.00  0.00     0.348 HD
ATOM     12  H   UNL     1      42.668 130.556  23.569  1.00  0.00     0.348 HD
BRANCH   6  13
ATOM     13  C   UNL     1      41.801 133.133  19.926  1.00  0.00    -0.024 C 
ATOM     14  C   UNL     1      41.378 133.209  18.661  1.00  0.00     0.004 C 
ENDBRANCH   6  13
BRANCH  10  15
ATOM     15  C   UNL     1      44.707 129.049  22.712  1.00  0.00     0.052 A 
ATOM     16  C   UNL     1      44.933 128.795  24.089  1.00  0.00     0.020 A 
ATOM     17  C   UNL     1      44.889 127.995  21.791  1.00  0.00     0.150 A 
ATOM     18  C   UNL     1      45.345 127.526  24.526  1.00  0.00     0.080 A 
ATOM     19  N   UNL     1      45.284 126.788  22.271  1.00  0.00    -0.151 N 
ATOM     20  C   UNL     1      45.509 126.536  23.563  1.00  0.00     0.282 A 
ATOM     21  N   UNL     1      45.512 125.683  21.594  1.00  0.00    -0.166 N 
ATOM     22  N   UNL     1      45.890 125.260  23.772  1.00  0.00    -0.025 NA
ATOM     23  C   UNL     1      45.878 124.758  22.509  1.00  0.00     0.472 A 
ATOM     24  H   UNL     1      45.426 125.564  20.560  1.00  0.00     0.340 HD
ENDBRANCH  10  15
ENDBRANCH   3   5
ENDBRANCH   2   3
ENDBRANCH   1   2
BRANCH   1  25
ATOM     25  C   UNL     1      45.204 131.421  16.890  1.00  0.00     0.042 C 
BRANCH  25  26
ATOM     26  C   UNL     1      45.670 131.147  15.454  1.00  0.00     0.003 C 
BRANCH  26  27
ATOM     27  C   UNL     1      46.738 130.042  15.370  1.00  0.00    -0.000 C 
BRANCH  27  28
ATOM     28  C   UNL     1      47.303 129.792  13.961  1.00  0.00    -0.003 C 
ATOM     29  C   UNL     1      47.573 131.082  13.186  1.00  0.00     0.004 C 
ENDBRANCH  27  28
ENDBRANCH  26  27
ENDBRANCH  25  26
ENDBRANCH   1  25
TORSDOF 9
ENDMDL
MODEL 9
REMARK VINA RESULT:      -1.3      4.443      7.520
REMARK SMILES C=C[C@@H]1C[NH2+][C@@H](c2ccc3nc[nH+]n3c2)N(C(=O)OCCCCCC)C1
REMARK SMILES IDX 20 1 19 2 17 3 18 4 16 5 3 6 4 7 26 8 5 9 6 10 2 13 1 14
REMARK SMILES IDX 7 15 8 16 15 17 9 18 14 19 10 20 13 21 11 22 12 23 21 25
REMARK SMILES IDX 22 26 23 27 24 28 25 29
REMARK H PARENT 5 11 5 12 13 24
ROOT
ATOM      1  C   UNL     1      45.415 128.431  20.994  1.00  0.00     0.235 C 
ENDROOT
BRANCH   1   2
ATOM      2  O   UNL     1      46.470 129.359  20.753  1.00  0.00    -0.449 OA
BRANCH   2   3
ATOM      3  C   UNL     1      46.267 130.735  20.577  1.00  0.00     0.414 C 
ATOM      4  O   UNL     1      47.254 131.507  20.437  1.00  0.00    -0.224 OA
BRANCH   3   5
ATOM      5  N   UNL     1      44.927 131.269  20.567  1.00  0.00    -0.253 N 
ATOM      6  C   UNL     1      43.113 132.461  21.781  1.00  0.00     0.086 C 
ATOM      7  C   UNL     1      42.191 131.996  20.649  1.00  0.00     0.272 C 
ATOM      8  C   UNL     1      44.309 131.508  21.882  1.00  0.00     0.143 C 
ATOM      9  N   UNL     1      42.918 131.998  19.377  1.00  0.00    -0.322 N 
ATOM     10  C   UNL     1      44.052 131.052  19.389  1.00  0.00     0.323 C 
ATOM     11  H   UNL     1      43.252 132.971  19.178  1.00  0.00     0.348 HD
ATOM     12  H   UNL     1      42.251 131.722  18.618  1.00  0.00     0.348 HD
BRANCH   6  13
ATOM     13  C   UNL     1      42.361 132.520  23.092  1.00  0.00    -0.024 C 
ATOM     14  C   UNL     1      41.764 131.440  23.605  1.00  0.00     0.004 C 
ENDBRANCH   6  13
BRANCH  10  15
ATOM     15  C   UNL     1      44.820 131.195  18.084  1.00  0.00     0.052 A 
ATOM     16  C   UNL     1      44.889 132.447  17.422  1.00  0.00     0.020 A 
ATOM     17  C   UNL     1      45.497 130.093  17.518  1.00  0.00     0.150 A 
ATOM     18  C   UNL     1      45.602 132.585  16.220  1.00  0.00     0.080 A 
ATOM     19  N   UNL     1      46.174 130.286  16.359  1.00  0.00    -0.151 N 
ATOM     20  C   UNL     1      46.242 131.456  15.719  1.00  0.00     0.282 A 
ATOM     21  N   UNL     1      46.865 129.404  15.668  1.00  0.00    -0.166 N 
ATOM     22  N   UNL     1      46.977 131.378  14.591  1.00  0.00    -0.025 NA
ATOM     23  C   UNL     1      47.351 130.071  14.597  1.00  0.00     0.472 A 
ATOM     24  H   UNL     1      46.997 128.396  15.910  1.00  0.00     0.340 HD
ENDBRANCH  10  15
ENDBRANCH   3   5
ENDBRANCH   2   3
ENDBRANCH   1   2
BRANCH   1  25
ATOM     25  C   UNL     1      45.214 128.237  22.500  1.00  0.00     0.042 C 
BRANCH  25  26
ATOM     26  C   UNL     1      45.189 126.748  22.869  1.00  0.00     0.003 C 
BRANCH  26  27
ATOM     27  C   UNL     1      43.778 126.239  23.214  1.00  0.00    -0.000 C 
BRANCH  27  28
ATOM     28  C   UNL     1      43.266 126.644  24.607  1.00  0.00    -0.003 C 
ATOM     29  C   UNL     1      42.112 127.645  24.555  1.00  0.00     0.004 C 
ENDBRANCH  27  28
ENDBRANCH  26  27
ENDBRANCH  25  26
ENDBRANCH   1  25
TORSDOF 9
ENDMDL


