MODEL 1
REMARK VINA RESULT:      -9.8      0.000      0.000
REMARK SMILES O/C(=C\Cc1c(F)cc2ncccc2c1F)c1ccccc1
REMARK SMILES IDX 3 1 2 2 1 3 17 5 18 6 22 7 19 8 21 9 20 10 4 11 5 12 6 13
REMARK SMILES IDX 15 14 8 15 14 16 9 17 13 18 10 19 12 20 11 21 7 22 16 23
REMARK H PARENT 1 4
ROOT
ATOM      1  C   UNL     1      44.159 130.976  16.400  1.00  0.00     0.025 C 
ENDROOT
BRANCH   1   2
ATOM      2  C   UNL     1      44.401 131.055  15.084  1.00  0.00     0.119 C 
BRANCH   2   3
ATOM      3  O   UNL     1      43.409 131.554  14.237  1.00  0.00    -0.508 OA
ATOM      4  H   UNL     1      43.632 132.122  13.428  1.00  0.00     0.293 HD
ENDBRANCH   2   3
BRANCH   2   5
ATOM      5  C   UNL     1      45.708 130.632  14.521  1.00  0.00     0.016 A 
ATOM      6  C   UNL     1      46.320 129.451  14.976  1.00  0.00     0.012 A 
ATOM      7  C   UNL     1      46.363 131.404  13.540  1.00  0.00     0.012 A 
ATOM      8  C   UNL     1      47.554 129.046  14.458  1.00  0.00     0.001 A 
ATOM      9  C   UNL     1      47.598 130.996  13.027  1.00  0.00     0.001 A 
ATOM     10  C   UNL     1      48.192 129.818  13.484  1.00  0.00     0.000 A 
ENDBRANCH   2   5
ENDBRANCH   1   2
BRANCH   1  11
ATOM     11  C   UNL     1      44.597 132.057  17.349  1.00  0.00     0.073 C 
BRANCH  11  12
ATOM     12  C   UNL     1      44.636 131.544  18.766  1.00  0.00     0.028 A 
ATOM     13  C   UNL     1      45.614 130.608  19.155  1.00  0.00     0.131 A 
ATOM     14  C   UNL     1      43.656 131.948  19.694  1.00  0.00     0.139 A 
ATOM     15  C   UNL     1      45.633 130.105  20.459  1.00  0.00     0.068 A 
ATOM     16  C   UNL     1      43.675 131.442  21.006  1.00  0.00     0.036 A 
ATOM     17  C   UNL     1      44.672 130.517  21.386  1.00  0.00     0.076 A 
ATOM     18  C   UNL     1      42.719 131.830  21.957  1.00  0.00     0.015 A 
ATOM     19  N   UNL     1      44.695 130.022  22.654  1.00  0.00    -0.256 NA
ATOM     20  C   UNL     1      42.770 131.305  23.250  1.00  0.00     0.021 A 
ATOM     21  C   UNL     1      43.775 130.394  23.583  1.00  0.00     0.112 A 
ATOM     22  F   UNL     1      46.547 130.176  18.269  1.00  0.00    -0.206 F 
ATOM     23  F   UNL     1      42.687 132.824  19.317  1.00  0.00    -0.206 F 
ENDBRANCH  11  12
ENDBRANCH   1  11
TORSDOF 5
ENDMDL
MODEL 2
REMARK VINA RESULT:      -9.7      0.548      1.169
REMARK SMILES O/C(=C\Cc1c(F)cc2ncccc2c1F)c1ccccc1
REMARK SMILES IDX 3 1 2 2 1 3 17 5 18 6 22 7 19 8 21 9 20 10 4 11 5 12 6 13
REMARK SMILES IDX 15 14 8 15 14 16 9 17 13 18 10 19 12 20 11 21 7 22 16 23
REMARK H PARENT 1 4
ROOT
ATOM      1  C   UNL     1      44.073 130.750  16.128  1.00  0.00     0.025 C 
ENDROOT
BRANCH   1   2
ATOM      2  C   UNL     1      44.420 130.904  14.843  1.00  0.00     0.119 C 
BRANCH   2   3
ATOM      3  O   UNL     1      43.494 131.439  13.945  1.00  0.00    -0.508 OA
ATOM      4  H   UNL     1      43.741 131.657  12.986  1.00  0.00     0.293 HD
ENDBRANCH   2   3
BRANCH   2   5
ATOM      5  C   UNL     1      45.776 130.528  14.366  1.00  0.00     0.016 A 
ATOM      6  C   UNL     1      46.432 131.327  13.414  1.00  0.00     0.012 A 
ATOM      7  C   UNL     1      46.419 129.367  14.841  1.00  0.00     0.012 A 
ATOM      8  C   UNL     1      47.706 130.978  12.952  1.00  0.00     0.001 A 
ATOM      9  C   UNL     1      47.691 129.022  14.375  1.00  0.00     0.001 A 
ATOM     10  C   UNL     1      48.334 129.827  13.433  1.00  0.00     0.000 A 
ENDBRANCH   2   5
ENDBRANCH   1   2
BRANCH   1  11
ATOM     11  C   UNL     1      43.701 131.924  16.991  1.00  0.00     0.073 C 
BRANCH  11  12
ATOM     12  C   UNL     1      44.016 131.645  18.439  1.00  0.00     0.028 A 
ATOM     13  C   UNL     1      45.224 131.014  18.794  1.00  0.00     0.131 A 
ATOM     14  C   UNL     1      43.077 131.957  19.442  1.00  0.00     0.139 A 
ATOM     15  C   UNL     1      45.505 130.725  20.132  1.00  0.00     0.068 A 
ATOM     16  C   UNL     1      43.360 131.666  20.789  1.00  0.00     0.036 A 
ATOM     17  C   UNL     1      44.583 131.048  21.130  1.00  0.00     0.076 A 
ATOM     18  C   UNL     1      42.450 131.970  21.812  1.00  0.00     0.015 A 
ATOM     19  N   UNL     1      44.861 130.763  22.431  1.00  0.00    -0.256 NA
ATOM     20  C   UNL     1      42.766 131.666  23.138  1.00  0.00     0.021 A 
ATOM     21  C   UNL     1      43.988 131.057  23.431  1.00  0.00     0.112 A 
ATOM     22  F   UNL     1      46.129 130.673  17.842  1.00  0.00    -0.206 F 
ATOM     23  F   UNL     1      41.893 132.533  19.105  1.00  0.00    -0.206 F 
ENDBRANCH  11  12
ENDBRANCH   1  11
TORSDOF 5
ENDMDL
MODEL 3
REMARK VINA RESULT:      -9.6      1.157      2.054
REMARK SMILES O/C(=C\Cc1c(F)cc2ncccc2c1F)c1ccccc1
REMARK SMILES IDX 3 1 2 2 1 3 17 5 18 6 22 7 19 8 21 9 20 10 4 11 5 12 6 13
REMARK SMILES IDX 15 14 8 15 14 16 9 17 13 18 10 19 12 20 11 21 7 22 16 23
REMARK H PARENT 1 4
ROOT
ATOM      1  C   UNL     1      44.526 130.652  16.552  1.00  0.00     0.025 C 
ENDROOT
BRANCH   1   2
ATOM      2  C   UNL     1      44.704 130.961  15.260  1.00  0.00     0.119 C 
BRANCH   2   3
ATOM      3  O   UNL     1      43.699 131.648  14.577  1.00  0.00    -0.508 OA
ATOM      4  H   UNL     1      42.915 131.167  14.151  1.00  0.00     0.293 HD
ENDBRANCH   2   3
BRANCH   2   5
ATOM      5  C   UNL     1      45.958 130.594  14.552  1.00  0.00     0.016 A 
ATOM      6  C   UNL     1      46.605 129.382  14.854  1.00  0.00     0.012 A 
ATOM      7  C   UNL     1      46.527 131.448  13.587  1.00  0.00     0.012 A 
ATOM      8  C   UNL     1      47.790 129.029  14.199  1.00  0.00     0.001 A 
ATOM      9  C   UNL     1      47.712 131.092  12.937  1.00  0.00     0.001 A 
ATOM     10  C   UNL     1      48.342 129.884  13.242  1.00  0.00     0.000 A 
ENDBRANCH   2   5
ENDBRANCH   1   2
BRANCH   1  11
ATOM     11  C   UNL     1      45.315 131.325  17.640  1.00  0.00     0.073 C 
BRANCH  11  12
ATOM     12  C   UNL     1      44.475 131.502  18.880  1.00  0.00     0.028 A 
ATOM     13  C   UNL     1      43.164 132.008  18.783  1.00  0.00     0.131 A 
ATOM     14  C   UNL     1      45.017 131.223  20.150  1.00  0.00     0.139 A 
ATOM     15  C   UNL     1      42.394 132.203  19.933  1.00  0.00     0.068 A 
ATOM     16  C   UNL     1      44.242 131.419  21.307  1.00  0.00     0.036 A 
ATOM     17  C   UNL     1      42.923 131.911  21.192  1.00  0.00     0.076 A 
ATOM     18  C   UNL     1      44.749 131.144  22.586  1.00  0.00     0.015 A 
ATOM     19  N   UNL     1      42.169 132.105  22.308  1.00  0.00    -0.256 NA
ATOM     20  C   UNL     1      43.950 131.353  23.712  1.00  0.00     0.021 A 
ATOM     21  C   UNL     1      42.650 131.838  23.552  1.00  0.00     0.112 A 
ATOM     22  F   UNL     1      42.632 132.317  17.574  1.00  0.00    -0.206 F 
ATOM     23  F   UNL     1      46.294 130.769  20.256  1.00  0.00    -0.206 F 
ENDBRANCH  11  12
ENDBRANCH   1  11
TORSDOF 5
ENDMDL
MODEL 4
REMARK VINA RESULT:      -9.6      1.167      2.289
REMARK SMILES O/C(=C\Cc1c(F)cc2ncccc2c1F)c1ccccc1
REMARK SMILES IDX 3 1 2 2 1 3 17 5 18 6 22 7 19 8 21 9 20 10 4 11 5 12 6 13
REMARK SMILES IDX 15 14 8 15 14 16 9 17 13 18 10 19 12 20 11 21 7 22 16 23
REMARK H PARENT 1 4
ROOT
ATOM      1  C   UNL     1      44.613 130.627  16.550  1.00  0.00     0.025 C 
ENDROOT
BRANCH   1   2
ATOM      2  C   UNL     1      44.782 130.922  15.253  1.00  0.00     0.119 C 
BRANCH   2   3
ATOM      3  O   UNL     1      43.767 131.592  14.567  1.00  0.00    -0.508 OA
ATOM      4  H   UNL     1      43.872 131.879  13.601  1.00  0.00     0.293 HD
ENDBRANCH   2   3
BRANCH   2   5
ATOM      5  C   UNL     1      46.035 130.558  14.543  1.00  0.00     0.016 A 
ATOM      6  C   UNL     1      46.540 131.397  13.534  1.00  0.00     0.012 A 
ATOM      7  C   UNL     1      46.728 129.370  14.851  1.00  0.00     0.012 A 
ATOM      8  C   UNL     1      47.715 131.061  12.854  1.00  0.00     0.001 A 
ATOM      9  C   UNL     1      47.901 129.038  14.166  1.00  0.00     0.001 A 
ATOM     10  C   UNL     1      48.395 129.882  13.170  1.00  0.00     0.000 A 
ENDBRANCH   2   5
ENDBRANCH   1   2
BRANCH   1  11
ATOM     11  C   UNL     1      45.355 131.366  17.630  1.00  0.00     0.073 C 
BRANCH  11  12
ATOM     12  C   UNL     1      44.502 131.506  18.865  1.00  0.00     0.028 A 
ATOM     13  C   UNL     1      43.167 131.942  18.760  1.00  0.00     0.131 A 
ATOM     14  C   UNL     1      45.054 131.264  20.139  1.00  0.00     0.139 A 
ATOM     15  C   UNL     1      42.384 132.104  19.906  1.00  0.00     0.068 A 
ATOM     16  C   UNL     1      44.266 131.427  21.292  1.00  0.00     0.036 A 
ATOM     17  C   UNL     1      42.923 131.849  21.169  1.00  0.00     0.076 A 
ATOM     18  C   UNL     1      44.781 131.187  22.574  1.00  0.00     0.015 A 
ATOM     19  N   UNL     1      42.156 132.010  22.282  1.00  0.00    -0.256 NA
ATOM     20  C   UNL     1      43.968 131.361  23.696  1.00  0.00     0.021 A 
ATOM     21  C   UNL     1      42.646 131.777  23.528  1.00  0.00     0.112 A 
ATOM     22  F   UNL     1      42.625 132.216  17.547  1.00  0.00    -0.206 F 
ATOM     23  F   UNL     1      46.352 130.877  20.252  1.00  0.00    -0.206 F 
ENDBRANCH  11  12
ENDBRANCH   1  11
TORSDOF 5
ENDMDL
MODEL 5
REMARK VINA RESULT:      -9.4      1.512      2.286
REMARK SMILES O/C(=C\Cc1c(F)cc2ncccc2c1F)c1ccccc1
REMARK SMILES IDX 3 1 2 2 1 3 17 5 18 6 22 7 19 8 21 9 20 10 4 11 5 12 6 13
REMARK SMILES IDX 15 14 8 15 14 16 9 17 13 18 10 19 12 20 11 21 7 22 16 23
REMARK H PARENT 1 4
ROOT
ATOM      1  C   UNL     1      44.917 130.513  16.434  1.00  0.00     0.025 C 
ENDROOT
BRANCH   1   2
ATOM      2  C   UNL     1      45.393 129.573  15.605  1.00  0.00     0.119 C 
BRANCH   2   3
ATOM      3  O   UNL     1      44.906 128.268  15.701  1.00  0.00    -0.508 OA
ATOM      4  H   UNL     1      45.505 127.461  15.567  1.00  0.00     0.293 HD
ENDBRANCH   2   3
BRANCH   2   5
ATOM      5  C   UNL     1      46.417 129.904  14.581  1.00  0.00     0.016 A 
ATOM      6  C   UNL     1      47.587 129.130  14.483  1.00  0.00     0.012 A 
ATOM      7  C   UNL     1      46.248 130.996  13.707  1.00  0.00     0.012 A 
ATOM      8  C   UNL     1      48.562 129.437  13.528  1.00  0.00     0.001 A 
ATOM      9  C   UNL     1      47.226 131.299  12.756  1.00  0.00     0.001 A 
ATOM     10  C   UNL     1      48.381 130.520  12.665  1.00  0.00     0.000 A 
ENDBRANCH   2   5
ENDBRANCH   1   2
BRANCH   1  11
ATOM     11  C   UNL     1      45.691 130.964  17.642  1.00  0.00     0.073 C 
BRANCH  11  12
ATOM     12  C   UNL     1      44.765 131.240  18.799  1.00  0.00     0.028 A 
ATOM     13  C   UNL     1      43.494 131.804  18.572  1.00  0.00     0.131 A 
ATOM     14  C   UNL     1      45.188 130.995  20.120  1.00  0.00     0.139 A 
ATOM     15  C   UNL     1      42.646 132.092  19.645  1.00  0.00     0.068 A 
ATOM     16  C   UNL     1      44.334 131.285  21.200  1.00  0.00     0.036 A 
ATOM     17  C   UNL     1      43.057 131.834  20.955  1.00  0.00     0.076 A 
ATOM     18  C   UNL     1      44.721 131.046  22.527  1.00  0.00     0.015 A 
ATOM     19  N   UNL     1      42.227 132.118  21.996  1.00  0.00    -0.256 NA
ATOM     20  C   UNL     1      43.846 131.347  23.573  1.00  0.00     0.021 A 
ATOM     21  C   UNL     1      42.591 131.887  23.285  1.00  0.00     0.112 A 
ATOM     22  F   UNL     1      43.078 132.082  17.311  1.00  0.00    -0.206 F 
ATOM     23  F   UNL     1      46.426 130.485  20.351  1.00  0.00    -0.206 F 
ENDBRANCH  11  12
ENDBRANCH   1  11
TORSDOF 5
ENDMDL
MODEL 6
REMARK VINA RESULT:      -9.3      1.177      1.336
REMARK SMILES O/C(=C\Cc1c(F)cc2ncccc2c1F)c1ccccc1
REMARK SMILES IDX 3 1 2 2 1 3 17 5 18 6 22 7 19 8 21 9 20 10 4 11 5 12 6 13
REMARK SMILES IDX 15 14 8 15 14 16 9 17 13 18 10 19 12 20 11 21 7 22 16 23
REMARK H PARENT 1 4
ROOT
ATOM      1  C   UNL     1      44.206 130.477  15.550  1.00  0.00     0.025 C 
ENDROOT
BRANCH   1   2
ATOM      2  C   UNL     1      45.139 129.561  15.253  1.00  0.00     0.119 C 
BRANCH   2   3
ATOM      3  O   UNL     1      45.016 128.270  15.770  1.00  0.00    -0.508 OA
ATOM      4  H   UNL     1      44.319 128.035  16.466  1.00  0.00     0.293 HD
ENDBRANCH   2   3
BRANCH   2   5
ATOM      5  C   UNL     1      46.289 129.898  14.376  1.00  0.00     0.016 A 
ATOM      6  C   UNL     1      47.438 129.088  14.383  1.00  0.00     0.012 A 
ATOM      7  C   UNL     1      46.260 131.031  13.539  1.00  0.00     0.012 A 
ATOM      8  C   UNL     1      48.531 129.399  13.567  1.00  0.00     0.001 A 
ATOM      9  C   UNL     1      47.355 131.339  12.726  1.00  0.00     0.001 A 
ATOM     10  C   UNL     1      48.488 130.524  12.739  1.00  0.00     0.000 A 
ENDBRANCH   2   5
ENDBRANCH   1   2
BRANCH   1  11
ATOM     11  C   UNL     1      44.548 131.736  16.298  1.00  0.00     0.073 C 
BRANCH  11  12
ATOM     12  C   UNL     1      44.602 131.480  17.783  1.00  0.00     0.028 A 
ATOM     13  C   UNL     1      45.676 130.759  18.340  1.00  0.00     0.131 A 
ATOM     14  C   UNL     1      43.547 131.904  18.615  1.00  0.00     0.139 A 
ATOM     15  C   UNL     1      45.713 130.492  19.711  1.00  0.00     0.068 A 
ATOM     16  C   UNL     1      43.584 131.635  19.995  1.00  0.00     0.036 A 
ATOM     17  C   UNL     1      44.676 130.926  20.541  1.00  0.00     0.076 A 
ATOM     18  C   UNL     1      42.554 132.050  20.852  1.00  0.00     0.015 A 
ATOM     19  N   UNL     1      44.717 130.661  21.875  1.00  0.00    -0.256 NA
ATOM     20  C   UNL     1      42.626 131.763  22.217  1.00  0.00     0.021 A 
ATOM     21  C   UNL     1      43.726 131.061  22.715  1.00  0.00     0.112 A 
ATOM     22  F   UNL     1      46.686 130.310  17.554  1.00  0.00    -0.206 F 
ATOM     23  F   UNL     1      42.488 132.569  18.080  1.00  0.00    -0.206 F 
ENDBRANCH  11  12
ENDBRANCH   1  11
TORSDOF 5
ENDMDL
MODEL 7
REMARK VINA RESULT:      -9.2      1.360      2.755
REMARK SMILES O/C(=C\Cc1c(F)cc2ncccc2c1F)c1ccccc1
REMARK SMILES IDX 3 1 2 2 1 3 17 5 18 6 22 7 19 8 21 9 20 10 4 11 5 12 6 13
REMARK SMILES IDX 15 14 8 15 14 16 9 17 13 18 10 19 12 20 11 21 7 22 16 23
REMARK H PARENT 1 4
ROOT
ATOM      1  C   UNL     1      45.134 130.906  18.042  1.00  0.00     0.025 C 
ENDROOT
BRANCH   1   2
ATOM      2  C   UNL     1      44.843 131.181  16.763  1.00  0.00     0.119 C 
BRANCH   2   3
ATOM      3  O   UNL     1      43.633 131.806  16.457  1.00  0.00    -0.508 OA
ATOM      4  H   UNL     1      43.526 132.399  15.643  1.00  0.00     0.293 HD
ENDBRANCH   2   3
BRANCH   2   5
ATOM      5  C   UNL     1      45.794 130.843  15.673  1.00  0.00     0.016 A 
ATOM      6  C   UNL     1      46.342 131.864  14.877  1.00  0.00     0.012 A 
ATOM      7  C   UNL     1      46.150 129.506  15.405  1.00  0.00     0.012 A 
ATOM      8  C   UNL     1      47.232 131.557  13.843  1.00  0.00     0.001 A 
ATOM      9  C   UNL     1      47.039 129.204  14.369  1.00  0.00     0.001 A 
ATOM     10  C   UNL     1      47.580 130.228  13.590  1.00  0.00     0.000 A 
ENDBRANCH   2   5
ENDBRANCH   1   2
BRANCH   1  11
ATOM     11  C   UNL     1      45.090 131.967  19.107  1.00  0.00     0.073 C 
BRANCH  11  12
ATOM     12  C   UNL     1      44.374 131.464  20.335  1.00  0.00     0.028 A 
ATOM     13  C   UNL     1      43.174 132.069  20.753  1.00  0.00     0.131 A 
ATOM     14  C   UNL     1      44.934 130.428  21.108  1.00  0.00     0.139 A 
ATOM     15  C   UNL     1      42.524 131.627  21.909  1.00  0.00     0.068 A 
ATOM     16  C   UNL     1      44.281 129.983  22.271  1.00  0.00     0.036 A 
ATOM     17  C   UNL     1      43.068 130.589  22.669  1.00  0.00     0.076 A 
ATOM     18  C   UNL     1      44.807 128.949  23.059  1.00  0.00     0.015 A 
ATOM     19  N   UNL     1      42.432 130.164  23.794  1.00  0.00    -0.256 NA
ATOM     20  C   UNL     1      44.129 128.535  24.208  1.00  0.00     0.021 A 
ATOM     21  C   UNL     1      42.932 129.160  24.563  1.00  0.00     0.112 A 
ATOM     22  F   UNL     1      42.633 133.093  20.045  1.00  0.00    -0.206 F 
ATOM     23  F   UNL     1      46.111 129.862  20.731  1.00  0.00    -0.206 F 
ENDBRANCH  11  12
ENDBRANCH   1  11
TORSDOF 5
ENDMDL
MODEL 8
REMARK VINA RESULT:      -8.8      1.584      2.649
REMARK SMILES O/C(=C\Cc1c(F)cc2ncccc2c1F)c1ccccc1
REMARK SMILES IDX 3 1 2 2 1 3 17 5 18 6 22 7 19 8 21 9 20 10 4 11 5 12 6 13
REMARK SMILES IDX 15 14 8 15 14 16 9 17 13 18 10 19 12 20 11 21 7 22 16 23
REMARK H PARENT 1 4
ROOT
ATOM      1  C   UNL     1      44.538 130.467  16.327  1.00  0.00     0.025 C 
ENDROOT
BRANCH   1   2
ATOM      2  C   UNL     1      45.714 129.839  16.196  1.00  0.00     0.119 C 
BRANCH   2   3
ATOM      3  O   UNL     1      46.140 128.968  17.201  1.00  0.00    -0.508 OA
ATOM      4  H   UNL     1      46.291 127.981  17.027  1.00  0.00     0.293 HD
ENDBRANCH   2   3
BRANCH   2   5
ATOM      5  C   UNL     1      46.561 130.046  14.994  1.00  0.00     0.016 A 
ATOM      6  C   UNL     1      46.327 131.147  14.151  1.00  0.00     0.012 A 
ATOM      7  C   UNL     1      47.596 129.147  14.666  1.00  0.00     0.012 A 
ATOM      8  C   UNL     1      47.114 131.349  13.012  1.00  0.00     0.001 A 
ATOM      9  C   UNL     1      48.378 129.352  13.526  1.00  0.00     0.001 A 
ATOM     10  C   UNL     1      48.138 130.452  12.701  1.00  0.00     0.000 A 
ENDBRANCH   2   5
ENDBRANCH   1   2
BRANCH   1  11
ATOM     11  C   UNL     1      44.445 131.859  16.888  1.00  0.00     0.073 C 
BRANCH  11  12
ATOM     12  C   UNL     1      43.870 131.838  18.282  1.00  0.00     0.028 A 
ATOM     13  C   UNL     1      42.520 132.179  18.498  1.00  0.00     0.131 A 
ATOM     14  C   UNL     1      44.694 131.539  19.385  1.00  0.00     0.139 A 
ATOM     15  C   UNL     1      41.992 132.192  19.791  1.00  0.00     0.068 A 
ATOM     16  C   UNL     1      44.163 131.553  20.687  1.00  0.00     0.036 A 
ATOM     17  C   UNL     1      42.803 131.880  20.886  1.00  0.00     0.076 A 
ATOM     18  C   UNL     1      44.953 131.252  21.806  1.00  0.00     0.015 A 
ATOM     19  N   UNL     1      42.283 131.896  22.143  1.00  0.00    -0.256 NA
ATOM     20  C   UNL     1      44.390 131.277  23.084  1.00  0.00     0.021 A 
ATOM     21  C   UNL     1      43.041 131.604  23.234  1.00  0.00     0.112 A 
ATOM     22  F   UNL     1      41.716 132.504  17.455  1.00  0.00    -0.206 F 
ATOM     23  F   UNL     1      46.006 131.244  19.189  1.00  0.00    -0.206 F 
ENDBRANCH  11  12
ENDBRANCH   1  11
TORSDOF 5
ENDMDL
MODEL 9
REMARK VINA RESULT:      -8.7      1.085      1.509
REMARK SMILES O/C(=C\Cc1c(F)cc2ncccc2c1F)c1ccccc1
REMARK SMILES IDX 3 1 2 2 1 3 17 5 18 6 22 7 19 8 21 9 20 10 4 11 5 12 6 13
REMARK SMILES IDX 15 14 8 15 14 16 9 17 13 18 10 19 12 20 11 21 7 22 16 23
REMARK H PARENT 1 4
ROOT
ATOM      1  C   UNL     1      44.333 130.349  16.064  1.00  0.00     0.025 C 
ENDROOT
BRANCH   1   2
ATOM      2  C   UNL     1      45.125 129.457  15.454  1.00  0.00     0.119 C 
BRANCH   2   3
ATOM      3  O   UNL     1      44.897 128.093  15.653  1.00  0.00    -0.508 OA
ATOM      4  H   UNL     1      44.041 127.644  15.351  1.00  0.00     0.293 HD
ENDBRANCH   2   3
BRANCH   2   5
ATOM      5  C   UNL     1      46.229 129.897  14.564  1.00  0.00     0.016 A 
ATOM      6  C   UNL     1      46.010 130.922  13.627  1.00  0.00     0.012 A 
ATOM      7  C   UNL     1      47.502 129.293  14.627  1.00  0.00     0.012 A 
ATOM      8  C   UNL     1      47.040 131.340  12.779  1.00  0.00     0.001 A 
ATOM      9  C   UNL     1      48.527 129.713  13.775  1.00  0.00     0.001 A 
ATOM     10  C   UNL     1      48.297 130.736  12.853  1.00  0.00     0.000 A 
ENDBRANCH   2   5
ENDBRANCH   1   2
BRANCH   1  11
ATOM     11  C   UNL     1      44.899 131.528  16.807  1.00  0.00     0.073 C 
BRANCH  11  12
ATOM     12  C   UNL     1      44.832 131.306  18.296  1.00  0.00     0.028 A 
ATOM     13  C   UNL     1      45.808 130.520  18.940  1.00  0.00     0.131 A 
ATOM     14  C   UNL     1      43.760 131.830  19.045  1.00  0.00     0.139 A 
ATOM     15  C   UNL     1      45.731 130.285  20.316  1.00  0.00     0.068 A 
ATOM     16  C   UNL     1      43.683 131.593  20.429  1.00  0.00     0.036 A 
ATOM     17  C   UNL     1      44.677 130.817  21.063  1.00  0.00     0.076 A 
ATOM     18  C   UNL     1      42.632 132.106  21.204  1.00  0.00     0.015 A 
ATOM     19  N   UNL     1      44.607 130.583  22.402  1.00  0.00    -0.256 NA
ATOM     20  C   UNL     1      42.590 131.849  22.576  1.00  0.00     0.021 A 
ATOM     21  C   UNL     1      43.596 131.079  23.163  1.00  0.00     0.112 A 
ATOM     22  F   UNL     1      46.831 129.976  18.235  1.00  0.00    -0.206 F 
ATOM     23  F   UNL     1      42.794 132.559  18.425  1.00  0.00    -0.206 F 
ENDBRANCH  11  12
ENDBRANCH   1  11
TORSDOF 5
ENDMDL


