MODEL 1
REMARK VINA RESULT:      -8.9      0.000      0.000
REMARK SMILES Cn1nnc2cc(/N=C(\O)c3cc(F)c[nH]3)c(C=O)cc21
REMARK SMILES IDX 8 1 9 2 10 3 11 5 12 6 16 7 13 8 15 9 14 11 7 12 17 13 6 14
REMARK SMILES IDX 20 15 5 16 21 17 4 18 2 19 3 20 1 21 18 22 19 23
REMARK H PARENT 10 4 16 10
ROOT
ATOM      1  N   UNL     1      46.425 130.074  16.980  1.00  0.00    -0.212 NA
ENDROOT
BRANCH   1   2
ATOM      2  C   UNL     1      46.167 129.465  15.859  1.00  0.00     0.235 C 
BRANCH   2   3
ATOM      3  O   UNL     1      45.148 128.511  15.793  1.00  0.00    -0.492 OA
ATOM      4  H   UNL     1      45.051 127.770  16.473  1.00  0.00     0.295 HD
ENDBRANCH   2   3
BRANCH   2   5
ATOM      5  C   UNL     1      46.995 129.771  14.674  1.00  0.00     0.104 A 
ATOM      6  C   UNL     1      46.878 130.884  13.857  1.00  0.00     0.072 A 
ATOM      7  N   UNL     1      47.996 128.977  14.235  1.00  0.00    -0.355 N 
ATOM      8  C   UNL     1      47.852 130.742  12.893  1.00  0.00     0.141 A 
ATOM      9  C   UNL     1      48.523 129.566  13.147  1.00  0.00     0.122 A 
ATOM     10  H   UNL     1      48.311 128.074  14.654  1.00  0.00     0.166 HD
ATOM     11  F   UNL     1      48.106 131.603  11.878  1.00  0.00    -0.205 F 
ENDBRANCH   2   5
ENDBRANCH   1   2
BRANCH   1  12
ATOM     12  C   UNL     1      45.469 130.703  17.851  1.00  0.00     0.080 A 
ATOM     13  C   UNL     1      44.361 131.425  17.294  1.00  0.00     0.042 A 
ATOM     14  C   UNL     1      45.565 130.539  19.257  1.00  0.00     0.061 A 
ATOM     15  C   UNL     1      43.399 132.007  18.153  1.00  0.00     0.044 A 
ATOM     16  C   UNL     1      44.594 131.132  20.050  1.00  0.00     0.115 A 
ATOM     17  C   UNL     1      43.563 131.837  19.523  1.00  0.00     0.089 A 
ATOM     18  N   UNL     1      44.468 131.107  21.390  1.00  0.00    -0.130 NA
ATOM     19  N   UNL     1      42.803 132.256  20.545  1.00  0.00    -0.248 N 
ATOM     20  N   UNL     1      43.363 131.801  21.661  1.00  0.00    -0.066 NA
ATOM     21  C   UNL     1      41.562 133.016  20.484  1.00  0.00     0.176 C 
BRANCH  13  22
ATOM     22  C   UNL     1      44.178 131.606  15.835  1.00  0.00     0.262 C 
ATOM     23  O   UNL     1      43.064 131.914  15.336  1.00  0.00    -0.298 OA
ENDBRANCH  13  22
ENDBRANCH   1  12
TORSDOF 5
ENDMDL
MODEL 2
REMARK VINA RESULT:      -8.4      2.351      3.318
REMARK SMILES Cn1nnc2cc(/N=C(\O)c3cc(F)c[nH]3)c(C=O)cc21
REMARK SMILES IDX 8 1 9 2 10 3 11 5 12 6 16 7 13 8 15 9 14 11 7 12 17 13 6 14
REMARK SMILES IDX 20 15 5 16 21 17 4 18 2 19 3 20 1 21 18 22 19 23
REMARK H PARENT 10 4 16 10
ROOT
ATOM      1  N   UNL     1      44.917 132.010  18.462  1.00  0.00    -0.212 NA
ENDROOT
BRANCH   1   2
ATOM      2  C   UNL     1      44.491 131.642  17.289  1.00  0.00     0.235 C 
BRANCH   2   3
ATOM      3  O   UNL     1      43.122 131.513  17.044  1.00  0.00    -0.492 OA
ATOM      4  H   UNL     1      42.552 130.807  17.490  1.00  0.00     0.295 HD
ENDBRANCH   2   3
BRANCH   2   5
ATOM      5  C   UNL     1      45.481 131.325  16.238  1.00  0.00     0.104 A 
ATOM      6  C   UNL     1      46.079 130.095  16.018  1.00  0.00     0.072 A 
ATOM      7  N   UNL     1      45.931 132.227  15.339  1.00  0.00    -0.355 N 
ATOM      8  C   UNL     1      46.921 130.277  14.943  1.00  0.00     0.141 A 
ATOM      9  C   UNL     1      46.811 131.591  14.545  1.00  0.00     0.122 A 
ATOM     10  H   UNL     1      45.656 133.231  15.264  1.00  0.00     0.166 HD
ATOM     11  F   UNL     1      47.713 129.334  14.377  1.00  0.00    -0.205 F 
ENDBRANCH   2   5
ENDBRANCH   1   2
BRANCH   1  12
ATOM     12  C   UNL     1      44.549 131.432  19.726  1.00  0.00     0.080 A 
ATOM     13  C   UNL     1      43.358 131.872  20.394  1.00  0.00     0.042 A 
ATOM     14  C   UNL     1      45.309 130.367  20.275  1.00  0.00     0.061 A 
ATOM     15  C   UNL     1      42.975 131.272  21.616  1.00  0.00     0.044 A 
ATOM     16  C   UNL     1      44.887 129.817  21.477  1.00  0.00     0.115 A 
ATOM     17  C   UNL     1      43.777 130.253  22.119  1.00  0.00     0.089 A 
ATOM     18  N   UNL     1      45.431 128.805  22.178  1.00  0.00    -0.130 NA
ATOM     19  N   UNL     1      43.639 129.510  23.227  1.00  0.00    -0.248 N 
ATOM     20  N   UNL     1      44.644 128.640  23.241  1.00  0.00    -0.066 NA
ATOM     21  C   UNL     1      42.576 129.572  24.220  1.00  0.00     0.176 C 
BRANCH  13  22
ATOM     22  C   UNL     1      42.497 132.953  19.861  1.00  0.00     0.262 C 
ATOM     23  O   UNL     1      41.542 132.720  19.074  1.00  0.00    -0.298 OA
ENDBRANCH  13  22
ENDBRANCH   1  12
TORSDOF 5
ENDMDL
MODEL 3
REMARK VINA RESULT:      -8.3      2.493      3.453
REMARK SMILES Cn1nnc2cc(/N=C(\O)c3cc(F)c[nH]3)c(C=O)cc21
REMARK SMILES IDX 8 1 9 2 10 3 11 5 12 6 16 7 13 8 15 9 14 11 7 12 17 13 6 14
REMARK SMILES IDX 20 15 5 16 21 17 4 18 2 19 3 20 1 21 18 22 19 23
REMARK H PARENT 10 4 16 10
ROOT
ATOM      1  N   UNL     1      44.947 131.964  18.798  1.00  0.00    -0.212 NA
ENDROOT
BRANCH   1   2
ATOM      2  C   UNL     1      44.498 131.690  17.608  1.00  0.00     0.235 C 
BRANCH   2   3
ATOM      3  O   UNL     1      43.132 131.784  17.331  1.00  0.00    -0.492 OA
ATOM      4  H   UNL     1      42.434 131.264  17.845  1.00  0.00     0.295 HD
ENDBRANCH   2   3
BRANCH   2   5
ATOM      5  C   UNL     1      45.450 131.241  16.572  1.00  0.00     0.104 A 
ATOM      6  C   UNL     1      45.859 131.965  15.464  1.00  0.00     0.072 A 
ATOM      7  N   UNL     1      46.056 130.033  16.586  1.00  0.00    -0.355 N 
ATOM      8  C   UNL     1      46.744 131.150  14.792  1.00  0.00     0.141 A 
ATOM      9  C   UNL     1      46.847 129.972  15.500  1.00  0.00     0.122 A 
ATOM     10  H   UNL     1      45.939 129.280  17.299  1.00  0.00     0.166 HD
ATOM     11  F   UNL     1      47.396 131.451  13.643  1.00  0.00    -0.205 F 
ENDBRANCH   2   5
ENDBRANCH   1   2
BRANCH   1  12
ATOM     12  C   UNL     1      44.503 131.381  20.036  1.00  0.00     0.080 A 
ATOM     13  C   UNL     1      43.278 131.825  20.636  1.00  0.00     0.042 A 
ATOM     14  C   UNL     1      45.223 130.308  20.621  1.00  0.00     0.061 A 
ATOM     15  C   UNL     1      42.822 131.221  21.831  1.00  0.00     0.044 A 
ATOM     16  C   UNL     1      44.729 129.755  21.793  1.00  0.00     0.115 A 
ATOM     17  C   UNL     1      43.586 130.194  22.373  1.00  0.00     0.089 A 
ATOM     18  N   UNL     1      45.225 128.734  22.519  1.00  0.00    -0.130 NA
ATOM     19  N   UNL     1      43.381 129.446  23.466  1.00  0.00    -0.248 N 
ATOM     20  N   UNL     1      44.377 128.568  23.533  1.00  0.00    -0.066 NA
ATOM     21  C   UNL     1      42.262 129.510  24.398  1.00  0.00     0.176 C 
BRANCH  13  22
ATOM     22  C   UNL     1      42.456 132.916  20.061  1.00  0.00     0.262 C 
ATOM     23  O   UNL     1      41.356 133.260  20.566  1.00  0.00    -0.298 OA
ENDBRANCH  13  22
ENDBRANCH   1  12
TORSDOF 5
ENDMDL
MODEL 4
REMARK VINA RESULT:      -7.6      2.463      3.441
REMARK SMILES Cn1nnc2cc(/N=C(\O)c3cc(F)c[nH]3)c(C=O)cc21
REMARK SMILES IDX 8 1 9 2 10 3 11 5 12 6 16 7 13 8 15 9 14 11 7 12 17 13 6 14
REMARK SMILES IDX 20 15 5 16 21 17 4 18 2 19 3 20 1 21 18 22 19 23
REMARK H PARENT 10 4 16 10
ROOT
ATOM      1  N   UNL     1      44.813 131.680  18.787  1.00  0.00    -0.212 NA
ENDROOT
BRANCH   1   2
ATOM      2  C   UNL     1      45.458 130.913  17.956  1.00  0.00     0.235 C 
BRANCH   2   3
ATOM      3  O   UNL     1      46.362 129.961  18.432  1.00  0.00    -0.492 OA
ATOM      4  H   UNL     1      46.095 129.230  19.077  1.00  0.00     0.295 HD
ENDBRANCH   2   3
BRANCH   2   5
ATOM      5  C   UNL     1      45.245 131.096  16.506  1.00  0.00     0.104 A 
ATOM      6  C   UNL     1      46.185 130.897  15.507  1.00  0.00     0.072 A 
ATOM      7  N   UNL     1      44.072 131.491  15.965  1.00  0.00    -0.355 N 
ATOM      8  C   UNL     1      45.539 131.187  14.324  1.00  0.00     0.141 A 
ATOM      9  C   UNL     1      44.246 131.548  14.633  1.00  0.00     0.122 A 
ATOM     10  H   UNL     1      43.188 131.713  16.475  1.00  0.00     0.166 HD
ATOM     11  F   UNL     1      46.078 131.128  13.083  1.00  0.00    -0.205 F 
ENDBRANCH   2   5
ENDBRANCH   1   2
BRANCH   1  12
ATOM     12  C   UNL     1      44.326 131.311  20.089  1.00  0.00     0.080 A 
ATOM     13  C   UNL     1      43.081 131.844  20.564  1.00  0.00     0.042 A 
ATOM     14  C   UNL     1      45.025 130.355  20.870  1.00  0.00     0.061 A 
ATOM     15  C   UNL     1      42.584 131.447  21.828  1.00  0.00     0.044 A 
ATOM     16  C   UNL     1      44.490 130.004  22.101  1.00  0.00     0.115 A 
ATOM     17  C   UNL     1      43.329 130.530  22.560  1.00  0.00     0.089 A 
ATOM     18  N   UNL     1      44.960 129.123  23.005  1.00  0.00    -0.130 NA
ATOM     19  N   UNL     1      43.085 129.975  23.756  1.00  0.00    -0.248 N 
ATOM     20  N   UNL     1      44.078 129.126  24.003  1.00  0.00    -0.066 NA
ATOM     21  C   UNL     1      41.936 130.189  24.625  1.00  0.00     0.176 C 
BRANCH  13  22
ATOM     22  C   UNL     1      42.281 132.818  19.786  1.00  0.00     0.262 C 
ATOM     23  O   UNL     1      41.625 132.480  18.767  1.00  0.00    -0.298 OA
ENDBRANCH  13  22
ENDBRANCH   1  12
TORSDOF 5
ENDMDL
MODEL 5
REMARK VINA RESULT:      -7.6      4.112      7.215
REMARK SMILES Cn1nnc2cc(/N=C(\O)c3cc(F)c[nH]3)c(C=O)cc21
REMARK SMILES IDX 8 1 9 2 10 3 11 5 12 6 16 7 13 8 15 9 14 11 7 12 17 13 6 14
REMARK SMILES IDX 20 15 5 16 21 17 4 18 2 19 3 20 1 21 18 22 19 23
REMARK H PARENT 10 4 16 10
ROOT
ATOM      1  N   UNL     1      44.882 131.645  20.290  1.00  0.00    -0.212 NA
ENDROOT
BRANCH   1   2
ATOM      2  C   UNL     1      45.006 130.657  21.127  1.00  0.00     0.235 C 
BRANCH   2   3
ATOM      3  O   UNL     1      45.863 129.591  20.839  1.00  0.00    -0.492 OA
ATOM      4  H   UNL     1      45.956 129.203  19.911  1.00  0.00     0.295 HD
ENDBRANCH   2   3
BRANCH   2   5
ATOM      5  C   UNL     1      44.198 130.665  22.364  1.00  0.00     0.104 A 
ATOM      6  C   UNL     1      43.003 129.994  22.568  1.00  0.00     0.072 A 
ATOM      7  N   UNL     1      44.541 131.349  23.477  1.00  0.00    -0.355 N 
ATOM      8  C   UNL     1      42.622 130.295  23.858  1.00  0.00     0.141 A 
ATOM      9  C   UNL     1      43.582 131.126  24.393  1.00  0.00     0.122 A 
ATOM     10  H   UNL     1      45.389 131.943  23.614  1.00  0.00     0.166 HD
ATOM     11  F   UNL     1      41.507 129.852  24.487  1.00  0.00    -0.205 F 
ENDBRANCH   2   5
ENDBRANCH   1   2
BRANCH   1  12
ATOM     12  C   UNL     1      44.648 131.543  18.874  1.00  0.00     0.080 A 
ATOM     13  C   UNL     1      43.332 131.766  18.349  1.00  0.00     0.042 A 
ATOM     14  C   UNL     1      45.729 131.310  17.985  1.00  0.00     0.061 A 
ATOM     15  C   UNL     1      43.112 131.706  16.953  1.00  0.00     0.044 A 
ATOM     16  C   UNL     1      45.455 131.261  16.626  1.00  0.00     0.115 A 
ATOM     17  C   UNL     1      44.205 131.445  16.134  1.00  0.00     0.089 A 
ATOM     18  N   UNL     1      46.305 131.067  15.600  1.00  0.00    -0.130 NA
ATOM     19  N   UNL     1      44.285 131.356  14.799  1.00  0.00    -0.248 N 
ATOM     20  N   UNL     1      45.560 131.133  14.497  1.00  0.00    -0.066 NA
ATOM     21  C   UNL     1      43.214 131.523  13.825  1.00  0.00     0.176 C 
BRANCH  13  22
ATOM     22  C   UNL     1      42.164 132.049  19.217  1.00  0.00     0.262 C 
ATOM     23  O   UNL     1      42.052 133.130  19.852  1.00  0.00    -0.298 OA
ENDBRANCH  13  22
ENDBRANCH   1  12
TORSDOF 5
ENDMDL
MODEL 6
REMARK VINA RESULT:      -7.6      0.958      1.064
REMARK SMILES Cn1nnc2cc(/N=C(\O)c3cc(F)c[nH]3)c(C=O)cc21
REMARK SMILES IDX 8 1 9 2 10 3 11 5 12 6 16 7 13 8 15 9 14 11 7 12 17 13 6 14
REMARK SMILES IDX 20 15 5 16 21 17 4 18 2 19 3 20 1 21 18 22 19 23
REMARK H PARENT 10 4 16 10
ROOT
ATOM      1  N   UNL     1      45.940 131.184  17.003  1.00  0.00    -0.212 NA
ENDROOT
BRANCH   1   2
ATOM      2  C   UNL     1      46.026 130.099  16.289  1.00  0.00     0.235 C 
BRANCH   2   3
ATOM      3  O   UNL     1      45.413 128.920  16.721  1.00  0.00    -0.492 OA
ATOM      4  H   UNL     1      44.789 128.890  17.515  1.00  0.00     0.295 HD
ENDBRANCH   2   3
BRANCH   2   5
ATOM      5  C   UNL     1      46.814 130.129  15.040  1.00  0.00     0.104 A 
ATOM      6  C   UNL     1      46.657 131.021  13.992  1.00  0.00     0.072 A 
ATOM      7  N   UNL     1      47.813 129.261  14.764  1.00  0.00    -0.355 N 
ATOM      8  C   UNL     1      47.604 130.666  13.055  1.00  0.00     0.141 A 
ATOM      9  C   UNL     1      48.299 129.586  13.553  1.00  0.00     0.122 A 
ATOM     10  H   UNL     1      48.153 128.482  15.370  1.00  0.00     0.166 HD
ATOM     11  F   UNL     1      47.815 131.271  11.861  1.00  0.00    -0.205 F 
ENDBRANCH   2   5
ENDBRANCH   1   2
BRANCH   1  12
ATOM     12  C   UNL     1      45.206 131.345  18.229  1.00  0.00     0.080 A 
ATOM     13  C   UNL     1      43.820 131.713  18.189  1.00  0.00     0.042 A 
ATOM     14  C   UNL     1      45.820 131.056  19.475  1.00  0.00     0.061 A 
ATOM     15  C   UNL     1      43.089 131.829  19.395  1.00  0.00     0.044 A 
ATOM     16  C   UNL     1      45.055 131.188  20.625  1.00  0.00     0.115 A 
ATOM     17  C   UNL     1      43.754 131.563  20.586  1.00  0.00     0.089 A 
ATOM     18  N   UNL     1      45.409 130.963  21.904  1.00  0.00    -0.130 NA
ATOM     19  N   UNL     1      43.305 131.575  21.850  1.00  0.00    -0.248 N 
ATOM     20  N   UNL     1      44.317 131.206  22.628  1.00  0.00    -0.066 NA
ATOM     21  C   UNL     1      41.958 131.874  22.318  1.00  0.00     0.176 C 
BRANCH  13  22
ATOM     22  C   UNL     1      43.105 131.994  16.922  1.00  0.00     0.262 C 
ATOM     23  O   UNL     1      43.440 131.459  15.834  1.00  0.00    -0.298 OA
ENDBRANCH  13  22
ENDBRANCH   1  12
TORSDOF 5
ENDMDL
MODEL 7
REMARK VINA RESULT:      -7.4      0.871      1.038
REMARK SMILES Cn1nnc2cc(/N=C(\O)c3cc(F)c[nH]3)c(C=O)cc21
REMARK SMILES IDX 8 1 9 2 10 3 11 5 12 6 16 7 13 8 15 9 14 11 7 12 17 13 6 14
REMARK SMILES IDX 20 15 5 16 21 17 4 18 2 19 3 20 1 21 18 22 19 23
REMARK H PARENT 10 4 16 10
ROOT
ATOM      1  N   UNL     1      46.346 130.295  17.222  1.00  0.00    -0.212 NA
ENDROOT
BRANCH   1   2
ATOM      2  C   UNL     1      46.088 129.637  16.130  1.00  0.00     0.235 C 
BRANCH   2   3
ATOM      3  O   UNL     1      45.099 128.650  16.119  1.00  0.00    -0.492 OA
ATOM      4  H   UNL     1      44.123 128.854  16.284  1.00  0.00     0.295 HD
ENDBRANCH   2   3
BRANCH   2   5
ATOM      5  C   UNL     1      46.883 129.925  14.919  1.00  0.00     0.104 A 
ATOM      6  C   UNL     1      47.699 129.033  14.241  1.00  0.00     0.072 A 
ATOM      7  N   UNL     1      46.907 131.130  14.309  1.00  0.00    -0.355 N 
ATOM      8  C   UNL     1      48.230 129.742  13.185  1.00  0.00     0.141 A 
ATOM      9  C   UNL     1      47.729 131.024  13.249  1.00  0.00     0.122 A 
ATOM     10  H   UNL     1      46.390 131.991  14.597  1.00  0.00     0.166 HD
ATOM     11  F   UNL     1      49.088 129.265  12.252  1.00  0.00    -0.205 F 
ENDBRANCH   2   5
ENDBRANCH   1   2
BRANCH   1  12
ATOM     12  C   UNL     1      45.384 130.864  18.127  1.00  0.00     0.080 A 
ATOM     13  C   UNL     1      44.247 131.571  17.609  1.00  0.00     0.042 A 
ATOM     14  C   UNL     1      45.504 130.655  19.525  1.00  0.00     0.061 A 
ATOM     15  C   UNL     1      43.279 132.093  18.499  1.00  0.00     0.044 A 
ATOM     16  C   UNL     1      44.526 131.191  20.350  1.00  0.00     0.115 A 
ATOM     17  C   UNL     1      43.468 131.882  19.860  1.00  0.00     0.089 A 
ATOM     18  N   UNL     1      44.419 131.117  21.690  1.00  0.00    -0.130 NA
ATOM     19  N   UNL     1      42.709 132.242  20.905  1.00  0.00    -0.248 N 
ATOM     20  N   UNL     1      43.298 131.767  21.999  1.00  0.00    -0.066 NA
ATOM     21  C   UNL     1      41.444 132.964  20.887  1.00  0.00     0.176 C 
BRANCH  13  22
ATOM     22  C   UNL     1      44.039 131.795  16.159  1.00  0.00     0.262 C 
ATOM     23  O   UNL     1      42.888 131.885  15.657  1.00  0.00    -0.298 OA
ENDBRANCH  13  22
ENDBRANCH   1  12
TORSDOF 5
ENDMDL
MODEL 8
REMARK VINA RESULT:      -7.3      2.840      3.808
REMARK SMILES Cn1nnc2cc(/N=C(\O)c3cc(F)c[nH]3)c(C=O)cc21
REMARK SMILES IDX 8 1 9 2 10 3 11 5 12 6 16 7 13 8 15 9 14 11 7 12 17 13 6 14
REMARK SMILES IDX 20 15 5 16 21 17 4 18 2 19 3 20 1 21 18 22 19 23
REMARK H PARENT 10 4 16 10
ROOT
ATOM      1  N   UNL     1      45.066 131.663  19.028  1.00  0.00    -0.212 NA
ENDROOT
BRANCH   1   2
ATOM      2  C   UNL     1      45.529 130.903  18.078  1.00  0.00     0.235 C 
BRANCH   2   3
ATOM      3  O   UNL     1      46.419 129.868  18.373  1.00  0.00    -0.492 OA
ATOM      4  H   UNL     1      46.699 129.178  17.689  1.00  0.00     0.295 HD
ENDBRANCH   2   3
BRANCH   2   5
ATOM      5  C   UNL     1      45.128 131.182  16.683  1.00  0.00     0.104 A 
ATOM      6  C   UNL     1      43.837 131.398  16.228  1.00  0.00     0.072 A 
ATOM      7  N   UNL     1      46.001 131.261  15.655  1.00  0.00    -0.355 N 
ATOM      8  C   UNL     1      43.952 131.615  14.872  1.00  0.00     0.141 A 
ATOM      9  C   UNL     1      45.288 131.526  14.547  1.00  0.00     0.122 A 
ATOM     10  H   UNL     1      47.038 131.142  15.701  1.00  0.00     0.166 HD
ATOM     11  F   UNL     1      42.936 131.870  14.013  1.00  0.00    -0.205 F 
ENDBRANCH   2   5
ENDBRANCH   1   2
BRANCH   1  12
ATOM     12  C   UNL     1      44.503 131.224  20.276  1.00  0.00     0.080 A 
ATOM     13  C   UNL     1      43.220 131.712  20.693  1.00  0.00     0.042 A 
ATOM     14  C   UNL     1      45.169 130.244  21.056  1.00  0.00     0.061 A 
ATOM     15  C   UNL     1      42.650 131.246  21.901  1.00  0.00     0.044 A 
ATOM     16  C   UNL     1      44.563 129.825  22.232  1.00  0.00     0.115 A 
ATOM     17  C   UNL     1      43.364 130.308  22.637  1.00  0.00     0.089 A 
ATOM     18  N   UNL     1      44.990 128.909  23.121  1.00  0.00    -0.130 NA
ATOM     19  N   UNL     1      43.054 129.692  23.787  1.00  0.00    -0.248 N 
ATOM     20  N   UNL     1      44.045 128.849  24.059  1.00  0.00    -0.066 NA
ATOM     21  C   UNL     1      41.846 129.844  24.587  1.00  0.00     0.176 C 
BRANCH  13  22
ATOM     22  C   UNL     1      42.452 132.709  19.910  1.00  0.00     0.262 C 
ATOM     23  O   UNL     1      41.414 133.257  20.364  1.00  0.00    -0.298 OA
ENDBRANCH  13  22
ENDBRANCH   1  12
TORSDOF 5
ENDMDL
MODEL 9
REMARK VINA RESULT:      -7.2      1.542      2.542
REMARK SMILES Cn1nnc2cc(/N=C(\O)c3cc(F)c[nH]3)c(C=O)cc21
REMARK SMILES IDX 8 1 9 2 10 3 11 5 12 6 16 7 13 8 15 9 14 11 7 12 17 13 6 14
REMARK SMILES IDX 20 15 5 16 21 17 4 18 2 19 3 20 1 21 18 22 19 23
REMARK H PARENT 10 4 16 10
ROOT
ATOM      1  N   UNL     1      46.135 130.129  16.964  1.00  0.00    -0.212 NA
ENDROOT
BRANCH   1   2
ATOM      2  C   UNL     1      46.001 129.474  15.847  1.00  0.00     0.235 C 
BRANCH   2   3
ATOM      3  O   UNL     1      45.060 128.447  15.740  1.00  0.00    -0.492 OA
ATOM      4  H   UNL     1      44.453 128.182  16.504  1.00  0.00     0.295 HD
ENDBRANCH   2   3
BRANCH   2   5
ATOM      5  C   UNL     1      46.886 129.810  14.713  1.00  0.00     0.104 A 
ATOM      6  C   UNL     1      46.818 130.951  13.929  1.00  0.00     0.072 A 
ATOM      7  N   UNL     1      47.899 129.020  14.295  1.00  0.00    -0.355 N 
ATOM      8  C   UNL     1      47.835 130.830  13.006  1.00  0.00     0.141 A 
ATOM      9  C   UNL     1      48.482 129.639  13.253  1.00  0.00     0.122 A 
ATOM     10  H   UNL     1      48.186 128.100  14.697  1.00  0.00     0.166 HD
ATOM     11  F   UNL     1      48.144 131.721  12.034  1.00  0.00    -0.205 F 
ENDBRANCH   2   5
ENDBRANCH   1   2
BRANCH   1  12
ATOM     12  C   UNL     1      45.079 130.724  17.738  1.00  0.00     0.080 A 
ATOM     13  C   UNL     1      45.203 130.814  19.165  1.00  0.00     0.042 A 
ATOM     14  C   UNL     1      43.956 131.302  17.093  1.00  0.00     0.061 A 
ATOM     15  C   UNL     1      44.183 131.438  19.921  1.00  0.00     0.044 A 
ATOM     16  C   UNL     1      42.986 131.899  17.885  1.00  0.00     0.115 A 
ATOM     17  C   UNL     1      43.092 131.959  19.234  1.00  0.00     0.089 A 
ATOM     18  N   UNL     1      41.851 132.516  17.506  1.00  0.00    -0.130 NA
ATOM     19  N   UNL     1      42.012 132.610  19.691  1.00  0.00    -0.248 N 
ATOM     20  N   UNL     1      41.279 132.941  18.632  1.00  0.00    -0.066 NA
ATOM     21  C   UNL     1      41.694 132.959  21.068  1.00  0.00     0.176 C 
BRANCH  13  22
ATOM     22  C   UNL     1      46.366 130.265  19.902  1.00  0.00     0.262 C 
ATOM     23  O   UNL     1      46.227 129.549  20.928  1.00  0.00    -0.298 OA
ENDBRANCH  13  22
ENDBRANCH   1  12
TORSDOF 5
ENDMDL


