MODEL 1
REMARK VINA RESULT:      -8.5      0.000      0.000
REMARK SMILES [N-]=[N+]=Nc1[nH+]ccc2ccc(-c3cccc([C@H]4CO4)c3)cc12
REMARK SMILES IDX 11 1 10 2 9 3 8 4 7 5 6 6 5 7 4 9 22 10 21 11 12 12 14 13
REMARK SMILES IDX 13 14 15 15 16 16 20 17 17 18 19 19 18 20 3 21 2 22 1 23
REMARK H PARENT 5 8
ROOT
ATOM      1  C   UNL     1      45.007 131.032  18.339  1.00  0.00    -0.018 A 
ATOM      2  C   UNL     1      45.973 130.327  19.076  1.00  0.00     0.009 A 
ATOM      3  C   UNL     1      45.877 130.232  20.466  1.00  0.00     0.009 A 
ATOM      4  C   UNL     1      44.812 130.840  21.145  1.00  0.00    -0.011 A 
ATOM      5  C   UNL     1      44.714 130.747  22.537  1.00  0.00     0.052 A 
ATOM      6  C   UNL     1      43.647 131.357  23.192  1.00  0.00     0.194 A 
ATOM      7  N   UNL     1      42.707 132.041  22.487  1.00  0.00    -0.279 N 
ATOM      8  H   UNL     1      41.925 132.481  23.021  1.00  0.00     0.308 HD
ATOM      9  C   UNL     1      42.765 132.156  21.126  1.00  0.00     0.193 A 
ATOM     10  C   UNL     1      43.830 131.553  20.420  1.00  0.00     0.031 A 
ATOM     11  C   UNL     1      43.937 131.642  19.019  1.00  0.00     0.021 A 
ENDROOT
BRANCH   1  12
ATOM     12  C   UNL     1      45.114 131.131  16.861  1.00  0.00    -0.018 A 
ATOM     13  C   UNL     1      44.081 131.507  14.689  1.00  0.00     0.001 A 
ATOM     14  C   UNL     1      43.980 131.421  16.081  1.00  0.00     0.009 A 
ATOM     15  C   UNL     1      45.312 131.312  14.062  1.00  0.00     0.006 A 
ATOM     16  C   UNL     1      46.456 131.040  14.823  1.00  0.00    -0.016 A 
ATOM     17  C   UNL     1      46.351 130.935  16.219  1.00  0.00     0.015 A 
BRANCH  16  18
ATOM     18  C   UNL     1      47.770 130.793  14.143  1.00  0.00     0.174 C 
ATOM     19  O   UNL     1      47.598 130.414  12.796  1.00  0.00    -0.368 OA
ATOM     20  C   UNL     1      48.016 129.405  13.685  1.00  0.00     0.198 C 
ENDBRANCH  16  18
ENDBRANCH   1  12
BRANCH   9  21
ATOM     21  N   UNL     1      41.755 132.886  20.411  1.00  0.00    -0.017 NA
BRANCH  21  22
ATOM     22  N   UNL     1      41.565 132.732  19.204  1.00  0.00     0.009 N 
ATOM     23  N   UNL     1      41.373 132.581  17.998  1.00  0.00    -0.003 NA
ENDBRANCH  21  22
ENDBRANCH   9  21
TORSDOF 4
ENDMDL
MODEL 2
REMARK VINA RESULT:      -8.3      0.681      1.059
REMARK SMILES [N-]=[N+]=Nc1[nH+]ccc2ccc(-c3cccc([C@H]4CO4)c3)cc12
REMARK SMILES IDX 11 1 10 2 9 3 8 4 7 5 6 6 5 7 4 9 22 10 21 11 12 12 14 13
REMARK SMILES IDX 13 14 15 15 16 16 20 17 17 18 19 19 18 20 3 21 2 22 1 23
REMARK H PARENT 5 8
ROOT
ATOM      1  C   UNL     1      44.929 131.068  18.214  1.00  0.00    -0.018 A 
ATOM      2  C   UNL     1      45.934 130.345  18.879  1.00  0.00     0.009 A 
ATOM      3  C   UNL     1      45.905 130.200  20.268  1.00  0.00     0.009 A 
ATOM      4  C   UNL     1      44.869 130.774  21.017  1.00  0.00    -0.011 A 
ATOM      5  C   UNL     1      44.838 130.630  22.408  1.00  0.00     0.052 A 
ATOM      6  C   UNL     1      43.799 131.207  23.134  1.00  0.00     0.194 A 
ATOM      7  N   UNL     1      42.821 131.907  22.500  1.00  0.00    -0.279 N 
ATOM      8  H   UNL     1      42.062 132.321  23.086  1.00  0.00     0.308 HD
ATOM      9  C   UNL     1      42.814 132.072  21.143  1.00  0.00     0.193 A 
ATOM     10  C   UNL     1      43.848 131.503  20.366  1.00  0.00     0.031 A 
ATOM     11  C   UNL     1      43.888 131.644  18.966  1.00  0.00     0.021 A 
ENDROOT
BRANCH   1  12
ATOM     12  C   UNL     1      44.966 131.221  16.738  1.00  0.00    -0.018 A 
ATOM     13  C   UNL     1      43.811 131.530  14.617  1.00  0.00     0.001 A 
ATOM     14  C   UNL     1      43.775 131.393  16.008  1.00  0.00     0.009 A 
ATOM     15  C   UNL     1      45.031 131.503  13.941  1.00  0.00     0.006 A 
ATOM     16  C   UNL     1      46.228 131.349  14.652  1.00  0.00    -0.016 A 
ATOM     17  C   UNL     1      46.191 131.194  16.046  1.00  0.00     0.015 A 
BRANCH  16  18
ATOM     18  C   UNL     1      47.535 131.282  13.917  1.00  0.00     0.174 C 
ATOM     19  O   UNL     1      47.356 130.919  12.567  1.00  0.00    -0.368 OA
ATOM     20  C   UNL     1      47.928 129.947  13.409  1.00  0.00     0.198 C 
ENDBRANCH  16  18
ENDBRANCH   1  12
BRANCH   9  21
ATOM     21  N   UNL     1      41.766 132.817  20.502  1.00  0.00    -0.017 NA
BRANCH  21  22
ATOM     22  N   UNL     1      40.874 133.376  21.141  1.00  0.00     0.009 N 
ATOM     23  N   UNL     1      39.984 133.936  21.781  1.00  0.00    -0.003 NA
ENDBRANCH  21  22
ENDBRANCH   9  21
TORSDOF 4
ENDMDL
MODEL 3
REMARK VINA RESULT:      -8.1      2.074      2.925
REMARK SMILES [N-]=[N+]=Nc1[nH+]ccc2ccc(-c3cccc([C@H]4CO4)c3)cc12
REMARK SMILES IDX 11 1 10 2 9 3 8 4 7 5 6 6 5 7 4 9 22 10 21 11 12 12 14 13
REMARK SMILES IDX 13 14 15 15 16 16 20 17 17 18 19 19 18 20 3 21 2 22 1 23
REMARK H PARENT 5 8
ROOT
ATOM      1  C   UNL     1      43.901 131.563  17.920  1.00  0.00    -0.018 A 
ATOM      2  C   UNL     1      42.528 131.537  18.221  1.00  0.00     0.009 A 
ATOM      3  C   UNL     1      42.088 131.642  19.542  1.00  0.00     0.009 A 
ATOM      4  C   UNL     1      43.012 131.775  20.587  1.00  0.00    -0.011 A 
ATOM      5  C   UNL     1      42.574 131.880  21.911  1.00  0.00     0.052 A 
ATOM      6  C   UNL     1      43.509 132.012  22.935  1.00  0.00     0.194 A 
ATOM      7  N   UNL     1      44.839 132.039  22.654  1.00  0.00    -0.279 N 
ATOM      8  H   UNL     1      45.502 132.141  23.454  1.00  0.00     0.308 HD
ATOM      9  C   UNL     1      45.310 131.940  21.374  1.00  0.00     0.193 A 
ATOM     10  C   UNL     1      44.397 131.804  20.304  1.00  0.00     0.031 A 
ATOM     11  C   UNL     1      44.829 131.697  18.968  1.00  0.00     0.021 A 
ENDROOT
BRANCH   1  12
ATOM     12  C   UNL     1      44.364 131.449  16.514  1.00  0.00    -0.018 A 
ATOM     13  C   UNL     1      43.911 131.567  14.125  1.00  0.00     0.001 A 
ATOM     14  C   UNL     1      43.475 131.681  15.448  1.00  0.00     0.009 A 
ATOM     15  C   UNL     1      45.236 131.227  13.850  1.00  0.00     0.006 A 
ATOM     16  C   UNL     1      46.141 131.010  14.898  1.00  0.00    -0.016 A 
ATOM     17  C   UNL     1      45.699 131.106  16.226  1.00  0.00     0.015 A 
BRANCH  16  18
ATOM     18  C   UNL     1      47.555 130.607  14.598  1.00  0.00     0.174 C 
ATOM     19  O   UNL     1      47.774 130.461  13.213  1.00  0.00    -0.368 OA
ATOM     20  C   UNL     1      47.734 129.277  13.973  1.00  0.00     0.198 C 
ENDBRANCH  16  18
ENDBRANCH   1  12
BRANCH   9  21
ATOM     21  N   UNL     1      46.722 131.971  21.110  1.00  0.00    -0.017 NA
BRANCH  21  22
ATOM     22  N   UNL     1      47.442 132.891  21.500  1.00  0.00     0.009 N 
ATOM     23  N   UNL     1      48.160 133.810  21.892  1.00  0.00    -0.003 NA
ENDBRANCH  21  22
ENDBRANCH   9  21
TORSDOF 4
ENDMDL
MODEL 4
REMARK VINA RESULT:      -7.8      2.136      3.029
REMARK SMILES [N-]=[N+]=Nc1[nH+]ccc2ccc(-c3cccc([C@H]4CO4)c3)cc12
REMARK SMILES IDX 11 1 10 2 9 3 8 4 7 5 6 6 5 7 4 9 22 10 21 11 12 12 14 13
REMARK SMILES IDX 13 14 15 15 16 16 20 17 17 18 19 19 18 20 3 21 2 22 1 23
REMARK H PARENT 5 8
ROOT
ATOM      1  C   UNL     1      43.694 131.649  18.363  1.00  0.00    -0.018 A 
ATOM      2  C   UNL     1      42.624 132.519  18.633  1.00  0.00     0.009 A 
ATOM      3  C   UNL     1      42.161 132.692  19.939  1.00  0.00     0.009 A 
ATOM      4  C   UNL     1      42.758 131.998  20.999  1.00  0.00    -0.011 A 
ATOM      5  C   UNL     1      42.295 132.168  22.308  1.00  0.00     0.052 A 
ATOM      6  C   UNL     1      42.904 131.470  23.348  1.00  0.00     0.194 A 
ATOM      7  N   UNL     1      43.940 130.627  23.097  1.00  0.00    -0.279 N 
ATOM      8  H   UNL     1      44.365 130.125  23.908  1.00  0.00     0.308 HD
ATOM      9  C   UNL     1      44.424 130.431  21.833  1.00  0.00     0.193 A 
ATOM     10  C   UNL     1      43.836 131.118  20.748  1.00  0.00     0.031 A 
ATOM     11  C   UNL     1      44.296 130.952  19.427  1.00  0.00     0.021 A 
ENDROOT
BRANCH   1  12
ATOM     12  C   UNL     1      44.183 131.468  16.973  1.00  0.00    -0.018 A 
ATOM     13  C   UNL     1      43.818 131.612  14.570  1.00  0.00     0.001 A 
ATOM     14  C   UNL     1      43.359 131.790  15.879  1.00  0.00     0.009 A 
ATOM     15  C   UNL     1      45.103 131.117  14.339  1.00  0.00     0.006 A 
ATOM     16  C   UNL     1      45.944 130.807  15.415  1.00  0.00    -0.016 A 
ATOM     17  C   UNL     1      45.476 130.969  16.729  1.00  0.00     0.015 A 
BRANCH  16  18
ATOM     18  C   UNL     1      47.310 130.240  15.163  1.00  0.00     0.174 C 
ATOM     19  O   UNL     1      47.756 130.517  13.854  1.00  0.00    -0.368 OA
ATOM     20  C   UNL     1      47.395 129.184  14.127  1.00  0.00     0.198 C 
ENDBRANCH  16  18
ENDBRANCH   1  12
BRANCH   9  21
ATOM     21  N   UNL     1      45.521 129.532  21.601  1.00  0.00    -0.017 NA
BRANCH  21  22
ATOM     22  N   UNL     1      45.453 128.332  21.866  1.00  0.00     0.009 N 
ATOM     23  N   UNL     1      45.388 127.132  22.130  1.00  0.00    -0.003 NA
ENDBRANCH  21  22
ENDBRANCH   9  21
TORSDOF 4
ENDMDL
MODEL 5
REMARK VINA RESULT:      -7.3      2.598      3.376
REMARK SMILES [N-]=[N+]=Nc1[nH+]ccc2ccc(-c3cccc([C@H]4CO4)c3)cc12
REMARK SMILES IDX 11 1 10 2 9 3 8 4 7 5 6 6 5 7 4 9 22 10 21 11 12 12 14 13
REMARK SMILES IDX 13 14 15 15 16 16 20 17 17 18 19 19 18 20 3 21 2 22 1 23
REMARK H PARENT 5 8
ROOT
ATOM      1  C   UNL     1      43.731 131.459  19.400  1.00  0.00    -0.018 A 
ATOM      2  C   UNL     1      42.852 132.453  19.861  1.00  0.00     0.009 A 
ATOM      3  C   UNL     1      42.516 132.533  21.215  1.00  0.00     0.009 A 
ATOM      4  C   UNL     1      43.055 131.621  22.132  1.00  0.00    -0.011 A 
ATOM      5  C   UNL     1      42.720 131.699  23.488  1.00  0.00     0.052 A 
ATOM      6  C   UNL     1      43.267 130.784  24.384  1.00  0.00     0.194 A 
ATOM      7  N   UNL     1      44.120 129.819  23.948  1.00  0.00    -0.279 N 
ATOM      8  H   UNL     1      44.506 129.156  24.656  1.00  0.00     0.308 HD
ATOM      9  C   UNL     1      44.473 129.707  22.632  1.00  0.00     0.193 A 
ATOM     10  C   UNL     1      43.942 130.615  21.688  1.00  0.00     0.031 A 
ATOM     11  C   UNL     1      44.273 130.543  20.321  1.00  0.00     0.021 A 
ENDROOT
BRANCH   1  12
ATOM     12  C   UNL     1      44.083 131.376  17.960  1.00  0.00    -0.018 A 
ATOM     13  C   UNL     1      43.519 131.753  15.623  1.00  0.00     0.001 A 
ATOM     14  C   UNL     1      43.189 131.838  16.978  1.00  0.00     0.009 A 
ATOM     15  C   UNL     1      44.745 131.213  15.232  1.00  0.00     0.006 A 
ATOM     16  C   UNL     1      45.656 130.762  16.196  1.00  0.00    -0.016 A 
ATOM     17  C   UNL     1      45.317 130.831  17.556  1.00  0.00     0.015 A 
BRANCH  16  18
ATOM     18  C   UNL     1      46.957 130.147  15.770  1.00  0.00     0.174 C 
ATOM     19  O   UNL     1      47.390 130.649  14.526  1.00  0.00    -0.368 OA
ATOM     20  C   UNL     1      46.915 129.324  14.539  1.00  0.00     0.198 C 
ENDBRANCH  16  18
ENDBRANCH   1  12
BRANCH   9  21
ATOM     21  N   UNL     1      45.378 128.676  22.202  1.00  0.00    -0.017 NA
BRANCH  21  22
ATOM     22  N   UNL     1      45.129 127.480  22.355  1.00  0.00     0.009 N 
ATOM     23  N   UNL     1      44.881 126.284  22.505  1.00  0.00    -0.003 NA
ENDBRANCH  21  22
ENDBRANCH   9  21
TORSDOF 4
ENDMDL
MODEL 6
REMARK VINA RESULT:      -6.7      5.372      7.219
REMARK SMILES [N-]=[N+]=Nc1[nH+]ccc2ccc(-c3cccc([C@H]4CO4)c3)cc12
REMARK SMILES IDX 11 1 10 2 9 3 8 4 7 5 6 6 5 7 4 9 22 10 21 11 12 12 14 13
REMARK SMILES IDX 13 14 15 15 16 16 20 17 17 18 19 19 18 20 3 21 2 22 1 23
REMARK H PARENT 5 8
ROOT
ATOM      1  C   UNL     1      44.810 126.841  22.897  1.00  0.00    -0.018 A 
ATOM      2  C   UNL     1      43.866 126.878  23.937  1.00  0.00     0.009 A 
ATOM      3  C   UNL     1      43.219 128.071  24.268  1.00  0.00     0.009 A 
ATOM      4  C   UNL     1      43.504 129.249  23.564  1.00  0.00    -0.011 A 
ATOM      5  C   UNL     1      42.858 130.444  23.894  1.00  0.00     0.052 A 
ATOM      6  C   UNL     1      43.155 131.604  23.181  1.00  0.00     0.194 A 
ATOM      7  N   UNL     1      44.065 131.577  22.172  1.00  0.00    -0.279 N 
ATOM      8  H   UNL     1      44.255 132.471  21.666  1.00  0.00     0.308 HD
ATOM      9  C   UNL     1      44.720 130.430  21.818  1.00  0.00     0.193 A 
ATOM     10  C   UNL     1      44.450 129.231  22.514  1.00  0.00     0.031 A 
ATOM     11  C   UNL     1      45.096 128.023  22.190  1.00  0.00     0.021 A 
ENDROOT
BRANCH   1  12
ATOM     12  C   UNL     1      45.496 125.571  22.551  1.00  0.00    -0.018 A 
ATOM     13  C   UNL     1      45.436 123.160  22.218  1.00  0.00     0.001 A 
ATOM     14  C   UNL     1      44.787 124.356  22.538  1.00  0.00     0.009 A 
ATOM     15  C   UNL     1      46.796 123.162  21.903  1.00  0.00     0.006 A 
ATOM     16  C   UNL     1      47.515 124.365  21.893  1.00  0.00    -0.016 A 
ATOM     17  C   UNL     1      46.868 125.563  22.232  1.00  0.00     0.015 A 
BRANCH  16  18
ATOM     18  C   UNL     1      48.985 124.358  21.591  1.00  0.00     0.174 C 
ATOM     19  O   UNL     1      49.576 123.116  21.900  1.00  0.00    -0.368 OA
ATOM     20  C   UNL     1      49.888 124.191  22.754  1.00  0.00     0.198 C 
ENDBRANCH  16  18
ENDBRANCH   1  12
BRANCH   9  21
ATOM     21  N   UNL     1      45.678 130.436  20.747  1.00  0.00    -0.017 NA
BRANCH  21  22
ATOM     22  N   UNL     1      45.409 130.875  19.628  1.00  0.00     0.009 N 
ATOM     23  N   UNL     1      45.138 131.312  18.511  1.00  0.00    -0.003 NA
ENDBRANCH  21  22
ENDBRANCH   9  21
TORSDOF 4
ENDMDL
MODEL 7
REMARK VINA RESULT:      -6.7      2.799      3.859
REMARK SMILES [N-]=[N+]=Nc1[nH+]ccc2ccc(-c3cccc([C@H]4CO4)c3)cc12
REMARK SMILES IDX 11 1 10 2 9 3 8 4 7 5 6 6 5 7 4 9 22 10 21 11 12 12 14 13
REMARK SMILES IDX 13 14 15 15 16 16 20 17 17 18 19 19 18 20 3 21 2 22 1 23
REMARK H PARENT 5 8
ROOT
ATOM      1  C   UNL     1      44.111 131.289  19.563  1.00  0.00    -0.018 A 
ATOM      2  C   UNL     1      43.177 132.332  19.684  1.00  0.00     0.009 A 
ATOM      3  C   UNL     1      42.549 132.584  20.905  1.00  0.00     0.009 A 
ATOM      4  C   UNL     1      42.843 131.800  22.028  1.00  0.00    -0.011 A 
ATOM      5  C   UNL     1      42.215 132.051  23.252  1.00  0.00     0.052 A 
ATOM      6  C   UNL     1      42.523 131.260  24.356  1.00  0.00     0.194 A 
ATOM      7  N   UNL     1      43.427 130.250  24.250  1.00  0.00    -0.279 N 
ATOM      8  H   UNL     1      43.626 129.685  25.105  1.00  0.00     0.308 HD
ATOM      9  C   UNL     1      44.063 129.971  23.072  1.00  0.00     0.193 A 
ATOM     10  C   UNL     1      43.781 130.747  21.926  1.00  0.00     0.031 A 
ATOM     11  C   UNL     1      44.409 130.502  20.690  1.00  0.00     0.021 A 
ENDROOT
BRANCH   1  12
ATOM     12  C   UNL     1      44.776 131.023  18.262  1.00  0.00    -0.018 A 
ATOM     13  C   UNL     1      46.563 129.985  16.976  1.00  0.00     0.001 A 
ATOM     14  C   UNL     1      45.935 130.228  18.201  1.00  0.00     0.009 A 
ATOM     15  C   UNL     1      46.041 130.525  15.800  1.00  0.00     0.006 A 
ATOM     16  C   UNL     1      44.878 131.305  15.838  1.00  0.00    -0.016 A 
ATOM     17  C   UNL     1      44.257 131.564  17.070  1.00  0.00     0.015 A 
BRANCH  16  18
ATOM     18  C   UNL     1      44.341 131.915  14.577  1.00  0.00     0.174 C 
ATOM     19  O   UNL     1      42.943 132.084  14.632  1.00  0.00    -0.368 OA
ATOM     20  C   UNL     1      43.421 131.067  13.784  1.00  0.00     0.198 C 
ENDBRANCH  16  18
ENDBRANCH   1  12
BRANCH   9  21
ATOM     21  N   UNL     1      45.014 128.896  22.992  1.00  0.00    -0.017 NA
BRANCH  21  22
ATOM     22  N   UNL     1      44.667 127.715  22.955  1.00  0.00     0.009 N 
ATOM     23  N   UNL     1      44.323 126.535  22.919  1.00  0.00    -0.003 NA
ENDBRANCH  21  22
ENDBRANCH   9  21
TORSDOF 4
ENDMDL
MODEL 8
REMARK VINA RESULT:      -6.2      1.443      2.180
REMARK SMILES [N-]=[N+]=Nc1[nH+]ccc2ccc(-c3cccc([C@H]4CO4)c3)cc12
REMARK SMILES IDX 11 1 10 2 9 3 8 4 7 5 6 6 5 7 4 9 22 10 21 11 12 12 14 13
REMARK SMILES IDX 13 14 15 15 16 16 20 17 17 18 19 19 18 20 3 21 2 22 1 23
REMARK H PARENT 5 8
ROOT
ATOM      1  C   UNL     1      45.144 130.728  18.946  1.00  0.00    -0.018 A 
ATOM      2  C   UNL     1      45.926 130.069  19.910  1.00  0.00     0.009 A 
ATOM      3  C   UNL     1      45.596 130.142  21.265  1.00  0.00     0.009 A 
ATOM      4  C   UNL     1      44.477 130.876  21.681  1.00  0.00    -0.011 A 
ATOM      5  C   UNL     1      44.145 130.952  23.038  1.00  0.00     0.052 A 
ATOM      6  C   UNL     1      43.028 131.685  23.430  1.00  0.00     0.194 A 
ATOM      7  N   UNL     1      42.264 132.325  22.506  1.00  0.00    -0.279 N 
ATOM      8  H   UNL     1      41.436 132.862  22.848  1.00  0.00     0.308 HD
ATOM      9  C   UNL     1      42.554 132.277  21.170  1.00  0.00     0.193 A 
ATOM     10  C   UNL     1      43.677 131.545  20.727  1.00  0.00     0.031 A 
ATOM     11  C   UNL     1      44.020 131.464  19.363  1.00  0.00     0.021 A 
ENDROOT
BRANCH   1  12
ATOM     12  C   UNL     1      45.500 130.648  17.507  1.00  0.00    -0.018 A 
ATOM     13  C   UNL     1      46.976 129.866  15.736  1.00  0.00     0.001 A 
ATOM     14  C   UNL     1      46.639 129.934  17.091  1.00  0.00     0.009 A 
ATOM     15  C   UNL     1      46.181 130.502  14.782  1.00  0.00     0.006 A 
ATOM     16  C   UNL     1      45.033 131.203  15.175  1.00  0.00    -0.016 A 
ATOM     17  C   UNL     1      44.704 131.287  16.537  1.00  0.00     0.015 A 
BRANCH  16  18
ATOM     18  C   UNL     1      44.201 131.917  14.150  1.00  0.00     0.174 C 
ATOM     19  O   UNL     1      42.874 132.099  14.589  1.00  0.00    -0.368 OA
ATOM     20  C   UNL     1      43.076 131.146  13.573  1.00  0.00     0.198 C 
ENDBRANCH  16  18
ENDBRANCH   1  12
BRANCH   9  21
ATOM     21  N   UNL     1      41.726 132.965  20.218  1.00  0.00    -0.017 NA
BRANCH  21  22
ATOM     22  N   UNL     1      41.683 132.641  19.031  1.00  0.00     0.009 N 
ATOM     23  N   UNL     1      41.641 132.319  17.844  1.00  0.00    -0.003 NA
ENDBRANCH  21  22
ENDBRANCH   9  21
TORSDOF 4
ENDMDL
MODEL 9
REMARK VINA RESULT:      -5.9      6.421      8.659
REMARK SMILES [N-]=[N+]=Nc1[nH+]ccc2ccc(-c3cccc([C@H]4CO4)c3)cc12
REMARK SMILES IDX 11 1 10 2 9 3 8 4 7 5 6 6 5 7 4 9 22 10 21 11 12 12 14 13
REMARK SMILES IDX 13 14 15 15 16 16 20 17 17 18 19 19 18 20 3 21 2 22 1 23
REMARK H PARENT 5 8
ROOT
ATOM      1  C   UNL     1      44.812 127.281  22.695  1.00  0.00    -0.018 A 
ATOM      2  C   UNL     1      43.770 126.826  23.521  1.00  0.00     0.009 A 
ATOM      3  C   UNL     1      43.734 125.499  23.954  1.00  0.00     0.009 A 
ATOM      4  C   UNL     1      44.738 124.601  23.569  1.00  0.00    -0.011 A 
ATOM      5  C   UNL     1      44.704 123.272  24.001  1.00  0.00     0.052 A 
ATOM      6  C   UNL     1      45.713 122.396  23.609  1.00  0.00     0.194 A 
ATOM      7  N   UNL     1      46.726 122.827  22.811  1.00  0.00    -0.279 N 
ATOM      8  H   UNL     1      47.461 122.134  22.543  1.00  0.00     0.308 HD
ATOM      9  C   UNL     1      46.798 124.118  22.366  1.00  0.00     0.193 A 
ATOM     10  C   UNL     1      45.796 125.040  22.739  1.00  0.00     0.031 A 
ATOM     11  C   UNL     1      45.822 126.381  22.309  1.00  0.00     0.021 A 
ENDROOT
BRANCH   1  12
ATOM     12  C   UNL     1      44.846 128.692  22.236  1.00  0.00    -0.018 A 
ATOM     13  C   UNL     1      45.648 130.391  20.688  1.00  0.00     0.001 A 
ATOM     14  C   UNL     1      45.611 129.061  21.115  1.00  0.00     0.009 A 
ATOM     15  C   UNL     1      44.919 131.367  21.369  1.00  0.00     0.006 A 
ATOM     16  C   UNL     1      44.137 131.016  22.478  1.00  0.00    -0.016 A 
ATOM     17  C   UNL     1      44.114 129.684  22.917  1.00  0.00     0.015 A 
BRANCH  16  18
ATOM     18  C   UNL     1      43.385 132.074  23.231  1.00  0.00     0.174 C 
ATOM     19  O   UNL     1      43.535 131.930  24.625  1.00  0.00    -0.368 OA
ATOM     20  C   UNL     1      42.276 131.598  24.090  1.00  0.00     0.198 C 
ENDBRANCH  16  18
ENDBRANCH   1  12
BRANCH   9  21
ATOM     21  N   UNL     1      47.882 124.541  21.523  1.00  0.00    -0.017 NA
BRANCH  21  22
ATOM     22  N   UNL     1      48.421 123.783  20.717  1.00  0.00     0.009 N 
ATOM     23  N   UNL     1      48.960 123.023  19.913  1.00  0.00    -0.003 NA
ENDBRANCH  21  22
ENDBRANCH   9  21
TORSDOF 4
ENDMDL


