MODEL 1
REMARK VINA RESULT:      -7.9      0.000      0.000
REMARK SMILES NNc1ccc2cc(-c3ncnc4c3COC4)[nH]c2c1F
REMARK SMILES IDX 2 1 1 3 3 6 4 7 20 8 5 9 19 10 6 11 18 12 7 13 8 14 21 15
REMARK SMILES IDX 9 17 10 18 14 19 11 20 13 21 15 22 12 23 17 24 16 25
REMARK H PARENT 2 2 1 4 1 5 18 16
ROOT
ATOM      1  N   UNL     1      47.215 130.004  13.861  1.00  0.00    -0.321 N 
ATOM      2  H   UNL     1      47.536 130.530  13.018  1.00  0.00     0.181 HD
ENDROOT
BRANCH   1   3
ATOM      3  N   UNL     1      47.893 128.816  14.183  1.00  0.00    -0.250 NA
ATOM      4  H   UNL     1      48.818 128.829  13.694  1.00  0.00     0.143 HD
ATOM      5  H   UNL     1      47.331 128.013  13.819  1.00  0.00     0.143 HD
ENDBRANCH   1   3
BRANCH   1   6
ATOM      6  C   UNL     1      46.114 130.513  14.638  1.00  0.00     0.087 A 
ATOM      7  C   UNL     1      44.955 131.051  14.013  1.00  0.00     0.031 A 
ATOM      8  C   UNL     1      46.185 130.478  16.051  1.00  0.00     0.171 A 
ATOM      9  C   UNL     1      43.884 131.543  14.780  1.00  0.00     0.013 A 
ATOM     10  C   UNL     1      45.107 130.979  16.781  1.00  0.00     0.084 A 
ATOM     11  C   UNL     1      43.999 131.490  16.165  1.00  0.00     0.003 A 
ATOM     12  N   UNL     1      44.978 131.028  18.118  1.00  0.00    -0.351 N 
ATOM     13  C   UNL     1      43.121 131.880  17.150  1.00  0.00     0.038 A 
ATOM     14  C   UNL     1      43.764 131.586  18.353  1.00  0.00     0.066 A 
ATOM     15  F   UNL     1      47.270 129.972  16.691  1.00  0.00    -0.202 F 
ATOM     16  H   UNL     1      45.667 130.661  18.808  1.00  0.00     0.167 HD
BRANCH  14  17
ATOM     17  C   UNL     1      43.166 131.820  19.688  1.00  0.00     0.096 A 
ATOM     18  N   UNL     1      42.156 132.732  19.805  1.00  0.00    -0.234 NA
ATOM     19  C   UNL     1      43.613 131.197  20.866  1.00  0.00     0.030 A 
ATOM     20  C   UNL     1      41.597 133.032  21.013  1.00  0.00     0.222 A 
ATOM     21  C   UNL     1      43.058 131.529  22.046  1.00  0.00     0.076 A 
ATOM     22  C   UNL     1      44.711 130.243  21.140  1.00  0.00     0.200 C 
ATOM     23  N   UNL     1      42.057 132.438  22.148  1.00  0.00    -0.239 NA
ATOM     24  C   UNL     1      43.751 130.842  23.143  1.00  0.00     0.217 C 
ATOM     25  O   UNL     1      44.825 130.122  22.554  1.00  0.00    -0.370 OA
ENDBRANCH  14  17
ENDBRANCH   1   6
TORSDOF 3
ENDMDL
MODEL 2
REMARK VINA RESULT:      -7.9      1.424      1.866
REMARK SMILES NNc1ccc2cc(-c3ncnc4c3COC4)[nH]c2c1F
REMARK SMILES IDX 2 1 1 3 3 6 4 7 20 8 5 9 19 10 6 11 18 12 7 13 8 14 21 15
REMARK SMILES IDX 9 17 10 18 14 19 11 20 13 21 15 22 12 23 17 24 16 25
REMARK H PARENT 2 2 1 4 1 5 18 16
ROOT
ATOM      1  N   UNL     1      46.486 130.935  13.013  1.00  0.00    -0.321 N 
ATOM      2  H   UNL     1      45.678 130.980  12.354  1.00  0.00     0.181 HD
ENDROOT
BRANCH   1   3
ATOM      3  N   UNL     1      47.777 131.020  12.465  1.00  0.00    -0.250 NA
ATOM      4  H   UNL     1      48.228 130.080  12.553  1.00  0.00     0.143 HD
ATOM      5  H   UNL     1      48.323 131.710  13.029  1.00  0.00     0.143 HD
ENDBRANCH   1   3
BRANCH   1   6
ATOM      6  C   UNL     1      46.243 130.790  14.426  1.00  0.00     0.087 A 
ATOM      7  C   UNL     1      47.086 129.985  15.242  1.00  0.00     0.031 A 
ATOM      8  C   UNL     1      45.145 131.461  15.015  1.00  0.00     0.171 A 
ATOM      9  C   UNL     1      46.841 129.852  16.620  1.00  0.00     0.013 A 
ATOM     10  C   UNL     1      44.930 131.303  16.384  1.00  0.00     0.084 A 
ATOM     11  C   UNL     1      45.750 130.528  17.155  1.00  0.00     0.003 A 
ATOM     12  N   UNL     1      43.956 131.858  17.127  1.00  0.00    -0.351 N 
ATOM     13  C   UNL     1      45.284 130.592  18.449  1.00  0.00     0.038 A 
ATOM     14  C   UNL     1      44.163 131.421  18.395  1.00  0.00     0.066 A 
ATOM     15  F   UNL     1      44.316 132.242  14.277  1.00  0.00    -0.202 F 
ATOM     16  H   UNL     1      43.233 132.522  16.781  1.00  0.00     0.167 HD
BRANCH  14  17
ATOM     17  C   UNL     1      43.352 131.793  19.578  1.00  0.00     0.096 A 
ATOM     18  N   UNL     1      42.306 132.655  19.411  1.00  0.00    -0.234 NA
ATOM     19  C   UNL     1      43.626 131.355  20.884  1.00  0.00     0.030 A 
ATOM     20  C   UNL     1      41.551 133.079  20.467  1.00  0.00     0.222 A 
ATOM     21  C   UNL     1      42.879 131.805  21.908  1.00  0.00     0.076 A 
ATOM     22  C   UNL     1      44.698 130.505  21.451  1.00  0.00     0.200 C 
ATOM     23  N   UNL     1      41.845 132.663  21.729  1.00  0.00    -0.239 NA
ATOM     24  C   UNL     1      43.412 131.306  23.182  1.00  0.00     0.217 C 
ATOM     25  O   UNL     1      44.589 130.575  22.869  1.00  0.00    -0.370 OA
ENDBRANCH  14  17
ENDBRANCH   1   6
TORSDOF 3
ENDMDL
MODEL 3
REMARK VINA RESULT:      -7.8      1.634      2.155
REMARK SMILES NNc1ccc2cc(-c3ncnc4c3COC4)[nH]c2c1F
REMARK SMILES IDX 2 1 1 3 3 6 4 7 20 8 5 9 19 10 6 11 18 12 7 13 8 14 21 15
REMARK SMILES IDX 9 17 10 18 14 19 11 20 13 21 15 22 12 23 17 24 16 25
REMARK H PARENT 2 2 1 4 1 5 18 16
ROOT
ATOM      1  N   UNL     1      47.522 130.075  13.304  1.00  0.00    -0.321 N 
ATOM      2  H   UNL     1      47.456 130.452  12.332  1.00  0.00     0.181 HD
ENDROOT
BRANCH   1   3
ATOM      3  N   UNL     1      48.540 129.144  13.573  1.00  0.00    -0.250 NA
ATOM      4  H   UNL     1      49.359 129.377  12.965  1.00  0.00     0.143 HD
ATOM      5  H   UNL     1      48.187 128.195  13.314  1.00  0.00     0.143 HD
ENDBRANCH   1   3
BRANCH   1   6
ATOM      6  C   UNL     1      46.582 130.519  14.302  1.00  0.00     0.087 A 
ATOM      7  C   UNL     1      45.408 131.237  13.944  1.00  0.00     0.031 A 
ATOM      8  C   UNL     1      46.831 130.236  15.666  1.00  0.00     0.171 A 
ATOM      9  C   UNL     1      44.496 131.664  14.926  1.00  0.00     0.013 A 
ATOM     10  C   UNL     1      45.908 130.679  16.613  1.00  0.00     0.084 A 
ATOM     11  C   UNL     1      44.783 131.366  16.253  1.00  0.00     0.003 A 
ATOM     12  N   UNL     1      45.959 130.506  17.946  1.00  0.00    -0.351 N 
ATOM     13  C   UNL     1      44.080 131.642  17.403  1.00  0.00     0.038 A 
ATOM     14  C   UNL     1      44.842 131.099  18.439  1.00  0.00     0.066 A 
ATOM     15  F   UNL     1      47.937 129.552  16.055  1.00  0.00    -0.202 F 
ATOM     16  H   UNL     1      46.693 129.978  18.462  1.00  0.00     0.167 HD
BRANCH  14  17
ATOM     17  C   UNL     1      44.447 131.141  19.866  1.00  0.00     0.096 A 
ATOM     18  N   UNL     1      45.139 130.376  20.761  1.00  0.00    -0.234 NA
ATOM     19  C   UNL     1      43.359 131.883  20.355  1.00  0.00     0.030 A 
ATOM     20  C   UNL     1      44.794 130.328  22.081  1.00  0.00     0.222 A 
ATOM     21  C   UNL     1      43.028 131.801  21.657  1.00  0.00     0.076 A 
ATOM     22  C   UNL     1      42.351 132.740  19.691  1.00  0.00     0.200 C 
ATOM     23  N   UNL     1      43.722 131.035  22.535  1.00  0.00    -0.239 NA
ATOM     24  C   UNL     1      41.803 132.566  21.918  1.00  0.00     0.217 C 
ATOM     25  O   UNL     1      41.362 133.064  20.663  1.00  0.00    -0.370 OA
ENDBRANCH  14  17
ENDBRANCH   1   6
TORSDOF 3
ENDMDL
MODEL 4
REMARK VINA RESULT:      -7.4      2.813      6.980
REMARK SMILES NNc1ccc2cc(-c3ncnc4c3COC4)[nH]c2c1F
REMARK SMILES IDX 2 1 1 3 3 6 4 7 20 8 5 9 19 10 6 11 18 12 7 13 8 14 21 15
REMARK SMILES IDX 9 17 10 18 14 19 11 20 13 21 15 22 12 23 17 24 16 25
REMARK H PARENT 2 2 1 4 1 5 18 16
ROOT
ATOM      1  N   UNL     1      42.732 131.949  23.484  1.00  0.00    -0.321 N 
ATOM      2  H   UNL     1      43.023 132.771  24.059  1.00  0.00     0.181 HD
ENDROOT
BRANCH   1   3
ATOM      3  N   UNL     1      41.595 131.235  23.899  1.00  0.00    -0.250 NA
ATOM      4  H   UNL     1      40.791 131.529  23.297  1.00  0.00     0.143 HD
ATOM      5  H   UNL     1      41.390 131.501  24.889  1.00  0.00     0.143 HD
ENDBRANCH   1   3
BRANCH   1   6
ATOM      6  C   UNL     1      43.496 131.595  22.315  1.00  0.00     0.087 A 
ATOM      7  C   UNL     1      44.734 130.903  22.423  1.00  0.00     0.031 A 
ATOM      8  C   UNL     1      43.007 131.942  21.033  1.00  0.00     0.171 A 
ATOM      9  C   UNL     1      45.471 130.560  21.276  1.00  0.00     0.013 A 
ATOM     10  C   UNL     1      43.766 131.590  19.917  1.00  0.00     0.084 A 
ATOM     11  C   UNL     1      44.952 130.922  20.037  1.00  0.00     0.003 A 
ATOM     12  N   UNL     1      43.473 131.819  18.625  1.00  0.00    -0.351 N 
ATOM     13  C   UNL     1      45.440 130.711  18.768  1.00  0.00     0.038 A 
ATOM     14  C   UNL     1      44.499 131.288  17.913  1.00  0.00     0.066 A 
ATOM     15  F   UNL     1      41.829 132.600  20.881  1.00  0.00    -0.202 F 
ATOM     16  H   UNL     1      42.605 132.272  18.270  1.00  0.00     0.167 HD
BRANCH  14  17
ATOM     17  C   UNL     1      44.606 131.273  16.436  1.00  0.00     0.096 A 
ATOM     18  N   UNL     1      43.564 131.757  15.697  1.00  0.00    -0.234 NA
ATOM     19  C   UNL     1      45.700 130.736  15.735  1.00  0.00     0.030 A 
ATOM     20  C   UNL     1      43.576 131.726  14.333  1.00  0.00     0.222 A 
ATOM     21  C   UNL     1      45.676 130.699  14.390  1.00  0.00     0.076 A 
ATOM     22  C   UNL     1      46.941 130.065  16.180  1.00  0.00     0.200 C 
ATOM     23  N   UNL     1      44.633 131.181  13.670  1.00  0.00    -0.239 NA
ATOM     24  C   UNL     1      46.862 130.001  13.882  1.00  0.00     0.217 C 
ATOM     25  O   UNL     1      47.582 129.546  15.019  1.00  0.00    -0.370 OA
ENDBRANCH  14  17
ENDBRANCH   1   6
TORSDOF 3
ENDMDL
MODEL 5
REMARK VINA RESULT:      -7.4      2.574      6.584
REMARK SMILES NNc1ccc2cc(-c3ncnc4c3COC4)[nH]c2c1F
REMARK SMILES IDX 2 1 1 3 3 6 4 7 20 8 5 9 19 10 6 11 18 12 7 13 8 14 21 15
REMARK SMILES IDX 9 17 10 18 14 19 11 20 13 21 15 22 12 23 17 24 16 25
REMARK H PARENT 2 2 1 4 1 5 18 16
ROOT
ATOM      1  N   UNL     1      44.439 131.186  23.707  1.00  0.00    -0.321 N 
ATOM      2  H   UNL     1      44.534 131.987  24.370  1.00  0.00     0.181 HD
ENDROOT
BRANCH   1   3
ATOM      3  N   UNL     1      44.781 129.907  24.179  1.00  0.00    -0.250 NA
ATOM      4  H   UNL     1      44.178 129.697  25.008  1.00  0.00     0.143 HD
ATOM      5  H   UNL     1      45.780 129.933  24.487  1.00  0.00     0.143 HD
ENDBRANCH   1   3
BRANCH   1   6
ATOM      6  C   UNL     1      43.968 131.426  22.367  1.00  0.00     0.087 A 
ATOM      7  C   UNL     1      42.709 132.043  22.125  1.00  0.00     0.031 A 
ATOM      8  C   UNL     1      44.773 131.043  21.268  1.00  0.00     0.171 A 
ATOM      9  C   UNL     1      42.261 132.275  20.813  1.00  0.00     0.013 A 
ATOM     10  C   UNL     1      44.295 131.285  19.980  1.00  0.00     0.084 A 
ATOM     11  C   UNL     1      43.084 131.880  19.764  1.00  0.00     0.003 A 
ATOM     12  N   UNL     1      44.907 131.005  18.816  1.00  0.00    -0.351 N 
ATOM     13  C   UNL     1      42.914 131.991  18.403  1.00  0.00     0.038 A 
ATOM     14  C   UNL     1      44.062 131.430  17.843  1.00  0.00     0.066 A 
ATOM     15  F   UNL     1      45.983 130.454  21.450  1.00  0.00    -0.202 F 
ATOM     16  H   UNL     1      45.856 130.591  18.713  1.00  0.00     0.167 HD
BRANCH  14  17
ATOM     17  C   UNL     1      44.320 131.358  16.386  1.00  0.00     0.096 A 
ATOM     18  N   UNL     1      43.372 131.838  15.527  1.00  0.00    -0.234 NA
ATOM     19  C   UNL     1      45.466 130.773  15.821  1.00  0.00     0.030 A 
ATOM     20  C   UNL     1      43.523 131.756  14.173  1.00  0.00     0.222 A 
ATOM     21  C   UNL     1      45.579 130.686  14.483  1.00  0.00     0.076 A 
ATOM     22  C   UNL     1      46.638 130.092  16.414  1.00  0.00     0.200 C 
ATOM     23  N   UNL     1      44.629 131.164  13.642  1.00  0.00    -0.239 NA
ATOM     24  C   UNL     1      46.794 129.945  14.124  1.00  0.00     0.217 C 
ATOM     25  O   UNL     1      47.381 129.516  15.344  1.00  0.00    -0.370 OA
ENDBRANCH  14  17
ENDBRANCH   1   6
TORSDOF 3
ENDMDL
MODEL 6
REMARK VINA RESULT:      -7.1      1.009      1.194
REMARK SMILES NNc1ccc2cc(-c3ncnc4c3COC4)[nH]c2c1F
REMARK SMILES IDX 2 1 1 3 3 6 4 7 20 8 5 9 19 10 6 11 18 12 7 13 8 14 21 15
REMARK SMILES IDX 9 17 10 18 14 19 11 20 13 21 15 22 12 23 17 24 16 25
REMARK H PARENT 2 2 1 4 1 5 18 16
ROOT
ATOM      1  N   UNL     1      48.354 129.186  13.851  1.00  0.00    -0.321 N 
ATOM      2  H   UNL     1      48.976 128.636  14.484  1.00  0.00     0.181 HD
ENDROOT
BRANCH   1   3
ATOM      3  N   UNL     1      48.674 129.206  12.483  1.00  0.00    -0.250 NA
ATOM      4  H   UNL     1      48.191 128.399  12.026  1.00  0.00     0.143 HD
ATOM      5  H   UNL     1      49.707 129.078  12.390  1.00  0.00     0.143 HD
ENDBRANCH   1   3
BRANCH   1   6
ATOM      6  C   UNL     1      47.220 129.883  14.401  1.00  0.00     0.087 A 
ATOM      7  C   UNL     1      46.312 130.593  13.565  1.00  0.00     0.031 A 
ATOM      8  C   UNL     1      47.001 129.863  15.799  1.00  0.00     0.171 A 
ATOM      9  C   UNL     1      45.206 131.268  14.112  1.00  0.00     0.013 A 
ATOM     10  C   UNL     1      45.897 130.547  16.307  1.00  0.00     0.084 A 
ATOM     11  C   UNL     1      45.033 131.222  15.491  1.00  0.00     0.003 A 
ATOM     12  N   UNL     1      45.515 130.640  17.593  1.00  0.00    -0.351 N 
ATOM     13  C   UNL     1      44.053 131.768  16.288  1.00  0.00     0.038 A 
ATOM     14  C   UNL     1      44.387 131.393  17.590  1.00  0.00     0.066 A 
ATOM     15  F   UNL     1      47.839 129.197  16.634  1.00  0.00    -0.202 F 
ATOM     16  H   UNL     1      45.982 130.177  18.400  1.00  0.00     0.167 HD
BRANCH  14  17
ATOM     17  C   UNL     1      43.582 131.746  18.783  1.00  0.00     0.096 A 
ATOM     18  N   UNL     1      42.437 132.471  18.611  1.00  0.00    -0.234 NA
ATOM     19  C   UNL     1      43.953 131.427  20.100  1.00  0.00     0.030 A 
ATOM     20  C   UNL     1      41.677 132.873  19.671  1.00  0.00     0.222 A 
ATOM     21  C   UNL     1      43.197 131.854  21.127  1.00  0.00     0.076 A 
ATOM     22  C   UNL     1      45.137 130.744  20.669  1.00  0.00     0.200 C 
ATOM     23  N   UNL     1      42.063 132.575  20.943  1.00  0.00    -0.239 NA
ATOM     24  C   UNL     1      43.830 131.503  22.404  1.00  0.00     0.217 C 
ATOM     25  O   UNL     1      45.073 130.893  22.084  1.00  0.00    -0.370 OA
ENDBRANCH  14  17
ENDBRANCH   1   6
TORSDOF 3
ENDMDL
MODEL 7
REMARK VINA RESULT:      -6.6      1.560      1.774
REMARK SMILES NNc1ccc2cc(-c3ncnc4c3COC4)[nH]c2c1F
REMARK SMILES IDX 2 1 1 3 3 6 4 7 20 8 5 9 19 10 6 11 18 12 7 13 8 14 21 15
REMARK SMILES IDX 9 17 10 18 14 19 11 20 13 21 15 22 12 23 17 24 16 25
REMARK H PARENT 2 2 1 4 1 5 18 16
ROOT
ATOM      1  N   UNL     1      47.894 131.369  13.141  1.00  0.00    -0.321 N 
ATOM      2  H   UNL     1      48.678 132.027  13.348  1.00  0.00     0.181 HD
ENDROOT
BRANCH   1   3
ATOM      3  N   UNL     1      47.742 130.936  11.814  1.00  0.00    -0.250 NA
ATOM      4  H   UNL     1      48.452 130.188  11.635  1.00  0.00     0.143 HD
ATOM      5  H   UNL     1      47.940 131.746  11.184  1.00  0.00     0.143 HD
ENDBRANCH   1   3
BRANCH   1   6
ATOM      6  C   UNL     1      47.022 130.947  14.208  1.00  0.00     0.087 A 
ATOM      7  C   UNL     1      46.694 129.576  14.395  1.00  0.00     0.031 A 
ATOM      8  C   UNL     1      46.482 131.914  15.089  1.00  0.00     0.171 A 
ATOM      9  C   UNL     1      45.844 129.174  15.441  1.00  0.00     0.013 A 
ATOM     10  C   UNL     1      45.639 131.480  16.112  1.00  0.00     0.084 A 
ATOM     11  C   UNL     1      45.335 130.159  16.280  1.00  0.00     0.003 A 
ATOM     12  N   UNL     1      45.037 132.234  17.049  1.00  0.00    -0.351 N 
ATOM     13  C   UNL     1      44.505 130.060  17.374  1.00  0.00     0.038 A 
ATOM     14  C   UNL     1      44.334 131.370  17.824  1.00  0.00     0.066 A 
ATOM     15  F   UNL     1      46.769 133.234  14.951  1.00  0.00    -0.202 F 
ATOM     16  H   UNL     1      45.145 133.264  17.162  1.00  0.00     0.167 HD
BRANCH  14  17
ATOM     17  C   UNL     1      43.526 131.737  19.010  1.00  0.00     0.096 A 
ATOM     18  N   UNL     1      42.398 132.486  18.829  1.00  0.00    -0.234 NA
ATOM     19  C   UNL     1      43.878 131.408  20.330  1.00  0.00     0.030 A 
ATOM     20  C   UNL     1      41.637 132.902  19.883  1.00  0.00     0.222 A 
ATOM     21  C   UNL     1      43.122 131.850  21.351  1.00  0.00     0.076 A 
ATOM     22  C   UNL     1      45.042 130.700  20.908  1.00  0.00     0.200 C 
ATOM     23  N   UNL     1      42.005 132.594  21.157  1.00  0.00    -0.239 NA
ATOM     24  C   UNL     1      43.736 131.482  22.632  1.00  0.00     0.217 C 
ATOM     25  O   UNL     1      44.968 130.847  22.323  1.00  0.00    -0.370 OA
ENDBRANCH  14  17
ENDBRANCH   1   6
TORSDOF 3
ENDMDL
MODEL 8
REMARK VINA RESULT:      -6.5      1.655      2.331
REMARK SMILES NNc1ccc2cc(-c3ncnc4c3COC4)[nH]c2c1F
REMARK SMILES IDX 2 1 1 3 3 6 4 7 20 8 5 9 19 10 6 11 18 12 7 13 8 14 21 15
REMARK SMILES IDX 9 17 10 18 14 19 11 20 13 21 15 22 12 23 17 24 16 25
REMARK H PARENT 2 2 1 4 1 5 18 16
ROOT
ATOM      1  N   UNL     1      46.483 130.411  14.544  1.00  0.00    -0.321 N 
ATOM      2  H   UNL     1      46.592 129.406  14.284  1.00  0.00     0.181 HD
ENDROOT
BRANCH   1   3
ATOM      3  N   UNL     1      47.095 131.367  13.715  1.00  0.00    -0.250 NA
ATOM      4  H   UNL     1      46.351 131.807  13.126  1.00  0.00     0.143 HD
ATOM      5  H   UNL     1      47.770 130.869  13.091  1.00  0.00     0.143 HD
ENDBRANCH   1   3
BRANCH   1   6
ATOM      6  C   UNL     1      45.723 130.762  15.716  1.00  0.00     0.087 A 
ATOM      7  C   UNL     1      44.534 131.538  15.621  1.00  0.00     0.031 A 
ATOM      8  C   UNL     1      46.166 130.328  16.988  1.00  0.00     0.171 A 
ATOM      9  C   UNL     1      43.798 131.873  16.772  1.00  0.00     0.013 A 
ATOM     10  C   UNL     1      45.414 130.683  18.108  1.00  0.00     0.084 A 
ATOM     11  C   UNL     1      44.273 131.426  18.000  1.00  0.00     0.003 A 
ATOM     12  N   UNL     1      45.660 130.364  19.391  1.00  0.00    -0.351 N 
ATOM     13  C   UNL     1      43.762 131.588  19.268  1.00  0.00     0.038 A 
ATOM     14  C   UNL     1      44.654 130.922  20.110  1.00  0.00     0.066 A 
ATOM     15  F   UNL     1      47.293 129.584  17.127  1.00  0.00    -0.202 F 
ATOM     16  H   UNL     1      46.444 129.769  19.729  1.00  0.00     0.167 HD
BRANCH  14  17
ATOM     17  C   UNL     1      44.481 130.816  21.578  1.00  0.00     0.096 A 
ATOM     18  N   UNL     1      44.195 131.947  22.289  1.00  0.00    -0.234 NA
ATOM     19  C   UNL     1      44.649 129.623  22.302  1.00  0.00     0.030 A 
ATOM     20  C   UNL     1      44.075 131.928  23.648  1.00  0.00     0.222 A 
ATOM     21  C   UNL     1      44.545 129.638  23.643  1.00  0.00     0.076 A 
ATOM     22  C   UNL     1      45.033 128.252  21.898  1.00  0.00     0.200 C 
ATOM     23  N   UNL     1      44.263 130.769  24.336  1.00  0.00    -0.239 NA
ATOM     24  C   UNL     1      44.865 128.315  24.191  1.00  0.00     0.217 C 
ATOM     25  O   UNL     1      45.247 127.503  23.090  1.00  0.00    -0.370 OA
ENDBRANCH  14  17
ENDBRANCH   1   6
TORSDOF 3
ENDMDL
MODEL 9
REMARK VINA RESULT:      -6.5      1.117      1.170
REMARK SMILES NNc1ccc2cc(-c3ncnc4c3COC4)[nH]c2c1F
REMARK SMILES IDX 2 1 1 3 3 6 4 7 20 8 5 9 19 10 6 11 18 12 7 13 8 14 21 15
REMARK SMILES IDX 9 17 10 18 14 19 11 20 13 21 15 22 12 23 17 24 16 25
REMARK H PARENT 2 2 1 4 1 5 18 16
ROOT
ATOM      1  N   UNL     1      47.305 129.201  13.721  1.00  0.00    -0.321 N 
ATOM      2  H   UNL     1      46.691 128.558  13.173  1.00  0.00     0.181 HD
ENDROOT
BRANCH   1   3
ATOM      3  N   UNL     1      48.693 129.096  13.526  1.00  0.00    -0.250 NA
ATOM      4  H   UNL     1      49.056 128.361  14.175  1.00  0.00     0.143 HD
ATOM      5  H   UNL     1      49.125 130.014  13.780  1.00  0.00     0.143 HD
ENDBRANCH   1   3
BRANCH   1   6
ATOM      6  C   UNL     1      46.711 130.146  14.631  1.00  0.00     0.087 A 
ATOM      7  C   UNL     1      46.845 131.548  14.432  1.00  0.00     0.031 A 
ATOM      8  C   UNL     1      45.979 129.672  15.746  1.00  0.00     0.171 A 
ATOM      9  C   UNL     1      46.259 132.463  15.326  1.00  0.00     0.013 A 
ATOM     10  C   UNL     1      45.415 130.607  16.614  1.00  0.00     0.084 A 
ATOM     11  C   UNL     1      45.550 131.951  16.408  1.00  0.00     0.003 A 
ATOM     12  N   UNL     1      44.682 130.362  17.715  1.00  0.00    -0.351 N 
ATOM     13  C   UNL     1      44.873 132.596  17.418  1.00  0.00     0.038 A 
ATOM     14  C   UNL     1      44.352 131.578  18.217  1.00  0.00     0.066 A 
ATOM     15  F   UNL     1      45.822 128.344  15.974  1.00  0.00    -0.202 F 
ATOM     16  H   UNL     1      44.403 129.420  18.060  1.00  0.00     0.167 HD
BRANCH  14  17
ATOM     17  C   UNL     1      43.519 131.816  19.419  1.00  0.00     0.096 A 
ATOM     18  N   UNL     1      42.401 132.592  19.300  1.00  0.00    -0.234 NA
ATOM     19  C   UNL     1      43.838 131.336  20.701  1.00  0.00     0.030 A 
ATOM     20  C   UNL     1      41.619 132.893  20.377  1.00  0.00     0.222 A 
ATOM     21  C   UNL     1      43.061 131.666  21.748  1.00  0.00     0.076 A 
ATOM     22  C   UNL     1      44.982 130.555  21.221  1.00  0.00     0.200 C 
ATOM     23  N   UNL     1      41.955 132.439  21.616  1.00  0.00    -0.239 NA
ATOM     24  C   UNL     1      43.642 131.150  22.993  1.00  0.00     0.217 C 
ATOM     25  O   UNL     1      44.876 130.541  22.641  1.00  0.00    -0.370 OA
ENDBRANCH  14  17
ENDBRANCH   1   6
TORSDOF 3
ENDMDL


