MODEL 1
REMARK VINA RESULT:     -10.4      0.000      0.000
REMARK SMILES Cn1c[nH+]c2cc(-c3ccc4cc[nH]c4c3)c[nH+]c21
REMARK SMILES IDX 1 1 2 2 3 3 4 4 5 5 6 6 7 7 17 8 18 9 19 10 8 13 9 14 16 15
REMARK SMILES IDX 10 16 15 17 11 18 14 19 12 20 13 21
REMARK H PARENT 4 11 18 12 14 22
ROOT
ATOM      1  C   UNL     1      44.429 130.744  24.216  1.00  0.00     0.300 C 
ATOM      2  N   UNL     1      43.841 131.242  22.978  1.00  0.00    -0.199 N 
ATOM      3  C   UNL     1      42.658 131.888  22.824  1.00  0.00     0.405 A 
ATOM      4  N   UNL     1      42.391 132.177  21.525  1.00  0.00    -0.240 N 
ATOM      5  C   UNL     1      43.445 131.683  20.851  1.00  0.00     0.215 A 
ATOM      6  C   UNL     1      43.688 131.683  19.485  1.00  0.00     0.073 A 
ATOM      7  C   UNL     1      44.882 131.070  19.034  1.00  0.00     0.025 A 
ATOM      8  C   UNL     1      45.762 130.488  19.992  1.00  0.00     0.206 A 
ATOM      9  N   UNL     1      45.464 130.519  21.327  1.00  0.00    -0.243 N 
ATOM     10  C   UNL     1      44.314 131.117  21.727  1.00  0.00     0.329 A 
ATOM     11  H   UNL     1      41.551 132.662  21.137  1.00  0.00     0.312 HD
ATOM     12  H   UNL     1      46.116 130.089  22.021  1.00  0.00     0.312 HD
ENDROOT
BRANCH   7  13
ATOM     13  C   UNL     1      45.209 131.031  17.586  1.00  0.00    -0.013 A 
ATOM     14  C   UNL     1      44.424 131.762  16.653  1.00  0.00     0.009 A 
ATOM     15  C   UNL     1      46.304 130.263  17.121  1.00  0.00     0.035 A 
ATOM     16  C   UNL     1      44.722 131.731  15.278  1.00  0.00     0.011 A 
ATOM     17  C   UNL     1      46.570 130.256  15.753  1.00  0.00     0.046 A 
ATOM     18  C   UNL     1      45.807 130.964  14.866  1.00  0.00    -0.001 A 
ATOM     19  N   UNL     1      47.551 129.596  15.117  1.00  0.00    -0.361 N 
ATOM     20  C   UNL     1      46.325 130.746  13.608  1.00  0.00     0.028 A 
ATOM     21  C   UNL     1      47.406 129.892  13.805  1.00  0.00     0.083 A 
ATOM     22  H   UNL     1      48.278 128.979  15.542  1.00  0.00     0.166 HD
ENDBRANCH   7  13
TORSDOF 1
ENDMDL
MODEL 2
REMARK VINA RESULT:     -10.0      1.072      1.258
REMARK SMILES Cn1c[nH+]c2cc(-c3ccc4cc[nH]c4c3)c[nH+]c21
REMARK SMILES IDX 1 1 2 2 3 3 4 4 5 5 6 6 7 7 17 8 18 9 19 10 8 13 9 14 16 15
REMARK SMILES IDX 10 16 15 17 11 18 14 19 12 20 13 21
REMARK H PARENT 4 11 18 12 14 22
ROOT
ATOM      1  C   UNL     1      43.536 130.810  23.013  1.00  0.00     0.300 C 
ATOM      2  N   UNL     1      43.307 131.413  21.705  1.00  0.00    -0.199 N 
ATOM      3  C   UNL     1      42.285 132.225  21.335  1.00  0.00     0.405 A 
ATOM      4  N   UNL     1      42.352 132.577  20.025  1.00  0.00    -0.240 N 
ATOM      5  C   UNL     1      43.451 131.952  19.569  1.00  0.00     0.215 A 
ATOM      6  C   UNL     1      43.987 131.947  18.289  1.00  0.00     0.073 A 
ATOM      7  C   UNL     1      45.158 131.180  18.073  1.00  0.00     0.025 A 
ATOM      8  C   UNL     1      45.718 130.458  19.167  1.00  0.00     0.206 A 
ATOM      9  N   UNL     1      45.141 130.502  20.406  1.00  0.00    -0.243 N 
ATOM     10  C   UNL     1      44.023 131.249  20.580  1.00  0.00     0.329 A 
ATOM     11  H   UNL     1      41.690 133.185  19.492  1.00  0.00     0.312 HD
ATOM     12  H   UNL     1      45.561 129.969  21.200  1.00  0.00     0.312 HD
ENDROOT
BRANCH   7  13
ATOM     13  C   UNL     1      45.787 131.126  16.729  1.00  0.00    -0.013 A 
ATOM     14  C   UNL     1      45.629 132.206  15.818  1.00  0.00     0.009 A 
ATOM     15  C   UNL     1      46.548 129.996  16.341  1.00  0.00     0.035 A 
ATOM     16  C   UNL     1      46.218 132.165  14.542  1.00  0.00     0.011 A 
ATOM     17  C   UNL     1      47.117 129.990  15.069  1.00  0.00     0.046 A 
ATOM     18  C   UNL     1      46.957 131.036  14.203  1.00  0.00    -0.001 A 
ATOM     19  N   UNL     1      47.864 129.022  14.515  1.00  0.00    -0.361 N 
ATOM     20  C   UNL     1      47.634 130.722  13.045  1.00  0.00     0.028 A 
ATOM     21  C   UNL     1      48.183 129.464  13.277  1.00  0.00     0.083 A 
ATOM     22  H   UNL     1      48.144 128.114  14.947  1.00  0.00     0.166 HD
ENDBRANCH   7  13
TORSDOF 1
ENDMDL
MODEL 3
REMARK VINA RESULT:     -10.0      1.097      6.936
REMARK SMILES Cn1c[nH+]c2cc(-c3ccc4cc[nH]c4c3)c[nH+]c21
REMARK SMILES IDX 1 1 2 2 3 3 4 4 5 5 6 6 7 7 17 8 18 9 19 10 8 13 9 14 16 15
REMARK SMILES IDX 10 16 15 17 11 18 14 19 12 20 13 21
REMARK H PARENT 4 11 18 12 14 22
ROOT
ATOM      1  C   UNL     1      48.195 129.376  13.857  1.00  0.00     0.300 C 
ATOM      2  N   UNL     1      47.146 130.292  14.291  1.00  0.00    -0.199 N 
ATOM      3  C   UNL     1      46.547 131.269  13.565  1.00  0.00     0.405 A 
ATOM      4  N   UNL     1      45.637 131.968  14.291  1.00  0.00    -0.240 N 
ATOM      5  C   UNL     1      45.682 131.406  15.511  1.00  0.00     0.215 A 
ATOM      6  C   UNL     1      44.969 131.739  16.655  1.00  0.00     0.073 A 
ATOM      7  C   UNL     1      45.227 130.987  17.827  1.00  0.00     0.025 A 
ATOM      8  C   UNL     1      46.195 129.943  17.776  1.00  0.00     0.206 A 
ATOM      9  N   UNL     1      46.866 129.664  16.617  1.00  0.00    -0.243 N 
ATOM     10  C   UNL     1      46.593 130.400  15.511  1.00  0.00     0.329 A 
ATOM     11  H   UNL     1      45.046 132.769  13.974  1.00  0.00     0.312 HD
ATOM     12  H   UNL     1      47.574 128.896  16.591  1.00  0.00     0.312 HD
ENDROOT
BRANCH   7  13
ATOM     13  C   UNL     1      44.504 131.287  19.088  1.00  0.00    -0.013 A 
ATOM     14  C   UNL     1      43.212 131.880  19.052  1.00  0.00     0.009 A 
ATOM     15  C   UNL     1      45.095 130.987  20.340  1.00  0.00     0.035 A 
ATOM     16  C   UNL     1      42.517 132.170  20.240  1.00  0.00     0.011 A 
ATOM     17  C   UNL     1      44.379 131.289  21.496  1.00  0.00     0.046 A 
ATOM     18  C   UNL     1      43.136 131.859  21.447  1.00  0.00    -0.001 A 
ATOM     19  N   UNL     1      44.761 131.088  22.767  1.00  0.00    -0.361 N 
ATOM     20  C   UNL     1      42.707 132.028  22.745  1.00  0.00     0.028 A 
ATOM     21  C   UNL     1      43.742 131.538  23.535  1.00  0.00     0.083 A 
ATOM     22  H   UNL     1      45.658 130.671  23.100  1.00  0.00     0.166 HD
ENDBRANCH   7  13
TORSDOF 1
ENDMDL
MODEL 4
REMARK VINA RESULT:     -10.0      1.253      7.127
REMARK SMILES Cn1c[nH+]c2cc(-c3ccc4cc[nH]c4c3)c[nH+]c21
REMARK SMILES IDX 1 1 2 2 3 3 4 4 5 5 6 6 7 7 17 8 18 9 19 10 8 13 9 14 16 15
REMARK SMILES IDX 10 16 15 17 11 18 14 19 12 20 13 21
REMARK H PARENT 4 11 18 12 14 22
ROOT
ATOM      1  C   UNL     1      47.894 131.460  12.505  1.00  0.00     0.300 C 
ATOM      2  N   UNL     1      47.532 130.638  13.653  1.00  0.00    -0.199 N 
ATOM      3  C   UNL     1      47.794 129.320  13.843  1.00  0.00     0.405 A 
ATOM      4  N   UNL     1      47.277 128.852  15.008  1.00  0.00    -0.240 N 
ATOM      5  C   UNL     1      46.666 129.919  15.553  1.00  0.00     0.215 A 
ATOM      6  C   UNL     1      45.955 130.008  16.741  1.00  0.00     0.073 A 
ATOM      7  C   UNL     1      45.390 131.264  17.072  1.00  0.00     0.025 A 
ATOM      8  C   UNL     1      45.576 132.359  16.179  1.00  0.00     0.206 A 
ATOM      9  N   UNL     1      46.286 132.206  15.020  1.00  0.00    -0.243 N 
ATOM     10  C   UNL     1      46.817 130.991  14.735  1.00  0.00     0.329 A 
ATOM     11  H   UNL     1      47.331 127.880  15.387  1.00  0.00     0.312 HD
ATOM     12  H   UNL     1      46.415 133.016  14.373  1.00  0.00     0.312 HD
ENDROOT
BRANCH   7  13
ATOM     13  C   UNL     1      44.615 131.434  18.327  1.00  0.00    -0.013 A 
ATOM     14  C   UNL     1      43.242 131.800  18.279  1.00  0.00     0.009 A 
ATOM     15  C   UNL     1      45.237 131.237  19.584  1.00  0.00     0.035 A 
ATOM     16  C   UNL     1      42.497 131.965  19.461  1.00  0.00     0.011 A 
ATOM     17  C   UNL     1      44.469 131.410  20.734  1.00  0.00     0.046 A 
ATOM     18  C   UNL     1      43.149 131.761  20.673  1.00  0.00    -0.001 A 
ATOM     19  N   UNL     1      44.868 131.275  22.008  1.00  0.00    -0.361 N 
ATOM     20  C   UNL     1      42.685 131.853  21.967  1.00  0.00     0.028 A 
ATOM     21  C   UNL     1      43.781 131.544  22.767  1.00  0.00     0.083 A 
ATOM     22  H   UNL     1      45.820 131.015  22.349  1.00  0.00     0.166 HD
ENDBRANCH   7  13
TORSDOF 1
ENDMDL
MODEL 5
REMARK VINA RESULT:      -9.9      0.880      1.785
REMARK SMILES Cn1c[nH+]c2cc(-c3ccc4cc[nH]c4c3)c[nH+]c21
REMARK SMILES IDX 1 1 2 2 3 3 4 4 5 5 6 6 7 7 17 8 18 9 19 10 8 13 9 14 16 15
REMARK SMILES IDX 10 16 15 17 11 18 14 19 12 20 13 21
REMARK H PARENT 4 11 18 12 14 22
ROOT
ATOM      1  C   UNL     1      41.944 132.182  22.607  1.00  0.00     0.300 C 
ATOM      2  N   UNL     1      43.184 131.671  22.034  1.00  0.00    -0.199 N 
ATOM      3  C   UNL     1      44.277 131.216  22.697  1.00  0.00     0.405 A 
ATOM      4  N   UNL     1      45.278 130.852  21.855  1.00  0.00    -0.240 N 
ATOM      5  C   UNL     1      44.787 131.099  20.628  1.00  0.00     0.215 A 
ATOM      6  C   UNL     1      45.393 130.927  19.391  1.00  0.00     0.073 A 
ATOM      7  C   UNL     1      44.649 131.289  18.242  1.00  0.00     0.025 A 
ATOM      8  C   UNL     1      43.332 131.807  18.410  1.00  0.00     0.206 A 
ATOM      9  N   UNL     1      42.790 131.954  19.657  1.00  0.00    -0.243 N 
ATOM     10  C   UNL     1      43.528 131.595  20.737  1.00  0.00     0.329 A 
ATOM     11  H   UNL     1      46.220 130.477  22.106  1.00  0.00     0.312 HD
ATOM     12  H   UNL     1      41.824 132.336  19.769  1.00  0.00     0.312 HD
ENDROOT
BRANCH   7  13
ATOM     13  C   UNL     1      45.234 131.135  16.886  1.00  0.00    -0.013 A 
ATOM     14  C   UNL     1      44.699 131.860  15.787  1.00  0.00     0.009 A 
ATOM     15  C   UNL     1      46.328 130.261  16.675  1.00  0.00     0.035 A 
ATOM     16  C   UNL     1      45.244 131.721  14.497  1.00  0.00     0.011 A 
ATOM     17  C   UNL     1      46.841 130.147  15.385  1.00  0.00     0.046 A 
ATOM     18  C   UNL     1      46.318 130.852  14.336  1.00  0.00    -0.001 A 
ATOM     19  N   UNL     1      47.864 129.378  14.979  1.00  0.00    -0.361 N 
ATOM     20  C   UNL     1      47.040 130.518  13.211  1.00  0.00     0.028 A 
ATOM     21  C   UNL     1      47.990 129.601  13.651  1.00  0.00     0.083 A 
ATOM     22  H   UNL     1      48.445 128.738  15.564  1.00  0.00     0.166 HD
ENDBRANCH   7  13
TORSDOF 1
ENDMDL
MODEL 6
REMARK VINA RESULT:      -9.0      1.359      1.944
REMARK SMILES Cn1c[nH+]c2cc(-c3ccc4cc[nH]c4c3)c[nH+]c21
REMARK SMILES IDX 1 1 2 2 3 3 4 4 5 5 6 6 7 7 17 8 18 9 19 10 8 13 9 14 16 15
REMARK SMILES IDX 10 16 15 17 11 18 14 19 12 20 13 21
REMARK H PARENT 4 11 18 12 14 22
ROOT
ATOM      1  C   UNL     1      42.861 131.886  22.847  1.00  0.00     0.300 C 
ATOM      2  N   UNL     1      42.730 132.161  21.421  1.00  0.00    -0.199 N 
ATOM      3  C   UNL     1      41.745 132.858  20.799  1.00  0.00     0.405 A 
ATOM      4  N   UNL     1      41.906 132.889  19.451  1.00  0.00    -0.240 N 
ATOM      5  C   UNL     1      43.027 132.180  19.233  1.00  0.00     0.215 A 
ATOM      6  C   UNL     1      43.649 131.874  18.031  1.00  0.00     0.073 A 
ATOM      7  C   UNL     1      44.822 131.083  18.085  1.00  0.00     0.025 A 
ATOM      8  C   UNL     1      45.298 130.643  19.354  1.00  0.00     0.206 A 
ATOM      9  N   UNL     1      44.638 130.977  20.505  1.00  0.00    -0.243 N 
ATOM     10  C   UNL     1      43.519 131.739  20.419  1.00  0.00     0.329 A 
ATOM     11  H   UNL     1      41.290 133.351  18.745  1.00  0.00     0.312 HD
ATOM     12  H   UNL     1      44.995 130.649  21.430  1.00  0.00     0.312 HD
ENDROOT
BRANCH   7  13
ATOM     13  C   UNL     1      45.541 130.714  16.839  1.00  0.00    -0.013 A 
ATOM     14  C   UNL     1      45.746 129.348  16.506  1.00  0.00     0.009 A 
ATOM     15  C   UNL     1      46.030 131.722  15.972  1.00  0.00     0.035 A 
ATOM     16  C   UNL     1      46.427 128.986  15.329  1.00  0.00     0.011 A 
ATOM     17  C   UNL     1      46.700 131.327  14.816  1.00  0.00     0.046 A 
ATOM     18  C   UNL     1      46.891 130.009  14.507  1.00  0.00    -0.001 A 
ATOM     19  N   UNL     1      47.238 132.120  13.875  1.00  0.00    -0.361 N 
ATOM     20  C   UNL     1      47.580 129.958  13.315  1.00  0.00     0.028 A 
ATOM     21  C   UNL     1      47.778 131.288  12.955  1.00  0.00     0.083 A 
ATOM     22  H   UNL     1      47.243 133.164  13.854  1.00  0.00     0.166 HD
ENDBRANCH   7  13
TORSDOF 1
ENDMDL
MODEL 7
REMARK VINA RESULT:      -8.8      0.978      1.810
REMARK SMILES Cn1c[nH+]c2cc(-c3ccc4cc[nH]c4c3)c[nH+]c21
REMARK SMILES IDX 1 1 2 2 3 3 4 4 5 5 6 6 7 7 17 8 18 9 19 10 8 13 9 14 16 15
REMARK SMILES IDX 10 16 15 17 11 18 14 19 12 20 13 21
REMARK H PARENT 4 11 18 12 14 22
ROOT
ATOM      1  C   UNL     1      43.051 131.285  23.420  1.00  0.00     0.300 C 
ATOM      2  N   UNL     1      43.975 130.551  22.563  1.00  0.00    -0.199 N 
ATOM      3  C   UNL     1      44.779 129.514  22.909  1.00  0.00     0.405 A 
ATOM      4  N   UNL     1      45.548 129.088  21.874  1.00  0.00    -0.240 N 
ATOM      5  C   UNL     1      45.210 129.897  20.855  1.00  0.00     0.215 A 
ATOM      6  C   UNL     1      45.701 129.920  19.557  1.00  0.00     0.073 A 
ATOM      7  C   UNL     1      45.180 130.901  18.678  1.00  0.00     0.025 A 
ATOM      8  C   UNL     1      44.192 131.805  19.165  1.00  0.00     0.206 A 
ATOM      9  N   UNL     1      43.750 131.732  20.457  1.00  0.00    -0.243 N 
ATOM     10  C   UNL     1      44.267 130.779  21.272  1.00  0.00     0.329 A 
ATOM     11  H   UNL     1      46.251 128.315  21.876  1.00  0.00     0.312 HD
ATOM     12  H   UNL     1      43.026 132.400  20.803  1.00  0.00     0.312 HD
ENDROOT
BRANCH   7  13
ATOM     13  C   UNL     1      45.659 130.987  17.276  1.00  0.00    -0.013 A 
ATOM     14  C   UNL     1      45.284 132.085  16.455  1.00  0.00     0.009 A 
ATOM     15  C   UNL     1      46.493 129.974  16.742  1.00  0.00     0.035 A 
ATOM     16  C   UNL     1      45.730 132.177  15.124  1.00  0.00     0.011 A 
ATOM     17  C   UNL     1      46.915 130.098  15.419  1.00  0.00     0.046 A 
ATOM     18  C   UNL     1      46.547 131.160  14.641  1.00  0.00    -0.001 A 
ATOM     19  N   UNL     1      47.699 129.252  14.732  1.00  0.00    -0.361 N 
ATOM     20  C   UNL     1      47.122 130.984  13.402  1.00  0.00     0.028 A 
ATOM     21  C   UNL     1      47.829 129.789  13.497  1.00  0.00     0.083 A 
ATOM     22  H   UNL     1      48.123 128.362  15.075  1.00  0.00     0.166 HD
ENDBRANCH   7  13
TORSDOF 1
ENDMDL
MODEL 8
REMARK VINA RESULT:      -8.8      1.692      7.299
REMARK SMILES Cn1c[nH+]c2cc(-c3ccc4cc[nH]c4c3)c[nH+]c21
REMARK SMILES IDX 1 1 2 2 3 3 4 4 5 5 6 6 7 7 17 8 18 9 19 10 8 13 9 14 16 15
REMARK SMILES IDX 10 16 15 17 11 18 14 19 12 20 13 21
REMARK H PARENT 4 11 18 12 14 22
ROOT
ATOM      1  C   UNL     1      47.698 131.365  12.265  1.00  0.00     0.300 C 
ATOM      2  N   UNL     1      47.542 130.559  13.470  1.00  0.00    -0.199 N 
ATOM      3  C   UNL     1      47.964 129.285  13.675  1.00  0.00     0.405 A 
ATOM      4  N   UNL     1      47.616 128.817  14.901  1.00  0.00    -0.240 N 
ATOM      5  C   UNL     1      46.950 129.836  15.470  1.00  0.00     0.215 A 
ATOM      6  C   UNL     1      46.353 129.901  16.721  1.00  0.00     0.073 A 
ATOM      7  C   UNL     1      45.690 131.104  17.067  1.00  0.00     0.025 A 
ATOM      8  C   UNL     1      45.667 132.173  16.125  1.00  0.00     0.206 A 
ATOM      9  N   UNL     1      46.273 132.046  14.906  1.00  0.00    -0.243 N 
ATOM     10  C   UNL     1      46.902 130.882  14.606  1.00  0.00     0.329 A 
ATOM     11  H   UNL     1      47.813 127.873  15.304  1.00  0.00     0.312 HD
ATOM     12  H   UNL     1      46.249 132.836  14.222  1.00  0.00     0.312 HD
ENDROOT
BRANCH   7  13
ATOM     13  C   UNL     1      45.027 131.246  18.388  1.00  0.00    -0.013 A 
ATOM     14  C   UNL     1      45.612 130.673  19.551  1.00  0.00     0.009 A 
ATOM     15  C   UNL     1      43.804 131.951  18.502  1.00  0.00     0.035 A 
ATOM     16  C   UNL     1      44.993 130.800  20.808  1.00  0.00     0.011 A 
ATOM     17  C   UNL     1      43.219 132.056  19.763  1.00  0.00     0.046 A 
ATOM     18  C   UNL     1      43.793 131.501  20.873  1.00  0.00    -0.001 A 
ATOM     19  N   UNL     1      42.070 132.674  20.079  1.00  0.00    -0.361 N 
ATOM     20  C   UNL     1      42.974 131.779  21.945  1.00  0.00     0.028 A 
ATOM     21  C   UNL     1      41.915 132.508  21.412  1.00  0.00     0.083 A 
ATOM     22  H   UNL     1      41.425 133.181  19.432  1.00  0.00     0.166 HD
ENDBRANCH   7  13
TORSDOF 1
ENDMDL
MODEL 9
REMARK VINA RESULT:      -8.7      0.914      1.067
REMARK SMILES Cn1c[nH+]c2cc(-c3ccc4cc[nH]c4c3)c[nH+]c21
REMARK SMILES IDX 1 1 2 2 3 3 4 4 5 5 6 6 7 7 17 8 18 9 19 10 8 13 9 14 16 15
REMARK SMILES IDX 10 16 15 17 11 18 14 19 12 20 13 21
REMARK H PARENT 4 11 18 12 14 22
ROOT
ATOM      1  C   UNL     1      42.738 131.431  23.595  1.00  0.00     0.300 C 
ATOM      2  N   UNL     1      42.487 131.927  22.248  1.00  0.00    -0.199 N 
ATOM      3  C   UNL     1      41.468 132.724  21.835  1.00  0.00     0.405 A 
ATOM      4  N   UNL     1      41.508 132.964  20.499  1.00  0.00    -0.240 N 
ATOM      5  C   UNL     1      42.586 132.284  20.071  1.00  0.00     0.215 A 
ATOM      6  C   UNL     1      43.090 132.163  18.784  1.00  0.00     0.073 A 
ATOM      7  C   UNL     1      44.242 131.360  18.606  1.00  0.00     0.025 A 
ATOM      8  C   UNL     1      44.819 130.722  19.742  1.00  0.00     0.206 A 
ATOM      9  N   UNL     1      44.274 130.879  20.987  1.00  0.00    -0.243 N 
ATOM     10  C   UNL     1      43.172 131.658  21.124  1.00  0.00     0.329 A 
ATOM     11  H   UNL     1      40.843 133.537  19.933  1.00  0.00     0.312 HD
ATOM     12  H   UNL     1      44.704 130.406  21.812  1.00  0.00     0.312 HD
ENDROOT
BRANCH   7  13
ATOM     13  C   UNL     1      44.836 131.183  17.257  1.00  0.00    -0.013 A 
ATOM     14  C   UNL     1      44.242 131.803  16.123  1.00  0.00     0.009 A 
ATOM     15  C   UNL     1      46.000 130.393  17.086  1.00  0.00     0.035 A 
ATOM     16  C   UNL     1      44.795 131.641  14.840  1.00  0.00     0.011 A 
ATOM     17  C   UNL     1      46.519 130.255  15.800  1.00  0.00     0.046 A 
ATOM     18  C   UNL     1      45.938 130.857  14.719  1.00  0.00    -0.001 A 
ATOM     19  N   UNL     1      47.602 129.553  15.430  1.00  0.00    -0.361 N 
ATOM     20  C   UNL     1      46.684 130.525  13.609  1.00  0.00     0.028 A 
ATOM     21  C   UNL     1      47.708 129.715  14.091  1.00  0.00     0.083 A 
ATOM     22  H   UNL     1      48.235 128.996  16.045  1.00  0.00     0.166 HD
ENDBRANCH   7  13
TORSDOF 1
ENDMDL


