REMARK SMILES Cc1cc[nH+]c(-c2ccc3[n-]c([NH2+]c4cn5ccccc5[nH+]4)cc3c2)c1F
REMARK SMILES IDX 7 1 8 2 9 3 10 4 11 5 12 6 23 7 24 8 25 9 6 10 2 11 3 12
REMARK SMILES IDX 26 13 4 14 5 15 1 16 27 17 13 19 14 22 15 23 22 24 16 25
REMARK SMILES IDX 21 26 17 27 20 28 18 29 19 30
REMARK H PARENT 5 18 13 20 13 21 22 31
ROOT
ATOM      1  C   UNL     1      -2.291  -0.592   0.696  1.00  0.00     0.050 A 
ATOM      2  C   UNL     1      -3.003   0.353  -0.088  1.00  0.00     0.014 A 
ATOM      3  C   UNL     1      -2.360   1.490  -0.607  1.00  0.00    -0.014 A 
ATOM      4  C   UNL     1      -1.006   1.660  -0.330  1.00  0.00    -0.125 A 
ATOM      5  N   UNL     1      -0.221   2.669  -0.749  1.00  0.00    -0.610 NA
ATOM      6  C   UNL     1       0.996   2.374  -0.227  1.00  0.00     0.039 A 
ATOM      7  C   UNL     1       0.989   1.186   0.497  1.00  0.00     0.050 A 
ATOM      8  C   UNL     1      -0.310   0.750   0.421  1.00  0.00    -0.035 A 
ATOM      9  C   UNL     1      -0.913  -0.389   0.948  1.00  0.00     0.022 A 
ENDROOT
BRANCH   1  10
ATOM     10  C   UNL     1      -2.985  -1.792   1.223  1.00  0.00     0.247 A 
ATOM     11  C   UNL     1      -3.480  -3.338   3.030  1.00  0.00    -0.002 A 
ATOM     12  C   UNL     1      -4.317  -4.049   2.162  1.00  0.00     0.077 A 
ATOM     13  C   UNL     1      -2.811  -2.199   2.560  1.00  0.00     0.198 A 
ATOM     14  C   UNL     1      -4.472  -3.614   0.846  1.00  0.00     0.307 A 
ATOM     15  N   UNL     1      -3.815  -2.508   0.406  1.00  0.00    -0.209 N 
ATOM     16  C   UNL     1      -3.311  -3.778   4.456  1.00  0.00     0.048 C 
ATOM     17  F   UNL     1      -2.033  -1.476   3.408  1.00  0.00    -0.199 F 
ATOM     18  H   UNL     1      -3.945  -2.221  -0.591  1.00  0.00     0.453 HD
ENDBRANCH   1  10
BRANCH   6  19
ATOM     19  N   UNL     1       2.165   3.164  -0.481  1.00  0.00    -0.262 N 
ATOM     20  H   UNL     1       2.822   3.100   0.331  1.00  0.00     0.360 HD
ATOM     21  H   UNL     1       1.891   4.165  -0.615  1.00  0.00     0.360 HD
BRANCH  19  22
ATOM     22  C   UNL     1       2.812   2.674  -1.663  1.00  0.00     0.330 A 
ATOM     23  C   UNL     1       2.540   3.081  -2.962  1.00  0.00     0.322 A 
ATOM     24  N   UNL     1       3.708   1.660  -1.669  1.00  0.00    -0.191 N 
ATOM     25  N   UNL     1       3.292   2.314  -3.770  1.00  0.00    -0.196 N 
ATOM     26  C   UNL     1       3.979   1.474  -2.975  1.00  0.00     0.288 A 
ATOM     27  C   UNL     1       3.386   2.308  -5.124  1.00  0.00     0.206 A 
ATOM     28  C   UNL     1       4.848   0.526  -3.514  1.00  0.00     0.099 A 
ATOM     29  C   UNL     1       4.251   1.379  -5.722  1.00  0.00     0.044 A 
ATOM     30  C   UNL     1       4.981   0.487  -4.912  1.00  0.00     0.012 A 
ATOM     31  H   UNL     1       4.085   1.131  -0.851  1.00  0.00     0.318 HD
ENDBRANCH  19  22
ENDBRANCH   6  19
TORSDOF 3


