MODEL 1
REMARK VINA RESULT:      -9.3      0.000      0.000
REMARK SMILES C=Cc1cc(-c2ccc(C(C)=O)c3[nH]ncc23)ccc1O
REMARK SMILES IDX 6 1 7 2 8 3 9 4 13 5 14 6 15 7 16 8 17 9 5 11 3 12 4 13
REMARK SMILES IDX 20 14 19 15 18 16 2 17 1 18 21 19 10 21 11 22 12 23
REMARK H PARENT 14 10 21 20
ROOT
ATOM      1  C   UNL     1      44.987 131.022  18.565  1.00  0.00    -0.007 A 
ATOM      2  C   UNL     1      45.883 130.440  19.485  1.00  0.00     0.010 A 
ATOM      3  C   UNL     1      45.606 130.446  20.869  1.00  0.00     0.015 A 
ATOM      4  C   UNL     1      44.420 131.031  21.375  1.00  0.00     0.043 A 
ATOM      5  C   UNL     1      43.541 131.589  20.431  1.00  0.00     0.076 A 
ATOM      6  N   UNL     1      42.324 132.134  20.624  1.00  0.00    -0.277 N 
ATOM      7  N   UNL     1      41.817 132.474  19.446  1.00  0.00    -0.183 NA
ATOM      8  C   UNL     1      42.710 132.148  18.484  1.00  0.00     0.144 A 
ATOM      9  C   UNL     1      43.816 131.583  19.088  1.00  0.00     0.028 A 
ATOM     10  H   UNL     1      41.813 132.253  21.525  1.00  0.00     0.190 HD
ENDROOT
BRANCH   1  11
ATOM     11  C   UNL     1      45.286 131.020  17.113  1.00  0.00    -0.017 A 
ATOM     12  C   UNL     1      46.520 130.118  15.201  1.00  0.00     0.016 A 
ATOM     13  C   UNL     1      46.232 130.129  16.580  1.00  0.00     0.020 A 
ATOM     14  C   UNL     1      45.837 131.021  14.351  1.00  0.00     0.122 A 
ATOM     15  C   UNL     1      44.895 131.904  14.889  1.00  0.00     0.047 A 
ATOM     16  C   UNL     1      44.616 131.901  16.255  1.00  0.00     0.012 A 
BRANCH  12  17
ATOM     17  C   UNL     1      47.564 129.210  14.666  1.00  0.00     0.004 C 
ATOM     18  C   UNL     1      48.424 129.577  13.714  1.00  0.00     0.009 C 
ENDBRANCH  12  17
BRANCH  14  19
ATOM     19  O   UNL     1      46.048 131.052  12.970  1.00  0.00    -0.507 OA
ATOM     20  H   UNL     1      45.934 130.246  12.370  1.00  0.00     0.293 HD
ENDBRANCH  14  19
ENDBRANCH   1  11
BRANCH   4  21
ATOM     21  C   UNL     1      44.147 131.053  22.835  1.00  0.00     0.161 C 
ATOM     22  C   UNL     1      44.333 129.831  23.683  1.00  0.00     0.093 C 
ATOM     23  O   UNL     1      43.804 132.128  23.397  1.00  0.00    -0.294 OA
ENDBRANCH   4  21
TORSDOF 4
ENDMDL
MODEL 2
REMARK VINA RESULT:      -8.5      1.184      2.139
REMARK SMILES C=Cc1cc(-c2ccc(C(C)=O)c3[nH]ncc23)ccc1O
REMARK SMILES IDX 6 1 7 2 8 3 9 4 13 5 14 6 15 7 16 8 17 9 5 11 3 12 4 13
REMARK SMILES IDX 20 14 19 15 18 16 2 17 1 18 21 19 10 21 11 22 12 23
REMARK H PARENT 14 10 21 20
ROOT
ATOM      1  C   UNL     1      44.712 131.089  19.186  1.00  0.00    -0.007 A 
ATOM      2  C   UNL     1      45.488 130.633  20.272  1.00  0.00     0.010 A 
ATOM      3  C   UNL     1      45.072 130.853  21.602  1.00  0.00     0.015 A 
ATOM      4  C   UNL     1      43.865 131.534  21.888  1.00  0.00     0.043 A 
ATOM      5  C   UNL     1      43.107 131.962  20.784  1.00  0.00     0.076 A 
ATOM      6  N   UNL     1      41.898 132.557  20.765  1.00  0.00    -0.277 N 
ATOM      7  N   UNL     1      41.526 132.727  19.503  1.00  0.00    -0.183 NA
ATOM      8  C   UNL     1      42.499 132.241  18.699  1.00  0.00     0.144 A 
ATOM      9  C   UNL     1      43.516 131.748  19.494  1.00  0.00     0.028 A 
ATOM     10  H   UNL     1      41.303 132.822  21.580  1.00  0.00     0.190 HD
ENDROOT
BRANCH   1  11
ATOM     11  C   UNL     1      45.156 130.861  17.790  1.00  0.00    -0.017 A 
ATOM     12  C   UNL     1      44.918 131.283  15.391  1.00  0.00     0.016 A 
ATOM     13  C   UNL     1      44.500 131.491  16.720  1.00  0.00     0.020 A 
ATOM     14  C   UNL     1      46.019 130.427  15.144  1.00  0.00     0.122 A 
ATOM     15  C   UNL     1      46.668 129.804  16.215  1.00  0.00     0.047 A 
ATOM     16  C   UNL     1      46.247 130.023  17.527  1.00  0.00     0.012 A 
BRANCH  12  17
ATOM     17  C   UNL     1      44.176 131.911  14.270  1.00  0.00     0.004 C 
ATOM     18  C   UNL     1      42.996 131.461  13.842  1.00  0.00     0.009 C 
ENDBRANCH  12  17
BRANCH  14  19
ATOM     19  O   UNL     1      46.509 130.191  13.858  1.00  0.00    -0.507 OA
ATOM     20  H   UNL     1      46.179 130.682  13.037  1.00  0.00     0.293 HD
ENDBRANCH  14  19
ENDBRANCH   1  11
BRANCH   4  21
ATOM     21  C   UNL     1      43.446 131.782  23.291  1.00  0.00     0.161 C 
ATOM     22  C   UNL     1      44.415 132.289  24.317  1.00  0.00     0.093 C 
ATOM     23  O   UNL     1      42.243 131.621  23.630  1.00  0.00    -0.294 OA
ENDBRANCH   4  21
TORSDOF 4
ENDMDL
MODEL 3
REMARK VINA RESULT:      -8.5      2.191      6.804
REMARK SMILES C=Cc1cc(-c2ccc(C(C)=O)c3[nH]ncc23)ccc1O
REMARK SMILES IDX 6 1 7 2 8 3 9 4 13 5 14 6 15 7 16 8 17 9 5 11 3 12 4 13
REMARK SMILES IDX 20 14 19 15 18 16 2 17 1 18 21 19 10 21 11 22 12 23
REMARK H PARENT 14 10 21 20
ROOT
ATOM      1  C   UNL     1      44.894 131.059  17.442  1.00  0.00    -0.007 A 
ATOM      2  C   UNL     1      46.183 130.507  17.594  1.00  0.00     0.010 A 
ATOM      3  C   UNL     1      46.957 130.154  16.468  1.00  0.00     0.015 A 
ATOM      4  C   UNL     1      46.468 130.347  15.154  1.00  0.00     0.043 A 
ATOM      5  C   UNL     1      45.186 130.913  15.036  1.00  0.00     0.076 A 
ATOM      6  N   UNL     1      44.517 131.271  13.924  1.00  0.00    -0.277 N 
ATOM      7  N   UNL     1      43.366 131.828  14.278  1.00  0.00    -0.183 NA
ATOM      8  C   UNL     1      43.289 131.830  15.629  1.00  0.00     0.144 A 
ATOM      9  C   UNL     1      44.437 131.251  16.133  1.00  0.00     0.028 A 
ATOM     10  H   UNL     1      44.830 131.180  12.933  1.00  0.00     0.190 HD
ENDROOT
BRANCH   1  11
ATOM     11  C   UNL     1      44.082 131.421  18.627  1.00  0.00    -0.017 A 
ATOM     12  C   UNL     1      43.812 131.552  21.057  1.00  0.00     0.016 A 
ATOM     13  C   UNL     1      44.576 131.208  19.924  1.00  0.00     0.020 A 
ATOM     14  C   UNL     1      42.530 132.124  20.871  1.00  0.00     0.122 A 
ATOM     15  C   UNL     1      42.045 132.335  19.576  1.00  0.00     0.047 A 
ATOM     16  C   UNL     1      42.814 131.994  18.464  1.00  0.00     0.012 A 
BRANCH  12  17
ATOM     17  C   UNL     1      44.327 131.265  22.418  1.00  0.00     0.004 C 
ATOM     18  C   UNL     1      44.130 130.100  23.036  1.00  0.00     0.009 C 
ENDBRANCH  12  17
BRANCH  14  19
ATOM     19  O   UNL     1      41.724 132.516  21.942  1.00  0.00    -0.507 OA
ATOM     20  H   UNL     1      41.671 132.008  22.815  1.00  0.00     0.293 HD
ENDBRANCH  14  19
ENDBRANCH   1  11
BRANCH   4  21
ATOM     21  C   UNL     1      47.280 129.951  13.975  1.00  0.00     0.161 C 
ATOM     22  C   UNL     1      47.591 130.926  12.879  1.00  0.00     0.093 C 
ATOM     23  O   UNL     1      47.771 128.793  13.905  1.00  0.00    -0.294 OA
ENDBRANCH   4  21
TORSDOF 4
ENDMDL
MODEL 4
REMARK VINA RESULT:      -7.6      2.502      6.983
REMARK SMILES C=Cc1cc(-c2ccc(C(C)=O)c3[nH]ncc23)ccc1O
REMARK SMILES IDX 6 1 7 2 8 3 9 4 13 5 14 6 15 7 16 8 17 9 5 11 3 12 4 13
REMARK SMILES IDX 20 14 19 15 18 16 2 17 1 18 21 19 10 21 11 22 12 23
REMARK H PARENT 14 10 21 20
ROOT
ATOM      1  C   UNL     1      45.116 131.391  16.714  1.00  0.00    -0.007 A 
ATOM      2  C   UNL     1      45.798 132.449  16.078  1.00  0.00     0.010 A 
ATOM      3  C   UNL     1      46.621 132.210  14.957  1.00  0.00     0.015 A 
ATOM      4  C   UNL     1      46.784 130.905  14.434  1.00  0.00     0.043 A 
ATOM      5  C   UNL     1      46.080 129.875  15.081  1.00  0.00     0.076 A 
ATOM      6  N   UNL     1      45.993 128.571  14.753  1.00  0.00    -0.277 N 
ATOM      7  N   UNL     1      45.167 127.972  15.600  1.00  0.00    -0.183 NA
ATOM      8  C   UNL     1      44.716 128.892  16.483  1.00  0.00     0.144 A 
ATOM      9  C   UNL     1      45.284 130.111  16.172  1.00  0.00     0.028 A 
ATOM     10  H   UNL     1      46.451 128.082  13.954  1.00  0.00     0.190 HD
ENDROOT
BRANCH   1  11
ATOM     11  C   UNL     1      44.259 131.646  17.896  1.00  0.00    -0.017 A 
ATOM     12  C   UNL     1      43.969 131.757  20.325  1.00  0.00     0.016 A 
ATOM     13  C   UNL     1      44.776 131.513  19.195  1.00  0.00     0.020 A 
ATOM     14  C   UNL     1      42.620 132.143  20.133  1.00  0.00     0.122 A 
ATOM     15  C   UNL     1      42.113 132.274  18.836  1.00  0.00     0.047 A 
ATOM     16  C   UNL     1      42.924 132.034  17.727  1.00  0.00     0.012 A 
BRANCH  12  17
ATOM     17  C   UNL     1      44.517 131.555  21.688  1.00  0.00     0.004 C 
ATOM     18  C   UNL     1      44.460 130.385  22.326  1.00  0.00     0.009 C 
ENDBRANCH  12  17
BRANCH  14  19
ATOM     19  O   UNL     1      41.765 132.427  21.200  1.00  0.00    -0.507 OA
ATOM     20  H   UNL     1      41.749 133.318  21.679  1.00  0.00     0.293 HD
ENDBRANCH  14  19
ENDBRANCH   1  11
BRANCH   4  21
ATOM     21  C   UNL     1      47.670 130.659  13.268  1.00  0.00     0.161 C 
ATOM     22  C   UNL     1      48.699 129.569  13.285  1.00  0.00     0.093 C 
ATOM     23  O   UNL     1      47.530 131.335  12.213  1.00  0.00    -0.294 OA
ENDBRANCH   4  21
TORSDOF 4
ENDMDL
MODEL 5
REMARK VINA RESULT:      -6.6      1.528      2.208
REMARK SMILES C=Cc1cc(-c2ccc(C(C)=O)c3[nH]ncc23)ccc1O
REMARK SMILES IDX 6 1 7 2 8 3 9 4 13 5 14 6 15 7 16 8 17 9 5 11 3 12 4 13
REMARK SMILES IDX 20 14 19 15 18 16 2 17 1 18 21 19 10 21 11 22 12 23
REMARK H PARENT 14 10 21 20
ROOT
ATOM      1  C   UNL     1      44.107 131.418  18.057  1.00  0.00    -0.007 A 
ATOM      2  C   UNL     1      42.766 131.804  18.261  1.00  0.00     0.010 A 
ATOM      3  C   UNL     1      42.243 131.945  19.564  1.00  0.00     0.015 A 
ATOM      4  C   UNL     1      43.047 131.708  20.705  1.00  0.00     0.043 A 
ATOM      5  C   UNL     1      44.383 131.340  20.468  1.00  0.00     0.076 A 
ATOM      6  N   UNL     1      45.375 131.132  21.355  1.00  0.00    -0.277 N 
ATOM      7  N   UNL     1      46.492 130.866  20.691  1.00  0.00    -0.183 NA
ATOM      8  C   UNL     1      46.223 130.902  19.366  1.00  0.00     0.144 A 
ATOM      9  C   UNL     1      44.885 131.201  19.200  1.00  0.00     0.028 A 
ATOM     10  H   UNL     1      45.326 131.196  22.395  1.00  0.00     0.190 HD
ENDROOT
BRANCH   1  11
ATOM     11  C   UNL     1      44.649 131.264  16.686  1.00  0.00    -0.017 A 
ATOM     12  C   UNL     1      46.337 130.362  15.159  1.00  0.00     0.016 A 
ATOM     13  C   UNL     1      45.816 130.516  16.459  1.00  0.00     0.020 A 
ATOM     14  C   UNL     1      45.663 130.972  14.074  1.00  0.00     0.122 A 
ATOM     15  C   UNL     1      44.501 131.715  14.308  1.00  0.00     0.047 A 
ATOM     16  C   UNL     1      43.993 131.856  15.599  1.00  0.00     0.012 A 
BRANCH  12  17
ATOM     17  C   UNL     1      47.602 129.617  14.948  1.00  0.00     0.004 C 
ATOM     18  C   UNL     1      48.197 129.523  13.758  1.00  0.00     0.009 C 
ENDBRANCH  12  17
BRANCH  14  19
ATOM     19  O   UNL     1      46.101 130.843  12.754  1.00  0.00    -0.507 OA
ATOM     20  H   UNL     1      47.024 131.120  12.444  1.00  0.00     0.293 HD
ENDBRANCH  14  19
ENDBRANCH   1  11
BRANCH   4  21
ATOM     21  C   UNL     1      42.482 131.837  22.072  1.00  0.00     0.161 C 
ATOM     22  C   UNL     1      42.903 130.918  23.180  1.00  0.00     0.093 C 
ATOM     23  O   UNL     1      41.674 132.766  22.338  1.00  0.00    -0.294 OA
ENDBRANCH   4  21
TORSDOF 4
ENDMDL
MODEL 6
REMARK VINA RESULT:      -6.6      1.860      6.869
REMARK SMILES C=Cc1cc(-c2ccc(C(C)=O)c3[nH]ncc23)ccc1O
REMARK SMILES IDX 6 1 7 2 8 3 9 4 13 5 14 6 15 7 16 8 17 9 5 11 3 12 4 13
REMARK SMILES IDX 20 14 19 15 18 16 2 17 1 18 21 19 10 21 11 22 12 23
REMARK H PARENT 14 10 21 20
ROOT
ATOM      1  C   UNL     1      45.481 130.696  17.766  1.00  0.00    -0.007 A 
ATOM      2  C   UNL     1      46.762 130.158  17.528  1.00  0.00     0.010 A 
ATOM      3  C   UNL     1      47.266 130.040  16.215  1.00  0.00     0.015 A 
ATOM      4  C   UNL     1      46.505 130.461  15.099  1.00  0.00     0.043 A 
ATOM      5  C   UNL     1      45.238 131.007  15.370  1.00  0.00     0.076 A 
ATOM      6  N   UNL     1      44.348 131.549  14.517  1.00  0.00    -0.277 N 
ATOM      7  N   UNL     1      43.312 132.001  15.211  1.00  0.00    -0.183 NA
ATOM      8  C   UNL     1      43.530 131.750  16.522  1.00  0.00     0.144 A 
ATOM      9  C   UNL     1      44.751 131.117  16.647  1.00  0.00     0.028 A 
ATOM     10  H   UNL     1      44.435 131.651  13.482  1.00  0.00     0.190 HD
ENDROOT
BRANCH   1  11
ATOM     11  C   UNL     1      44.953 130.811  19.146  1.00  0.00    -0.017 A 
ATOM     12  C   UNL     1      43.312 131.713  20.724  1.00  0.00     0.016 A 
ATOM     13  C   UNL     1      43.823 131.601  19.415  1.00  0.00     0.020 A 
ATOM     14  C   UNL     1      43.955 131.012  21.773  1.00  0.00     0.122 A 
ATOM     15  C   UNL     1      45.079 130.227  21.497  1.00  0.00     0.047 A 
ATOM     16  C   UNL     1      45.571 130.121  20.197  1.00  0.00     0.012 A 
BRANCH  12  17
ATOM     17  C   UNL     1      42.153 132.598  20.997  1.00  0.00     0.004 C 
ATOM     18  C   UNL     1      41.431 133.165  20.030  1.00  0.00     0.009 C 
ENDBRANCH  12  17
BRANCH  14  19
ATOM     19  O   UNL     1      43.494 131.052  23.091  1.00  0.00    -0.507 OA
ATOM     20  H   UNL     1      44.073 130.834  23.891  1.00  0.00     0.293 HD
ENDBRANCH  14  19
ENDBRANCH   1  11
BRANCH   4  21
ATOM     21  C   UNL     1      47.033 130.312  13.719  1.00  0.00     0.161 C 
ATOM     22  C   UNL     1      48.197 129.415  13.421  1.00  0.00     0.093 C 
ATOM     23  O   UNL     1      46.469 130.902  12.759  1.00  0.00    -0.294 OA
ENDBRANCH   4  21
TORSDOF 4
ENDMDL
MODEL 7
REMARK VINA RESULT:      -6.5      1.960      2.875
REMARK SMILES C=Cc1cc(-c2ccc(C(C)=O)c3[nH]ncc23)ccc1O
REMARK SMILES IDX 6 1 7 2 8 3 9 4 13 5 14 6 15 7 16 8 17 9 5 11 3 12 4 13
REMARK SMILES IDX 20 14 19 15 18 16 2 17 1 18 21 19 10 21 11 22 12 23
REMARK H PARENT 14 10 21 20
ROOT
ATOM      1  C   UNL     1      44.520 131.076  17.718  1.00  0.00    -0.007 A 
ATOM      2  C   UNL     1      43.226 131.568  17.446  1.00  0.00     0.010 A 
ATOM      3  C   UNL     1      42.415 132.084  18.478  1.00  0.00     0.015 A 
ATOM      4  C   UNL     1      42.874 132.130  19.816  1.00  0.00     0.043 A 
ATOM      5  C   UNL     1      44.173 131.646  20.053  1.00  0.00     0.076 A 
ATOM      6  N   UNL     1      44.879 131.641  21.199  1.00  0.00    -0.277 N 
ATOM      7  N   UNL     1      46.087 131.151  20.954  1.00  0.00    -0.183 NA
ATOM      8  C   UNL     1      46.164 130.835  19.641  1.00  0.00     0.144 A 
ATOM      9  C   UNL     1      44.956 131.142  19.047  1.00  0.00     0.028 A 
ATOM     10  H   UNL     1      44.580 131.989  22.136  1.00  0.00     0.190 HD
ENDROOT
BRANCH   1  11
ATOM     11  C   UNL     1      45.365 130.528  16.632  1.00  0.00    -0.017 A 
ATOM     12  C   UNL     1      46.853 130.873  14.718  1.00  0.00     0.016 A 
ATOM     13  C   UNL     1      46.044 131.386  15.752  1.00  0.00     0.020 A 
ATOM     14  C   UNL     1      46.976 129.469  14.578  1.00  0.00     0.122 A 
ATOM     15  C   UNL     1      46.298 128.621  15.459  1.00  0.00     0.047 A 
ATOM     16  C   UNL     1      45.505 129.142  16.480  1.00  0.00     0.012 A 
BRANCH  12  17
ATOM     17  C   UNL     1      47.515 131.795  13.764  1.00  0.00     0.004 C 
ATOM     18  C   UNL     1      47.940 131.409  12.561  1.00  0.00     0.009 C 
ENDBRANCH  12  17
BRANCH  14  19
ATOM     19  O   UNL     1      47.779 128.885  13.596  1.00  0.00    -0.507 OA
ATOM     20  H   UNL     1      48.790 128.936  13.599  1.00  0.00     0.293 HD
ENDBRANCH  14  19
ENDBRANCH   1  11
BRANCH   4  21
ATOM     21  C   UNL     1      42.005 132.654  20.900  1.00  0.00     0.161 C 
ATOM     22  C   UNL     1      42.170 132.202  22.320  1.00  0.00     0.093 C 
ATOM     23  O   UNL     1      41.143 133.538  20.648  1.00  0.00    -0.294 OA
ENDBRANCH   4  21
TORSDOF 4
ENDMDL


