REMARK SMILES O=C([N-]c1cc(F)c(F)cc1[NH2+]c1ccc(F)cc1)[C@H]1C[C@H](O)C[NH2+]1
REMARK SMILES IDX 3 1 2 2 1 3 20 4 21 5 25 6 22 7 24 8 23 11 4 13 5 14 11 15
REMARK SMILES IDX 6 16 10 17 8 18 7 19 9 20 12 21 13 24 14 25 19 26 15 27
REMARK SMILES IDX 18 28 16 29 17 30
REMARK H PARENT 25 9 25 10 23 12 12 22 12 23
ROOT
ATOM      1  N   UNL     1       0.384  -0.431   1.357  1.00  0.00    -0.617 NA
ENDROOT
BRANCH   1   2
ATOM      2  C   UNL     1      -0.338   0.175   2.438  1.00  0.00     0.113 C 
ATOM      3  O   UNL     1      -1.549  -0.112   2.639  1.00  0.00    -0.314 OA
BRANCH   2   4
ATOM      4  C   UNL     1       0.328   1.229   3.292  1.00  0.00     0.234 C 
ATOM      5  C   UNL     1       1.653   0.731   3.856  1.00  0.00     0.109 C 
ATOM      6  N   UNL     1       0.632   2.434   2.511  1.00  0.00    -0.337 N 
ATOM      7  C   UNL     1       2.702   1.209   2.864  1.00  0.00     0.175 C 
ATOM      8  C   UNL     1       2.027   2.325   2.064  1.00  0.00     0.293 C 
ATOM      9  H   UNL     1      -0.014   2.553   1.695  1.00  0.00     0.346 HD
ATOM     10  H   UNL     1       0.537   3.273   3.131  1.00  0.00     0.346 HD
BRANCH   7  11
ATOM     11  O   UNL     1       3.840   1.695   3.526  1.00  0.00    -0.387 OA
ATOM     12  H   UNL     1       4.320   0.901   3.881  1.00  0.00     0.211 HD
ENDBRANCH   7  11
ENDBRANCH   2   4
ENDBRANCH   1   2
BRANCH   1  13
ATOM     13  C   UNL     1       0.015  -1.615   0.634  1.00  0.00    -0.068 A 
ATOM     14  C   UNL     1      -0.774  -2.614   1.235  1.00  0.00     0.032 A 
ATOM     15  C   UNL     1       0.513  -1.817  -0.676  1.00  0.00     0.123 A 
ATOM     16  C   UNL     1      -1.102  -3.777   0.534  1.00  0.00     0.158 A 
ATOM     17  C   UNL     1       0.170  -2.995  -1.367  1.00  0.00     0.109 A 
ATOM     18  C   UNL     1      -0.634  -3.965  -0.767  1.00  0.00     0.164 A 
ATOM     19  F   UNL     1      -1.864  -4.730   1.125  1.00  0.00    -0.204 F 
ATOM     20  F   UNL     1      -0.952  -5.094  -1.447  1.00  0.00    -0.204 F 
BRANCH  15  21
ATOM     21  N   UNL     1       1.323  -0.816  -1.333  1.00  0.00    -0.283 N 
ATOM     22  H   UNL     1       2.031  -1.283  -1.947  1.00  0.00     0.358 HD
ATOM     23  H   UNL     1       1.867  -0.255  -0.638  1.00  0.00     0.358 HD
BRANCH  21  24
ATOM     24  C   UNL     1       0.483   0.049  -2.125  1.00  0.00     0.134 A 
ATOM     25  C   UNL     1      -0.083   1.207  -1.562  1.00  0.00     0.071 A 
ATOM     26  C   UNL     1       0.188  -0.273  -3.463  1.00  0.00     0.071 A 
ATOM     27  C   UNL     1      -0.920   2.028  -2.322  1.00  0.00     0.045 A 
ATOM     28  C   UNL     1      -0.650   0.551  -4.221  1.00  0.00     0.045 A 
ATOM     29  C   UNL     1      -1.204   1.701  -3.651  1.00  0.00     0.123 A 
ATOM     30  F   UNL     1      -2.017   2.498  -4.387  1.00  0.00    -0.207 F 
ENDBRANCH  21  24
ENDBRANCH  15  21
ENDBRANCH   1  13
TORSDOF 6


