REMARK SMILES Nc1cc(NC2CC(=O)C2)c(C=O)cc1-c1ccc2c(c1)[N-]C(=O)C2
REMARK SMILES IDX 2 1 3 2 4 3 11 4 14 5 15 6 1 7 16 10 17 11 21 12 18 13 20 14
REMARK SMILES IDX 19 15 22 16 25 17 23 18 24 19 5 20 6 22 7 23 10 24 8 25 9 26
REMARK SMILES IDX 12 27 13 28
REMARK H PARENT 1 8 1 9 5 21
ROOT
ATOM      1  C   UNL     1      -0.681   1.172   0.185  1.00  0.00     0.041 A 
ATOM      2  C   UNL     1      -1.408   0.297  -0.633  1.00  0.00     0.052 A 
ATOM      3  C   UNL     1      -1.514  -1.065  -0.324  1.00  0.00     0.047 A 
ATOM      4  C   UNL     1      -0.917  -1.562   0.859  1.00  0.00     0.038 A 
ATOM      5  C   UNL     1      -0.168  -0.690   1.663  1.00  0.00     0.024 A 
ATOM      6  C   UNL     1      -0.031   0.668   1.334  1.00  0.00     0.005 A 
ENDROOT
BRANCH   1   7
ATOM      7  N   UNL     1      -0.645   2.566  -0.150  1.00  0.00    -0.398 N 
ATOM      8  H   UNL     1      -1.081   2.910  -1.034  1.00  0.00     0.156 HD
ATOM      9  H   UNL     1      -0.254   3.281   0.501  1.00  0.00     0.156 HD
ENDBRANCH   1   7
BRANCH   6  10
ATOM     10  C   UNL     1       0.805   1.528   2.200  1.00  0.00    -0.018 A 
ATOM     11  C   UNL     1       0.510   1.648   3.579  1.00  0.00     0.009 A 
ATOM     12  C   UNL     1       1.926   2.198   1.665  1.00  0.00    -0.007 A 
ATOM     13  C   UNL     1       1.311   2.445   4.413  1.00  0.00     0.003 A 
ATOM     14  C   UNL     1       2.704   2.982   2.515  1.00  0.00    -0.130 A 
ATOM     15  C   UNL     1       2.405   3.104   3.854  1.00  0.00    -0.057 A 
ATOM     16  N   UNL     1       3.855   3.719   2.139  1.00  0.00    -0.626 NA
ATOM     17  C   UNL     1       3.391   3.990   4.532  1.00  0.00     0.089 C 
ATOM     18  C   UNL     1       4.265   4.327   3.362  1.00  0.00     0.059 C 
ATOM     19  O   UNL     1       5.274   5.077   3.438  1.00  0.00    -0.320 OA
ENDBRANCH   6  10
BRANCH   3  20
ATOM     20  N   UNL     1      -2.212  -1.921  -1.235  1.00  0.00    -0.381 N 
ATOM     21  H   UNL     1      -3.128  -1.577  -1.607  1.00  0.00     0.160 HD
BRANCH  20  22
ATOM     22  C   UNL     1      -1.474  -2.912  -2.024  1.00  0.00     0.094 C 
ATOM     23  C   UNL     1      -1.233  -2.457  -3.432  1.00  0.00     0.100 C 
ATOM     24  C   UNL     1      -2.362  -3.974  -2.600  1.00  0.00     0.100 C 
ATOM     25  C   UNL     1      -2.129  -3.526  -4.033  1.00  0.00     0.137 C 
ATOM     26  O   UNL     1      -2.491  -3.867  -5.146  1.00  0.00    -0.300 OA
ENDBRANCH  20  22
ENDBRANCH   3  20
BRANCH   4  27
ATOM     27  C   UNL     1      -1.080  -2.960   1.316  1.00  0.00     0.262 C 
ATOM     28  O   UNL     1      -1.967  -3.715   0.837  1.00  0.00    -0.298 OA
ENDBRANCH   4  27
TORSDOF 5


