MODEL 1
REMARK VINA RESULT:     -10.2      0.000      0.000
REMARK SMILES CC(=O)c1ccc(-c2cc3ccccc3[nH]2)cn1
REMARK SMILES IDX 4 1 5 2 6 3 7 4 17 5 18 6 2 7 1 8 3 9 8 10 9 11 16 12 10 13
REMARK SMILES IDX 15 14 11 15 14 16 12 17 13 18
REMARK H PARENT 16 19
ROOT
ATOM      1  C   UNL     1      43.883 131.444  20.863  1.00  0.00     0.106 A 
ATOM      2  C   UNL     1      45.144 130.834  20.809  1.00  0.00     0.033 A 
ATOM      3  C   UNL     1      45.772 130.657  19.574  1.00  0.00     0.014 A 
ATOM      4  C   UNL     1      45.147 131.085  18.393  1.00  0.00     0.016 A 
ATOM      5  C   UNL     1      43.884 131.693  18.493  1.00  0.00     0.122 A 
ATOM      6  N   UNL     1      43.293 131.853  19.707  1.00  0.00    -0.252 NA
ENDROOT
BRANCH   1   7
ATOM      7  C   UNL     1      43.188 131.649  22.152  1.00  0.00     0.178 C 
ATOM      8  C   UNL     1      43.828 131.229  23.439  1.00  0.00     0.095 C 
ATOM      9  O   UNL     1      42.044 132.179  22.180  1.00  0.00    -0.293 OA
ENDBRANCH   1   7
BRANCH   4  10
ATOM     10  C   UNL     1      45.804 130.902  17.073  1.00  0.00     0.048 A 
ATOM     11  C   UNL     1      45.773 131.819  16.019  1.00  0.00     0.037 A 
ATOM     12  N   UNL     1      46.524 129.805  16.728  1.00  0.00    -0.354 N 
ATOM     13  C   UNL     1      46.508 131.235  15.011  1.00  0.00     0.000 A 
ATOM     14  C   UNL     1      46.945 130.022  15.471  1.00  0.00     0.046 A 
ATOM     15  C   UNL     1      46.815 131.692  13.731  1.00  0.00     0.010 A 
ATOM     16  C   UNL     1      47.719 129.173  14.679  1.00  0.00     0.026 A 
ATOM     17  C   UNL     1      47.596 130.859  12.908  1.00  0.00     0.001 A 
ATOM     18  C   UNL     1      48.046 129.605  13.381  1.00  0.00     0.002 A 
ATOM     19  H   UNL     1      46.704 128.950  17.299  1.00  0.00     0.167 HD
ENDBRANCH   4  10
TORSDOF 2
ENDMDL
MODEL 2
REMARK VINA RESULT:     -10.0      1.130      1.705
REMARK SMILES CC(=O)c1ccc(-c2cc3ccccc3[nH]2)cn1
REMARK SMILES IDX 4 1 5 2 6 3 7 4 17 5 18 6 2 7 1 8 3 9 8 10 9 11 16 12 10 13
REMARK SMILES IDX 15 14 11 15 14 16 12 17 13 18
REMARK H PARENT 16 19
ROOT
ATOM      1  C   UNL     1      43.085 132.142  20.015  1.00  0.00     0.106 A 
ATOM      2  C   UNL     1      44.460 131.949  20.203  1.00  0.00     0.033 A 
ATOM      3  C   UNL     1      45.266 131.621  19.110  1.00  0.00     0.014 A 
ATOM      4  C   UNL     1      44.705 131.484  17.832  1.00  0.00     0.016 A 
ATOM      5  C   UNL     1      43.322 131.688  17.689  1.00  0.00     0.122 A 
ATOM      6  N   UNL     1      42.558 132.005  18.768  1.00  0.00    -0.252 NA
ENDROOT
BRANCH   1   7
ATOM      7  C   UNL     1      42.200 132.490  21.149  1.00  0.00     0.178 C 
ATOM      8  C   UNL     1      42.457 131.935  22.515  1.00  0.00     0.095 C 
ATOM      9  O   UNL     1      41.216 133.259  20.974  1.00  0.00    -0.293 OA
ENDBRANCH   1   7
BRANCH   4  10
ATOM     10  C   UNL     1      45.550 131.135  16.661  1.00  0.00     0.048 A 
ATOM     11  C   UNL     1      46.158 129.896  16.440  1.00  0.00     0.037 A 
ATOM     12  N   UNL     1      45.838 131.993  15.650  1.00  0.00    -0.354 N 
ATOM     13  C   UNL     1      46.832 130.033  15.247  1.00  0.00     0.000 A 
ATOM     14  C   UNL     1      46.619 131.309  14.798  1.00  0.00     0.046 A 
ATOM     15  C   UNL     1      47.610 129.122  14.536  1.00  0.00     0.010 A 
ATOM     16  C   UNL     1      47.177 131.768  13.605  1.00  0.00     0.026 A 
ATOM     17  C   UNL     1      48.186 129.555  13.326  1.00  0.00     0.001 A 
ATOM     18  C   UNL     1      47.969 130.873  12.863  1.00  0.00     0.002 A 
ATOM     19  H   UNL     1      45.544 132.990  15.550  1.00  0.00     0.167 HD
ENDBRANCH   4  10
TORSDOF 2
ENDMDL
MODEL 3
REMARK VINA RESULT:      -9.9      0.771      1.199
REMARK SMILES CC(=O)c1ccc(-c2cc3ccccc3[nH]2)cn1
REMARK SMILES IDX 4 1 5 2 6 3 7 4 17 5 18 6 2 7 1 8 3 9 8 10 9 11 16 12 10 13
REMARK SMILES IDX 15 14 11 15 14 16 12 17 13 18
REMARK H PARENT 16 19
ROOT
ATOM      1  C   UNL     1      43.934 131.284  21.258  1.00  0.00     0.106 A 
ATOM      2  C   UNL     1      43.270 131.808  20.141  1.00  0.00     0.033 A 
ATOM      3  C   UNL     1      43.841 131.676  18.874  1.00  0.00     0.014 A 
ATOM      4  C   UNL     1      45.072 131.022  18.716  1.00  0.00     0.016 A 
ATOM      5  C   UNL     1      45.703 130.510  19.862  1.00  0.00     0.122 A 
ATOM      6  N   UNL     1      45.128 130.654  21.086  1.00  0.00    -0.252 NA
ENDROOT
BRANCH   1   7
ATOM      7  C   UNL     1      43.360 131.406  22.616  1.00  0.00     0.178 C 
ATOM      8  C   UNL     1      44.006 130.723  23.781  1.00  0.00     0.095 C 
ATOM      9  O   UNL     1      42.317 132.088  22.806  1.00  0.00    -0.293 OA
ENDBRANCH   1   7
BRANCH   4  10
ATOM     10  C   UNL     1      45.690 130.874  17.373  1.00  0.00     0.048 A 
ATOM     11  C   UNL     1      45.659 131.832  16.356  1.00  0.00     0.037 A 
ATOM     12  N   UNL     1      46.371 129.772  16.968  1.00  0.00    -0.354 N 
ATOM     13  C   UNL     1      46.352 131.268  15.308  1.00  0.00     0.000 A 
ATOM     14  C   UNL     1      46.766 130.026  15.709  1.00  0.00     0.046 A 
ATOM     15  C   UNL     1      46.640 131.766  14.039  1.00  0.00     0.010 A 
ATOM     16  C   UNL     1      47.495 129.188  14.866  1.00  0.00     0.026 A 
ATOM     17  C   UNL     1      47.377 130.945  13.164  1.00  0.00     0.001 A 
ATOM     18  C   UNL     1      47.802 129.661  13.577  1.00  0.00     0.002 A 
ATOM     19  H   UNL     1      46.540 128.890  17.500  1.00  0.00     0.167 HD
ENDBRANCH   4  10
TORSDOF 2
ENDMDL
MODEL 4
REMARK VINA RESULT:      -9.9      0.884      1.389
REMARK SMILES CC(=O)c1ccc(-c2cc3ccccc3[nH]2)cn1
REMARK SMILES IDX 4 1 5 2 6 3 7 4 17 5 18 6 2 7 1 8 3 9 8 10 9 11 16 12 10 13
REMARK SMILES IDX 15 14 11 15 14 16 12 17 13 18
REMARK H PARENT 16 19
ROOT
ATOM      1  C   UNL     1      43.252 131.923  20.071  1.00  0.00     0.106 A 
ATOM      2  C   UNL     1      42.667 131.990  18.799  1.00  0.00     0.033 A 
ATOM      3  C   UNL     1      43.438 131.712  17.669  1.00  0.00     0.014 A 
ATOM      4  C   UNL     1      44.791 131.366  17.802  1.00  0.00     0.016 A 
ATOM      5  C   UNL     1      45.337 131.309  19.096  1.00  0.00     0.122 A 
ATOM      6  N   UNL     1      44.566 131.586  20.181  1.00  0.00    -0.252 NA
ENDROOT
BRANCH   1   7
ATOM      7  C   UNL     1      42.467 132.212  21.290  1.00  0.00     0.178 C 
ATOM      8  C   UNL     1      42.868 131.633  22.612  1.00  0.00     0.095 C 
ATOM      9  O   UNL     1      41.446 132.951  21.229  1.00  0.00    -0.293 OA
ENDBRANCH   1   7
BRANCH   4  10
ATOM     10  C   UNL     1      45.623 131.067  16.609  1.00  0.00     0.048 A 
ATOM     11  C   UNL     1      45.849 131.937  15.539  1.00  0.00     0.037 A 
ATOM     12  N   UNL     1      46.274 129.892  16.411  1.00  0.00    -0.354 N 
ATOM     13  C   UNL     1      46.669 131.244  14.676  1.00  0.00     0.000 A 
ATOM     14  C   UNL     1      46.904 130.015  15.231  1.00  0.00     0.046 A 
ATOM     15  C   UNL     1      47.215 131.615  13.450  1.00  0.00     0.010 A 
ATOM     16  C   UNL     1      47.702 129.064  14.594  1.00  0.00     0.026 A 
ATOM     17  C   UNL     1      48.027 130.678  12.783  1.00  0.00     0.001 A 
ATOM     18  C   UNL     1      48.269 129.407  13.354  1.00  0.00     0.002 A 
ATOM     19  H   UNL     1      46.275 129.048  17.025  1.00  0.00     0.167 HD
ENDBRANCH   4  10
TORSDOF 2
ENDMDL
MODEL 5
REMARK VINA RESULT:      -9.6      0.935      1.841
REMARK SMILES CC(=O)c1ccc(-c2cc3ccccc3[nH]2)cn1
REMARK SMILES IDX 4 1 5 2 6 3 7 4 17 5 18 6 2 7 1 8 3 9 8 10 9 11 16 12 10 13
REMARK SMILES IDX 15 14 11 15 14 16 12 17 13 18
REMARK H PARENT 16 19
ROOT
ATOM      1  C   UNL     1      43.378 131.806  20.533  1.00  0.00     0.106 A 
ATOM      2  C   UNL     1      42.753 131.984  19.291  1.00  0.00     0.033 A 
ATOM      3  C   UNL     1      43.467 131.733  18.118  1.00  0.00     0.014 A 
ATOM      4  C   UNL     1      44.801 131.303  18.177  1.00  0.00     0.016 A 
ATOM      5  C   UNL     1      45.388 131.136  19.443  1.00  0.00     0.122 A 
ATOM      6  N   UNL     1      44.673 131.389  20.571  1.00  0.00    -0.252 NA
ENDROOT
BRANCH   1   7
ATOM      7  C   UNL     1      42.655 132.063  21.797  1.00  0.00     0.178 C 
ATOM      8  C   UNL     1      43.169 131.522  23.095  1.00  0.00     0.095 C 
ATOM      9  O   UNL     1      41.592 132.743  21.794  1.00  0.00    -0.293 OA
ENDBRANCH   1   7
BRANCH   4  10
ATOM     10  C   UNL     1      45.571 131.032  16.936  1.00  0.00     0.048 A 
ATOM     11  C   UNL     1      46.180 129.817  16.610  1.00  0.00     0.037 A 
ATOM     12  N   UNL     1      45.778 131.946  15.955  1.00  0.00    -0.354 N 
ATOM     13  C   UNL     1      46.771 130.027  15.384  1.00  0.00     0.000 A 
ATOM     14  C   UNL     1      46.510 131.320  15.018  1.00  0.00     0.046 A 
ATOM     15  C   UNL     1      47.513 129.168  14.576  1.00  0.00     0.010 A 
ATOM     16  C   UNL     1      46.980 131.851  13.817  1.00  0.00     0.026 A 
ATOM     17  C   UNL     1      48.000 129.673  13.356  1.00  0.00     0.001 A 
ATOM     18  C   UNL     1      47.734 131.010  12.978  1.00  0.00     0.002 A 
ATOM     19  H   UNL     1      45.463 132.940  15.928  1.00  0.00     0.167 HD
ENDBRANCH   4  10
TORSDOF 2
ENDMDL
MODEL 6
REMARK VINA RESULT:      -9.6      2.798      7.262
REMARK SMILES CC(=O)c1ccc(-c2cc3ccccc3[nH]2)cn1
REMARK SMILES IDX 4 1 5 2 6 3 7 4 17 5 18 6 2 7 1 8 3 9 8 10 9 11 16 12 10 13
REMARK SMILES IDX 15 14 11 15 14 16 12 17 13 18
REMARK H PARENT 16 19
ROOT
ATOM      1  C   UNL     1      46.838 130.725  14.750  1.00  0.00     0.106 A 
ATOM      2  C   UNL     1      46.187 131.936  15.026  1.00  0.00     0.033 A 
ATOM      3  C   UNL     1      45.554 132.112  16.258  1.00  0.00     0.014 A 
ATOM      4  C   UNL     1      45.568 131.087  17.216  1.00  0.00     0.016 A 
ATOM      5  C   UNL     1      46.234 129.891  16.898  1.00  0.00     0.122 A 
ATOM      6  N   UNL     1      46.841 129.742  15.690  1.00  0.00    -0.252 NA
ENDROOT
BRANCH   1   7
ATOM      7  C   UNL     1      47.518 130.502  13.456  1.00  0.00     0.178 C 
ATOM      8  C   UNL     1      48.565 129.440  13.317  1.00  0.00     0.095 C 
ATOM      9  O   UNL     1      47.224 131.207  12.452  1.00  0.00    -0.293 OA
ENDBRANCH   1   7
BRANCH   4  10
ATOM     10  C   UNL     1      44.899 131.262  18.531  1.00  0.00     0.048 A 
ATOM     11  C   UNL     1      43.663 131.880  18.735  1.00  0.00     0.037 A 
ATOM     12  N   UNL     1      45.418 130.836  19.710  1.00  0.00    -0.354 N 
ATOM     13  C   UNL     1      43.446 131.814  20.094  1.00  0.00     0.000 A 
ATOM     14  C   UNL     1      44.524 131.179  20.651  1.00  0.00     0.046 A 
ATOM     15  C   UNL     1      42.378 132.267  20.865  1.00  0.00     0.010 A 
ATOM     16  C   UNL     1      44.613 130.957  22.025  1.00  0.00     0.026 A 
ATOM     17  C   UNL     1      42.437 132.056  22.255  1.00  0.00     0.001 A 
ATOM     18  C   UNL     1      43.551 131.404  22.833  1.00  0.00     0.002 A 
ATOM     19  H   UNL     1      46.333 130.361  19.874  1.00  0.00     0.167 HD
ENDBRANCH   4  10
TORSDOF 2
ENDMDL
MODEL 7
REMARK VINA RESULT:      -9.4      2.810      7.404
REMARK SMILES CC(=O)c1ccc(-c2cc3ccccc3[nH]2)cn1
REMARK SMILES IDX 4 1 5 2 6 3 7 4 17 5 18 6 2 7 1 8 3 9 8 10 9 11 16 12 10 13
REMARK SMILES IDX 15 14 11 15 14 16 12 17 13 18
REMARK H PARENT 16 19
ROOT
ATOM      1  C   UNL     1      46.911 130.552  14.759  1.00  0.00     0.106 A 
ATOM      2  C   UNL     1      46.308 131.802  14.950  1.00  0.00     0.033 A 
ATOM      3  C   UNL     1      45.625 132.064  16.139  1.00  0.00     0.014 A 
ATOM      4  C   UNL     1      45.541 131.083  17.140  1.00  0.00     0.016 A 
ATOM      5  C   UNL     1      46.163 129.844  16.907  1.00  0.00     0.122 A 
ATOM      6  N   UNL     1      46.820 129.613  15.739  1.00  0.00    -0.252 NA
ENDROOT
BRANCH   1   7
ATOM      7  C   UNL     1      47.642 130.239  13.512  1.00  0.00     0.178 C 
ATOM      8  C   UNL     1      47.572 131.160  12.334  1.00  0.00     0.095 C 
ATOM      9  O   UNL     1      48.333 129.187  13.427  1.00  0.00    -0.293 OA
ENDBRANCH   1   7
BRANCH   4  10
ATOM     10  C   UNL     1      44.819 131.348  18.410  1.00  0.00     0.048 A 
ATOM     11  C   UNL     1      45.245 130.957  19.682  1.00  0.00     0.037 A 
ATOM     12  N   UNL     1      43.639 132.014  18.488  1.00  0.00    -0.354 N 
ATOM     13  C   UNL     1      44.273 131.412  20.544  1.00  0.00     0.000 A 
ATOM     14  C   UNL     1      43.319 132.044  19.792  1.00  0.00     0.046 A 
ATOM     15  C   UNL     1      44.171 131.311  21.930  1.00  0.00     0.010 A 
ATOM     16  C   UNL     1      42.188 132.616  20.374  1.00  0.00     0.026 A 
ATOM     17  C   UNL     1      43.041 131.881  22.548  1.00  0.00     0.001 A 
ATOM     18  C   UNL     1      42.054 132.531  21.772  1.00  0.00     0.002 A 
ATOM     19  H   UNL     1      43.070 132.406  17.706  1.00  0.00     0.167 HD
ENDBRANCH   4  10
TORSDOF 2
ENDMDL
MODEL 8
REMARK VINA RESULT:      -9.3      0.956      1.137
REMARK SMILES CC(=O)c1ccc(-c2cc3ccccc3[nH]2)cn1
REMARK SMILES IDX 4 1 5 2 6 3 7 4 17 5 18 6 2 7 1 8 3 9 8 10 9 11 16 12 10 13
REMARK SMILES IDX 15 14 11 15 14 16 12 17 13 18
REMARK H PARENT 16 19
ROOT
ATOM      1  C   UNL     1      43.766 131.528  21.969  1.00  0.00     0.106 A 
ATOM      2  C   UNL     1      45.031 130.954  21.778  1.00  0.00     0.033 A 
ATOM      3  C   UNL     1      45.529 130.799  20.483  1.00  0.00     0.014 A 
ATOM      4  C   UNL     1      44.772 131.214  19.377  1.00  0.00     0.016 A 
ATOM      5  C   UNL     1      43.510 131.787  19.615  1.00  0.00     0.122 A 
ATOM      6  N   UNL     1      43.046 131.924  20.885  1.00  0.00    -0.252 NA
ENDROOT
BRANCH   1   7
ATOM      7  C   UNL     1      43.205 131.707  23.326  1.00  0.00     0.178 C 
ATOM      8  C   UNL     1      44.101 131.723  24.526  1.00  0.00     0.095 C 
ATOM      9  O   UNL     1      41.962 131.847  23.487  1.00  0.00    -0.293 OA
ENDBRANCH   1   7
BRANCH   4  10
ATOM     10  C   UNL     1      45.290 131.056  17.995  1.00  0.00     0.048 A 
ATOM     11  C   UNL     1      45.212 132.019  16.985  1.00  0.00     0.037 A 
ATOM     12  N   UNL     1      45.913 129.940  17.540  1.00  0.00    -0.354 N 
ATOM     13  C   UNL     1      45.815 131.442  15.889  1.00  0.00     0.000 A 
ATOM     14  C   UNL     1      46.225 130.189  16.257  1.00  0.00     0.046 A 
ATOM     15  C   UNL     1      46.025 131.938  14.604  1.00  0.00     0.010 A 
ATOM     16  C   UNL     1      46.873 129.337  15.362  1.00  0.00     0.026 A 
ATOM     17  C   UNL     1      46.678 131.103  13.678  1.00  0.00     0.001 A 
ATOM     18  C   UNL     1      47.100 129.808  14.056  1.00  0.00     0.002 A 
ATOM     19  H   UNL     1      46.098 129.052  18.057  1.00  0.00     0.167 HD
ENDBRANCH   4  10
TORSDOF 2
ENDMDL
MODEL 9
REMARK VINA RESULT:      -9.1      2.746      7.308
REMARK SMILES CC(=O)c1ccc(-c2cc3ccccc3[nH]2)cn1
REMARK SMILES IDX 4 1 5 2 6 3 7 4 17 5 18 6 2 7 1 8 3 9 8 10 9 11 16 12 10 13
REMARK SMILES IDX 15 14 11 15 14 16 12 17 13 18
REMARK H PARENT 16 19
ROOT
ATOM      1  C   UNL     1      46.685 130.639  14.845  1.00  0.00     0.106 A 
ATOM      2  C   UNL     1      46.536 129.540  15.702  1.00  0.00     0.033 A 
ATOM      3  C   UNL     1      45.955 129.720  16.959  1.00  0.00     0.014 A 
ATOM      4  C   UNL     1      45.521 130.991  17.364  1.00  0.00     0.016 A 
ATOM      5  C   UNL     1      45.688 132.065  16.472  1.00  0.00     0.122 A 
ATOM      6  N   UNL     1      46.259 131.864  15.255  1.00  0.00    -0.252 NA
ENDROOT
BRANCH   1   7
ATOM      7  C   UNL     1      47.297 130.487  13.507  1.00  0.00     0.178 C 
ATOM      8  C   UNL     1      48.443 129.547  13.294  1.00  0.00     0.095 C 
ATOM      9  O   UNL     1      46.859 131.151  12.528  1.00  0.00    -0.293 OA
ENDBRANCH   1   7
BRANCH   4  10
ATOM     10  C   UNL     1      44.900 131.196  18.698  1.00  0.00     0.048 A 
ATOM     11  C   UNL     1      45.476 130.846  19.922  1.00  0.00     0.037 A 
ATOM     12  N   UNL     1      43.680 131.759  18.890  1.00  0.00    -0.354 N 
ATOM     13  C   UNL     1      44.553 131.218  20.875  1.00  0.00     0.000 A 
ATOM     14  C   UNL     1      43.482 131.764  20.218  1.00  0.00     0.046 A 
ATOM     15  C   UNL     1      44.590 131.112  22.263  1.00  0.00     0.010 A 
ATOM     16  C   UNL     1      42.366 132.239  20.906  1.00  0.00     0.026 A 
ATOM     17  C   UNL     1      43.478 131.584  22.987  1.00  0.00     0.001 A 
ATOM     18  C   UNL     1      42.371 132.145  22.310  1.00  0.00     0.002 A 
ATOM     19  H   UNL     1      43.010 132.099  18.166  1.00  0.00     0.167 HD
ENDBRANCH   4  10
TORSDOF 2
ENDMDL


