REMARK SMILES NNc1ccc2cc(-c3[nH+]c[nH+]c4c3COC4)[nH]c2c1F
REMARK SMILES IDX 3 1 4 2 5 3 6 4 7 5 8 6 18 7 19 8 20 9 21 10 2 12 1 14 9 17
REMARK SMILES IDX 10 18 14 19 11 20 13 21 15 22 12 23 17 24 16 25
REMARK H PARENT 18 11 2 13 1 15 1 16 10 26 12 27
ROOT
ATOM      1  C   UNL     1       1.859   1.861  -2.584  1.00  0.00     0.087 A 
ATOM      2  C   UNL     1       0.819   2.805  -2.804  1.00  0.00     0.031 A 
ATOM      3  C   UNL     1      -0.346   2.790  -2.015  1.00  0.00     0.013 A 
ATOM      4  C   UNL     1      -0.443   1.827  -1.017  1.00  0.00     0.003 A 
ATOM      5  C   UNL     1      -1.453   1.571  -0.116  1.00  0.00     0.043 A 
ATOM      6  C   UNL     1      -1.001   0.488   0.637  1.00  0.00     0.113 A 
ATOM      7  N   UNL     1       0.223   0.087   0.214  1.00  0.00    -0.347 N 
ATOM      8  C   UNL     1       0.551   0.914  -0.793  1.00  0.00     0.085 A 
ATOM      9  C   UNL     1       1.716   0.896  -1.559  1.00  0.00     0.171 A 
ATOM     10  F   UNL     1       2.683  -0.024  -1.317  1.00  0.00    -0.202 F 
ATOM     11  H   UNL     1       0.782  -0.725   0.553  1.00  0.00     0.167 HD
ENDROOT
BRANCH   1  12
ATOM     12  N   UNL     1       3.047   1.872  -3.392  1.00  0.00    -0.321 N 
ATOM     13  H   UNL     1       3.768   1.126  -3.256  1.00  0.00     0.181 HD
BRANCH  12  14
ATOM     14  N   UNL     1       3.248   2.838  -4.392  1.00  0.00    -0.250 NA
ATOM     15  H   UNL     1       3.431   3.747  -3.909  1.00  0.00     0.143 HD
ATOM     16  H   UNL     1       4.127   2.592  -4.902  1.00  0.00     0.143 HD
ENDBRANCH  12  14
ENDBRANCH   1  12
BRANCH   6  17
ATOM     17  C   UNL     1      -1.769  -0.159   1.723  1.00  0.00     0.244 A 
ATOM     18  N   UNL     1      -3.134  -0.243   1.643  1.00  0.00    -0.153 N 
ATOM     19  C   UNL     1      -1.153  -0.656   2.881  1.00  0.00     0.121 A 
ATOM     20  C   UNL     1      -3.872  -0.787   2.659  1.00  0.00     0.630 A 
ATOM     21  C   UNL     1      -1.905  -1.168   3.871  1.00  0.00     0.222 A 
ATOM     22  C   UNL     1       0.252  -0.629   3.343  1.00  0.00     0.210 C 
ATOM     23  N   UNL     1      -3.256  -1.244   3.785  1.00  0.00    -0.156 N 
ATOM     24  C   UNL     1      -1.057  -1.500   5.024  1.00  0.00     0.269 C 
ATOM     25  O   UNL     1       0.263  -1.095   4.688  1.00  0.00    -0.365 OA
ATOM     26  H   UNL     1      -3.636   0.107   0.796  1.00  0.00     0.460 HD
ATOM     27  H   UNL     1      -3.818  -1.633   4.575  1.00  0.00     0.460 HD
ENDBRANCH   6  17
TORSDOF 3


