REMARK SMILES CC(C)[C@@H]([NH3+])C(=O)N(c1ccc2cc[nH]c2c1)c1cccc2c[nH+]oc12
REMARK SMILES IDX 6 1 7 2 4 3 2 4 1 5 3 6 5 7 8 11 9 12 10 13 17 14 11 15
REMARK SMILES IDX 16 16 12 17 15 18 13 19 14 20 18 22 19 23 26 24 20 25 25 26
REMARK SMILES IDX 22 27 21 28 24 29 23 30
REMARK H PARENT 5 8 5 9 5 10 15 21 24 31
ROOT
ATOM      1  C   UNL     1      -0.548   0.642   2.073  1.00  0.00     0.290 C 
ATOM      2  O   UNL     1       0.042   0.512   3.181  1.00  0.00    -0.267 OA
ENDROOT
BRANCH   1   3
ATOM      3  C   UNL     1      -1.972   1.179   2.051  1.00  0.00     0.274 C 
BRANCH   3   4
ATOM      4  C   UNL     1      -3.037   0.058   2.241  1.00  0.00     0.051 C 
ATOM      5  C   UNL     1      -2.888  -0.722   3.558  1.00  0.00     0.014 C 
ATOM      6  C   UNL     1      -3.047  -0.913   1.050  1.00  0.00     0.014 C 
ENDBRANCH   3   4
BRANCH   3   7
ATOM      7  N   UNL     1      -2.137   2.257   3.037  1.00  0.00    -0.347 N 
ATOM      8  H   UNL     1      -1.930   1.927   4.006  1.00  0.00     0.345 HD
ATOM      9  H   UNL     1      -3.115   2.627   3.003  1.00  0.00     0.345 HD
ATOM     10  H   UNL     1      -1.486   3.042   2.806  1.00  0.00     0.345 HD
ENDBRANCH   3   7
ENDBRANCH   1   3
BRANCH   1  11
ATOM     11  N   UNL     1       0.121   0.222   0.863  1.00  0.00    -0.272 N 
BRANCH  11  12
ATOM     12  C   UNL     1      -0.145   0.884  -0.388  1.00  0.00     0.051 A 
ATOM     13  C   UNL     1      -0.472   0.122  -1.539  1.00  0.00     0.027 A 
ATOM     14  C   UNL     1      -0.055   2.291  -0.481  1.00  0.00     0.053 A 
ATOM     15  C   UNL     1      -0.719   0.752  -2.771  1.00  0.00     0.012 A 
ATOM     16  C   UNL     1      -0.307   2.884  -1.716  1.00  0.00     0.047 A 
ATOM     17  C   UNL     1      -0.628   2.140  -2.820  1.00  0.00    -0.000 A 
ATOM     18  N   UNL     1      -0.278   4.193  -2.014  1.00  0.00    -0.361 N 
ATOM     19  C   UNL     1      -0.811   3.016  -3.867  1.00  0.00     0.028 A 
ATOM     20  C   UNL     1      -0.585   4.279  -3.329  1.00  0.00     0.083 A 
ATOM     21  H   UNL     1      -0.062   4.984  -1.368  1.00  0.00     0.166 HD
ENDBRANCH  11  12
BRANCH  11  22
ATOM     22  C   UNL     1       1.099  -0.840   0.909  1.00  0.00     0.100 A 
ATOM     23  C   UNL     1       0.899  -1.997   1.701  1.00  0.00     0.031 A 
ATOM     24  C   UNL     1       2.283  -0.782   0.163  1.00  0.00     0.240 A 
ATOM     25  C   UNL     1       1.861  -3.033   1.722  1.00  0.00     0.003 A 
ATOM     26  O   UNL     1       2.711   0.168  -0.633  1.00  0.00    -0.236 OA
ATOM     27  C   UNL     1       3.207  -1.790   0.188  1.00  0.00     0.095 A 
ATOM     28  C   UNL     1       3.036  -2.936   0.957  1.00  0.00     0.019 A 
ATOM     29  N   UNL     1       3.869  -0.169  -1.133  1.00  0.00    -0.035 N 
ATOM     30  C   UNL     1       4.219  -1.382  -0.650  1.00  0.00     0.369 A 
ATOM     31  H   UNL     1       4.423   0.415  -1.797  1.00  0.00     0.516 HD
ENDBRANCH  11  22
ENDBRANCH   1  11
TORSDOF 6


