REMARK SMILES CC(F)(F)COC(=O)N(c1cc2cccc(F)c2[n-]1)c1cn2ccccc2[nH+]1
REMARK SMILES IDX 6 1 5 2 2 3 1 4 3 5 4 6 7 7 8 8 9 9 10 10 11 11 19 12 12 13
REMARK SMILES IDX 18 14 13 15 16 16 14 17 15 18 17 19 20 20 21 21 28 22 22 23
REMARK SMILES IDX 27 24 23 25 26 26 24 27 25 28
REMARK H PARENT 28 29
ROOT
ATOM      1  O   UNL     1      -2.257   1.389   0.902  1.00  0.00    -0.431 OA
ENDROOT
BRANCH   1   2
ATOM      2  C   UNL     1      -3.220   2.203   1.564  1.00  0.00     0.312 C 
BRANCH   2   3
ATOM      3  C   UNL     1      -4.628   1.845   1.084  1.00  0.00     0.278 C 
ATOM      4  C   UNL     1      -4.795   2.110  -0.412  1.00  0.00     0.091 C 
ATOM      5  F   UNL     1      -4.875   0.507   1.341  1.00  0.00    -0.203 F 
ATOM      6  F   UNL     1      -5.550   2.607   1.782  1.00  0.00    -0.203 F 
ENDBRANCH   2   3
ENDBRANCH   1   2
BRANCH   1   7
ATOM      7  C   UNL     1      -0.885   1.464   1.166  1.00  0.00     0.481 C 
ATOM      8  O   UNL     1      -0.456   2.297   2.012  1.00  0.00    -0.207 OA
BRANCH   7   9
ATOM      9  N   UNL     1       0.038   0.631   0.434  1.00  0.00    -0.160 N 
BRANCH   9  10
ATOM     10  C   UNL     1      -0.433  -0.450  -0.399  1.00  0.00     0.103 A 
ATOM     11  C   UNL     1      -1.588  -1.200  -0.166  1.00  0.00     0.048 A 
ATOM     12  N   UNL     1       0.252  -0.905  -1.478  1.00  0.00    -0.401 NA
ATOM     13  C   UNL     1      -1.602  -2.135  -1.169  1.00  0.00    -0.016 A 
ATOM     14  C   UNL     1      -0.487  -1.930  -1.938  1.00  0.00     0.005 A 
ATOM     15  C   UNL     1      -2.511  -3.156  -1.443  1.00  0.00     0.008 A 
ATOM     16  C   UNL     1      -0.206  -2.735  -3.041  1.00  0.00     0.127 A 
ATOM     17  C   UNL     1      -2.254  -3.982  -2.553  1.00  0.00     0.004 A 
ATOM     18  C   UNL     1      -1.106  -3.773  -3.349  1.00  0.00     0.039 A 
ATOM     19  F   UNL     1       0.901  -2.528  -3.795  1.00  0.00    -0.207 F 
ENDBRANCH   9  10
BRANCH   9  20
ATOM     20  C   UNL     1       1.450   0.894   0.522  1.00  0.00     0.268 A 
ATOM     21  C   UNL     1       2.318   1.063  -0.549  1.00  0.00     0.249 A 
ATOM     22  N   UNL     1       2.123   1.030   1.689  1.00  0.00    -0.243 N 
ATOM     23  N   UNL     1       3.534   1.301  -0.027  1.00  0.00    -0.233 N 
ATOM     24  C   UNL     1       3.391   1.275   1.310  1.00  0.00     0.230 A 
ATOM     25  C   UNL     1       4.717   1.534  -0.648  1.00  0.00     0.168 A 
ATOM     26  C   UNL     1       4.481   1.488   2.152  1.00  0.00     0.081 A 
ATOM     27  C   UNL     1       5.850   1.756   0.149  1.00  0.00     0.035 A 
ATOM     28  C   UNL     1       5.727   1.732   1.553  1.00  0.00     0.010 A 
ATOM     29  H   UNL     1       1.750   0.947   2.661  1.00  0.00     0.267 HD
ENDBRANCH   9  20
ENDBRANCH   7   9
ENDBRANCH   1   7
TORSDOF 6


