REMARK SMILES C=Cc1cccc(-c2ccc3ccn(C(=O)OCc4ccccc4)c(=O)c3c2)c1
REMARK SMILES IDX 8 1 9 2 10 3 11 4 12 5 13 6 14 7 25 8 26 9 27 10 28 11 7 12
REMARK SMILES IDX 3 13 4 14 29 15 5 16 6 17 2 18 1 19 15 20 16 21 17 22 18 23
REMARK SMILES IDX 19 24 20 25 24 26 21 27 23 28 22 29
REMARK H PARENT
ROOT
ATOM      1  C   UNL     1       2.741  -0.914  -1.090  1.00  0.00    -0.018 A 
ATOM      2  C   UNL     1       3.415  -1.105  -2.308  1.00  0.00     0.009 A 
ATOM      3  C   UNL     1       3.140  -0.290  -3.407  1.00  0.00     0.009 A 
ATOM      4  C   UNL     1       2.188   0.734  -3.308  1.00  0.00    -0.011 A 
ATOM      5  C   UNL     1       1.913   1.553  -4.402  1.00  0.00     0.027 A 
ATOM      6  C   UNL     1       0.962   2.564  -4.286  1.00  0.00     0.102 A 
ATOM      7  N   UNL     1       0.286   2.772  -3.112  1.00  0.00    -0.218 N 
ATOM      8  C   UNL     1       0.548   1.982  -2.015  1.00  0.00     0.267 A 
ATOM      9  O   UNL     1      -0.051   2.188  -0.923  1.00  0.00    -0.268 OA
ATOM     10  C   UNL     1       1.501   0.943  -2.094  1.00  0.00     0.048 A 
ATOM     11  C   UNL     1       1.786   0.114  -0.990  1.00  0.00     0.023 A 
ENDROOT
BRANCH   1  12
ATOM     12  C   UNL     1       3.035  -1.785   0.076  1.00  0.00    -0.018 A 
ATOM     13  C   UNL     1       2.260  -3.082   2.003  1.00  0.00    -0.026 A 
ATOM     14  C   UNL     1       3.594  -3.437   2.281  1.00  0.00     0.008 A 
ATOM     15  C   UNL     1       1.993  -2.264   0.891  1.00  0.00     0.016 A 
ATOM     16  C   UNL     1       4.633  -2.966   1.475  1.00  0.00     0.001 A 
ATOM     17  C   UNL     1       4.359  -2.144   0.382  1.00  0.00     0.009 A 
BRANCH  13  18
ATOM     18  C   UNL     1       1.117  -3.565   2.818  1.00  0.00     0.000 C 
ATOM     19  C   UNL     1       1.232  -4.063   4.050  1.00  0.00     0.009 C 
ENDBRANCH  13  18
ENDBRANCH   1  12
BRANCH   7  20
ATOM     20  C   UNL     1      -0.701   3.829  -3.057  1.00  0.00     0.421 C 
ATOM     21  O   UNL     1      -0.674   4.767  -3.904  1.00  0.00    -0.223 OA
BRANCH  20  22
ATOM     22  O   UNL     1      -1.700   3.815  -2.077  1.00  0.00    -0.444 OA
BRANCH  22  23
ATOM     23  C   UNL     1      -2.694   4.828  -1.970  1.00  0.00     0.270 C 
BRANCH  23  24
ATOM     24  C   UNL     1      -3.594   4.514  -0.812  1.00  0.00    -0.011 A 
ATOM     25  C   UNL     1      -3.256   4.943   0.482  1.00  0.00     0.007 A 
ATOM     26  C   UNL     1      -4.743   3.729  -0.999  1.00  0.00     0.007 A 
ATOM     27  C   UNL     1      -4.073   4.615   1.569  1.00  0.00     0.000 A 
ATOM     28  C   UNL     1      -5.559   3.404   0.089  1.00  0.00     0.000 A 
ATOM     29  C   UNL     1      -5.225   3.849   1.372  1.00  0.00     0.000 A 
ENDBRANCH  23  24
ENDBRANCH  22  23
ENDBRANCH  20  22
ENDBRANCH   7  20
TORSDOF 6


