REMARK SMILES Cc1ccc(-c2ccc(NC3CC(=O)C3)c(C=O)c2)cc1
REMARK SMILES IDX 6 1 7 2 8 3 9 4 16 5 19 6 5 7 2 8 3 9 21 10 4 11 20 12 1 13
REMARK SMILES IDX 17 14 18 15 10 16 11 18 12 19 15 20 13 21 14 22
REMARK H PARENT 10 17
ROOT
ATOM      1  C   UNL     1      -0.362  -0.145  -1.496  1.00  0.00    -0.018 A 
ATOM      2  C   UNL     1      -1.715  -0.131  -1.121  1.00  0.00     0.011 A 
ATOM      3  C   UNL     1      -2.092  -0.467   0.179  1.00  0.00     0.027 A 
ATOM      4  C   UNL     1      -1.129  -0.816   1.134  1.00  0.00     0.045 A 
ATOM      5  C   UNL     1       0.235  -0.868   0.767  1.00  0.00     0.038 A 
ATOM      6  C   UNL     1       0.605  -0.519  -0.546  1.00  0.00     0.022 A 
ENDROOT
BRANCH   1   7
ATOM      7  C   UNL     1       0.040   0.219  -2.879  1.00  0.00    -0.018 A 
ATOM      8  C   UNL     1       0.796   0.921  -5.504  1.00  0.00    -0.051 A 
ATOM      9  C   UNL     1      -0.333   0.120  -5.283  1.00  0.00     0.004 A 
ATOM     10  C   UNL     1       1.560   1.350  -4.409  1.00  0.00     0.004 A 
ATOM     11  C   UNL     1      -0.713  -0.223  -3.982  1.00  0.00     0.009 A 
ATOM     12  C   UNL     1       1.182   1.007  -3.107  1.00  0.00     0.009 A 
ATOM     13  C   UNL     1       1.225   1.256  -6.902  1.00  0.00     0.044 C 
ENDBRANCH   1   7
BRANCH   5  14
ATOM     14  C   UNL     1       1.265  -1.337   1.720  1.00  0.00     0.262 C 
ATOM     15  O   UNL     1       2.490  -1.288   1.431  1.00  0.00    -0.298 OA
ENDBRANCH   5  14
BRANCH   4  16
ATOM     16  N   UNL     1      -1.560  -1.115   2.469  1.00  0.00    -0.381 N 
ATOM     17  H   UNL     1      -2.408  -1.718   2.575  1.00  0.00     0.160 HD
BRANCH  16  18
ATOM     18  C   UNL     1      -1.190  -0.238   3.583  1.00  0.00     0.094 C 
ATOM     19  C   UNL     1      -2.336   0.610   4.049  1.00  0.00     0.100 C 
ATOM     20  C   UNL     1      -1.262  -0.929   4.911  1.00  0.00     0.100 C 
ATOM     21  C   UNL     1      -2.423  -0.080   5.399  1.00  0.00     0.137 C 
ATOM     22  O   UNL     1      -3.106   0.008   6.405  1.00  0.00    -0.300 OA
ENDBRANCH  16  18
ENDBRANCH   4  16
TORSDOF 4


