REMARK SMILES CC1=CCC=C[C@H]1C(=O)Oc1c(C)c(F)c([NH2+]N)c([O-])c1-n1nc2ccccc2n1
REMARK SMILES IDX 11 1 12 2 13 3 14 4 15 5 16 6 19 7 20 8 21 9 10 10 8 11 9 12
REMARK SMILES IDX 7 13 2 14 3 15 4 16 6 17 5 18 1 19 22 20 23 21 30 22 24 23
REMARK SMILES IDX 29 24 25 25 28 26 26 27 27 28 17 29 18 32
REMARK H PARENT 17 30 17 31 18 33 18 34
ROOT
ATOM      1  C   UNL     1      -0.064  -1.413  -0.436  1.00  0.00     0.164 A 
ATOM      2  C   UNL     1       0.186  -2.711  -0.931  1.00  0.00     0.036 A 
ATOM      3  C   UNL     1       1.470  -3.028  -1.654  1.00  0.00     0.052 C 
ATOM      4  C   UNL     1      -0.766  -3.723  -0.734  1.00  0.00     0.191 A 
ATOM      5  F   UNL     1      -0.503  -4.987  -1.157  1.00  0.00    -0.200 F 
ATOM      6  C   UNL     1      -1.992  -3.442  -0.107  1.00  0.00     0.179 A 
ATOM      7  C   UNL     1      -2.243  -2.141   0.369  1.00  0.00    -0.008 A 
ATOM      8  O   UNL     1      -3.435  -1.877   1.038  1.00  0.00    -0.867 OA
ATOM      9  C   UNL     1      -1.290  -1.118   0.198  1.00  0.00     0.127 A 
ENDROOT
BRANCH   1  10
ATOM     10  O   UNL     1       0.879  -0.394  -0.607  1.00  0.00    -0.423 OA
BRANCH  10  11
ATOM     11  C   UNL     1       2.121  -0.384   0.040  1.00  0.00     0.322 C 
ATOM     12  O   UNL     1       2.407  -1.265   0.896  1.00  0.00    -0.251 OA
BRANCH  11  13
ATOM     13  C   UNL     1       3.102   0.709  -0.262  1.00  0.00     0.147 C 
ATOM     14  C   UNL     1       3.418   0.723  -1.748  1.00  0.00    -0.059 C 
ATOM     15  C   UNL     1       2.775   1.568  -2.578  1.00  0.00    -0.023 C 
ATOM     16  C   UNL     1       1.706   2.504  -2.076  1.00  0.00     0.054 C 
ATOM     17  C   UNL     1       2.547   2.033   0.211  1.00  0.00    -0.012 C 
ATOM     18  C   UNL     1       1.911   2.864  -0.629  1.00  0.00    -0.026 C 
ATOM     19  C   UNL     1       4.418  -0.251  -2.310  1.00  0.00     0.040 C 
ENDBRANCH  11  13
ENDBRANCH  10  11
ENDBRANCH   1  10
BRANCH   9  20
ATOM     20  N   UNL     1      -1.557   0.213   0.683  1.00  0.00    -0.147 N 
ATOM     21  N   UNL     1      -0.612   1.045   1.120  1.00  0.00    -0.148 NA
ATOM     22  N   UNL     1      -2.776   0.750   0.732  1.00  0.00    -0.148 NA
ATOM     23  C   UNL     1      -1.265   2.164   1.462  1.00  0.00     0.113 A 
ATOM     24  C   UNL     1      -2.591   1.984   1.225  1.00  0.00     0.113 A 
ATOM     25  C   UNL     1      -0.756   3.352   1.977  1.00  0.00     0.032 A 
ATOM     26  C   UNL     1      -3.532   2.977   1.479  1.00  0.00     0.032 A 
ATOM     27  C   UNL     1      -1.677   4.385   2.248  1.00  0.00     0.002 A 
ATOM     28  C   UNL     1      -3.058   4.198   2.000  1.00  0.00     0.002 A 
ENDBRANCH   9  20
BRANCH   6  29
ATOM     29  N   UNL     1      -2.959  -4.493   0.102  1.00  0.00    -0.237 N 
ATOM     30  H   UNL     1      -3.930  -4.111   0.024  1.00  0.00     0.376 HD
ATOM     31  H   UNL     1      -2.856  -5.258  -0.608  1.00  0.00     0.376 HD
BRANCH  29  32
ATOM     32  N   UNL     1      -2.777  -5.022   1.395  1.00  0.00    -0.178 NA
ATOM     33  H   UNL     1      -1.909  -5.609   1.394  1.00  0.00     0.183 HD
ATOM     34  H   UNL     1      -3.569  -5.678   1.590  1.00  0.00     0.183 HD
ENDBRANCH  29  32
ENDBRANCH   6  29
TORSDOF 6


