REMARK SMILES O=C(CCc1c(F)ccc2[n-]c([NH2+]c3cn4ccccc4n3)cc12)c1ccccc1
REMARK SMILES IDX 4 1 3 2 2 3 1 4 25 5 26 6 30 7 27 8 29 9 28 10 5 11 6 12
REMARK SMILES IDX 24 13 8 14 23 15 10 16 9 17 12 18 11 19 7 20 13 21 14 24
REMARK SMILES IDX 15 25 22 26 16 27 21 28 17 29 20 30 18 31 19 32
REMARK H PARENT 13 22 13 23
ROOT
ATOM      1  C   UNL     1      -0.484   3.255   0.828  1.00  0.00     0.047 C 
ENDROOT
BRANCH   1   2
ATOM      2  C   UNL     1      -1.778   3.713   0.136  1.00  0.00     0.086 C 
BRANCH   2   3
ATOM      3  C   UNL     1      -2.252   2.731  -0.908  1.00  0.00     0.163 C 
ATOM      4  O   UNL     1      -2.145   3.061  -2.121  1.00  0.00    -0.294 OA
BRANCH   3   5
ATOM      5  C   UNL     1      -2.780   1.383  -0.564  1.00  0.00     0.017 A 
ATOM      6  C   UNL     1      -2.874   0.394  -1.564  1.00  0.00     0.012 A 
ATOM      7  C   UNL     1      -3.158   1.048   0.753  1.00  0.00     0.012 A 
ATOM      8  C   UNL     1      -3.315  -0.895  -1.252  1.00  0.00     0.001 A 
ATOM      9  C   UNL     1      -3.600  -0.243   1.058  1.00  0.00     0.001 A 
ATOM     10  C   UNL     1      -3.676  -1.214   0.058  1.00  0.00     0.000 A 
ENDBRANCH   3   5
ENDBRANCH   2   3
ENDBRANCH   1   2
BRANCH   1  11
ATOM     11  C   UNL     1       0.655   3.094  -0.152  1.00  0.00    -0.006 A 
ATOM     12  C   UNL     1       1.381   4.218  -0.612  1.00  0.00     0.126 A 
ATOM     13  C   UNL     1       0.995   1.845  -0.697  1.00  0.00    -0.030 A 
ATOM     14  C   UNL     1       2.407   4.068  -1.570  1.00  0.00     0.038 A 
ATOM     15  C   UNL     1       0.479   0.588  -0.476  1.00  0.00     0.050 A 
ATOM     16  C   UNL     1       1.988   1.708  -1.637  1.00  0.00    -0.125 A 
ATOM     17  C   UNL     1       2.717   2.802  -2.093  1.00  0.00    -0.012 A 
ATOM     18  C   UNL     1       1.196  -0.243  -1.328  1.00  0.00     0.037 A 
ATOM     19  N   UNL     1       2.131   0.431  -2.040  1.00  0.00    -0.610 NA
ATOM     20  F   UNL     1       1.094   5.459  -0.141  1.00  0.00    -0.207 F 
BRANCH  18  21
ATOM     21  N   UNL     1       0.992  -1.658  -1.442  1.00  0.00    -0.282 N 
ATOM     22  H   UNL     1       1.460  -2.015  -2.307  1.00  0.00     0.358 HD
ATOM     23  H   UNL     1      -0.033  -1.859  -1.505  1.00  0.00     0.358 HD
BRANCH  21  24
ATOM     24  C   UNL     1       1.551  -2.311  -0.295  1.00  0.00     0.246 A 
ATOM     25  C   UNL     1       0.871  -2.577   0.884  1.00  0.00     0.183 A 
ATOM     26  N   UNL     1       2.857  -2.663  -0.196  1.00  0.00    -0.177 NA
ATOM     27  N   UNL     1       1.765  -3.119   1.721  1.00  0.00    -0.301 N 
ATOM     28  C   UNL     1       2.934  -3.160   1.056  1.00  0.00     0.143 A 
ATOM     29  C   UNL     1       1.612  -3.552   2.998  1.00  0.00     0.093 A 
ATOM     30  C   UNL     1       4.082  -3.668   1.662  1.00  0.00     0.048 A 
ATOM     31  C   UNL     1       2.735  -4.075   3.657  1.00  0.00     0.018 A 
ATOM     32  C   UNL     1       3.971  -4.133   2.983  1.00  0.00     0.005 A 
ENDBRANCH  21  24
ENDBRANCH  18  21
ENDBRANCH   1  11
TORSDOF 6


