MODEL 1
REMARK VINA RESULT:      -7.6      0.000      0.000
REMARK SMILES O/C(=C\Cc1c(F)cccc1F)c1ccc(Nc2ccc3cc[nH]c3c2O)cc1
REMARK SMILES IDX 13 1 14 2 15 3 16 4 28 5 29 6 2 7 1 8 3 10 4 11 5 12 6 13
REMARK SMILES IDX 11 14 8 15 10 16 9 17 7 18 12 19 17 20 18 22 19 23 26 24
REMARK SMILES IDX 20 25 25 26 21 27 24 28 22 29 23 30 27 32
REMARK H PARENT 1 9 17 21 24 31 27 33
ROOT
ATOM      1  C   UNL     1      44.365 130.980  21.120  1.00  0.00     0.016 A 
ATOM      2  C   UNL     1      45.084 129.894  21.643  1.00  0.00     0.014 A 
ATOM      3  C   UNL     1      44.529 129.089  22.641  1.00  0.00     0.027 A 
ATOM      4  C   UNL     1      43.234 129.345  23.124  1.00  0.00     0.039 A 
ATOM      5  C   UNL     1      42.520 130.438  22.613  1.00  0.00     0.027 A 
ATOM      6  C   UNL     1      43.074 131.244  21.616  1.00  0.00     0.014 A 
ENDROOT
BRANCH   1   7
ATOM      7  C   UNL     1      44.964 131.822  20.053  1.00  0.00     0.119 C 
BRANCH   7   8
ATOM      8  O   UNL     1      45.936 132.769  20.382  1.00  0.00    -0.508 OA
ATOM      9  H   UNL     1      45.930 133.702  19.987  1.00  0.00     0.293 HD
ENDBRANCH   7   8
BRANCH   7  10
ATOM     10  C   UNL     1      44.578 131.695  18.775  1.00  0.00     0.025 C 
BRANCH  10  11
ATOM     11  C   UNL     1      44.758 130.407  18.021  1.00  0.00     0.073 C 
BRANCH  11  12
ATOM     12  C   UNL     1      45.399 130.656  16.679  1.00  0.00     0.027 A 
ATOM     13  C   UNL     1      45.749 131.963  16.288  1.00  0.00     0.129 A 
ATOM     14  C   UNL     1      45.598 129.593  15.777  1.00  0.00     0.129 A 
ATOM     15  C   UNL     1      46.315 132.194  15.029  1.00  0.00     0.040 A 
ATOM     16  C   UNL     1      46.163 129.834  14.520  1.00  0.00     0.040 A 
ATOM     17  C   UNL     1      46.523 131.130  14.148  1.00  0.00     0.006 A 
ATOM     18  F   UNL     1      45.539 133.014  17.122  1.00  0.00    -0.207 F 
ATOM     19  F   UNL     1      45.240 128.327  16.109  1.00  0.00    -0.207 F 
ENDBRANCH  11  12
ENDBRANCH  10  11
ENDBRANCH   7  10
ENDBRANCH   1   7
BRANCH   4  20
ATOM     20  N   UNL     1      42.649 128.543  24.165  1.00  0.00    -0.352 N 
ATOM     21  H   UNL     1      42.542 128.970  25.114  1.00  0.00     0.167 HD
BRANCH  20  22
ATOM     22  C   UNL     1      42.290 127.160  24.013  1.00  0.00     0.083 A 
ATOM     23  C   UNL     1      43.196 126.165  24.452  1.00  0.00     0.031 A 
ATOM     24  C   UNL     1      41.029 126.783  23.484  1.00  0.00     0.163 A 
ATOM     25  C   UNL     1      42.883 124.802  24.330  1.00  0.00     0.013 A 
ATOM     26  C   UNL     1      40.752 125.413  23.369  1.00  0.00     0.090 A 
ATOM     27  C   UNL     1      41.652 124.463  23.778  1.00  0.00     0.003 A 
ATOM     28  N   UNL     1      39.638 124.830  22.892  1.00  0.00    -0.358 N 
ATOM     29  C   UNL     1      41.087 123.228  23.548  1.00  0.00     0.028 A 
ATOM     30  C   UNL     1      39.840 123.497  22.997  1.00  0.00     0.083 A 
ATOM     31  H   UNL     1      38.783 125.291  22.512  1.00  0.00     0.166 HD
BRANCH  24  32
ATOM     32  O   UNL     1      40.096 127.754  23.115  1.00  0.00    -0.504 OA
ATOM     33  H   UNL     1      40.339 128.731  23.017  1.00  0.00     0.293 HD
ENDBRANCH  24  32
ENDBRANCH  20  22
ENDBRANCH   4  20
TORSDOF 8
ENDMDL
MODEL 2
REMARK VINA RESULT:      -6.3      2.472      3.904
REMARK SMILES O/C(=C\Cc1c(F)cccc1F)c1ccc(Nc2ccc3cc[nH]c3c2O)cc1
REMARK SMILES IDX 13 1 14 2 15 3 16 4 28 5 29 6 2 7 1 8 3 10 4 11 5 12 6 13
REMARK SMILES IDX 11 14 8 15 10 16 9 17 7 18 12 19 17 20 18 22 19 23 26 24
REMARK SMILES IDX 20 25 25 26 21 27 24 28 22 29 23 30 27 32
REMARK H PARENT 1 9 17 21 24 31 27 33
ROOT
ATOM      1  C   UNL     1      44.389 131.758  17.771  1.00  0.00     0.016 A 
ATOM      2  C   UNL     1      45.366 131.374  18.703  1.00  0.00     0.014 A 
ATOM      3  C   UNL     1      45.036 131.211  20.052  1.00  0.00     0.027 A 
ATOM      4  C   UNL     1      43.716 131.413  20.491  1.00  0.00     0.039 A 
ATOM      5  C   UNL     1      42.742 131.810  19.564  1.00  0.00     0.027 A 
ATOM      6  C   UNL     1      43.071 131.974  18.216  1.00  0.00     0.014 A 
ENDROOT
BRANCH   1   7
ATOM      7  C   UNL     1      44.752 131.918  16.339  1.00  0.00     0.119 C 
BRANCH   7   8
ATOM      8  O   UNL     1      45.738 132.837  15.974  1.00  0.00    -0.508 OA
ATOM      9  H   UNL     1      45.904 133.684  16.504  1.00  0.00     0.293 HD
ENDBRANCH   7   8
BRANCH   7  10
ATOM     10  C   UNL     1      44.139 131.201  15.387  1.00  0.00     0.025 C 
BRANCH  10  11
ATOM     11  C   UNL     1      44.686 131.117  13.989  1.00  0.00     0.073 C 
BRANCH  11  12
ATOM     12  C   UNL     1      45.996 130.371  13.971  1.00  0.00     0.027 A 
ATOM     13  C   UNL     1      46.200 129.267  14.822  1.00  0.00     0.129 A 
ATOM     14  C   UNL     1      47.054 130.809  13.149  1.00  0.00     0.129 A 
ATOM     15  C   UNL     1      47.429 128.598  14.825  1.00  0.00     0.040 A 
ATOM     16  C   UNL     1      48.279 130.133  13.160  1.00  0.00     0.040 A 
ATOM     17  C   UNL     1      48.465 129.029  13.994  1.00  0.00     0.006 A 
ATOM     18  F   UNL     1      45.213 128.841  15.650  1.00  0.00    -0.207 F 
ATOM     19  F   UNL     1      46.902 131.890  12.344  1.00  0.00    -0.207 F 
ENDBRANCH  11  12
ENDBRANCH  10  11
ENDBRANCH   7  10
ENDBRANCH   1   7
BRANCH   4  20
ATOM     20  N   UNL     1      43.357 131.271  21.876  1.00  0.00    -0.352 N 
ATOM     21  H   UNL     1      43.293 132.138  22.459  1.00  0.00     0.167 HD
BRANCH  20  22
ATOM     22  C   UNL     1      43.174 130.009  22.537  1.00  0.00     0.083 A 
ATOM     23  C   UNL     1      41.870 129.626  22.933  1.00  0.00     0.031 A 
ATOM     24  C   UNL     1      44.263 129.125  22.747  1.00  0.00     0.163 A 
ATOM     25  C   UNL     1      41.643 128.398  23.574  1.00  0.00     0.013 A 
ATOM     26  C   UNL     1      44.003 127.911  23.397  1.00  0.00     0.090 A 
ATOM     27  C   UNL     1      42.737 127.567  23.794  1.00  0.00     0.003 A 
ATOM     28  N   UNL     1      44.874 126.934  23.710  1.00  0.00    -0.358 N 
ATOM     29  C   UNL     1      42.808 126.325  24.385  1.00  0.00     0.028 A 
ATOM     30  C   UNL     1      44.149 125.966  24.315  1.00  0.00     0.083 A 
ATOM     31  H   UNL     1      45.902 126.908  23.533  1.00  0.00     0.166 HD
BRANCH  24  32
ATOM     32  O   UNL     1      45.542 129.457  22.297  1.00  0.00    -0.504 OA
ATOM     33  H   UNL     1      45.713 130.236  21.673  1.00  0.00     0.293 HD
ENDBRANCH  24  32
ENDBRANCH  20  22
ENDBRANCH   4  20
TORSDOF 8
ENDMDL
MODEL 3
REMARK VINA RESULT:      -5.6      5.675      8.954
REMARK SMILES O/C(=C\Cc1c(F)cccc1F)c1ccc(Nc2ccc3cc[nH]c3c2O)cc1
REMARK SMILES IDX 13 1 14 2 15 3 16 4 28 5 29 6 2 7 1 8 3 10 4 11 5 12 6 13
REMARK SMILES IDX 11 14 8 15 10 16 9 17 7 18 12 19 17 20 18 22 19 23 26 24
REMARK SMILES IDX 20 25 25 26 21 27 24 28 22 29 23 30 27 32
REMARK H PARENT 1 9 17 21 24 31 27 33
ROOT
ATOM      1  C   UNL     1      45.301 132.131  21.212  1.00  0.00     0.016 A 
ATOM      2  C   UNL     1      44.066 132.513  20.665  1.00  0.00     0.014 A 
ATOM      3  C   UNL     1      43.689 132.081  19.390  1.00  0.00     0.027 A 
ATOM      4  C   UNL     1      44.536 131.242  18.644  1.00  0.00     0.039 A 
ATOM      5  C   UNL     1      45.775 130.871  19.183  1.00  0.00     0.027 A 
ATOM      6  C   UNL     1      46.153 131.303  20.457  1.00  0.00     0.014 A 
ENDROOT
BRANCH   1   7
ATOM      7  C   UNL     1      45.684 132.590  22.572  1.00  0.00     0.119 C 
BRANCH   7   8
ATOM      8  O   UNL     1      44.998 132.102  23.686  1.00  0.00    -0.508 OA
ATOM      9  H   UNL     1      44.656 132.715  24.416  1.00  0.00     0.293 HD
ENDBRANCH   7   8
BRANCH   7  10
ATOM     10  C   UNL     1      46.673 133.478  22.749  1.00  0.00     0.025 C 
BRANCH  10  11
ATOM     11  C   UNL     1      47.538 133.932  21.606  1.00  0.00     0.073 C 
BRANCH  11  12
ATOM     12  C   UNL     1      48.735 134.696  22.111  1.00  0.00     0.027 A 
ATOM     13  C   UNL     1      49.447 134.242  23.239  1.00  0.00     0.129 A 
ATOM     14  C   UNL     1      49.118 135.906  21.500  1.00  0.00     0.129 A 
ATOM     15  C   UNL     1      50.538 134.971  23.724  1.00  0.00     0.040 A 
ATOM     16  C   UNL     1      50.210 136.629  21.993  1.00  0.00     0.040 A 
ATOM     17  C   UNL     1      50.920 136.161  23.100  1.00  0.00     0.006 A 
ATOM     18  F   UNL     1      49.083 133.097  23.871  1.00  0.00    -0.207 F 
ATOM     19  F   UNL     1      48.432 136.390  20.433  1.00  0.00    -0.207 F 
ENDBRANCH  11  12
ENDBRANCH  10  11
ENDBRANCH   7  10
ENDBRANCH   1   7
BRANCH   4  20
ATOM     20  N   UNL     1      44.179 130.801  17.323  1.00  0.00    -0.352 N 
ATOM     21  H   UNL     1      43.239 130.361  17.188  1.00  0.00     0.167 HD
BRANCH  20  22
ATOM     22  C   UNL     1      45.065 130.837  16.193  1.00  0.00     0.083 A 
ATOM     23  C   UNL     1      45.009 131.944  15.312  1.00  0.00     0.031 A 
ATOM     24  C   UNL     1      46.025 129.815  15.980  1.00  0.00     0.163 A 
ATOM     25  C   UNL     1      45.862 132.024  14.200  1.00  0.00     0.013 A 
ATOM     26  C   UNL     1      46.857 129.922  14.856  1.00  0.00     0.090 A 
ATOM     27  C   UNL     1      46.771 130.991  14.001  1.00  0.00     0.003 A 
ATOM     28  N   UNL     1      47.821 129.075  14.453  1.00  0.00    -0.358 N 
ATOM     29  C   UNL     1      47.716 130.813  13.015  1.00  0.00     0.028 A 
ATOM     30  C   UNL     1      48.346 129.614  13.329  1.00  0.00     0.083 A 
ATOM     31  H   UNL     1      48.119 128.181  14.900  1.00  0.00     0.166 HD
BRANCH  24  32
ATOM     32  O   UNL     1      46.143 128.754  16.880  1.00  0.00    -0.504 OA
ATOM     33  H   UNL     1      45.366 128.149  17.110  1.00  0.00     0.293 HD
ENDBRANCH  24  32
ENDBRANCH  20  22
ENDBRANCH   4  20
TORSDOF 8
ENDMDL
MODEL 4
REMARK VINA RESULT:      -5.3      2.627      4.200
REMARK SMILES O/C(=C\Cc1c(F)cccc1F)c1ccc(Nc2ccc3cc[nH]c3c2O)cc1
REMARK SMILES IDX 13 1 14 2 15 3 16 4 28 5 29 6 2 7 1 8 3 10 4 11 5 12 6 13
REMARK SMILES IDX 11 14 8 15 10 16 9 17 7 18 12 19 17 20 18 22 19 23 26 24
REMARK SMILES IDX 20 25 25 26 21 27 24 28 22 29 23 30 27 32
REMARK H PARENT 1 9 17 21 24 31 27 33
ROOT
ATOM      1  C   UNL     1      43.812 131.599  17.324  1.00  0.00     0.016 A 
ATOM      2  C   UNL     1      42.710 131.651  18.191  1.00  0.00     0.014 A 
ATOM      3  C   UNL     1      42.891 131.594  19.576  1.00  0.00     0.027 A 
ATOM      4  C   UNL     1      44.183 131.500  20.121  1.00  0.00     0.039 A 
ATOM      5  C   UNL     1      45.285 131.434  19.257  1.00  0.00     0.027 A 
ATOM      6  C   UNL     1      45.104 131.491  17.872  1.00  0.00     0.014 A 
ENDROOT
BRANCH   1   7
ATOM      7  C   UNL     1      43.605 131.671  15.855  1.00  0.00     0.119 C 
BRANCH   7   8
ATOM      8  O   UNL     1      42.951 132.773  15.302  1.00  0.00    -0.508 OA
ATOM      9  H   UNL     1      42.256 133.299  15.818  1.00  0.00     0.293 HD
ENDBRANCH   7   8
BRANCH   7  10
ATOM     10  C   UNL     1      44.025 130.685  15.049  1.00  0.00     0.025 C 
BRANCH  10  11
ATOM     11  C   UNL     1      44.800 130.971  13.793  1.00  0.00     0.073 C 
BRANCH  11  12
ATOM     12  C   UNL     1      46.184 130.376  13.871  1.00  0.00     0.027 A 
ATOM     13  C   UNL     1      47.204 130.830  13.012  1.00  0.00     0.129 A 
ATOM     14  C   UNL     1      46.455 129.317  14.760  1.00  0.00     0.129 A 
ATOM     15  C   UNL     1      48.478 130.253  13.066  1.00  0.00     0.040 A 
ATOM     16  C   UNL     1      47.732 128.747  14.806  1.00  0.00     0.040 A 
ATOM     17  C   UNL     1      48.741 129.216  13.963  1.00  0.00     0.006 A 
ATOM     18  F   UNL     1      46.966 131.825  12.121  1.00  0.00    -0.207 F 
ATOM     19  F   UNL     1      45.485 128.834  15.577  1.00  0.00    -0.207 F 
ENDBRANCH  11  12
ENDBRANCH  10  11
ENDBRANCH   7  10
ENDBRANCH   1   7
BRANCH   4  20
ATOM     20  N   UNL     1      44.393 131.420  21.542  1.00  0.00    -0.352 N 
ATOM     21  H   UNL     1      44.938 132.185  22.002  1.00  0.00     0.167 HD
BRANCH  20  22
ATOM     22  C   UNL     1      43.987 130.309  22.356  1.00  0.00     0.083 A 
ATOM     23  C   UNL     1      42.857 130.452  23.197  1.00  0.00     0.031 A 
ATOM     24  C   UNL     1      44.663 129.063  22.290  1.00  0.00     0.163 A 
ATOM     25  C   UNL     1      42.420 129.390  24.004  1.00  0.00     0.013 A 
ATOM     26  C   UNL     1      44.205 128.026  23.114  1.00  0.00     0.090 A 
ATOM     27  C   UNL     1      43.122 128.192  23.940  1.00  0.00     0.003 A 
ATOM     28  N   UNL     1      44.693 126.777  23.225  1.00  0.00    -0.358 N 
ATOM     29  C   UNL     1      42.918 127.002  24.602  1.00  0.00     0.028 A 
ATOM     30  C   UNL     1      43.912 126.150  24.134  1.00  0.00     0.083 A 
ATOM     31  H   UNL     1      45.506 126.358  22.724  1.00  0.00     0.166 HD
BRANCH  24  32
ATOM     32  O   UNL     1      45.733 128.884  21.412  1.00  0.00    -0.504 OA
ATOM     33  H   UNL     1      46.401 128.131  21.517  1.00  0.00     0.293 HD
ENDBRANCH  24  32
ENDBRANCH  20  22
ENDBRANCH   4  20
TORSDOF 8
ENDMDL
MODEL 5
REMARK VINA RESULT:      -5.1      3.961      9.289
REMARK SMILES O/C(=C\Cc1c(F)cccc1F)c1ccc(Nc2ccc3cc[nH]c3c2O)cc1
REMARK SMILES IDX 13 1 14 2 15 3 16 4 28 5 29 6 2 7 1 8 3 10 4 11 5 12 6 13
REMARK SMILES IDX 11 14 8 15 10 16 9 17 7 18 12 19 17 20 18 22 19 23 26 24
REMARK SMILES IDX 20 25 25 26 21 27 24 28 22 29 23 30 27 32
REMARK H PARENT 1 9 17 21 24 31 27 33
ROOT
ATOM      1  C   UNL     1      43.936 131.609  20.100  1.00  0.00     0.016 A 
ATOM      2  C   UNL     1      42.874 132.030  19.284  1.00  0.00     0.014 A 
ATOM      3  C   UNL     1      42.879 131.757  17.913  1.00  0.00     0.027 A 
ATOM      4  C   UNL     1      43.941 131.041  17.334  1.00  0.00     0.039 A 
ATOM      5  C   UNL     1      45.009 130.631  18.145  1.00  0.00     0.027 A 
ATOM      6  C   UNL     1      45.005 130.904  19.515  1.00  0.00     0.014 A 
ENDROOT
BRANCH   1   7
ATOM      7  C   UNL     1      43.912 131.899  21.556  1.00  0.00     0.119 C 
BRANCH   7   8
ATOM      8  O   UNL     1      45.018 132.499  22.161  1.00  0.00    -0.508 OA
ATOM      9  H   UNL     1      45.494 133.290  21.742  1.00  0.00     0.293 HD
ENDBRANCH   7   8
BRANCH   7  10
ATOM     10  C   UNL     1      42.847 131.581  22.307  1.00  0.00     0.025 C 
BRANCH  10  11
ATOM     11  C   UNL     1      42.999 131.051  23.705  1.00  0.00     0.073 C 
BRANCH  11  12
ATOM     12  C   UNL     1      42.971 129.543  23.712  1.00  0.00     0.027 A 
ATOM     13  C   UNL     1      44.062 128.807  23.209  1.00  0.00     0.129 A 
ATOM     14  C   UNL     1      41.827 128.854  24.162  1.00  0.00     0.129 A 
ATOM     15  C   UNL     1      44.018 127.409  23.188  1.00  0.00     0.040 A 
ATOM     16  C   UNL     1      41.793 127.455  24.135  1.00  0.00     0.040 A 
ATOM     17  C   UNL     1      42.887 126.735  23.652  1.00  0.00     0.006 A 
ATOM     18  F   UNL     1      45.165 129.442  22.737  1.00  0.00    -0.207 F 
ATOM     19  F   UNL     1      40.745 129.534  24.619  1.00  0.00    -0.207 F 
ENDBRANCH  11  12
ENDBRANCH  10  11
ENDBRANCH   7  10
ENDBRANCH   1   7
BRANCH   4  20
ATOM     20  N   UNL     1      43.978 130.764  15.923  1.00  0.00    -0.352 N 
ATOM     21  H   UNL     1      43.069 130.724  15.406  1.00  0.00     0.167 HD
BRANCH  20  22
ATOM     22  C   UNL     1      45.174 130.445  15.195  1.00  0.00     0.083 A 
ATOM     23  C   UNL     1      45.592 129.095  15.122  1.00  0.00     0.031 A 
ATOM     24  C   UNL     1      45.904 131.448  14.507  1.00  0.00     0.163 A 
ATOM     25  C   UNL     1      46.750 128.736  14.414  1.00  0.00     0.013 A 
ATOM     26  C   UNL     1      47.060 131.056  13.816  1.00  0.00     0.090 A 
ATOM     27  C   UNL     1      47.462 129.746  13.777  1.00  0.00     0.003 A 
ATOM     28  N   UNL     1      47.906 131.828  13.110  1.00  0.00    -0.358 N 
ATOM     29  C   UNL     1      48.610 129.685  13.018  1.00  0.00     0.028 A 
ATOM     30  C   UNL     1      48.855 130.996  12.624  1.00  0.00     0.083 A 
ATOM     31  H   UNL     1      47.860 132.859  12.958  1.00  0.00     0.166 HD
BRANCH  24  32
ATOM     32  O   UNL     1      45.464 132.772  14.509  1.00  0.00    -0.504 OA
ATOM     33  H   UNL     1      45.660 133.411  13.748  1.00  0.00     0.293 HD
ENDBRANCH  24  32
ENDBRANCH  20  22
ENDBRANCH   4  20
TORSDOF 8
ENDMDL
MODEL 6
REMARK VINA RESULT:      -5.1      2.582      3.401
REMARK SMILES O/C(=C\Cc1c(F)cccc1F)c1ccc(Nc2ccc3cc[nH]c3c2O)cc1
REMARK SMILES IDX 13 1 14 2 15 3 16 4 28 5 29 6 2 7 1 8 3 10 4 11 5 12 6 13
REMARK SMILES IDX 11 14 8 15 10 16 9 17 7 18 12 19 17 20 18 22 19 23 26 24
REMARK SMILES IDX 20 25 25 26 21 27 24 28 22 29 23 30 27 32
REMARK H PARENT 1 9 17 21 24 31 27 33
ROOT
ATOM      1  C   UNL     1      45.099 131.304  21.030  1.00  0.00     0.016 A 
ATOM      2  C   UNL     1      44.756 131.622  22.353  1.00  0.00     0.014 A 
ATOM      3  C   UNL     1      44.496 130.612  23.283  1.00  0.00     0.027 A 
ATOM      4  C   UNL     1      44.592 129.260  22.910  1.00  0.00     0.039 A 
ATOM      5  C   UNL     1      44.921 128.940  21.585  1.00  0.00     0.027 A 
ATOM      6  C   UNL     1      45.180 129.949  20.655  1.00  0.00     0.014 A 
ENDROOT
BRANCH   1   7
ATOM      7  C   UNL     1      45.382 132.389  20.055  1.00  0.00     0.119 C 
BRANCH   7   8
ATOM      8  O   UNL     1      45.585 133.693  20.511  1.00  0.00    -0.508 OA
ATOM      9  H   UNL     1      45.341 133.975  21.452  1.00  0.00     0.293 HD
ENDBRANCH   7   8
BRANCH   7  10
ATOM     10  C   UNL     1      45.433 132.139  18.739  1.00  0.00     0.025 C 
BRANCH  10  11
ATOM     11  C   UNL     1      45.089 130.786  18.179  1.00  0.00     0.073 C 
BRANCH  11  12
ATOM     12  C   UNL     1      45.236 130.774  16.679  1.00  0.00     0.027 A 
ATOM     13  C   UNL     1      46.407 130.267  16.081  1.00  0.00     0.129 A 
ATOM     14  C   UNL     1      44.232 131.328  15.860  1.00  0.00     0.129 A 
ATOM     15  C   UNL     1      46.553 130.287  14.690  1.00  0.00     0.040 A 
ATOM     16  C   UNL     1      44.388 131.344  14.469  1.00  0.00     0.040 A 
ATOM     17  C   UNL     1      45.544 130.822  13.886  1.00  0.00     0.006 A 
ATOM     18  F   UNL     1      47.407 129.757  16.844  1.00  0.00    -0.207 F 
ATOM     19  F   UNL     1      43.108 131.856  16.406  1.00  0.00    -0.207 F 
ENDBRANCH  11  12
ENDBRANCH  10  11
ENDBRANCH   7  10
ENDBRANCH   1   7
BRANCH   4  20
ATOM     20  N   UNL     1      44.311 128.203  23.844  1.00  0.00    -0.352 N 
ATOM     21  H   UNL     1      43.930 128.464  24.782  1.00  0.00     0.167 HD
BRANCH  20  22
ATOM     22  C   UNL     1      44.608 126.817  23.608  1.00  0.00     0.083 A 
ATOM     23  C   UNL     1      43.663 126.022  22.916  1.00  0.00     0.031 A 
ATOM     24  C   UNL     1      45.848 126.254  24.007  1.00  0.00     0.163 A 
ATOM     25  C   UNL     1      43.916 124.665  22.657  1.00  0.00     0.013 A 
ATOM     26  C   UNL     1      46.064 124.895  23.738  1.00  0.00     0.090 A 
ATOM     27  C   UNL     1      45.127 124.135  23.088  1.00  0.00     0.003 A 
ATOM     28  N   UNL     1      47.148 124.154  24.032  1.00  0.00    -0.358 N 
ATOM     29  C   UNL     1      45.635 122.860  22.967  1.00  0.00     0.028 A 
ATOM     30  C   UNL     1      46.889 122.911  23.565  1.00  0.00     0.083 A 
ATOM     31  H   UNL     1      48.019 124.455  24.520  1.00  0.00     0.166 HD
BRANCH  24  32
ATOM     32  O   UNL     1      46.819 127.044  24.624  1.00  0.00    -0.504 OA
ATOM     33  H   UNL     1      46.673 128.024  24.827  1.00  0.00     0.293 HD
ENDBRANCH  24  32
ENDBRANCH  20  22
ENDBRANCH   4  20
TORSDOF 8
ENDMDL
MODEL 7
REMARK VINA RESULT:      -4.7      5.484      8.398
REMARK SMILES O/C(=C\Cc1c(F)cccc1F)c1ccc(Nc2ccc3cc[nH]c3c2O)cc1
REMARK SMILES IDX 13 1 14 2 15 3 16 4 28 5 29 6 2 7 1 8 3 10 4 11 5 12 6 13
REMARK SMILES IDX 11 14 8 15 10 16 9 17 7 18 12 19 17 20 18 22 19 23 26 24
REMARK SMILES IDX 20 25 25 26 21 27 24 28 22 29 23 30 27 32
REMARK H PARENT 1 9 17 21 24 31 27 33
ROOT
ATOM      1  C   UNL     1      45.958 124.786  23.020  1.00  0.00     0.016 A 
ATOM      2  C   UNL     1      46.338 125.859  22.199  1.00  0.00     0.014 A 
ATOM      3  C   UNL     1      45.779 127.127  22.382  1.00  0.00     0.027 A 
ATOM      4  C   UNL     1      44.839 127.350  23.404  1.00  0.00     0.039 A 
ATOM      5  C   UNL     1      44.449 126.276  24.216  1.00  0.00     0.027 A 
ATOM      6  C   UNL     1      45.007 125.008  24.033  1.00  0.00     0.014 A 
ENDROOT
BRANCH   1   7
ATOM      7  C   UNL     1      46.568 123.447  22.820  1.00  0.00     0.119 C 
BRANCH   7   8
ATOM      8  O   UNL     1      46.163 122.375  23.619  1.00  0.00    -0.508 OA
ATOM      9  H   UNL     1      46.809 121.886  24.226  1.00  0.00     0.293 HD
ENDBRANCH   7   8
BRANCH   7  10
ATOM     10  C   UNL     1      47.513 123.250  21.889  1.00  0.00     0.025 C 
BRANCH  10  11
ATOM     11  C   UNL     1      48.580 124.275  21.621  1.00  0.00     0.073 C 
BRANCH  11  12
ATOM     12  C   UNL     1      49.952 123.694  21.859  1.00  0.00     0.027 A 
ATOM     13  C   UNL     1      50.237 123.003  23.053  1.00  0.00     0.129 A 
ATOM     14  C   UNL     1      50.981 123.891  20.917  1.00  0.00     0.129 A 
ATOM     15  C   UNL     1      51.519 122.493  23.283  1.00  0.00     0.040 A 
ATOM     16  C   UNL     1      52.261 123.378  21.157  1.00  0.00     0.040 A 
ATOM     17  C   UNL     1      52.528 122.679  22.335  1.00  0.00     0.006 A 
ATOM     18  F   UNL     1      49.276 122.825  23.995  1.00  0.00    -0.207 F 
ATOM     19  F   UNL     1      50.749 124.582  19.773  1.00  0.00    -0.207 F 
ENDBRANCH  11  12
ENDBRANCH  10  11
ENDBRANCH   7  10
ENDBRANCH   1   7
BRANCH   4  20
ATOM     20  N   UNL     1      44.236 128.640  23.599  1.00  0.00    -0.352 N 
ATOM     21  H   UNL     1      43.806 128.846  24.531  1.00  0.00     0.167 HD
BRANCH  20  22
ATOM     22  C   UNL     1      44.098 129.631  22.568  1.00  0.00     0.083 A 
ATOM     23  C   UNL     1      45.105 129.736  21.580  1.00  0.00     0.031 A 
ATOM     24  C   UNL     1      42.950 130.461  22.497  1.00  0.00     0.163 A 
ATOM     25  C   UNL     1      45.008 130.685  20.549  1.00  0.00     0.013 A 
ATOM     26  C   UNL     1      42.888 131.403  21.459  1.00  0.00     0.090 A 
ATOM     27  C   UNL     1      43.885 131.505  20.524  1.00  0.00     0.003 A 
ATOM     28  N   UNL     1      41.912 132.293  21.204  1.00  0.00    -0.358 N 
ATOM     29  C   UNL     1      43.529 132.502  19.643  1.00  0.00     0.028 A 
ATOM     30  C   UNL     1      42.301 132.966  20.097  1.00  0.00     0.083 A 
ATOM     31  H   UNL     1      41.029 132.449  21.737  1.00  0.00     0.166 HD
BRANCH  24  32
ATOM     32  O   UNL     1      41.914 130.320  23.421  1.00  0.00    -0.504 OA
ATOM     33  H   UNL     1      42.068 129.977  24.361  1.00  0.00     0.293 HD
ENDBRANCH  24  32
ENDBRANCH  20  22
ENDBRANCH   4  20
TORSDOF 8
ENDMDL


