MODEL 1
REMARK VINA RESULT:      -7.9      0.000      0.000
REMARK SMILES Cc1ccnc(F)c1-c1cc2c(C)c(F)cc([NH2+]c3cccc(N)c3O)c2[nH]1
REMARK SMILES IDX 18 1 17 4 9 5 10 6 28 7 11 8 27 9 12 10 14 11 16 12 13 14
REMARK SMILES IDX 15 15 8 16 2 17 3 18 4 19 6 20 5 21 1 22 7 23 19 24 20 25
REMARK SMILES IDX 25 26 21 27 23 28 22 29 26 30 24 32
REMARK H PARENT 18 2 18 3 28 13 26 31 24 33 24 34
ROOT
ATOM      1  N   UNL     1      46.128 130.380  19.831  1.00  0.00    -0.276 N 
ATOM      2  H   UNL     1      46.587 129.458  19.645  1.00  0.00     0.358 HD
ATOM      3  H   UNL     1      46.900 131.075  19.953  1.00  0.00     0.358 HD
ENDROOT
BRANCH   1   4
ATOM      4  C   UNL     1      45.342 130.274  21.040  1.00  0.00     0.162 A 
ATOM      5  C   UNL     1      45.281 126.998  22.359  1.00  0.00     0.052 A 
ATOM      6  C   UNL     1      44.437 127.638  23.261  1.00  0.00     0.037 A 
ATOM      7  N   UNL     1      45.727 127.863  21.421  1.00  0.00    -0.349 N 
ATOM      8  C   UNL     1      44.390 128.953  22.842  1.00  0.00     0.012 A 
ATOM      9  C   UNL     1      45.177 129.056  21.720  1.00  0.00     0.109 A 
ATOM     10  C   UNL     1      43.715 130.053  23.380  1.00  0.00    -0.005 A 
ATOM     11  C   UNL     1      43.893 131.301  22.742  1.00  0.00     0.132 A 
ATOM     12  C   UNL     1      44.696 131.406  21.587  1.00  0.00     0.110 A 
ATOM     13  H   UNL     1      46.392 127.646  20.649  1.00  0.00     0.167 HD
ATOM     14  C   UNL     1      42.879 129.916  24.623  1.00  0.00     0.048 C 
ATOM     15  F   UNL     1      43.294 132.417  23.228  1.00  0.00    -0.206 F 
BRANCH   5  16
ATOM     16  C   UNL     1      45.623 125.558  22.370  1.00  0.00     0.056 A 
ATOM     17  C   UNL     1      44.636 124.544  22.307  1.00  0.00    -0.036 A 
ATOM     18  C   UNL     1      45.040 123.199  22.281  1.00  0.00     0.024 A 
ATOM     19  C   UNL     1      46.394 122.880  22.356  1.00  0.00     0.114 A 
ATOM     20  C   UNL     1      46.976 125.177  22.456  1.00  0.00     0.222 A 
ATOM     21  N   UNL     1      47.323 123.865  22.444  1.00  0.00    -0.228 NA
ATOM     22  C   UNL     1      43.164 124.857  22.262  1.00  0.00     0.045 C 
ATOM     23  F   UNL     1      47.956 126.115  22.518  1.00  0.00    -0.184 F 
ENDBRANCH   5  16
ENDBRANCH   1   4
BRANCH   1  24
ATOM     24  C   UNL     1      45.304 130.788  18.713  1.00  0.00     0.179 A 
ATOM     25  C   UNL     1      44.098 131.475  18.945  1.00  0.00     0.072 A 
ATOM     26  C   UNL     1      45.669 130.467  17.383  1.00  0.00     0.201 A 
ATOM     27  C   UNL     1      43.296 131.883  17.882  1.00  0.00     0.009 A 
ATOM     28  C   UNL     1      44.865 130.911  16.304  1.00  0.00     0.080 A 
ATOM     29  C   UNL     1      43.680 131.611  16.571  1.00  0.00     0.030 A 
BRANCH  26  30
ATOM     30  O   UNL     1      46.813 129.691  17.175  1.00  0.00    -0.501 OA
ATOM     31  H   UNL     1      47.524 129.531  17.874  1.00  0.00     0.293 HD
ENDBRANCH  26  30
BRANCH  28  32
ATOM     32  N   UNL     1      45.231 130.678  14.936  1.00  0.00    -0.396 N 
ATOM     33  H   UNL     1      45.287 131.477  14.265  1.00  0.00     0.156 HD
ATOM     34  H   UNL     1      45.550 129.751  14.586  1.00  0.00     0.156 HD
ENDBRANCH  28  32
ENDBRANCH   1  24
TORSDOF 5
ENDMDL
MODEL 2
REMARK VINA RESULT:      -7.9      1.116      1.612
REMARK SMILES Cc1ccnc(F)c1-c1cc2c(C)c(F)cc([NH2+]c3cccc(N)c3O)c2[nH]1
REMARK SMILES IDX 18 1 17 4 9 5 10 6 28 7 11 8 27 9 12 10 14 11 16 12 13 14
REMARK SMILES IDX 15 15 8 16 2 17 3 18 4 19 6 20 5 21 1 22 7 23 19 24 20 25
REMARK SMILES IDX 25 26 21 27 23 28 22 29 26 30 24 32
REMARK H PARENT 18 2 18 3 28 13 26 31 24 33 24 34
ROOT
ATOM      1  N   UNL     1      46.148 130.325  19.777  1.00  0.00    -0.276 N 
ATOM      2  H   UNL     1      46.569 129.384  19.594  1.00  0.00     0.358 HD
ATOM      3  H   UNL     1      46.948 130.992  19.879  1.00  0.00     0.358 HD
ENDROOT
BRANCH   1   4
ATOM      4  C   UNL     1      45.378 130.262  21.000  1.00  0.00     0.162 A 
ATOM      5  C   UNL     1      45.213 127.005  22.356  1.00  0.00     0.052 A 
ATOM      6  C   UNL     1      44.409 127.687  23.263  1.00  0.00     0.037 A 
ATOM      7  N   UNL     1      45.676 127.843  21.401  1.00  0.00    -0.349 N 
ATOM      8  C   UNL     1      44.406 128.999  22.831  1.00  0.00     0.012 A 
ATOM      9  C   UNL     1      45.178 129.058  21.695  1.00  0.00     0.109 A 
ATOM     10  C   UNL     1      43.782 130.129  23.368  1.00  0.00    -0.005 A 
ATOM     11  C   UNL     1      43.998 131.362  22.713  1.00  0.00     0.132 A 
ATOM     12  C   UNL     1      44.786 131.425  21.545  1.00  0.00     0.110 A 
ATOM     13  H   UNL     1      46.320 127.592  20.621  1.00  0.00     0.167 HD
ATOM     14  C   UNL     1      42.962 130.037  24.625  1.00  0.00     0.048 C 
ATOM     15  F   UNL     1      43.450 132.505  23.197  1.00  0.00    -0.206 F 
BRANCH   5  16
ATOM     16  C   UNL     1      45.500 125.553  22.377  1.00  0.00     0.056 A 
ATOM     17  C   UNL     1      46.804 125.042  22.588  1.00  0.00    -0.036 A 
ATOM     18  C   UNL     1      46.993 123.651  22.635  1.00  0.00     0.024 A 
ATOM     19  C   UNL     1      45.910 122.797  22.437  1.00  0.00     0.114 A 
ATOM     20  C   UNL     1      44.445 124.644  22.170  1.00  0.00     0.222 A 
ATOM     21  N   UNL     1      44.674 123.306  22.208  1.00  0.00    -0.228 NA
ATOM     22  C   UNL     1      48.000 125.940  22.770  1.00  0.00     0.045 C 
ATOM     23  F   UNL     1      43.179 125.088  21.965  1.00  0.00    -0.184 F 
ENDBRANCH   5  16
ENDBRANCH   1   4
BRANCH   1  24
ATOM     24  C   UNL     1      45.322 130.753  18.668  1.00  0.00     0.179 A 
ATOM     25  C   UNL     1      44.110 131.424  18.914  1.00  0.00     0.072 A 
ATOM     26  C   UNL     1      45.691 130.467  17.331  1.00  0.00     0.201 A 
ATOM     27  C   UNL     1      43.306 131.851  17.860  1.00  0.00     0.009 A 
ATOM     28  C   UNL     1      44.884 130.929  16.262  1.00  0.00     0.080 A 
ATOM     29  C   UNL     1      43.694 131.613  16.544  1.00  0.00     0.030 A 
BRANCH  26  30
ATOM     30  O   UNL     1      46.842 129.705  17.107  1.00  0.00    -0.501 OA
ATOM     31  H   UNL     1      47.255 129.557  16.197  1.00  0.00     0.293 HD
ENDBRANCH  26  30
BRANCH  28  32
ATOM     32  N   UNL     1      45.254 130.732  14.890  1.00  0.00    -0.396 N 
ATOM     33  H   UNL     1      46.181 131.068  14.542  1.00  0.00     0.156 HD
ATOM     34  H   UNL     1      44.682 130.170  14.225  1.00  0.00     0.156 HD
ENDBRANCH  28  32
ENDBRANCH   1  24
TORSDOF 5
ENDMDL
MODEL 3
REMARK VINA RESULT:      -6.9      2.062      2.945
REMARK SMILES Cc1ccnc(F)c1-c1cc2c(C)c(F)cc([NH2+]c3cccc(N)c3O)c2[nH]1
REMARK SMILES IDX 18 1 17 4 9 5 10 6 28 7 11 8 27 9 12 10 14 11 16 12 13 14
REMARK SMILES IDX 15 15 8 16 2 17 3 18 4 19 6 20 5 21 1 22 7 23 19 24 20 25
REMARK SMILES IDX 25 26 21 27 23 28 22 29 26 30 24 32
REMARK H PARENT 18 2 18 3 28 13 26 31 24 33 24 34
ROOT
ATOM      1  N   UNL     1      44.915 130.131  22.486  1.00  0.00    -0.276 N 
ATOM      2  H   UNL     1      45.805 129.626  22.265  1.00  0.00     0.358 HD
ATOM      3  H   UNL     1      45.160 130.866  23.189  1.00  0.00     0.358 HD
ENDROOT
BRANCH   1   4
ATOM      4  C   UNL     1      43.970 129.189  23.042  1.00  0.00     0.162 A 
ATOM      5  C   UNL     1      45.226 125.890  23.168  1.00  0.00     0.052 A 
ATOM      6  C   UNL     1      43.940 125.678  23.653  1.00  0.00     0.037 A 
ATOM      7  N   UNL     1      45.419 127.195  22.872  1.00  0.00    -0.349 N 
ATOM      8  C   UNL     1      43.345 126.925  23.657  1.00  0.00     0.012 A 
ATOM      9  C   UNL     1      44.265 127.822  23.171  1.00  0.00     0.109 A 
ATOM     10  C   UNL     1      42.064 127.317  24.061  1.00  0.00    -0.005 A 
ATOM     11  C   UNL     1      41.752 128.692  23.981  1.00  0.00     0.132 A 
ATOM     12  C   UNL     1      42.693 129.613  23.478  1.00  0.00     0.110 A 
ATOM     13  H   UNL     1      46.302 127.623  22.520  1.00  0.00     0.167 HD
ATOM     14  C   UNL     1      41.086 126.316  24.611  1.00  0.00     0.048 C 
ATOM     15  F   UNL     1      40.539 129.148  24.386  1.00  0.00    -0.206 F 
BRANCH   5  16
ATOM     16  C   UNL     1      46.249 124.844  22.948  1.00  0.00     0.056 A 
ATOM     17  C   UNL     1      47.529 124.895  23.554  1.00  0.00    -0.036 A 
ATOM     18  C   UNL     1      48.433 123.844  23.330  1.00  0.00     0.024 A 
ATOM     19  C   UNL     1      48.078 122.791  22.489  1.00  0.00     0.114 A 
ATOM     20  C   UNL     1      45.949 123.762  22.098  1.00  0.00     0.222 A 
ATOM     21  N   UNL     1      46.859 122.774  21.895  1.00  0.00    -0.228 NA
ATOM     22  C   UNL     1      47.954 126.038  24.438  1.00  0.00     0.045 C 
ATOM     23  F   UNL     1      44.736 123.670  21.496  1.00  0.00    -0.184 F 
ENDBRANCH   5  16
ENDBRANCH   1   4
BRANCH   1  24
ATOM     24  C   UNL     1      44.372 130.774  21.307  1.00  0.00     0.179 A 
ATOM     25  C   UNL     1      43.088 131.348  21.352  1.00  0.00     0.072 A 
ATOM     26  C   UNL     1      45.095 130.795  20.091  1.00  0.00     0.201 A 
ATOM     27  C   UNL     1      42.552 131.978  20.231  1.00  0.00     0.009 A 
ATOM     28  C   UNL     1      44.557 131.463  18.962  1.00  0.00     0.080 A 
ATOM     29  C   UNL     1      43.284 132.042  19.048  1.00  0.00     0.030 A 
BRANCH  26  30
ATOM     30  O   UNL     1      46.321 130.127  20.032  1.00  0.00    -0.501 OA
ATOM     31  H   UNL     1      47.219 130.580  20.123  1.00  0.00     0.293 HD
ENDBRANCH  26  30
BRANCH  28  32
ATOM     32  N   UNL     1      45.283 131.579  17.730  1.00  0.00    -0.396 N 
ATOM     33  H   UNL     1      46.321 131.464  17.719  1.00  0.00     0.156 HD
ATOM     34  H   UNL     1      44.814 131.676  16.805  1.00  0.00     0.156 HD
ENDBRANCH  28  32
ENDBRANCH   1  24
TORSDOF 5
ENDMDL
MODEL 4
REMARK VINA RESULT:      -5.8      2.175      6.889
REMARK SMILES Cc1ccnc(F)c1-c1cc2c(C)c(F)cc([NH2+]c3cccc(N)c3O)c2[nH]1
REMARK SMILES IDX 18 1 17 4 9 5 10 6 28 7 11 8 27 9 12 10 14 11 16 12 13 14
REMARK SMILES IDX 15 15 8 16 2 17 3 18 4 19 6 20 5 21 1 22 7 23 19 24 20 25
REMARK SMILES IDX 25 26 21 27 23 28 22 29 26 30 24 32
REMARK H PARENT 18 2 18 3 28 13 26 31 24 33 24 34
ROOT
ATOM      1  N   UNL     1      45.866 129.067  21.515  1.00  0.00    -0.276 N 
ATOM      2  H   UNL     1      46.641 129.519  22.053  1.00  0.00     0.358 HD
ATOM      3  H   UNL     1      46.307 128.635  20.669  1.00  0.00     0.358 HD
ENDROOT
BRANCH   1   4
ATOM      4  C   UNL     1      44.911 130.081  21.128  1.00  0.00     0.162 A 
ATOM      5  C   UNL     1      45.029 130.842  17.681  1.00  0.00     0.052 A 
ATOM      6  C   UNL     1      44.064 131.752  18.097  1.00  0.00     0.037 A 
ATOM      7  N   UNL     1      45.479 130.108  18.724  1.00  0.00    -0.349 N 
ATOM      8  C   UNL     1      43.924 131.537  19.455  1.00  0.00     0.012 A 
ATOM      9  C   UNL     1      44.801 130.539  19.805  1.00  0.00     0.109 A 
ATOM     10  C   UNL     1      43.083 132.151  20.388  1.00  0.00    -0.005 A 
ATOM     11  C   UNL     1      43.142 131.684  21.720  1.00  0.00     0.132 A 
ATOM     12  C   UNL     1      44.044 130.663  22.082  1.00  0.00     0.110 A 
ATOM     13  H   UNL     1      46.181 129.340  18.679  1.00  0.00     0.167 HD
ATOM     14  C   UNL     1      42.117 133.225  19.971  1.00  0.00     0.048 C 
ATOM     15  F   UNL     1      42.331 132.211  22.672  1.00  0.00    -0.206 F 
BRANCH   5  16
ATOM     16  C   UNL     1      45.551 130.706  16.303  1.00  0.00     0.056 A 
ATOM     17  C   UNL     1      44.843 131.188  15.174  1.00  0.00    -0.036 A 
ATOM     18  C   UNL     1      45.420 131.058  13.900  1.00  0.00     0.024 A 
ATOM     19  C   UNL     1      46.654 130.427  13.759  1.00  0.00     0.114 A 
ATOM     20  C   UNL     1      46.788 130.065  16.099  1.00  0.00     0.222 A 
ATOM     21  N   UNL     1      47.303 129.947  14.848  1.00  0.00    -0.228 NA
ATOM     22  C   UNL     1      43.492 131.842  15.292  1.00  0.00     0.045 C 
ATOM     23  F   UNL     1      47.501 129.588  17.151  1.00  0.00    -0.184 F 
ENDBRANCH   5  16
ENDBRANCH   1   4
BRANCH   1  24
ATOM     24  C   UNL     1      45.227 128.025  22.291  1.00  0.00     0.179 A 
ATOM     25  C   UNL     1      44.060 128.311  23.021  1.00  0.00     0.072 A 
ATOM     26  C   UNL     1      45.787 126.726  22.366  1.00  0.00     0.201 A 
ATOM     27  C   UNL     1      43.426 127.319  23.768  1.00  0.00     0.009 A 
ATOM     28  C   UNL     1      45.123 125.714  23.104  1.00  0.00     0.080 A 
ATOM     29  C   UNL     1      43.950 126.029  23.802  1.00  0.00     0.030 A 
BRANCH  26  30
ATOM     30  O   UNL     1      47.005 126.487  21.725  1.00  0.00    -0.501 OA
ATOM     31  H   UNL     1      47.768 127.148  21.691  1.00  0.00     0.293 HD
ENDBRANCH  26  30
BRANCH  28  32
ATOM     32  N   UNL     1      45.607 124.364  23.148  1.00  0.00    -0.396 N 
ATOM     33  H   UNL     1      45.287 123.668  22.437  1.00  0.00     0.156 HD
ATOM     34  H   UNL     1      46.354 124.052  23.804  1.00  0.00     0.156 HD
ENDBRANCH  28  32
ENDBRANCH   1  24
TORSDOF 5
ENDMDL
MODEL 5
REMARK VINA RESULT:      -5.6      2.703      7.090
REMARK SMILES Cc1ccnc(F)c1-c1cc2c(C)c(F)cc([NH2+]c3cccc(N)c3O)c2[nH]1
REMARK SMILES IDX 18 1 17 4 9 5 10 6 28 7 11 8 27 9 12 10 14 11 16 12 13 14
REMARK SMILES IDX 15 15 8 16 2 17 3 18 4 19 6 20 5 21 1 22 7 23 19 24 20 25
REMARK SMILES IDX 25 26 21 27 23 28 22 29 26 30 24 32
REMARK H PARENT 18 2 18 3 28 13 26 31 24 33 24 34
ROOT
ATOM      1  N   UNL     1      45.651 129.765  21.330  1.00  0.00    -0.276 N 
ATOM      2  H   UNL     1      46.429 130.371  21.681  1.00  0.00     0.358 HD
ATOM      3  H   UNL     1      46.069 129.138  20.605  1.00  0.00     0.358 HD
ENDROOT
BRANCH   1   4
ATOM      4  C   UNL     1      44.631 130.607  20.747  1.00  0.00     0.162 A 
ATOM      5  C   UNL     1      45.056 131.080  17.273  1.00  0.00     0.052 A 
ATOM      6  C   UNL     1      43.944 131.886  17.492  1.00  0.00     0.037 A 
ATOM      7  N   UNL     1      45.467 130.504  18.425  1.00  0.00    -0.349 N 
ATOM      8  C   UNL     1      43.675 131.771  18.843  1.00  0.00     0.012 A 
ATOM      9  C   UNL     1      44.621 130.932  19.380  1.00  0.00     0.109 A 
ATOM     10  C   UNL     1      42.662 132.345  19.617  1.00  0.00    -0.005 A 
ATOM     11  C   UNL     1      42.621 132.005  20.987  1.00  0.00     0.132 A 
ATOM     12  C   UNL     1      43.594 131.148  21.542  1.00  0.00     0.110 A 
ATOM     13  H   UNL     1      46.259 129.835  18.531  1.00  0.00     0.167 HD
ATOM     14  C   UNL     1      41.627 133.242  18.996  1.00  0.00     0.048 C 
ATOM     15  F   UNL     1      41.647 132.499  21.792  1.00  0.00    -0.206 F 
BRANCH   5  16
ATOM     16  C   UNL     1      45.748 130.897  15.977  1.00  0.00     0.056 A 
ATOM     17  C   UNL     1      45.851 129.633  15.345  1.00  0.00    -0.036 A 
ATOM     18  C   UNL     1      46.487 129.544  14.096  1.00  0.00     0.024 A 
ATOM     19  C   UNL     1      47.038 130.684  13.516  1.00  0.00     0.114 A 
ATOM     20  C   UNL     1      46.334 132.013  15.351  1.00  0.00     0.222 A 
ATOM     21  N   UNL     1      46.954 131.881  14.150  1.00  0.00    -0.228 NA
ATOM     22  C   UNL     1      45.296 128.377  15.964  1.00  0.00     0.045 C 
ATOM     23  F   UNL     1      46.260 133.244  15.919  1.00  0.00    -0.184 F 
ENDBRANCH   5  16
ENDBRANCH   1   4
BRANCH   1  24
ATOM     24  C   UNL     1      45.103 128.949  22.393  1.00  0.00     0.179 A 
ATOM     25  C   UNL     1      44.352 129.549  23.421  1.00  0.00     0.072 A 
ATOM     26  C   UNL     1      45.349 127.556  22.443  1.00  0.00     0.201 A 
ATOM     27  C   UNL     1      43.810 128.780  24.448  1.00  0.00     0.009 A 
ATOM     28  C   UNL     1      44.770 126.774  23.474  1.00  0.00     0.080 A 
ATOM     29  C   UNL     1      44.010 127.402  24.470  1.00  0.00     0.030 A 
BRANCH  26  30
ATOM     30  O   UNL     1      46.186 126.992  21.476  1.00  0.00    -0.501 OA
ATOM     31  H   UNL     1      45.894 126.286  20.816  1.00  0.00     0.293 HD
ENDBRANCH  26  30
BRANCH  28  32
ATOM     32  N   UNL     1      44.925 125.348  23.525  1.00  0.00    -0.396 N 
ATOM     33  H   UNL     1      44.084 124.731  23.590  1.00  0.00     0.156 HD
ATOM     34  H   UNL     1      45.844 124.874  23.397  1.00  0.00     0.156 HD
ENDBRANCH  28  32
ENDBRANCH   1  24
TORSDOF 5
ENDMDL
MODEL 6
REMARK VINA RESULT:      -5.3      3.928      6.764
REMARK SMILES Cc1ccnc(F)c1-c1cc2c(C)c(F)cc([NH2+]c3cccc(N)c3O)c2[nH]1
REMARK SMILES IDX 18 1 17 4 9 5 10 6 28 7 11 8 27 9 12 10 14 11 16 12 13 14
REMARK SMILES IDX 15 15 8 16 2 17 3 18 4 19 6 20 5 21 1 22 7 23 19 24 20 25
REMARK SMILES IDX 25 26 21 27 23 28 22 29 26 30 24 32
REMARK H PARENT 18 2 18 3 28 13 26 31 24 33 24 34
ROOT
ATOM      1  N   UNL     1      46.228 130.687  19.612  1.00  0.00    -0.276 N 
ATOM      2  H   UNL     1      46.398 129.660  19.721  1.00  0.00     0.358 HD
ATOM      3  H   UNL     1      47.162 131.122  19.427  1.00  0.00     0.358 HD
ENDROOT
BRANCH   1   4
ATOM      4  C   UNL     1      45.662 131.199  20.839  1.00  0.00     0.162 A 
ATOM      5  C   UNL     1      47.619 133.751  22.299  1.00  0.00     0.052 A 
ATOM      6  C   UNL     1      46.614 133.641  23.254  1.00  0.00     0.037 A 
ATOM      7  N   UNL     1      47.420 132.876  21.288  1.00  0.00    -0.349 N 
ATOM      8  C   UNL     1      45.768 132.659  22.776  1.00  0.00     0.012 A 
ATOM      9  C   UNL     1      46.288 132.210  21.587  1.00  0.00     0.109 A 
ATOM     10  C   UNL     1      44.582 132.146  23.311  1.00  0.00    -0.005 A 
ATOM     11  C   UNL     1      43.907 131.156  22.562  1.00  0.00     0.132 A 
ATOM     12  C   UNL     1      44.443 130.690  21.344  1.00  0.00     0.110 A 
ATOM     13  H   UNL     1      48.010 132.775  20.435  1.00  0.00     0.167 HD
ATOM     14  C   UNL     1      44.024 132.672  24.604  1.00  0.00     0.048 C 
ATOM     15  F   UNL     1      42.735 130.636  23.005  1.00  0.00    -0.206 F 
BRANCH   5  16
ATOM     16  C   UNL     1      48.788 134.657  22.376  1.00  0.00     0.056 A 
ATOM     17  C   UNL     1      49.866 134.429  23.266  1.00  0.00    -0.036 A 
ATOM     18  C   UNL     1      50.959 135.310  23.254  1.00  0.00     0.024 A 
ATOM     19  C   UNL     1      50.953 136.411  22.400  1.00  0.00     0.114 A 
ATOM     20  C   UNL     1      48.829 135.792  21.545  1.00  0.00     0.222 A 
ATOM     21  N   UNL     1      49.899 136.628  21.575  1.00  0.00    -0.228 NA
ATOM     22  C   UNL     1      49.884 133.268  24.226  1.00  0.00     0.045 C 
ATOM     23  F   UNL     1      47.819 136.050  20.675  1.00  0.00    -0.184 F 
ENDBRANCH   5  16
ENDBRANCH   1   4
BRANCH   1  24
ATOM     24  C   UNL     1      45.357 130.958  18.487  1.00  0.00     0.179 A 
ATOM     25  C   UNL     1      44.130 131.612  18.694  1.00  0.00     0.072 A 
ATOM     26  C   UNL     1      45.701 130.532  17.181  1.00  0.00     0.201 A 
ATOM     27  C   UNL     1      43.281 131.888  17.624  1.00  0.00     0.009 A 
ATOM     28  C   UNL     1      44.848 130.841  16.092  1.00  0.00     0.080 A 
ATOM     29  C   UNL     1      43.642 131.513  16.332  1.00  0.00     0.030 A 
BRANCH  26  30
ATOM     30  O   UNL     1      46.871 129.788  17.008  1.00  0.00    -0.501 OA
ATOM     31  H   UNL     1      47.141 129.349  16.140  1.00  0.00     0.293 HD
ENDBRANCH  26  30
BRANCH  28  32
ATOM     32  N   UNL     1      45.187 130.501  14.740  1.00  0.00    -0.396 N 
ATOM     33  H   UNL     1      44.724 130.993  13.943  1.00  0.00     0.156 HD
ATOM     34  H   UNL     1      45.959 129.845  14.499  1.00  0.00     0.156 HD
ENDBRANCH  28  32
ENDBRANCH   1  24
TORSDOF 5
ENDMDL
MODEL 7
REMARK VINA RESULT:      -5.2      3.307      7.203
REMARK SMILES Cc1ccnc(F)c1-c1cc2c(C)c(F)cc([NH2+]c3cccc(N)c3O)c2[nH]1
REMARK SMILES IDX 18 1 17 4 9 5 10 6 28 7 11 8 27 9 12 10 14 11 16 12 13 14
REMARK SMILES IDX 15 15 8 16 2 17 3 18 4 19 6 20 5 21 1 22 7 23 19 24 20 25
REMARK SMILES IDX 25 26 21 27 23 28 22 29 26 30 24 32
REMARK H PARENT 18 2 18 3 28 13 26 31 24 33 24 34
ROOT
ATOM      1  N   UNL     1      45.397 130.869  21.069  1.00  0.00    -0.276 N 
ATOM      2  H   UNL     1      46.040 131.663  21.295  1.00  0.00     0.358 HD
ATOM      3  H   UNL     1      45.970 130.165  20.548  1.00  0.00     0.358 HD
ENDROOT
BRANCH   1   4
ATOM      4  C   UNL     1      44.320 131.362  20.240  1.00  0.00     0.162 A 
ATOM      5  C   UNL     1      45.042 131.176  16.788  1.00  0.00     0.052 A 
ATOM      6  C   UNL     1      43.792 131.784  16.741  1.00  0.00     0.037 A 
ATOM      7  N   UNL     1      45.414 130.940  18.066  1.00  0.00    -0.349 N 
ATOM      8  C   UNL     1      43.398 131.903  18.060  1.00  0.00     0.012 A 
ATOM      9  C   UNL     1      44.407 131.389  18.839  1.00  0.00     0.109 A 
ATOM     10  C   UNL     1      42.222 132.421  18.612  1.00  0.00    -0.005 A 
ATOM     11  C   UNL     1      42.088 132.372  20.017  1.00  0.00     0.132 A 
ATOM     12  C   UNL     1      43.124 131.849  20.818  1.00  0.00     0.110 A 
ATOM     13  H   UNL     1      46.291 130.470  18.376  1.00  0.00     0.167 HD
ATOM     14  C   UNL     1      41.125 132.956  17.733  1.00  0.00     0.048 C 
ATOM     15  F   UNL     1      40.960 132.828  20.619  1.00  0.00    -0.206 F 
BRANCH   5  16
ATOM     16  C   UNL     1      45.894 130.863  15.619  1.00  0.00     0.056 A 
ATOM     17  C   UNL     1      46.046 129.544  15.124  1.00  0.00    -0.036 A 
ATOM     18  C   UNL     1      46.839 129.329  13.985  1.00  0.00     0.024 A 
ATOM     19  C   UNL     1      47.493 130.403  13.383  1.00  0.00     0.114 A 
ATOM     20  C   UNL     1      46.588 131.907  14.979  1.00  0.00     0.222 A 
ATOM     21  N   UNL     1      47.358 131.654  13.889  1.00  0.00    -0.228 NA
ATOM     22  C   UNL     1      45.381 128.359  15.774  1.00  0.00     0.045 C 
ATOM     23  F   UNL     1      46.471 133.187  15.417  1.00  0.00    -0.184 F 
ENDBRANCH   5  16
ENDBRANCH   1   4
BRANCH   1  24
ATOM     24  C   UNL     1      44.882 130.252  22.273  1.00  0.00     0.179 A 
ATOM     25  C   UNL     1      44.377 131.056  23.311  1.00  0.00     0.072 A 
ATOM     26  C   UNL     1      44.921 128.847  22.446  1.00  0.00     0.201 A 
ATOM     27  C   UNL     1      43.870 130.480  24.475  1.00  0.00     0.009 A 
ATOM     28  C   UNL     1      44.377 128.265  23.618  1.00  0.00     0.080 A 
ATOM     29  C   UNL     1      43.863 129.096  24.623  1.00  0.00     0.030 A 
BRANCH  26  30
ATOM     30  O   UNL     1      45.524 128.070  21.453  1.00  0.00    -0.501 OA
ATOM     31  H   UNL     1      46.497 128.140  21.191  1.00  0.00     0.293 HD
ENDBRANCH  26  30
BRANCH  28  32
ATOM     32  N   UNL     1      44.322 126.844  23.807  1.00  0.00    -0.396 N 
ATOM     33  H   UNL     1      44.712 126.203  23.080  1.00  0.00     0.156 HD
ATOM     34  H   UNL     1      43.997 126.404  24.693  1.00  0.00     0.156 HD
ENDBRANCH  28  32
ENDBRANCH   1  24
TORSDOF 5
ENDMDL
MODEL 8
REMARK VINA RESULT:      -5.2      1.331      1.628
REMARK SMILES Cc1ccnc(F)c1-c1cc2c(C)c(F)cc([NH2+]c3cccc(N)c3O)c2[nH]1
REMARK SMILES IDX 18 1 17 4 9 5 10 6 28 7 11 8 27 9 12 10 14 11 16 12 13 14
REMARK SMILES IDX 15 15 8 16 2 17 3 18 4 19 6 20 5 21 1 22 7 23 19 24 20 25
REMARK SMILES IDX 25 26 21 27 23 28 22 29 26 30 24 32
REMARK H PARENT 18 2 18 3 28 13 26 31 24 33 24 34
ROOT
ATOM      1  N   UNL     1      46.177 130.619  20.624  1.00  0.00    -0.276 N 
ATOM      2  H   UNL     1      46.909 129.876  20.712  1.00  0.00     0.358 HD
ATOM      3  H   UNL     1      46.651 131.528  20.835  1.00  0.00     0.358 HD
ENDROOT
BRANCH   1   4
ATOM      4  C   UNL     1      45.129 130.358  21.585  1.00  0.00     0.162 A 
ATOM      5  C   UNL     1      45.093 127.008  22.705  1.00  0.00     0.052 A 
ATOM      6  C   UNL     1      43.986 127.503  23.386  1.00  0.00     0.037 A 
ATOM      7  N   UNL     1      45.664 127.974  21.950  1.00  0.00    -0.349 N 
ATOM      8  C   UNL     1      43.904 128.834  23.025  1.00  0.00     0.012 A 
ATOM      9  C   UNL     1      44.931 129.086  22.148  1.00  0.00     0.109 A 
ATOM     10  C   UNL     1      43.000 129.826  23.418  1.00  0.00    -0.005 A 
ATOM     11  C   UNL     1      43.197 131.125  22.900  1.00  0.00     0.132 A 
ATOM     12  C   UNL     1      44.247 131.385  21.996  1.00  0.00     0.110 A 
ATOM     13  H   UNL     1      46.521 127.873  21.366  1.00  0.00     0.167 HD
ATOM     14  C   UNL     1      41.899 129.526  24.397  1.00  0.00     0.048 C 
ATOM     15  F   UNL     1      42.377 132.144  23.263  1.00  0.00    -0.206 F 
BRANCH   5  16
ATOM     16  C   UNL     1      45.576 125.609  22.743  1.00  0.00     0.056 A 
ATOM     17  C   UNL     1      44.794 124.525  22.275  1.00  0.00    -0.036 A 
ATOM     18  C   UNL     1      45.335 123.230  22.306  1.00  0.00     0.024 A 
ATOM     19  C   UNL     1      46.610 123.023  22.827  1.00  0.00     0.114 A 
ATOM     20  C   UNL     1      46.853 125.341  23.271  1.00  0.00     0.222 A 
ATOM     21  N   UNL     1      47.333 124.070  23.297  1.00  0.00    -0.228 NA
ATOM     22  C   UNL     1      43.399 124.712  21.740  1.00  0.00     0.045 C 
ATOM     23  F   UNL     1      47.639 126.348  23.730  1.00  0.00    -0.184 F 
ENDBRANCH   5  16
ENDBRANCH   1   4
BRANCH   1  24
ATOM     24  C   UNL     1      45.643 130.672  19.279  1.00  0.00     0.179 A 
ATOM     25  C   UNL     1      46.259 129.934  18.252  1.00  0.00     0.072 A 
ATOM     26  C   UNL     1      44.534 131.495  18.967  1.00  0.00     0.201 A 
ATOM     27  C   UNL     1      45.755 129.965  16.953  1.00  0.00     0.009 A 
ATOM     28  C   UNL     1      44.009 131.501  17.651  1.00  0.00     0.080 A 
ATOM     29  C   UNL     1      44.634 130.737  16.657  1.00  0.00     0.030 A 
BRANCH  26  30
ATOM     30  O   UNL     1      44.002 132.306  19.973  1.00  0.00    -0.501 OA
ATOM     31  H   UNL     1      43.795 131.986  20.909  1.00  0.00     0.293 HD
ENDBRANCH  26  30
BRANCH  28  32
ATOM     32  N   UNL     1      42.840 132.257  17.302  1.00  0.00    -0.396 N 
ATOM     33  H   UNL     1      42.913 133.054  16.629  1.00  0.00     0.156 HD
ATOM     34  H   UNL     1      41.882 131.991  17.610  1.00  0.00     0.156 HD
ENDBRANCH  28  32
ENDBRANCH   1  24
TORSDOF 5
ENDMDL
MODEL 9
REMARK VINA RESULT:      -5.1      2.893      7.109
REMARK SMILES Cc1ccnc(F)c1-c1cc2c(C)c(F)cc([NH2+]c3cccc(N)c3O)c2[nH]1
REMARK SMILES IDX 18 1 17 4 9 5 10 6 28 7 11 8 27 9 12 10 14 11 16 12 13 14
REMARK SMILES IDX 15 15 8 16 2 17 3 18 4 19 6 20 5 21 1 22 7 23 19 24 20 25
REMARK SMILES IDX 25 26 21 27 23 28 22 29 26 30 24 32
REMARK H PARENT 18 2 18 3 28 13 26 31 24 33 24 34
ROOT
ATOM      1  N   UNL     1      45.292 130.632  21.343  1.00  0.00    -0.276 N 
ATOM      2  H   UNL     1      45.932 131.390  21.676  1.00  0.00     0.358 HD
ATOM      3  H   UNL     1      45.880 129.976  20.779  1.00  0.00     0.358 HD
ENDROOT
BRANCH   1   4
ATOM      4  C   UNL     1      44.258 131.222  20.522  1.00  0.00     0.162 A 
ATOM      5  C   UNL     1      44.964 131.024  17.067  1.00  0.00     0.052 A 
ATOM      6  C   UNL     1      43.767 131.732  17.029  1.00  0.00     0.037 A 
ATOM      7  N   UNL     1      45.316 130.742  18.341  1.00  0.00    -0.349 N 
ATOM      8  C   UNL     1      43.384 131.865  18.350  1.00  0.00     0.012 A 
ATOM      9  C   UNL     1      44.348 131.260  19.120  1.00  0.00     0.109 A 
ATOM     10  C   UNL     1      42.254 132.470  18.910  1.00  0.00    -0.005 A 
ATOM     11  C   UNL     1      42.116 132.413  20.314  1.00  0.00     0.132 A 
ATOM     12  C   UNL     1      43.107 131.797  21.107  1.00  0.00     0.110 A 
ATOM     13  H   UNL     1      46.151 130.198  18.643  1.00  0.00     0.167 HD
ATOM     14  C   UNL     1      41.205 133.104  18.039  1.00  0.00     0.048 C 
ATOM     15  F   UNL     1      41.029 132.951  20.923  1.00  0.00    -0.206 F 
BRANCH   5  16
ATOM     16  C   UNL     1      45.788 130.659  15.893  1.00  0.00     0.056 A 
ATOM     17  C   UNL     1      46.413 131.631  15.073  1.00  0.00    -0.036 A 
ATOM     18  C   UNL     1      47.213 131.207  14.000  1.00  0.00     0.024 A 
ATOM     19  C   UNL     1      47.350 129.846  13.732  1.00  0.00     0.114 A 
ATOM     20  C   UNL     1      45.950 129.298  15.568  1.00  0.00     0.222 A 
ATOM     21  N   UNL     1      46.720 128.931  14.511  1.00  0.00    -0.228 NA
ATOM     22  C   UNL     1      46.254 133.109  15.316  1.00  0.00     0.045 C 
ATOM     23  F   UNL     1      45.371 128.332  16.325  1.00  0.00    -0.184 F 
ENDBRANCH   5  16
ENDBRANCH   1   4
BRANCH   1  24
ATOM     24  C   UNL     1      44.717 129.905  22.455  1.00  0.00     0.179 A 
ATOM     25  C   UNL     1      44.017 130.599  23.458  1.00  0.00     0.072 A 
ATOM     26  C   UNL     1      44.887 128.504  22.575  1.00  0.00     0.201 A 
ATOM     27  C   UNL     1      43.450 129.916  24.532  1.00  0.00     0.009 A 
ATOM     28  C   UNL     1      44.283 127.811  23.653  1.00  0.00     0.080 A 
ATOM     29  C   UNL     1      43.575 128.532  24.625  1.00  0.00     0.030 A 
BRANCH  26  30
ATOM     30  O   UNL     1      45.675 127.845  21.628  1.00  0.00    -0.501 OA
ATOM     31  H   UNL     1      45.310 127.389  20.805  1.00  0.00     0.293 HD
ENDBRANCH  26  30
BRANCH  28  32
ATOM     32  N   UNL     1      44.360 126.383  23.778  1.00  0.00    -0.396 N 
ATOM     33  H   UNL     1      43.514 125.795  23.602  1.00  0.00     0.156 HD
ATOM     34  H   UNL     1      45.255 125.878  23.942  1.00  0.00     0.156 HD
ENDBRANCH  28  32
ENDBRANCH   1  24
TORSDOF 5
ENDMDL


