MODEL 1
REMARK VINA RESULT:      -7.4      0.000      0.000
REMARK SMILES C=C[C@@H](Oc1[nH+]cnc(C)c1C)c1cc(-c2c[nH]c3nccc-3c2)cc2[nH]ccc12
REMARK SMILES IDX 3 1 2 2 1 3 4 4 5 5 6 6 11 7 7 8 9 9 8 10 12 12 10 13 13 14
REMARK SMILES IDX 14 15 30 16 15 17 29 18 26 19 25 20 28 21 27 22 16 24 17 25
REMARK SMILES IDX 24 26 18 27 23 28 19 29 22 30 20 31 21 32
REMARK H PARENT 6 11 27 23 18 33
ROOT
ATOM      1  C   UNL     1      45.045 131.059  19.997  1.00  0.00     0.231 C 
ENDROOT
BRANCH   1   2
ATOM      2  C   UNL     1      45.678 132.335  20.487  1.00  0.00     0.014 C 
ATOM      3  C   UNL     1      46.793 132.342  21.226  1.00  0.00     0.008 C 
ENDBRANCH   1   2
BRANCH   1   4
ATOM      4  O   UNL     1      45.938 130.396  19.098  1.00  0.00    -0.450 OA
BRANCH   4   5
ATOM      5  C   UNL     1      45.860 130.436  17.695  1.00  0.00     0.289 A 
ATOM      6  N   UNL     1      46.828 129.872  16.914  1.00  0.00    -0.213 N 
ATOM      7  C   UNL     1      44.760 131.074  17.090  1.00  0.00     0.081 A 
ATOM      8  C   UNL     1      46.743 129.907  15.559  1.00  0.00     0.452 A 
ATOM      9  C   UNL     1      44.682 131.065  15.680  1.00  0.00     0.159 A 
ATOM     10  N   UNL     1      45.680 130.493  14.958  1.00  0.00    -0.054 NA
ATOM     11  H   UNL     1      47.656 129.399  17.335  1.00  0.00     0.315 HD
ATOM     12  C   UNL     1      43.672 131.694  17.931  1.00  0.00     0.057 C 
ATOM     13  C   UNL     1      43.536 131.693  14.943  1.00  0.00     0.098 C 
ENDBRANCH   4   5
ENDBRANCH   1   4
BRANCH   1  14
ATOM     14  C   UNL     1      44.685 130.177  21.175  1.00  0.00     0.006 A 
ATOM     15  C   UNL     1      45.234 128.880  21.319  1.00  0.00     0.017 A 
ATOM     16  C   UNL     1      43.835 130.627  22.193  1.00  0.00     0.007 A 
ATOM     17  C   UNL     1      44.908 128.062  22.433  1.00  0.00    -0.014 A 
ATOM     18  C   UNL     1      43.176 131.829  22.366  1.00  0.00     0.028 A 
ATOM     19  C   UNL     1      43.518 129.841  23.271  1.00  0.00     0.046 A 
ATOM     20  C   UNL     1      44.031 128.556  23.424  1.00  0.00     0.035 A 
ATOM     21  C   UNL     1      42.481 131.703  23.562  1.00  0.00     0.083 A 
ATOM     22  N   UNL     1      42.693 130.487  24.112  1.00  0.00    -0.361 N 
ATOM     23  H   UNL     1      42.298 130.128  25.009  1.00  0.00     0.166 HD
BRANCH  17  24
ATOM     24  C   UNL     1      45.490 126.703  22.558  1.00  0.00    -0.001 A 
ATOM     25  C   UNL     1      44.680 125.611  22.993  1.00  0.00     0.093 A 
ATOM     26  C   UNL     1      46.853 126.482  22.245  1.00  0.00     0.022 A 
ATOM     27  N   UNL     1      45.191 124.347  23.117  1.00  0.00    -0.346 N 
ATOM     28  C   UNL     1      47.339 125.192  22.380  1.00  0.00     0.019 A 
ATOM     29  C   UNL     1      46.494 124.136  22.818  1.00  0.00     0.137 A 
ATOM     30  C   UNL     1      48.573 124.629  22.179  1.00  0.00     0.032 A 
ATOM     31  N   UNL     1      47.154 122.969  22.889  1.00  0.00    -0.239 NA
ATOM     32  C   UNL     1      48.419 123.277  22.499  1.00  0.00     0.114 A 
ATOM     33  H   UNL     1      44.584 123.559  23.435  1.00  0.00     0.167 HD
ENDBRANCH  17  24
ENDBRANCH   1  14
TORSDOF 5
ENDMDL
MODEL 2
REMARK VINA RESULT:      -7.0      1.613      7.330
REMARK SMILES C=C[C@@H](Oc1[nH+]cnc(C)c1C)c1cc(-c2c[nH]c3nccc-3c2)cc2[nH]ccc12
REMARK SMILES IDX 3 1 2 2 1 3 4 4 5 5 6 6 11 7 7 8 9 9 8 10 12 12 10 13 13 14
REMARK SMILES IDX 14 15 30 16 15 17 29 18 26 19 25 20 28 21 27 22 16 24 17 25
REMARK SMILES IDX 24 26 18 27 23 28 19 29 22 30 20 31 21 32
REMARK H PARENT 6 11 27 23 18 33
ROOT
ATOM      1  C   UNL     1      45.259 128.488  23.069  1.00  0.00     0.231 C 
ENDROOT
BRANCH   1   2
ATOM      2  C   UNL     1      44.588 128.267  24.399  1.00  0.00     0.014 C 
ATOM      3  C   UNL     1      43.500 127.499  24.532  1.00  0.00     0.008 C 
ENDBRANCH   1   2
BRANCH   1   4
ATOM      4  O   UNL     1      45.134 127.311  22.267  1.00  0.00    -0.450 OA
BRANCH   4   5
ATOM      5  C   UNL     1      45.698 126.058  22.567  1.00  0.00     0.289 A 
ATOM      6  N   UNL     1      47.027 125.928  22.853  1.00  0.00    -0.213 N 
ATOM      7  C   UNL     1      44.871 124.918  22.566  1.00  0.00     0.081 A 
ATOM      8  C   UNL     1      47.564 124.717  23.149  1.00  0.00     0.452 A 
ATOM      9  C   UNL     1      45.450 123.677  22.909  1.00  0.00     0.159 A 
ATOM     10  N   UNL     1      46.780 123.613  23.179  1.00  0.00    -0.054 NA
ATOM     11  H   UNL     1      47.664 126.753  22.855  1.00  0.00     0.315 HD
ATOM     12  C   UNL     1      43.397 125.038  22.263  1.00  0.00     0.057 C 
ATOM     13  C   UNL     1      44.647 122.412  22.964  1.00  0.00     0.098 C 
ENDBRANCH   4   5
ENDBRANCH   1   4
BRANCH   1  14
ATOM     14  C   UNL     1      44.653 129.695  22.381  1.00  0.00     0.006 A 
ATOM     15  C   UNL     1      44.778 129.887  20.985  1.00  0.00     0.017 A 
ATOM     16  C   UNL     1      43.905 130.643  23.092  1.00  0.00     0.007 A 
ATOM     17  C   UNL     1      44.194 131.010  20.340  1.00  0.00    -0.014 A 
ATOM     18  C   UNL     1      43.574 130.725  24.431  1.00  0.00     0.028 A 
ATOM     19  C   UNL     1      43.338 131.728  22.474  1.00  0.00     0.046 A 
ATOM     20  C   UNL     1      43.464 131.947  21.105  1.00  0.00     0.035 A 
ATOM     21  C   UNL     1      42.811 131.881  24.554  1.00  0.00     0.083 A 
ATOM     22  N   UNL     1      42.670 132.490  23.356  1.00  0.00    -0.361 N 
ATOM     23  H   UNL     1      42.144 133.370  23.160  1.00  0.00     0.166 HD
BRANCH  17  24
ATOM     24  C   UNL     1      44.344 131.194  18.875  1.00  0.00    -0.001 A 
ATOM     25  C   UNL     1      43.299 131.797  18.115  1.00  0.00     0.093 A 
ATOM     26  C   UNL     1      45.529 130.772  18.225  1.00  0.00     0.022 A 
ATOM     27  N   UNL     1      43.412 131.978  16.763  1.00  0.00    -0.346 N 
ATOM     28  C   UNL     1      45.613 130.971  16.858  1.00  0.00     0.019 A 
ATOM     29  C   UNL     1      44.545 131.576  16.141  1.00  0.00     0.137 A 
ATOM     30  C   UNL     1      46.578 130.687  15.926  1.00  0.00     0.032 A 
ATOM     31  N   UNL     1      44.818 131.672  14.830  1.00  0.00    -0.239 NA
ATOM     32  C   UNL     1      46.058 131.129  14.707  1.00  0.00     0.114 A 
ATOM     33  H   UNL     1      42.638 132.424  16.222  1.00  0.00     0.167 HD
ENDBRANCH  17  24
ENDBRANCH   1  14
TORSDOF 5
ENDMDL
MODEL 3
REMARK VINA RESULT:      -6.7      1.241      1.893
REMARK SMILES C=C[C@@H](Oc1[nH+]cnc(C)c1C)c1cc(-c2c[nH]c3nccc-3c2)cc2[nH]ccc12
REMARK SMILES IDX 3 1 2 2 1 3 4 4 5 5 6 6 11 7 7 8 9 9 8 10 12 12 10 13 13 14
REMARK SMILES IDX 14 15 30 16 15 17 29 18 26 19 25 20 28 21 27 22 16 24 17 25
REMARK SMILES IDX 24 26 18 27 23 28 19 29 22 30 20 31 21 32
REMARK H PARENT 6 11 27 23 18 33
ROOT
ATOM      1  C   UNL     1      44.544 131.248  20.247  1.00  0.00     0.231 C 
ENDROOT
BRANCH   1   2
ATOM      2  C   UNL     1      45.466 132.367  20.655  1.00  0.00     0.014 C 
ATOM      3  C   UNL     1      46.750 132.158  20.964  1.00  0.00     0.008 C 
ENDBRANCH   1   2
BRANCH   1   4
ATOM      4  O   UNL     1      45.032 130.636  19.050  1.00  0.00    -0.450 OA
BRANCH   4   5
ATOM      5  C   UNL     1      44.646 130.981  17.743  1.00  0.00     0.289 A 
ATOM      6  N   UNL     1      43.528 131.730  17.507  1.00  0.00    -0.213 N 
ATOM      7  C   UNL     1      45.429 130.539  16.660  1.00  0.00     0.081 A 
ATOM      8  C   UNL     1      43.165 132.067  16.243  1.00  0.00     0.452 A 
ATOM      9  C   UNL     1      45.045 130.932  15.359  1.00  0.00     0.159 A 
ATOM     10  N   UNL     1      43.920 131.673  15.190  1.00  0.00    -0.054 NA
ATOM     11  H   UNL     1      42.927 132.066  18.289  1.00  0.00     0.315 HD
ATOM     12  C   UNL     1      46.675 129.719  16.895  1.00  0.00     0.057 C 
ATOM     13  C   UNL     1      45.830 130.536  14.143  1.00  0.00     0.098 C 
ENDBRANCH   4   5
ENDBRANCH   1   4
BRANCH   1  14
ATOM     14  C   UNL     1      44.423 130.243  21.375  1.00  0.00     0.006 A 
ATOM     15  C   UNL     1      45.121 129.012  21.343  1.00  0.00     0.017 A 
ATOM     16  C   UNL     1      43.656 130.512  22.516  1.00  0.00     0.007 A 
ATOM     17  C   UNL     1      45.021 128.080  22.410  1.00  0.00    -0.014 A 
ATOM     18  C   UNL     1      42.898 131.613  22.865  1.00  0.00     0.028 A 
ATOM     19  C   UNL     1      43.556 129.616  23.549  1.00  0.00     0.046 A 
ATOM     20  C   UNL     1      44.219 128.392  23.530  1.00  0.00     0.035 A 
ATOM     21  C   UNL     1      42.367 131.317  24.115  1.00  0.00     0.083 A 
ATOM     22  N   UNL     1      42.772 130.096  24.528  1.00  0.00    -0.361 N 
ATOM     23  H   UNL     1      42.527 129.627  25.429  1.00  0.00     0.166 HD
BRANCH  17  24
ATOM     24  C   UNL     1      45.756 126.792  22.350  1.00  0.00    -0.001 A 
ATOM     25  C   UNL     1      47.181 126.780  22.290  1.00  0.00     0.093 A 
ATOM     26  C   UNL     1      45.044 125.568  22.354  1.00  0.00     0.022 A 
ATOM     27  N   UNL     1      47.884 125.606  22.234  1.00  0.00    -0.346 N 
ATOM     28  C   UNL     1      45.784 124.399  22.299  1.00  0.00     0.019 A 
ATOM     29  C   UNL     1      47.204 124.436  22.238  1.00  0.00     0.137 A 
ATOM     30  C   UNL     1      45.441 123.072  22.276  1.00  0.00     0.032 A 
ATOM     31  N   UNL     1      47.731 123.202  22.183  1.00  0.00    -0.239 NA
ATOM     32  C   UNL     1      46.651 122.377  22.207  1.00  0.00     0.114 A 
ATOM     33  H   UNL     1      48.927 125.616  22.193  1.00  0.00     0.167 HD
ENDBRANCH  17  24
ENDBRANCH   1  14
TORSDOF 5
ENDMDL
MODEL 4
REMARK VINA RESULT:      -6.7      2.515      7.498
REMARK SMILES C=C[C@@H](Oc1[nH+]cnc(C)c1C)c1cc(-c2c[nH]c3nccc-3c2)cc2[nH]ccc12
REMARK SMILES IDX 3 1 2 2 1 3 4 4 5 5 6 6 11 7 7 8 9 9 8 10 12 12 10 13 13 14
REMARK SMILES IDX 14 15 30 16 15 17 29 18 26 19 25 20 28 21 27 22 16 24 17 25
REMARK SMILES IDX 24 26 18 27 23 28 19 29 22 30 20 31 21 32
REMARK H PARENT 6 11 27 23 18 33
ROOT
ATOM      1  C   UNL     1      45.347 130.558  21.583  1.00  0.00     0.231 C 
ENDROOT
BRANCH   1   2
ATOM      2  C   UNL     1      44.932 131.405  22.757  1.00  0.00     0.014 C 
ATOM      3  C   UNL     1      45.459 132.613  22.988  1.00  0.00     0.008 C 
ENDBRANCH   1   2
BRANCH   1   4
ATOM      4  O   UNL     1      44.984 129.195  21.822  1.00  0.00    -0.450 OA
BRANCH   4   5
ATOM      5  C   UNL     1      44.053 128.756  22.780  1.00  0.00     0.289 A 
ATOM      6  N   UNL     1      43.204 129.630  23.397  1.00  0.00    -0.213 N 
ATOM      7  C   UNL     1      44.004 127.387  23.108  1.00  0.00     0.081 A 
ATOM      8  C   UNL     1      42.302 129.199  24.315  1.00  0.00     0.452 A 
ATOM      9  C   UNL     1      43.034 126.964  24.042  1.00  0.00     0.159 A 
ATOM     10  N   UNL     1      42.221 127.882  24.625  1.00  0.00    -0.054 NA
ATOM     11  H   UNL     1      43.223 130.649  23.178  1.00  0.00     0.315 HD
ATOM     12  C   UNL     1      44.925 126.401  22.431  1.00  0.00     0.057 C 
ATOM     13  C   UNL     1      42.883 125.524  24.435  1.00  0.00     0.098 C 
ENDBRANCH   4   5
ENDBRANCH   1   4
BRANCH   1  14
ATOM     14  C   UNL     1      44.709 131.088  20.314  1.00  0.00     0.006 A 
ATOM     15  C   UNL     1      45.319 130.906  19.051  1.00  0.00     0.017 A 
ATOM     16  C   UNL     1      43.467 131.736  20.336  1.00  0.00     0.007 A 
ATOM     17  C   UNL     1      44.710 131.388  17.862  1.00  0.00    -0.014 A 
ATOM     18  C   UNL     1      42.613 132.035  21.380  1.00  0.00     0.028 A 
ATOM     19  C   UNL     1      42.874 132.203  19.191  1.00  0.00     0.046 A 
ATOM     20  C   UNL     1      43.466 132.051  17.940  1.00  0.00     0.035 A 
ATOM     21  C   UNL     1      41.529 132.682  20.799  1.00  0.00     0.083 A 
ATOM     22  N   UNL     1      41.693 132.782  19.462  1.00  0.00    -0.361 N 
ATOM     23  H   UNL     1      41.032 133.217  18.781  1.00  0.00     0.166 HD
BRANCH  17  24
ATOM     24  C   UNL     1      45.373 131.192  16.549  1.00  0.00    -0.001 A 
ATOM     25  C   UNL     1      44.973 131.964  15.418  1.00  0.00     0.093 A 
ATOM     26  C   UNL     1      46.409 130.236  16.412  1.00  0.00     0.022 A 
ATOM     27  N   UNL     1      45.567 131.803  14.196  1.00  0.00    -0.346 N 
ATOM     28  C   UNL     1      46.991 130.098  15.164  1.00  0.00     0.019 A 
ATOM     29  C   UNL     1      46.558 130.890  14.065  1.00  0.00     0.137 A 
ATOM     30  C   UNL     1      47.986 129.290  14.676  1.00  0.00     0.032 A 
ATOM     31  N   UNL     1      47.240 130.601  12.945  1.00  0.00    -0.239 NA
ATOM     32  C   UNL     1      48.108 129.626  13.325  1.00  0.00     0.114 A 
ATOM     33  H   UNL     1      45.263 132.379  13.379  1.00  0.00     0.167 HD
ENDBRANCH  17  24
ENDBRANCH   1  14
TORSDOF 5
ENDMDL
MODEL 5
REMARK VINA RESULT:      -5.2      1.538      7.622
REMARK SMILES C=C[C@@H](Oc1[nH+]cnc(C)c1C)c1cc(-c2c[nH]c3nccc-3c2)cc2[nH]ccc12
REMARK SMILES IDX 3 1 2 2 1 3 4 4 5 5 6 6 11 7 7 8 9 9 8 10 12 12 10 13 13 14
REMARK SMILES IDX 14 15 30 16 15 17 29 18 26 19 25 20 28 21 27 22 16 24 17 25
REMARK SMILES IDX 24 26 18 27 23 28 19 29 22 30 20 31 21 32
REMARK H PARENT 6 11 27 23 18 33
ROOT
ATOM      1  C   UNL     1      44.642 127.688  23.250  1.00  0.00     0.231 C 
ENDROOT
BRANCH   1   2
ATOM      2  C   UNL     1      43.281 127.050  23.158  1.00  0.00     0.014 C 
ATOM      3  C   UNL     1      42.655 126.544  24.227  1.00  0.00     0.008 C 
ENDBRANCH   1   2
BRANCH   1   4
ATOM      4  O   UNL     1      45.622 126.810  22.690  1.00  0.00    -0.450 OA
BRANCH   4   5
ATOM      5  C   UNL     1      45.926 125.521  23.161  1.00  0.00     0.289 A 
ATOM      6  N   UNL     1      45.014 124.791  23.869  1.00  0.00    -0.213 N 
ATOM      7  C   UNL     1      47.199 124.979  22.898  1.00  0.00     0.081 A 
ATOM      8  C   UNL     1      45.310 123.543  24.315  1.00  0.00     0.452 A 
ATOM      9  C   UNL     1      47.467 123.667  23.345  1.00  0.00     0.159 A 
ATOM     10  N   UNL     1      46.520 122.994  24.049  1.00  0.00    -0.054 NA
ATOM     11  H   UNL     1      44.067 125.170  24.084  1.00  0.00     0.315 HD
ATOM     12  C   UNL     1      48.219 125.762  22.108  1.00  0.00     0.057 C 
ATOM     13  C   UNL     1      48.782 122.992  23.089  1.00  0.00     0.098 C 
ENDBRANCH   4   5
ENDBRANCH   1   4
BRANCH   1  14
ATOM     14  C   UNL     1      44.631 129.030  22.546  1.00  0.00     0.006 A 
ATOM     15  C   UNL     1      44.928 129.141  21.167  1.00  0.00     0.017 A 
ATOM     16  C   UNL     1      44.279 130.207  23.220  1.00  0.00     0.007 A 
ATOM     17  C   UNL     1      44.899 130.397  20.506  1.00  0.00    -0.014 A 
ATOM     18  C   UNL     1      43.909 130.429  24.533  1.00  0.00     0.028 A 
ATOM     19  C   UNL     1      44.249 131.422  22.587  1.00  0.00     0.046 A 
ATOM     20  C   UNL     1      44.555 131.557  21.235  1.00  0.00     0.035 A 
ATOM     21  C   UNL     1      43.673 131.796  24.625  1.00  0.00     0.083 A 
ATOM     22  N   UNL     1      43.881 132.398  23.433  1.00  0.00    -0.361 N 
ATOM     23  H   UNL     1      43.773 133.414  23.218  1.00  0.00     0.166 HD
BRANCH  17  24
ATOM     24  C   UNL     1      45.221 130.490  19.060  1.00  0.00    -0.001 A 
ATOM     25  C   UNL     1      46.411 129.890  18.549  1.00  0.00     0.093 A 
ATOM     26  C   UNL     1      44.348 131.174  18.180  1.00  0.00     0.022 A 
ATOM     27  N   UNL     1      46.732 129.961  17.220  1.00  0.00    -0.346 N 
ATOM     28  C   UNL     1      44.701 131.226  16.842  1.00  0.00     0.019 A 
ATOM     29  C   UNL     1      45.898 130.614  16.379  1.00  0.00     0.137 A 
ATOM     30  C   UNL     1      44.117 131.794  15.739  1.00  0.00     0.032 A 
ATOM     31  N   UNL     1      46.061 130.783  15.057  1.00  0.00    -0.239 NA
ATOM     32  C   UNL     1      44.973 131.502  14.675  1.00  0.00     0.114 A 
ATOM     33  H   UNL     1      47.606 129.514  16.862  1.00  0.00     0.167 HD
ENDBRANCH  17  24
ENDBRANCH   1  14
TORSDOF 5
ENDMDL
MODEL 6
REMARK VINA RESULT:      -5.2      4.088      7.335
REMARK SMILES C=C[C@@H](Oc1[nH+]cnc(C)c1C)c1cc(-c2c[nH]c3nccc-3c2)cc2[nH]ccc12
REMARK SMILES IDX 3 1 2 2 1 3 4 4 5 5 6 6 11 7 7 8 9 9 8 10 12 12 10 13 13 14
REMARK SMILES IDX 14 15 30 16 15 17 29 18 26 19 25 20 28 21 27 22 16 24 17 25
REMARK SMILES IDX 24 26 18 27 23 28 19 29 22 30 20 31 21 32
REMARK H PARENT 6 11 27 23 18 33
ROOT
ATOM      1  C   UNL     1      45.344 132.689  21.544  1.00  0.00     0.231 C 
ENDROOT
BRANCH   1   2
ATOM      2  C   UNL     1      44.930 131.649  22.552  1.00  0.00     0.014 C 
ATOM      3  C   UNL     1      44.827 130.352  22.239  1.00  0.00     0.008 C 
ENDBRANCH   1   2
BRANCH   1   4
ATOM      4  O   UNL     1      46.771 132.760  21.486  1.00  0.00    -0.450 OA
BRANCH   4   5
ATOM      5  C   UNL     1      47.530 133.942  21.542  1.00  0.00     0.289 A 
ATOM      6  N   UNL     1      47.187 135.042  20.809  1.00  0.00    -0.213 N 
ATOM      7  C   UNL     1      48.668 133.984  22.370  1.00  0.00     0.081 A 
ATOM      8  C   UNL     1      47.919 136.183  20.874  1.00  0.00     0.452 A 
ATOM      9  C   UNL     1      49.392 135.195  22.442  1.00  0.00     0.159 A 
ATOM     10  N   UNL     1      49.003 136.252  21.684  1.00  0.00    -0.054 NA
ATOM     11  H   UNL     1      46.353 135.037  20.183  1.00  0.00     0.315 HD
ATOM     12  C   UNL     1      49.062 132.785  23.198  1.00  0.00     0.057 C 
ATOM     13  C   UNL     1      50.601 135.348  23.317  1.00  0.00     0.098 C 
ENDBRANCH   4   5
ENDBRANCH   1   4
BRANCH   1  14
ATOM     14  C   UNL     1      44.748 132.359  20.190  1.00  0.00     0.006 A 
ATOM     15  C   UNL     1      45.537 131.806  19.153  1.00  0.00     0.017 A 
ATOM     16  C   UNL     1      43.385 132.543  19.925  1.00  0.00     0.007 A 
ATOM     17  C   UNL     1      44.973 131.481  17.891  1.00  0.00    -0.014 A 
ATOM     18  C   UNL     1      42.359 133.020  20.719  1.00  0.00     0.028 A 
ATOM     19  C   UNL     1      42.835 132.230  18.709  1.00  0.00     0.046 A 
ATOM     20  C   UNL     1      43.595 131.703  17.669  1.00  0.00     0.035 A 
ATOM     21  C   UNL     1      41.221 132.972  19.923  1.00  0.00     0.083 A 
ATOM     22  N   UNL     1      41.517 132.489  18.696  1.00  0.00    -0.361 N 
ATOM     23  H   UNL     1      40.852 132.343  17.904  1.00  0.00     0.166 HD
BRANCH  17  24
ATOM     24  C   UNL     1      45.822 130.909  16.816  1.00  0.00    -0.001 A 
ATOM     25  C   UNL     1      46.504 129.673  17.020  1.00  0.00     0.093 A 
ATOM     26  C   UNL     1      45.957 131.589  15.582  1.00  0.00     0.022 A 
ATOM     27  N   UNL     1      47.293 129.123  16.046  1.00  0.00    -0.346 N 
ATOM     28  C   UNL     1      46.761 131.006  14.616  1.00  0.00     0.019 A 
ATOM     29  C   UNL     1      47.423 129.772  14.866  1.00  0.00     0.137 A 
ATOM     30  C   UNL     1      47.119 131.375  13.345  1.00  0.00     0.032 A 
ATOM     31  N   UNL     1      48.156 129.381  13.811  1.00  0.00    -0.239 NA
ATOM     32  C   UNL     1      47.967 130.362  12.890  1.00  0.00     0.114 A 
ATOM     33  H   UNL     1      47.784 128.216  16.211  1.00  0.00     0.167 HD
ENDBRANCH  17  24
ENDBRANCH   1  14
TORSDOF 5
ENDMDL
MODEL 7
REMARK VINA RESULT:      -5.1      4.161      6.506
REMARK SMILES C=C[C@@H](Oc1[nH+]cnc(C)c1C)c1cc(-c2c[nH]c3nccc-3c2)cc2[nH]ccc12
REMARK SMILES IDX 3 1 2 2 1 3 4 4 5 5 6 6 11 7 7 8 9 9 8 10 12 12 10 13 13 14
REMARK SMILES IDX 14 15 30 16 15 17 29 18 26 19 25 20 28 21 27 22 16 24 17 25
REMARK SMILES IDX 24 26 18 27 23 28 19 29 22 30 20 31 21 32
REMARK H PARENT 6 11 27 23 18 33
ROOT
ATOM      1  C   UNL     1      44.177 131.238  19.854  1.00  0.00     0.231 C 
ENDROOT
BRANCH   1   2
ATOM      2  C   UNL     1      42.699 131.521  19.801  1.00  0.00     0.014 C 
ATOM      3  C   UNL     1      42.207 132.764  19.856  1.00  0.00     0.008 C 
ENDBRANCH   1   2
BRANCH   1   4
ATOM      4  O   UNL     1      44.821 131.838  18.728  1.00  0.00    -0.450 OA
BRANCH   4   5
ATOM      5  C   UNL     1      45.200 131.166  17.552  1.00  0.00     0.289 A 
ATOM      6  N   UNL     1      46.329 130.398  17.507  1.00  0.00    -0.213 N 
ATOM      7  C   UNL     1      44.398 131.295  16.402  1.00  0.00     0.081 A 
ATOM      8  C   UNL     1      46.685 129.744  16.371  1.00  0.00     0.452 A 
ATOM      9  C   UNL     1      44.776 130.578  15.246  1.00  0.00     0.159 A 
ATOM     10  N   UNL     1      45.912 129.835  15.262  1.00  0.00    -0.054 NA
ATOM     11  H   UNL     1      46.944 130.289  18.341  1.00  0.00     0.315 HD
ATOM     12  C   UNL     1      43.141 132.130  16.431  1.00  0.00     0.057 C 
ATOM     13  C   UNL     1      43.971 130.628  13.981  1.00  0.00     0.098 C 
ENDBRANCH   4   5
ENDBRANCH   1   4
BRANCH   1  14
ATOM     14  C   UNL     1      44.753 131.748  21.160  1.00  0.00     0.006 A 
ATOM     15  C   UNL     1      45.880 132.603  21.184  1.00  0.00     0.017 A 
ATOM     16  C   UNL     1      44.164 131.434  22.392  1.00  0.00     0.007 A 
ATOM     17  C   UNL     1      46.407 133.094  22.408  1.00  0.00    -0.014 A 
ATOM     18  C   UNL     1      43.056 130.669  22.703  1.00  0.00     0.028 A 
ATOM     19  C   UNL     1      44.667 131.906  23.577  1.00  0.00     0.046 A 
ATOM     20  C   UNL     1      45.786 132.733  23.625  1.00  0.00     0.035 A 
ATOM     21  C   UNL     1      42.948 130.719  24.088  1.00  0.00     0.083 A 
ATOM     22  N   UNL     1      43.935 131.476  24.617  1.00  0.00    -0.361 N 
ATOM     23  H   UNL     1      44.090 131.685  25.628  1.00  0.00     0.166 HD
BRANCH  17  24
ATOM     24  C   UNL     1      47.595 133.983  22.409  1.00  0.00    -0.001 A 
ATOM     25  C   UNL     1      48.597 133.844  23.415  1.00  0.00     0.093 A 
ATOM     26  C   UNL     1      47.741 134.974  21.408  1.00  0.00     0.022 A 
ATOM     27  N   UNL     1      49.702 134.651  23.439  1.00  0.00    -0.346 N 
ATOM     28  C   UNL     1      48.871 135.773  21.459  1.00  0.00     0.019 A 
ATOM     29  C   UNL     1      49.842 135.598  22.483  1.00  0.00     0.137 A 
ATOM     30  C   UNL     1      49.324 136.808  20.683  1.00  0.00     0.032 A 
ATOM     31  N   UNL     1      50.854 136.472  22.360  1.00  0.00    -0.239 NA
ATOM     32  C   UNL     1      50.532 137.205  21.262  1.00  0.00     0.114 A 
ATOM     33  H   UNL     1      50.427 134.534  24.182  1.00  0.00     0.167 HD
ENDBRANCH  17  24
ENDBRANCH   1  14
TORSDOF 5
ENDMDL
MODEL 8
REMARK VINA RESULT:      -5.1      4.087      6.641
REMARK SMILES C=C[C@@H](Oc1[nH+]cnc(C)c1C)c1cc(-c2c[nH]c3nccc-3c2)cc2[nH]ccc12
REMARK SMILES IDX 3 1 2 2 1 3 4 4 5 5 6 6 11 7 7 8 9 9 8 10 12 12 10 13 13 14
REMARK SMILES IDX 14 15 30 16 15 17 29 18 26 19 25 20 28 21 27 22 16 24 17 25
REMARK SMILES IDX 24 26 18 27 23 28 19 29 22 30 20 31 21 32
REMARK H PARENT 6 11 27 23 18 33
ROOT
ATOM      1  C   UNL     1      44.229 131.195  19.443  1.00  0.00     0.231 C 
ENDROOT
BRANCH   1   2
ATOM      2  C   UNL     1      43.153 132.132  18.961  1.00  0.00     0.014 C 
ATOM      3  C   UNL     1      41.962 132.223  19.564  1.00  0.00     0.008 C 
ENDBRANCH   1   2
BRANCH   1   4
ATOM      4  O   UNL     1      45.258 131.096  18.455  1.00  0.00    -0.450 OA
BRANCH   4   5
ATOM      5  C   UNL     1      45.056 131.120  17.064  1.00  0.00     0.289 A 
ATOM      6  N   UNL     1      43.977 131.751  16.514  1.00  0.00    -0.213 N 
ATOM      7  C   UNL     1      45.988 130.476  16.227  1.00  0.00     0.081 A 
ATOM      8  C   UNL     1      43.793 131.779  15.169  1.00  0.00     0.452 A 
ATOM      9  C   UNL     1      45.787 130.549  14.831  1.00  0.00     0.159 A 
ATOM     10  N   UNL     1      44.691 131.187  14.346  1.00  0.00    -0.054 NA
ATOM     11  H   UNL     1      43.269 132.231  17.110  1.00  0.00     0.315 HD
ATOM     12  C   UNL     1      47.194 129.781  16.810  1.00  0.00     0.057 C 
ATOM     13  C   UNL     1      46.738 129.919  13.857  1.00  0.00     0.098 C 
ENDBRANCH   4   5
ENDBRANCH   1   4
BRANCH   1  14
ATOM     14  C   UNL     1      44.778 131.680  20.770  1.00  0.00     0.006 A 
ATOM     15  C   UNL     1      45.897 132.544  20.833  1.00  0.00     0.017 A 
ATOM     16  C   UNL     1      44.171 131.333  21.984  1.00  0.00     0.007 A 
ATOM     17  C   UNL     1      46.398 133.012  22.077  1.00  0.00    -0.014 A 
ATOM     18  C   UNL     1      43.065 130.551  22.259  1.00  0.00     0.028 A 
ATOM     19  C   UNL     1      44.650 131.782  23.187  1.00  0.00     0.046 A 
ATOM     20  C   UNL     1      45.760 132.617  23.274  1.00  0.00     0.035 A 
ATOM     21  C   UNL     1      42.933 130.568  23.642  1.00  0.00     0.083 A 
ATOM     22  N   UNL     1      43.904 131.322  24.205  1.00  0.00    -0.361 N 
ATOM     23  H   UNL     1      44.040 131.509  25.223  1.00  0.00     0.166 HD
BRANCH  17  24
ATOM     24  C   UNL     1      47.578 133.911  22.118  1.00  0.00    -0.001 A 
ATOM     25  C   UNL     1      48.685 133.607  22.965  1.00  0.00     0.093 A 
ATOM     26  C   UNL     1      47.611 135.075  21.313  1.00  0.00     0.022 A 
ATOM     27  N   UNL     1      49.785 134.419  23.023  1.00  0.00    -0.346 N 
ATOM     28  C   UNL     1      48.739 135.875  21.392  1.00  0.00     0.019 A 
ATOM     29  C   UNL     1      49.817 135.532  22.253  1.00  0.00     0.137 A 
ATOM     30  C   UNL     1      49.103 137.048  20.782  1.00  0.00     0.032 A 
ATOM     31  N   UNL     1      50.809 136.436  22.191  1.00  0.00    -0.239 NA
ATOM     32  C   UNL     1      50.366 137.355  21.293  1.00  0.00     0.114 A 
ATOM     33  H   UNL     1      50.587 134.181  23.648  1.00  0.00     0.167 HD
ENDBRANCH  17  24
ENDBRANCH   1  14
TORSDOF 5
ENDMDL
MODEL 9
REMARK VINA RESULT:      -4.8      4.060      6.510
REMARK SMILES C=C[C@@H](Oc1[nH+]cnc(C)c1C)c1cc(-c2c[nH]c3nccc-3c2)cc2[nH]ccc12
REMARK SMILES IDX 3 1 2 2 1 3 4 4 5 5 6 6 11 7 7 8 9 9 8 10 12 12 10 13 13 14
REMARK SMILES IDX 14 15 30 16 15 17 29 18 26 19 25 20 28 21 27 22 16 24 17 25
REMARK SMILES IDX 24 26 18 27 23 28 19 29 22 30 20 31 21 32
REMARK H PARENT 6 11 27 23 18 33
ROOT
ATOM      1  C   UNL     1      44.242 131.584  19.100  1.00  0.00     0.231 C 
ENDROOT
BRANCH   1   2
ATOM      2  C   UNL     1      42.979 132.373  18.872  1.00  0.00     0.014 C 
ATOM      3  C   UNL     1      41.809 131.786  18.597  1.00  0.00     0.008 C 
ENDBRANCH   1   2
BRANCH   1   4
ATOM      4  O   UNL     1      45.169 131.847  18.044  1.00  0.00    -0.450 OA
BRANCH   4   5
ATOM      5  C   UNL     1      45.460 130.975  16.980  1.00  0.00     0.289 A 
ATOM      6  N   UNL     1      45.297 129.625  17.104  1.00  0.00    -0.213 N 
ATOM      7  C   UNL     1      45.933 131.511  15.767  1.00  0.00     0.081 A 
ATOM      8  C   UNL     1      45.572 128.788  16.070  1.00  0.00     0.452 A 
ATOM      9  C   UNL     1      46.179 130.620  14.699  1.00  0.00     0.159 A 
ATOM     10  N   UNL     1      46.003 129.287  14.887  1.00  0.00    -0.054 NA
ATOM     11  H   UNL     1      44.954 129.200  17.992  1.00  0.00     0.315 HD
ATOM     12  C   UNL     1      46.111 133.001  15.602  1.00  0.00     0.057 C 
ATOM     13  C   UNL     1      46.658 131.097  13.359  1.00  0.00     0.098 C 
ENDBRANCH   4   5
ENDBRANCH   1   4
BRANCH   1  14
ATOM     14  C   UNL     1      44.829 131.931  20.454  1.00  0.00     0.006 A 
ATOM     15  C   UNL     1      45.923 132.821  20.576  1.00  0.00     0.017 A 
ATOM     16  C   UNL     1      44.282 131.425  21.640  1.00  0.00     0.007 A 
ATOM     17  C   UNL     1      46.459 133.158  21.847  1.00  0.00    -0.014 A 
ATOM     18  C   UNL     1      43.213 130.578  21.862  1.00  0.00     0.028 A 
ATOM     19  C   UNL     1      44.796 131.748  22.869  1.00  0.00     0.046 A 
ATOM     20  C   UNL     1      45.883 132.606  23.012  1.00  0.00     0.035 A 
ATOM     21  C   UNL     1      43.138 130.430  23.242  1.00  0.00     0.083 A 
ATOM     22  N   UNL     1      44.107 131.146  23.853  1.00  0.00    -0.361 N 
ATOM     23  H   UNL     1      44.278 131.219  24.880  1.00  0.00     0.166 HD
BRANCH  17  24
ATOM     24  C   UNL     1      47.612 134.088  21.950  1.00  0.00    -0.001 A 
ATOM     25  C   UNL     1      47.642 135.285  21.174  1.00  0.00     0.093 A 
ATOM     26  C   UNL     1      48.688 133.790  22.820  1.00  0.00     0.022 A 
ATOM     27  N   UNL     1      48.693 136.159  21.250  1.00  0.00    -0.346 N 
ATOM     28  C   UNL     1      49.735 134.695  22.875  1.00  0.00     0.019 A 
ATOM     29  C   UNL     1      49.721 135.875  22.082  1.00  0.00     0.137 A 
ATOM     30  C   UNL     1      50.912 134.727  23.578  1.00  0.00     0.032 A 
ATOM     31  N   UNL     1      50.826 136.614  22.274  1.00  0.00    -0.239 NA
ATOM     32  C   UNL     1      51.546 135.909  23.186  1.00  0.00     0.114 A 
ATOM     33  H   UNL     1      48.697 137.032  20.677  1.00  0.00     0.167 HD
ENDBRANCH  17  24
ENDBRANCH   1  14
TORSDOF 5
ENDMDL


