REMARK SMILES c1cc2cc(CN3CC[C@H]4CCC[C@H]43)ccc2[nH]1
REMARK SMILES IDX 1 1 2 2 3 3 4 4 5 5 15 6 16 7 17 8 18 9 6 11 7 12 8 13 14 14
REMARK SMILES IDX 9 15 13 16 10 17 12 18 11 19
REMARK H PARENT 18 10
ROOT
ATOM      1  C   UNL     1       0.456  -6.507  -2.592  1.00  0.00     0.083 A 
ATOM      2  C   UNL     1      -0.062  -5.781  -1.525  1.00  0.00     0.028 A 
ATOM      3  C   UNL     1       0.298  -4.474  -1.770  1.00  0.00    -0.000 A 
ATOM      4  C   UNL     1       0.052  -3.313  -1.041  1.00  0.00     0.015 A 
ATOM      5  C   UNL     1       0.551  -2.093  -1.548  1.00  0.00    -0.033 A 
ATOM      6  C   UNL     1       1.280  -2.081  -2.766  1.00  0.00     0.007 A 
ATOM      7  C   UNL     1       1.510  -3.274  -3.476  1.00  0.00     0.027 A 
ATOM      8  C   UNL     1       1.001  -4.456  -2.944  1.00  0.00     0.045 A 
ATOM      9  N   UNL     1       1.104  -5.693  -3.457  1.00  0.00    -0.361 N 
ATOM     10  H   UNL     1       1.585  -5.973  -4.341  1.00  0.00     0.166 HD
ENDROOT
BRANCH   5  11
ATOM     11  C   UNL     1       0.298  -0.813  -0.796  1.00  0.00     0.120 C 
BRANCH  11  12
ATOM     12  N   UNL     1      -1.151  -0.526  -0.735  1.00  0.00    -0.296 NA
ATOM     13  C   UNL     1      -1.673  -0.053  -2.028  1.00  0.00     0.085 C 
ATOM     14  C   UNL     1      -1.455   0.524   0.262  1.00  0.00     0.060 C 
ATOM     15  C   UNL     1      -1.826   1.450  -1.940  1.00  0.00     0.021 C 
ATOM     16  C   UNL     1      -2.527   0.024   1.226  1.00  0.00     0.019 C 
ATOM     17  C   UNL     1      -2.057   1.726  -0.465  1.00  0.00     0.007 C 
ATOM     18  C   UNL     1      -3.850   0.479   0.642  1.00  0.00     0.002 C 
ATOM     19  C   UNL     1      -3.543   1.782  -0.075  1.00  0.00     0.005 C 
ENDBRANCH  11  12
ENDBRANCH   5  11
TORSDOF 2


