MODEL 1
REMARK VINA RESULT:      -6.5      0.000      0.000
REMARK SMILES Nc1c([C@@H]2O[C@H]2c2ccccc2)cc(C(=O)[O-])c([NH2+]c2cc3ccccc3[n-]2)c1[O-]
REMARK SMILES IDX 2 1 3 2 13 3 14 4 18 5 29 6 30 7 1 8 4 11 5 12 6 13 7 14
REMARK SMILES IDX 8 15 12 16 9 17 11 18 10 19 19 20 20 23 21 24 28 25 22 26
REMARK SMILES IDX 27 27 23 28 26 29 24 30 25 31 15 32 16 33 17 34
REMARK H PARENT 1 9 1 10 19 21 19 22
ROOT
ATOM      1  C   UNL     1      45.308 130.099  20.464  1.00  0.00     0.035 A 
ATOM      2  C   UNL     1      44.724 131.128  19.698  1.00  0.00     0.007 A 
ATOM      3  C   UNL     1      43.683 131.888  20.246  1.00  0.00     0.024 A 
ATOM      4  C   UNL     1      43.166 131.614  21.520  1.00  0.00     0.058 A 
ATOM      5  C   UNL     1      43.752 130.580  22.301  1.00  0.00     0.136 A 
ATOM      6  C   UNL     1      44.817 129.829  21.753  1.00  0.00    -0.020 A 
ATOM      7  O   UNL     1      45.395 128.809  22.502  1.00  0.00    -0.867 OA
ENDROOT
BRANCH   1   8
ATOM      8  N   UNL     1      46.406 129.328  19.949  1.00  0.00    -0.399 N 
ATOM      9  H   UNL     1      46.302 128.323  19.700  1.00  0.00     0.156 HD
ATOM     10  H   UNL     1      47.343 129.761  19.782  1.00  0.00     0.156 HD
ENDBRANCH   1   8
BRANCH   2  11
ATOM     11  C   UNL     1      45.221 131.462  18.313  1.00  0.00     0.185 C 
ATOM     12  O   UNL     1      44.148 131.700  17.432  1.00  0.00    -0.359 OA
ATOM     13  C   UNL     1      44.861 130.503  17.235  1.00  0.00     0.183 C 
BRANCH  13  14
ATOM     14  C   UNL     1      45.656 130.574  15.964  1.00  0.00    -0.016 A 
ATOM     15  C   UNL     1      45.294 131.492  14.963  1.00  0.00     0.006 A 
ATOM     16  C   UNL     1      46.730 129.695  15.738  1.00  0.00     0.006 A 
ATOM     17  C   UNL     1      46.010 131.542  13.763  1.00  0.00     0.000 A 
ATOM     18  C   UNL     1      47.442 129.748  14.535  1.00  0.00     0.000 A 
ATOM     19  C   UNL     1      47.081 130.670  13.548  1.00  0.00     0.000 A 
ENDBRANCH  13  14
ENDBRANCH   2  11
BRANCH   5  20
ATOM     20  N   UNL     1      43.299 130.290  23.647  1.00  0.00    -0.299 N 
ATOM     21  H   UNL     1      42.770 131.099  24.040  1.00  0.00     0.356 HD
ATOM     22  H   UNL     1      44.112 130.143  24.287  1.00  0.00     0.356 HD
BRANCH  20  23
ATOM     23  C   UNL     1      42.494 129.097  23.662  1.00  0.00     0.036 A 
ATOM     24  C   UNL     1      41.104 129.089  23.745  1.00  0.00     0.050 A 
ATOM     25  N   UNL     1      43.018 127.846  23.729  1.00  0.00    -0.610 NA
ATOM     26  C   UNL     1      40.775 127.760  23.837  1.00  0.00    -0.036 A 
ATOM     27  C   UNL     1      41.942 127.045  23.821  1.00  0.00    -0.125 A 
ATOM     28  C   UNL     1      39.533 127.141  23.957  1.00  0.00     0.007 A 
ATOM     29  C   UNL     1      41.946 125.654  23.923  1.00  0.00    -0.015 A 
ATOM     30  C   UNL     1      39.508 125.739  24.060  1.00  0.00     0.001 A 
ATOM     31  C   UNL     1      40.710 124.998  24.043  1.00  0.00    -0.001 A 
ENDBRANCH  20  23
ENDBRANCH   5  20
BRANCH   4  32
ATOM     32  C   UNL     1      42.016 132.429  21.983  1.00  0.00     0.077 C 
ATOM     33  O   UNL     1      41.678 132.452  23.194  1.00  0.00    -0.545 OA
ATOM     34  O   UNL     1      41.260 133.148  21.063  1.00  0.00    -0.545 OA
ENDBRANCH   4  32
TORSDOF 6
ENDMDL
MODEL 2
REMARK VINA RESULT:      -6.0      1.016      1.818
REMARK SMILES Nc1c([C@@H]2O[C@H]2c2ccccc2)cc(C(=O)[O-])c([NH2+]c2cc3ccccc3[n-]2)c1[O-]
REMARK SMILES IDX 2 1 3 2 13 3 14 4 18 5 29 6 30 7 1 8 4 11 5 12 6 13 7 14
REMARK SMILES IDX 8 15 12 16 9 17 11 18 10 19 19 20 20 23 21 24 28 25 22 26
REMARK SMILES IDX 27 27 23 28 26 29 24 30 25 31 15 32 16 33 17 34
REMARK H PARENT 1 9 1 10 19 21 19 22
ROOT
ATOM      1  C   UNL     1      45.345 130.691  19.842  1.00  0.00     0.035 A 
ATOM      2  C   UNL     1      44.643 131.456  18.888  1.00  0.00     0.007 A 
ATOM      3  C   UNL     1      43.484 132.143  19.274  1.00  0.00     0.024 A 
ATOM      4  C   UNL     1      42.971 132.043  20.575  1.00  0.00     0.058 A 
ATOM      5  C   UNL     1      43.675 131.278  21.544  1.00  0.00     0.136 A 
ATOM      6  C   UNL     1      44.855 130.603  21.157  1.00  0.00    -0.020 A 
ATOM      7  O   UNL     1      45.551 129.843  22.092  1.00  0.00    -0.867 OA
ENDROOT
BRANCH   1   8
ATOM      8  N   UNL     1      46.560 130.008  19.491  1.00  0.00    -0.399 N 
ATOM      9  H   UNL     1      47.337 130.491  18.995  1.00  0.00     0.156 HD
ATOM     10  H   UNL     1      46.713 129.007  19.748  1.00  0.00     0.156 HD
ENDBRANCH   1   8
BRANCH   2  11
ATOM     11  C   UNL     1      45.132 131.588  17.467  1.00  0.00     0.185 C 
ATOM     12  O   UNL     1      44.135 131.203  16.549  1.00  0.00    -0.359 OA
ATOM     13  C   UNL     1      45.228 130.328  16.683  1.00  0.00     0.183 C 
BRANCH  13  14
ATOM     14  C   UNL     1      46.074 130.357  15.443  1.00  0.00    -0.016 A 
ATOM     15  C   UNL     1      47.022 129.344  15.220  1.00  0.00     0.006 A 
ATOM     16  C   UNL     1      45.966 131.415  14.525  1.00  0.00     0.006 A 
ATOM     17  C   UNL     1      47.835 129.381  14.084  1.00  0.00     0.000 A 
ATOM     18  C   UNL     1      46.784 131.449  13.391  1.00  0.00     0.000 A 
ATOM     19  C   UNL     1      47.719 130.433  13.171  1.00  0.00     0.000 A 
ENDBRANCH  13  14
ENDBRANCH   2  11
BRANCH   5  20
ATOM     20  N   UNL     1      43.225 131.187  22.918  1.00  0.00    -0.299 N 
ATOM     21  H   UNL     1      42.427 131.838  23.089  1.00  0.00     0.356 HD
ATOM     22  H   UNL     1      43.981 131.485  23.576  1.00  0.00     0.356 HD
BRANCH  20  23
ATOM     23  C   UNL     1      42.857 129.833  23.240  1.00  0.00     0.036 A 
ATOM     24  C   UNL     1      43.767 128.824  23.543  1.00  0.00     0.050 A 
ATOM     25  N   UNL     1      41.585 129.366  23.154  1.00  0.00    -0.610 NA
ATOM     26  C   UNL     1      42.996 127.697  23.675  1.00  0.00    -0.036 A 
ATOM     27  C   UNL     1      41.696 128.057  23.439  1.00  0.00    -0.125 A 
ATOM     28  C   UNL     1      43.356 126.382  23.960  1.00  0.00     0.007 A 
ATOM     29  C   UNL     1      40.663 127.122  23.475  1.00  0.00    -0.015 A 
ATOM     30  C   UNL     1      42.333 125.418  24.005  1.00  0.00     0.001 A 
ATOM     31  C   UNL     1      40.992 125.786  23.763  1.00  0.00    -0.001 A 
ENDBRANCH  20  23
ENDBRANCH   5  20
BRANCH   4  32
ATOM     32  C   UNL     1      41.700 132.752  20.865  1.00  0.00     0.077 C 
ATOM     33  O   UNL     1      40.958 133.166  19.937  1.00  0.00    -0.545 OA
ATOM     34  O   UNL     1      41.336 133.013  22.181  1.00  0.00    -0.545 OA
ENDBRANCH   4  32
TORSDOF 6
ENDMDL
MODEL 3
REMARK VINA RESULT:      -5.8      1.936      3.389
REMARK SMILES Nc1c([C@@H]2O[C@H]2c2ccccc2)cc(C(=O)[O-])c([NH2+]c2cc3ccccc3[n-]2)c1[O-]
REMARK SMILES IDX 2 1 3 2 13 3 14 4 18 5 29 6 30 7 1 8 4 11 5 12 6 13 7 14
REMARK SMILES IDX 8 15 12 16 9 17 11 18 10 19 19 20 20 23 21 24 28 25 22 26
REMARK SMILES IDX 27 27 23 28 26 29 24 30 25 31 15 32 16 33 17 34
REMARK H PARENT 1 9 1 10 19 21 19 22
ROOT
ATOM      1  C   UNL     1      43.242 131.890  18.253  1.00  0.00     0.035 A 
ATOM      2  C   UNL     1      44.604 131.795  17.900  1.00  0.00     0.007 A 
ATOM      3  C   UNL     1      45.580 131.844  18.904  1.00  0.00     0.024 A 
ATOM      4  C   UNL     1      45.240 132.044  20.249  1.00  0.00     0.058 A 
ATOM      5  C   UNL     1      43.869 132.137  20.614  1.00  0.00     0.136 A 
ATOM      6  C   UNL     1      42.886 132.066  19.601  1.00  0.00    -0.020 A 
ATOM      7  O   UNL     1      41.540 132.163  19.942  1.00  0.00    -0.867 OA
ENDROOT
BRANCH   1   8
ATOM      8  N   UNL     1      42.213 131.800  17.254  1.00  0.00    -0.399 N 
ATOM      9  H   UNL     1      41.543 131.004  17.227  1.00  0.00     0.156 HD
ATOM     10  H   UNL     1      42.087 132.548  16.535  1.00  0.00     0.156 HD
ENDBRANCH   1   8
BRANCH   2  11
ATOM     11  C   UNL     1      45.038 131.598  16.469  1.00  0.00     0.185 C 
ATOM     12  O   UNL     1      44.459 130.438  15.918  1.00  0.00    -0.359 OA
ATOM     13  C   UNL     1      45.839 130.378  16.185  1.00  0.00     0.183 C 
BRANCH  13  14
ATOM     14  C   UNL     1      46.617 130.355  14.901  1.00  0.00    -0.016 A 
ATOM     15  C   UNL     1      47.633 129.402  14.717  1.00  0.00     0.006 A 
ATOM     16  C   UNL     1      46.378 131.310  13.898  1.00  0.00     0.006 A 
ATOM     17  C   UNL     1      48.384 129.394  13.538  1.00  0.00     0.000 A 
ATOM     18  C   UNL     1      47.133 131.299  12.721  1.00  0.00     0.000 A 
ATOM     19  C   UNL     1      48.136 130.342  12.542  1.00  0.00     0.000 A 
ENDBRANCH  13  14
ENDBRANCH   2  11
BRANCH   5  20
ATOM     20  N   UNL     1      43.456 132.285  21.995  1.00  0.00    -0.299 N 
ATOM     21  H   UNL     1      42.545 132.792  22.055  1.00  0.00     0.356 HD
ATOM     22  H   UNL     1      44.142 132.868  22.526  1.00  0.00     0.356 HD
BRANCH  20  23
ATOM     23  C   UNL     1      43.368 130.999  22.636  1.00  0.00     0.036 A 
ATOM     24  C   UNL     1      44.318 129.990  22.503  1.00  0.00     0.050 A 
ATOM     25  N   UNL     1      42.279 130.588  23.335  1.00  0.00    -0.610 NA
ATOM     26  C   UNL     1      43.784 128.926  23.185  1.00  0.00    -0.036 A 
ATOM     27  C   UNL     1      42.566 129.319  23.672  1.00  0.00    -0.125 A 
ATOM     28  C   UNL     1      44.277 127.639  23.385  1.00  0.00     0.007 A 
ATOM     29  C   UNL     1      41.756 128.447  24.398  1.00  0.00    -0.015 A 
ATOM     30  C   UNL     1      43.481 126.739  24.116  1.00  0.00     0.001 A 
ATOM     31  C   UNL     1      42.225 127.141  24.620  1.00  0.00    -0.001 A 
ENDBRANCH  20  23
ENDBRANCH   5  20
BRANCH   4  32
ATOM     32  C   UNL     1      46.351 132.153  21.227  1.00  0.00     0.077 C 
ATOM     33  O   UNL     1      47.449 131.571  21.033  1.00  0.00    -0.545 OA
ATOM     34  O   UNL     1      46.170 132.868  22.406  1.00  0.00    -0.545 OA
ENDBRANCH   4  32
TORSDOF 6
ENDMDL
MODEL 4
REMARK VINA RESULT:      -5.8      0.911      1.420
REMARK SMILES Nc1c([C@@H]2O[C@H]2c2ccccc2)cc(C(=O)[O-])c([NH2+]c2cc3ccccc3[n-]2)c1[O-]
REMARK SMILES IDX 2 1 3 2 13 3 14 4 18 5 29 6 30 7 1 8 4 11 5 12 6 13 7 14
REMARK SMILES IDX 8 15 12 16 9 17 11 18 10 19 19 20 20 23 21 24 28 25 22 26
REMARK SMILES IDX 27 27 23 28 26 29 24 30 25 31 15 32 16 33 17 34
REMARK H PARENT 1 9 1 10 19 21 19 22
ROOT
ATOM      1  C   UNL     1      45.473 130.468  19.685  1.00  0.00     0.035 A 
ATOM      2  C   UNL     1      44.753 131.276  18.782  1.00  0.00     0.007 A 
ATOM      3  C   UNL     1      43.624 131.974  19.231  1.00  0.00     0.024 A 
ATOM      4  C   UNL     1      43.156 131.843  20.546  1.00  0.00     0.058 A 
ATOM      5  C   UNL     1      43.878 131.033  21.465  1.00  0.00     0.136 A 
ATOM      6  C   UNL     1      45.029 130.347  21.013  1.00  0.00    -0.020 A 
ATOM      7  O   UNL     1      45.742 129.544  21.898  1.00  0.00    -0.867 OA
ENDROOT
BRANCH   1   8
ATOM      8  N   UNL     1      46.659 129.773  19.269  1.00  0.00    -0.399 N 
ATOM      9  H   UNL     1      46.643 128.763  19.015  1.00  0.00     0.156 HD
ATOM     10  H   UNL     1      47.576 130.267  19.181  1.00  0.00     0.156 HD
ENDBRANCH   1   8
BRANCH   2  11
ATOM     11  C   UNL     1      45.193 131.444  17.348  1.00  0.00     0.185 C 
ATOM     12  O   UNL     1      44.262 130.869  16.461  1.00  0.00    -0.359 OA
ATOM     13  C   UNL     1      45.490 130.195  16.599  1.00  0.00     0.183 C 
BRANCH  13  14
ATOM     14  C   UNL     1      46.301 130.327  15.344  1.00  0.00    -0.016 A 
ATOM     15  C   UNL     1      47.035 129.228  14.866  1.00  0.00     0.006 A 
ATOM     16  C   UNL     1      46.379 131.555  14.665  1.00  0.00     0.006 A 
ATOM     17  C   UNL     1      47.818 129.352  13.715  1.00  0.00     0.000 A 
ATOM     18  C   UNL     1      47.166 131.675  13.515  1.00  0.00     0.000 A 
ATOM     19  C   UNL     1      47.886 130.575  13.041  1.00  0.00     0.000 A 
ENDBRANCH  13  14
ENDBRANCH   2  11
BRANCH   5  20
ATOM     20  N   UNL     1      43.476 130.907  22.851  1.00  0.00    -0.299 N 
ATOM     21  H   UNL     1      42.822 131.676  23.117  1.00  0.00     0.356 HD
ATOM     22  H   UNL     1      44.301 131.001  23.486  1.00  0.00     0.356 HD
BRANCH  20  23
ATOM     23  C   UNL     1      42.874 129.621  23.087  1.00  0.00     0.036 A 
ATOM     24  C   UNL     1      41.501 129.396  23.147  1.00  0.00     0.050 A 
ATOM     25  N   UNL     1      43.588 128.512  23.407  1.00  0.00    -0.610 NA
ATOM     26  C   UNL     1      41.386 128.073  23.492  1.00  0.00    -0.036 A 
ATOM     27  C   UNL     1      42.653 127.574  23.637  1.00  0.00    -0.125 A 
ATOM     28  C   UNL     1      40.256 127.290  23.711  1.00  0.00     0.007 A 
ATOM     29  C   UNL     1      42.875 126.249  24.010  1.00  0.00    -0.015 A 
ATOM     30  C   UNL     1      40.451 125.949  24.087  1.00  0.00     0.001 A 
ATOM     31  C   UNL     1      41.756 125.430  24.236  1.00  0.00    -0.001 A 
ENDBRANCH  20  23
ENDBRANCH   5  20
BRANCH   4  32
ATOM     32  C   UNL     1      41.911 132.567  20.905  1.00  0.00     0.077 C 
ATOM     33  O   UNL     1      41.118 132.978  20.019  1.00  0.00    -0.545 OA
ATOM     34  O   UNL     1      41.630 132.846  22.238  1.00  0.00    -0.545 OA
ENDBRANCH   4  32
TORSDOF 6
ENDMDL
MODEL 5
REMARK VINA RESULT:      -5.5      1.964      3.104
REMARK SMILES Nc1c([C@@H]2O[C@H]2c2ccccc2)cc(C(=O)[O-])c([NH2+]c2cc3ccccc3[n-]2)c1[O-]
REMARK SMILES IDX 2 1 3 2 13 3 14 4 18 5 29 6 30 7 1 8 4 11 5 12 6 13 7 14
REMARK SMILES IDX 8 15 12 16 9 17 11 18 10 19 19 20 20 23 21 24 28 25 22 26
REMARK SMILES IDX 27 27 23 28 26 29 24 30 25 31 15 32 16 33 17 34
REMARK H PARENT 1 9 1 10 19 21 19 22
ROOT
ATOM      1  C   UNL     1      43.437 131.721  18.243  1.00  0.00     0.035 A 
ATOM      2  C   UNL     1      44.821 131.882  18.027  1.00  0.00     0.007 A 
ATOM      3  C   UNL     1      45.675 132.042  19.126  1.00  0.00     0.024 A 
ATOM      4  C   UNL     1      45.182 132.104  20.436  1.00  0.00     0.058 A 
ATOM      5  C   UNL     1      43.788 131.938  20.663  1.00  0.00     0.136 A 
ATOM      6  C   UNL     1      42.932 131.756  19.554  1.00  0.00    -0.020 A 
ATOM      7  O   UNL     1      41.564 131.601  19.760  1.00  0.00    -0.867 OA
ENDROOT
BRANCH   1   8
ATOM      8  N   UNL     1      42.538 131.513  17.142  1.00  0.00    -0.399 N 
ATOM      9  H   UNL     1      42.541 132.133  16.306  1.00  0.00     0.156 HD
ATOM     10  H   UNL     1      41.866 130.713  17.133  1.00  0.00     0.156 HD
ENDBRANCH   1   8
BRANCH   2  11
ATOM     11  C   UNL     1      45.414 131.845  16.640  1.00  0.00     0.185 C 
ATOM     12  O   UNL     1      44.486 131.348  15.704  1.00  0.00    -0.359 OA
ATOM     13  C   UNL     1      45.563 130.500  16.023  1.00  0.00     0.183 C 
BRANCH  13  14
ATOM     14  C   UNL     1      46.498 130.385  14.854  1.00  0.00    -0.016 A 
ATOM     15  C   UNL     1      47.438 129.341  14.812  1.00  0.00     0.006 A 
ATOM     16  C   UNL     1      46.480 131.339  13.823  1.00  0.00     0.006 A 
ATOM     17  C   UNL     1      48.333 129.245  13.743  1.00  0.00     0.000 A 
ATOM     18  C   UNL     1      47.380 131.240  12.756  1.00  0.00     0.000 A 
ATOM     19  C   UNL     1      48.307 130.194  12.717  1.00  0.00     0.000 A 
ENDBRANCH  13  14
ENDBRANCH   2  11
BRANCH   5  20
ATOM     20  N   UNL     1      43.228 131.933  22.000  1.00  0.00    -0.299 N 
ATOM     21  H   UNL     1      42.278 132.365  22.004  1.00  0.00     0.356 HD
ATOM     22  H   UNL     1      43.809 132.515  22.646  1.00  0.00     0.356 HD
BRANCH  20  23
ATOM     23  C   UNL     1      43.182 130.593  22.523  1.00  0.00     0.036 A 
ATOM     24  C   UNL     1      42.079 130.039  23.166  1.00  0.00     0.050 A 
ATOM     25  N   UNL     1      44.262 129.771  22.559  1.00  0.00    -0.610 NA
ATOM     26  C   UNL     1      42.510 128.806  23.584  1.00  0.00    -0.036 A 
ATOM     27  C   UNL     1      43.819 128.676  23.202  1.00  0.00    -0.125 A 
ATOM     28  C   UNL     1      41.847 127.807  24.292  1.00  0.00     0.007 A 
ATOM     29  C   UNL     1      44.555 127.532  23.503  1.00  0.00    -0.015 A 
ATOM     30  C   UNL     1      42.566 126.640  24.608  1.00  0.00     0.001 A 
ATOM     31  C   UNL     1      43.915 126.503  24.215  1.00  0.00    -0.001 A 
ENDBRANCH  20  23
ENDBRANCH   5  20
BRANCH   4  32
ATOM     32  C   UNL     1      46.160 132.346  21.525  1.00  0.00     0.077 C 
ATOM     33  O   UNL     1      47.398 132.279  21.316  1.00  0.00    -0.545 OA
ATOM     34  O   UNL     1      45.712 132.605  22.815  1.00  0.00    -0.545 OA
ENDBRANCH   4  32
TORSDOF 6
ENDMDL
MODEL 6
REMARK VINA RESULT:      -5.5      1.285      2.649
REMARK SMILES Nc1c([C@@H]2O[C@H]2c2ccccc2)cc(C(=O)[O-])c([NH2+]c2cc3ccccc3[n-]2)c1[O-]
REMARK SMILES IDX 2 1 3 2 13 3 14 4 18 5 29 6 30 7 1 8 4 11 5 12 6 13 7 14
REMARK SMILES IDX 8 15 12 16 9 17 11 18 10 19 19 20 20 23 21 24 28 25 22 26
REMARK SMILES IDX 27 27 23 28 26 29 24 30 25 31 15 32 16 33 17 34
REMARK H PARENT 1 9 1 10 19 21 19 22
ROOT
ATOM      1  C   UNL     1      42.830 132.254  20.372  1.00  0.00     0.035 A 
ATOM      2  C   UNL     1      43.911 131.538  19.818  1.00  0.00     0.007 A 
ATOM      3  C   UNL     1      44.522 130.524  20.568  1.00  0.00     0.024 A 
ATOM      4  C   UNL     1      44.122 130.241  21.882  1.00  0.00     0.058 A 
ATOM      5  C   UNL     1      43.031 130.956  22.447  1.00  0.00     0.136 A 
ATOM      6  C   UNL     1      42.403 131.963  21.679  1.00  0.00    -0.020 A 
ATOM      7  O   UNL     1      41.339 132.678  22.222  1.00  0.00    -0.867 OA
ENDROOT
BRANCH   1   8
ATOM      8  N   UNL     1      42.154 133.271  19.615  1.00  0.00    -0.399 N 
ATOM      9  H   UNL     1      42.351 134.283  19.757  1.00  0.00     0.156 HD
ATOM     10  H   UNL     1      41.458 133.025  18.876  1.00  0.00     0.156 HD
ENDBRANCH   1   8
BRANCH   2  11
ATOM     11  C   UNL     1      44.402 131.806  18.417  1.00  0.00     0.185 C 
ATOM     12  O   UNL     1      43.326 132.030  17.536  1.00  0.00    -0.359 OA
ATOM     13  C   UNL     1      44.015 130.813  17.381  1.00  0.00     0.183 C 
BRANCH  13  14
ATOM     14  C   UNL     1      44.800 130.818  16.102  1.00  0.00    -0.016 A 
ATOM     15  C   UNL     1      46.138 130.388  16.101  1.00  0.00     0.006 A 
ATOM     16  C   UNL     1      44.228 131.296  14.910  1.00  0.00     0.006 A 
ATOM     17  C   UNL     1      46.885 130.420  14.920  1.00  0.00     0.000 A 
ATOM     18  C   UNL     1      44.981 131.328  13.732  1.00  0.00     0.000 A 
ATOM     19  C   UNL     1      46.310 130.892  13.737  1.00  0.00     0.000 A 
ENDBRANCH  13  14
ENDBRANCH   2  11
BRANCH   5  20
ATOM     20  N   UNL     1      42.536 130.666  23.777  1.00  0.00    -0.299 N 
ATOM     21  H   UNL     1      41.913 131.433  24.115  1.00  0.00     0.356 HD
ATOM     22  H   UNL     1      43.324 130.617  24.463  1.00  0.00     0.356 HD
BRANCH  20  23
ATOM     23  C   UNL     1      41.847 129.403  23.796  1.00  0.00     0.036 A 
ATOM     24  C   UNL     1      40.466 129.263  23.906  1.00  0.00     0.050 A 
ATOM     25  N   UNL     1      42.487 128.206  23.839  1.00  0.00    -0.610 NA
ATOM     26  C   UNL     1      40.265 127.909  23.990  1.00  0.00    -0.036 A 
ATOM     27  C   UNL     1      41.494 127.306  23.944  1.00  0.00    -0.125 A 
ATOM     28  C   UNL     1      39.089 127.175  24.128  1.00  0.00     0.007 A 
ATOM     29  C   UNL     1      41.630 125.922  24.031  1.00  0.00    -0.015 A 
ATOM     30  C   UNL     1      39.197 125.776  24.216  1.00  0.00     0.001 A 
ATOM     31  C   UNL     1      40.463 125.151  24.168  1.00  0.00    -0.001 A 
ENDBRANCH  20  23
ENDBRANCH   5  20
BRANCH   4  32
ATOM     32  C   UNL     1      44.878 129.197  22.617  1.00  0.00     0.077 C 
ATOM     33  O   UNL     1      45.052 129.273  23.861  1.00  0.00    -0.545 OA
ATOM     34  O   UNL     1      45.452 128.138  21.924  1.00  0.00    -0.545 OA
ENDBRANCH   4  32
TORSDOF 6
ENDMDL
MODEL 7
REMARK VINA RESULT:      -5.2      1.174      1.878
REMARK SMILES Nc1c([C@@H]2O[C@H]2c2ccccc2)cc(C(=O)[O-])c([NH2+]c2cc3ccccc3[n-]2)c1[O-]
REMARK SMILES IDX 2 1 3 2 13 3 14 4 18 5 29 6 30 7 1 8 4 11 5 12 6 13 7 14
REMARK SMILES IDX 8 15 12 16 9 17 11 18 10 19 19 20 20 23 21 24 28 25 22 26
REMARK SMILES IDX 27 27 23 28 26 29 24 30 25 31 15 32 16 33 17 34
REMARK H PARENT 1 9 1 10 19 21 19 22
ROOT
ATOM      1  C   UNL     1      45.126 129.902  21.347  1.00  0.00     0.035 A 
ATOM      2  C   UNL     1      44.560 130.997  20.663  1.00  0.00     0.007 A 
ATOM      3  C   UNL     1      43.542 131.739  21.276  1.00  0.00     0.024 A 
ATOM      4  C   UNL     1      43.031 131.386  22.533  1.00  0.00     0.058 A 
ATOM      5  C   UNL     1      43.600 130.286  23.231  1.00  0.00     0.136 A 
ATOM      6  C   UNL     1      44.641 129.552  22.619  1.00  0.00    -0.020 A 
ATOM      7  O   UNL     1      45.202 128.467  23.286  1.00  0.00    -0.867 OA
ENDROOT
BRANCH   1   8
ATOM      8  N   UNL     1      46.201 129.145  20.765  1.00  0.00    -0.399 N 
ATOM      9  H   UNL     1      47.192 129.298  21.042  1.00  0.00     0.156 HD
ATOM     10  H   UNL     1      46.017 128.394  20.062  1.00  0.00     0.156 HD
ENDBRANCH   1   8
BRANCH   2  11
ATOM     11  C   UNL     1      45.051 131.417  19.300  1.00  0.00     0.185 C 
ATOM     12  O   UNL     1      44.388 132.579  18.857  1.00  0.00    -0.359 OA
ATOM     13  C   UNL     1      44.051 131.382  18.199  1.00  0.00     0.183 C 
BRANCH  13  14
ATOM     14  C   UNL     1      44.581 131.392  16.795  1.00  0.00    -0.016 A 
ATOM     15  C   UNL     1      45.956 131.570  16.567  1.00  0.00     0.006 A 
ATOM     16  C   UNL     1      43.709 131.279  15.698  1.00  0.00     0.006 A 
ATOM     17  C   UNL     1      46.452 131.613  15.261  1.00  0.00     0.000 A 
ATOM     18  C   UNL     1      44.210 131.325  14.393  1.00  0.00     0.000 A 
ATOM     19  C   UNL     1      45.581 131.493  14.175  1.00  0.00     0.000 A 
ENDBRANCH  13  14
ENDBRANCH   2  11
BRANCH   5  20
ATOM     20  N   UNL     1      43.153 129.911  24.558  1.00  0.00    -0.299 N 
ATOM     21  H   UNL     1      42.766 130.738  25.065  1.00  0.00     0.356 HD
ATOM     22  H   UNL     1      43.956 129.572  25.136  1.00  0.00     0.356 HD
BRANCH  20  23
ATOM     23  C   UNL     1      42.178 128.856  24.482  1.00  0.00     0.036 A 
ATOM     24  C   UNL     1      42.469 127.541  24.126  1.00  0.00     0.050 A 
ATOM     25  N   UNL     1      40.843 129.064  24.624  1.00  0.00    -0.610 NA
ATOM     26  C   UNL     1      41.247 126.920  24.081  1.00  0.00    -0.036 A 
ATOM     27  C   UNL     1      40.297 127.859  24.387  1.00  0.00    -0.125 A 
ATOM     28  C   UNL     1      40.909 125.606  23.769  1.00  0.00     0.007 A 
ATOM     29  C   UNL     1      38.939 127.542  24.403  1.00  0.00    -0.015 A 
ATOM     30  C   UNL     1      39.547 125.259  23.779  1.00  0.00     0.001 A 
ATOM     31  C   UNL     1      38.565 126.223  24.094  1.00  0.00    -0.001 A 
ENDBRANCH  20  23
ENDBRANCH   5  20
BRANCH   4  32
ATOM     32  C   UNL     1      41.906 132.193  23.066  1.00  0.00     0.077 C 
ATOM     33  O   UNL     1      41.158 132.854  22.300  1.00  0.00    -0.545 OA
ATOM     34  O   UNL     1      41.694 132.268  24.438  1.00  0.00    -0.545 OA
ENDBRANCH   4  32
TORSDOF 6
ENDMDL
MODEL 8
REMARK VINA RESULT:      -5.1      1.315      2.668
REMARK SMILES Nc1c([C@@H]2O[C@H]2c2ccccc2)cc(C(=O)[O-])c([NH2+]c2cc3ccccc3[n-]2)c1[O-]
REMARK SMILES IDX 2 1 3 2 13 3 14 4 18 5 29 6 30 7 1 8 4 11 5 12 6 13 7 14
REMARK SMILES IDX 8 15 12 16 9 17 11 18 10 19 19 20 20 23 21 24 28 25 22 26
REMARK SMILES IDX 27 27 23 28 26 29 24 30 25 31 15 32 16 33 17 34
REMARK H PARENT 1 9 1 10 19 21 19 22
ROOT
ATOM      1  C   UNL     1      43.011 132.159  20.223  1.00  0.00     0.035 A 
ATOM      2  C   UNL     1      44.092 131.433  19.682  1.00  0.00     0.007 A 
ATOM      3  C   UNL     1      44.709 130.440  20.454  1.00  0.00     0.024 A 
ATOM      4  C   UNL     1      44.315 130.186  21.776  1.00  0.00     0.058 A 
ATOM      5  C   UNL     1      43.223 130.911  22.327  1.00  0.00     0.136 A 
ATOM      6  C   UNL     1      42.589 131.898  21.538  1.00  0.00    -0.020 A 
ATOM      7  O   UNL     1      41.524 132.621  22.067  1.00  0.00    -0.867 OA
ENDROOT
BRANCH   1   8
ATOM      8  N   UNL     1      42.328 133.155  19.444  1.00  0.00    -0.399 N 
ATOM      9  H   UNL     1      41.310 133.086  19.237  1.00  0.00     0.156 HD
ATOM     10  H   UNL     1      42.828 133.998  19.082  1.00  0.00     0.156 HD
ENDBRANCH   1   8
BRANCH   2  11
ATOM     11  C   UNL     1      44.577 131.670  18.274  1.00  0.00     0.185 C 
ATOM     12  O   UNL     1      43.623 131.244  17.329  1.00  0.00    -0.359 OA
ATOM     13  C   UNL     1      44.787 130.460  17.436  1.00  0.00     0.183 C 
BRANCH  13  14
ATOM     14  C   UNL     1      45.635 130.616  16.208  1.00  0.00    -0.016 A 
ATOM     15  C   UNL     1      45.919 131.901  15.713  1.00  0.00     0.006 A 
ATOM     16  C   UNL     1      46.109 129.490  15.513  1.00  0.00     0.006 A 
ATOM     17  C   UNL     1      46.682 132.055  14.552  1.00  0.00     0.000 A 
ATOM     18  C   UNL     1      46.870 129.649  14.351  1.00  0.00     0.000 A 
ATOM     19  C   UNL     1      47.155 130.931  13.869  1.00  0.00     0.000 A 
ENDBRANCH  13  14
ENDBRANCH   2  11
BRANCH   5  20
ATOM     20  N   UNL     1      42.734 130.651  23.666  1.00  0.00    -0.299 N 
ATOM     21  H   UNL     1      42.066 131.395  23.966  1.00  0.00     0.356 HD
ATOM     22  H   UNL     1      43.517 130.676  24.358  1.00  0.00     0.356 HD
BRANCH  20  23
ATOM     23  C   UNL     1      42.116 129.353  23.735  1.00  0.00     0.036 A 
ATOM     24  C   UNL     1      42.544 128.241  23.014  1.00  0.00     0.050 A 
ATOM     25  N   UNL     1      40.965 129.111  24.414  1.00  0.00    -0.610 NA
ATOM     26  C   UNL     1      41.617 127.271  23.300  1.00  0.00    -0.036 A 
ATOM     27  C   UNL     1      40.689 127.823  24.142  1.00  0.00    -0.125 A 
ATOM     28  C   UNL     1      41.518 125.954  22.857  1.00  0.00     0.007 A 
ATOM     29  C   UNL     1      39.595 127.092  24.601  1.00  0.00    -0.015 A 
ATOM     30  C   UNL     1      40.425 125.192  23.306  1.00  0.00     0.001 A 
ATOM     31  C   UNL     1      39.467 125.759  24.175  1.00  0.00    -0.001 A 
ENDBRANCH  20  23
ENDBRANCH   5  20
BRANCH   4  32
ATOM     32  C   UNL     1      45.077 129.163  22.533  1.00  0.00     0.077 C 
ATOM     33  O   UNL     1      45.372 129.335  23.744  1.00  0.00    -0.545 OA
ATOM     34  O   UNL     1      45.520 128.012  21.892  1.00  0.00    -0.545 OA
ENDBRANCH   4  32
TORSDOF 6
ENDMDL


