REMARK SMILES O=C(N[C@H]1CCCOC1)N1C[NH2+]C[C@H](F)[C@H]1c1cc2ccc(F)cc2[nH]1
REMARK SMILES IDX 10 1 11 2 12 3 13 4 14 5 15 6 16 7 2 10 3 11 1 12 4 14 5 15
REMARK SMILES IDX 9 16 6 17 8 18 7 19 17 20 18 21 26 22 19 23 25 24 20 25
REMARK SMILES IDX 24 26 21 27 22 28 23 30
REMARK H PARENT 12 8 12 9 3 13 26 29
ROOT
ATOM      1  N   UNL     1      -0.254  -1.839   0.739  1.00  0.00    -0.266 N 
ATOM      2  C   UNL     1       0.237  -2.578   1.924  1.00  0.00     0.393 C 
ATOM      3  N   UNL     1      -0.816  -3.302   2.647  1.00  0.00    -0.327 N 
ATOM      4  C   UNL     1      -1.725  -3.981   1.726  1.00  0.00     0.302 C 
ATOM      5  C   UNL     1      -2.542  -2.938   0.987  1.00  0.00     0.250 C 
ATOM      6  F   UNL     1      -3.419  -3.569   0.120  1.00  0.00    -0.238 F 
ATOM      7  C   UNL     1      -1.633  -1.970   0.201  1.00  0.00     0.179 C 
ATOM      8  H   UNL     1      -0.367  -4.019   3.264  1.00  0.00     0.347 HD
ATOM      9  H   UNL     1      -1.346  -2.638   3.260  1.00  0.00     0.347 HD
ENDROOT
BRANCH   1  10
ATOM     10  C   UNL     1       0.698  -1.057  -0.030  1.00  0.00     0.322 C 
ATOM     11  N   UNL     1       2.045  -0.838   0.432  1.00  0.00    -0.333 N 
ATOM     12  O   UNL     1       0.343  -0.551  -1.132  1.00  0.00    -0.248 OA
ATOM     13  H   UNL     1       2.427  -1.407   1.218  1.00  0.00     0.165 HD
BRANCH  11  14
ATOM     14  C   UNL     1       2.928   0.145  -0.206  1.00  0.00     0.109 C 
ATOM     15  C   UNL     1       2.466   1.571   0.129  1.00  0.00     0.030 C 
ATOM     16  C   UNL     1       4.383  -0.043   0.264  1.00  0.00     0.185 C 
ATOM     17  C   UNL     1       3.484   2.595  -0.378  1.00  0.00     0.031 C 
ATOM     18  O   UNL     1       5.236   0.911  -0.342  1.00  0.00    -0.379 OA
ATOM     19  C   UNL     1       4.892   2.213   0.095  1.00  0.00     0.160 C 
ENDBRANCH  11  14
ENDBRANCH   1  10
BRANCH   7  20
ATOM     20  C   UNL     1      -2.295  -0.617   0.123  1.00  0.00     0.042 A 
ATOM     21  C   UNL     1      -2.278   0.346   1.131  1.00  0.00     0.034 A 
ATOM     22  N   UNL     1      -3.032  -0.203  -0.935  1.00  0.00    -0.356 N 
ATOM     23  C   UNL     1      -3.030   1.388   0.636  1.00  0.00    -0.000 A 
ATOM     24  C   UNL     1      -3.470   1.025  -0.610  1.00  0.00     0.049 A 
ATOM     25  C   UNL     1      -3.356   2.619   1.201  1.00  0.00     0.013 A 
ATOM     26  C   UNL     1      -4.269   1.870  -1.380  1.00  0.00     0.065 A 
ATOM     27  C   UNL     1      -4.159   3.495   0.448  1.00  0.00     0.040 A 
ATOM     28  C   UNL     1      -4.614   3.122  -0.838  1.00  0.00     0.125 A 
ATOM     29  H   UNL     1      -3.222  -0.728  -1.817  1.00  0.00     0.166 HD
ATOM     30  F   UNL     1      -5.388   3.975  -1.553  1.00  0.00    -0.207 F 
ENDBRANCH   7  20
TORSDOF 3


