REMARK SMILES CC1=CCC=C[C@H]1C(=O)Oc1ccc(N(/C(O)=C/C#N)c2ccc3cc[nH]c3c2)c(F)c1
REMARK SMILES IDX 14 1 13 2 12 3 11 4 32 5 30 6 31 7 15 8 16 9 17 10 18 12
REMARK SMILES IDX 19 13 20 14 21 15 22 16 29 17 23 18 28 19 24 20 27 21 25 22
REMARK SMILES IDX 26 23 10 25 8 26 9 27 7 28 6 29 2 30 5 31 3 32 4 33 1 34
REMARK H PARENT 17 11 27 24
ROOT
ATOM      1  C   UNL     1      -1.279   0.795   0.750  1.00  0.00     0.085 A 
ATOM      2  C   UNL     1      -1.812   0.981  -0.535  1.00  0.00     0.034 A 
ATOM      3  C   UNL     1      -1.037   0.720  -1.667  1.00  0.00     0.049 A 
ATOM      4  C   UNL     1       0.283   0.274  -1.537  1.00  0.00     0.133 A 
ATOM      5  C   UNL     1       0.813   0.058  -0.250  1.00  0.00     0.088 A 
ATOM      6  C   UNL     1       0.040   0.326   0.885  1.00  0.00     0.151 A 
ATOM      7  F   UNL     1       0.565   0.093   2.116  1.00  0.00    -0.205 F 
ENDROOT
BRANCH   1   8
ATOM      8  N   UNL     1      -2.081   1.077   1.916  1.00  0.00    -0.278 N 
BRANCH   8   9
ATOM      9  C   UNL     1      -3.422   0.547   2.023  1.00  0.00     0.206 C 
BRANCH   9  10
ATOM     10  O   UNL     1      -4.440   1.329   2.571  1.00  0.00    -0.494 OA
ATOM     11  H   UNL     1      -4.276   2.287   2.859  1.00  0.00     0.295 HD
ENDBRANCH   9  10
BRANCH   9  12
ATOM     12  C   UNL     1      -3.697  -0.696   1.607  1.00  0.00     0.156 C 
BRANCH  12  13
ATOM     13  C   UNL     1      -5.026  -1.244   1.697  1.00  0.00     0.097 C 
ATOM     14  N   UNL     1      -6.094  -1.685   1.769  1.00  0.00    -0.193 NA
ENDBRANCH  12  13
ENDBRANCH   9  12
ENDBRANCH   8   9
BRANCH   8  15
ATOM     15  C   UNL     1      -1.572   1.958   2.940  1.00  0.00     0.051 A 
ATOM     16  C   UNL     1      -0.805   3.103   2.588  1.00  0.00     0.027 A 
ATOM     17  C   UNL     1      -1.830   1.688   4.306  1.00  0.00     0.053 A 
ATOM     18  C   UNL     1      -0.305   3.969   3.577  1.00  0.00     0.012 A 
ATOM     19  C   UNL     1      -1.320   2.568   5.259  1.00  0.00     0.047 A 
ATOM     20  C   UNL     1      -0.585   3.667   4.906  1.00  0.00    -0.000 A 
ATOM     21  N   UNL     1      -1.452   2.491   6.594  1.00  0.00    -0.361 N 
ATOM     22  C   UNL     1      -0.235   4.321   6.067  1.00  0.00     0.028 A 
ATOM     23  C   UNL     1      -0.791   3.562   7.093  1.00  0.00     0.083 A 
ATOM     24  H   UNL     1      -1.961   1.760   7.139  1.00  0.00     0.166 HD
ENDBRANCH   8  15
ENDBRANCH   1   8
BRANCH   4  25
ATOM     25  O   UNL     1       1.013   0.019  -2.708  1.00  0.00    -0.426 OA
BRANCH  25  26
ATOM     26  C   UNL     1       2.410   0.051  -2.829  1.00  0.00     0.322 C 
ATOM     27  O   UNL     1       3.126   0.608  -1.952  1.00  0.00    -0.251 OA
BRANCH  26  28
ATOM     28  C   UNL     1       3.053  -0.480  -4.075  1.00  0.00     0.147 C 
ATOM     29  C   UNL     1       2.868   0.514  -5.198  1.00  0.00    -0.012 C 
ATOM     30  C   UNL     1       2.483  -1.847  -4.422  1.00  0.00    -0.059 C 
ATOM     31  C   UNL     1       1.890   0.375  -6.107  1.00  0.00    -0.026 C 
ATOM     32  C   UNL     1       1.504  -1.972  -5.343  1.00  0.00    -0.023 C 
ATOM     33  C   UNL     1       0.914  -0.770  -6.035  1.00  0.00     0.054 C 
ATOM     34  C   UNL     1       2.974  -3.071  -3.694  1.00  0.00     0.040 C 
ENDBRANCH  26  28
ENDBRANCH  25  26
ENDBRANCH   4  25
TORSDOF 9


