MODEL 1
REMARK VINA RESULT:      -6.8      0.000      0.000
REMARK SMILES C#Cc1c[nH+]cc([NH2+]c2cc(C=C)cc(-c3ccc4cc[n-]c(=O)c4c3)c2O)c1
REMARK SMILES IDX 8 1 7 4 3 5 4 6 29 7 5 8 6 9 2 11 1 12 9 13 10 14 27 15
REMARK SMILES IDX 11 16 15 17 14 18 28 19 12 21 13 22 16 23 17 24 26 25 18 26
REMARK SMILES IDX 25 27 19 28 23 29 20 30 22 31 21 32 24 33
REMARK H PARENT 8 2 8 3 5 10 28 20
ROOT
ATOM      1  N   UNL     1      45.695 131.595  20.286  1.00  0.00    -0.273 N 
ATOM      2  H   UNL     1      46.646 131.259  20.011  1.00  0.00     0.358 HD
ATOM      3  H   UNL     1      45.831 132.574  20.630  1.00  0.00     0.358 HD
ENDROOT
BRANCH   1   4
ATOM      4  C   UNL     1      44.796 131.638  19.155  1.00  0.00     0.200 A 
ATOM      5  C   UNL     1      44.389 131.497  16.765  1.00  0.00     0.094 A 
ATOM      6  C   UNL     1      43.042 131.785  16.994  1.00  0.00     0.324 A 
ATOM      7  C   UNL     1      45.269 131.433  17.849  1.00  0.00     0.098 A 
ATOM      8  N   UNL     1      42.596 132.009  18.260  1.00  0.00    -0.212 N 
ATOM      9  C   UNL     1      43.435 131.951  19.330  1.00  0.00     0.375 A 
ATOM     10  H   UNL     1      41.589 132.234  18.413  1.00  0.00     0.453 HD
BRANCH   5  11
ATOM     11  C   UNL     1      44.868 131.273  15.425  1.00  0.00    -0.064 C 
ATOM     12  C   UNL     1      45.268 131.085  14.304  1.00  0.00     0.010 C 
ENDBRANCH   5  11
ENDBRANCH   1   4
BRANCH   1  13
ATOM     13  C   UNL     1      45.163 130.754  21.337  1.00  0.00     0.178 A 
ATOM     14  C   UNL     1      44.370 131.336  22.345  1.00  0.00     0.080 A 
ATOM     15  C   UNL     1      45.393 129.355  21.364  1.00  0.00     0.185 A 
ATOM     16  C   UNL     1      43.795 130.556  23.362  1.00  0.00    -0.019 A 
ATOM     17  C   UNL     1      44.843 128.573  22.402  1.00  0.00     0.030 A 
ATOM     18  C   UNL     1      44.050 129.180  23.386  1.00  0.00     0.021 A 
BRANCH  15  19
ATOM     19  O   UNL     1      46.145 128.714  20.374  1.00  0.00    -0.502 OA
ATOM     20  H   UNL     1      46.277 127.715  20.324  1.00  0.00     0.293 HD
ENDBRANCH  15  19
BRANCH  16  21
ATOM     21  C   UNL     1      42.954 131.140  24.436  1.00  0.00     0.000 C 
ATOM     22  C   UNL     1      42.114 132.161  24.257  1.00  0.00     0.009 C 
ENDBRANCH  16  21
BRANCH  17  23
ATOM     23  C   UNL     1      45.086 127.111  22.468  1.00  0.00    -0.014 A 
ATOM     24  C   UNL     1      44.008 126.213  22.516  1.00  0.00     0.009 A 
ATOM     25  C   UNL     1      46.400 126.612  22.461  1.00  0.00     0.019 A 
ATOM     26  C   UNL     1      44.233 124.836  22.567  1.00  0.00     0.009 A 
ATOM     27  C   UNL     1      46.638 125.226  22.513  1.00  0.00     0.007 A 
ATOM     28  C   UNL     1      45.541 124.333  22.568  1.00  0.00    -0.018 A 
ATOM     29  C   UNL     1      47.944 124.696  22.513  1.00  0.00     0.086 A 
ATOM     30  C   UNL     1      45.774 122.953  22.618  1.00  0.00    -0.015 A 
ATOM     31  N   UNL     1      48.129 123.350  22.564  1.00  0.00    -0.629 NA
ATOM     32  C   UNL     1      47.086 122.479  22.616  1.00  0.00    -0.136 A 
ATOM     33  O   UNL     1      48.951 125.453  22.465  1.00  0.00    -0.315 OA
ENDBRANCH  17  23
ENDBRANCH   1  13
TORSDOF 6
ENDMDL
MODEL 2
REMARK VINA RESULT:      -6.4      1.547      2.116
REMARK SMILES C#Cc1c[nH+]cc([NH2+]c2cc(C=C)cc(-c3ccc4cc[n-]c(=O)c4c3)c2O)c1
REMARK SMILES IDX 8 1 7 4 3 5 4 6 29 7 5 8 6 9 2 11 1 12 9 13 10 14 27 15
REMARK SMILES IDX 11 16 15 17 14 18 28 19 12 21 13 22 16 23 17 24 26 25 18 26
REMARK SMILES IDX 25 27 19 28 23 29 20 30 22 31 21 32 24 33
REMARK H PARENT 8 2 8 3 5 10 28 20
ROOT
ATOM      1  N   UNL     1      45.528 131.943  20.574  1.00  0.00    -0.273 N 
ATOM      2  H   UNL     1      46.548 131.748  20.456  1.00  0.00     0.358 HD
ATOM      3  H   UNL     1      45.463 132.948  20.857  1.00  0.00     0.358 HD
ENDROOT
BRANCH   1   4
ATOM      4  C   UNL     1      44.805 131.780  19.332  1.00  0.00     0.200 A 
ATOM      5  C   UNL     1      44.741 131.166  16.983  1.00  0.00     0.094 A 
ATOM      6  C   UNL     1      43.394 131.532  16.942  1.00  0.00     0.324 A 
ATOM      7  C   UNL     1      45.450 131.299  18.180  1.00  0.00     0.098 A 
ATOM      8  N   UNL     1      42.784 132.023  18.054  1.00  0.00    -0.212 N 
ATOM      9  C   UNL     1      43.454 132.160  19.230  1.00  0.00     0.375 A 
ATOM     10  H   UNL     1      41.780 132.303  18.004  1.00  0.00     0.453 HD
BRANCH   5  11
ATOM     11  C   UNL     1      45.395 130.660  15.803  1.00  0.00    -0.064 C 
ATOM     12  C   UNL     1      45.941 130.237  14.816  1.00  0.00     0.010 C 
ENDBRANCH   5  11
ENDBRANCH   1   4
BRANCH   1  13
ATOM     13  C   UNL     1      44.980 131.087  21.605  1.00  0.00     0.178 A 
ATOM     14  C   UNL     1      44.139 131.647  22.585  1.00  0.00     0.080 A 
ATOM     15  C   UNL     1      45.245 129.694  21.639  1.00  0.00     0.185 A 
ATOM     16  C   UNL     1      43.549 130.851  23.581  1.00  0.00    -0.019 A 
ATOM     17  C   UNL     1      44.680 128.897  22.656  1.00  0.00     0.030 A 
ATOM     18  C   UNL     1      43.837 129.482  23.613  1.00  0.00     0.021 A 
BRANCH  15  19
ATOM     19  O   UNL     1      46.047 129.075  20.675  1.00  0.00    -0.502 OA
ATOM     20  H   UNL     1      45.788 128.232  20.183  1.00  0.00     0.293 HD
ENDBRANCH  15  19
BRANCH  16  21
ATOM     21  C   UNL     1      42.656 131.412  24.625  1.00  0.00     0.000 C 
ATOM     22  C   UNL     1      41.874 132.478  24.447  1.00  0.00     0.009 C 
ENDBRANCH  16  21
BRANCH  17  23
ATOM     23  C   UNL     1      44.957 127.442  22.730  1.00  0.00    -0.014 A 
ATOM     24  C   UNL     1      46.236 126.978  23.075  1.00  0.00     0.009 A 
ATOM     25  C   UNL     1      43.932 126.514  22.476  1.00  0.00     0.019 A 
ATOM     26  C   UNL     1      46.497 125.609  23.156  1.00  0.00     0.009 A 
ATOM     27  C   UNL     1      44.184 125.131  22.556  1.00  0.00     0.007 A 
ATOM     28  C   UNL     1      45.480 124.679  22.898  1.00  0.00    -0.018 A 
ATOM     29  C   UNL     1      43.178 124.177  22.301  1.00  0.00     0.086 A 
ATOM     30  C   UNL     1      45.734 123.304  22.978  1.00  0.00    -0.015 A 
ATOM     31  N   UNL     1      43.465 122.851  22.389  1.00  0.00    -0.629 NA
ATOM     32  C   UNL     1      44.705 122.400  22.717  1.00  0.00    -0.136 A 
ATOM     33  O   UNL     1      42.009 124.534  21.993  1.00  0.00    -0.315 OA
ENDBRANCH  17  23
ENDBRANCH   1  13
TORSDOF 6
ENDMDL
MODEL 3
REMARK VINA RESULT:      -5.3      2.807      7.924
REMARK SMILES C#Cc1c[nH+]cc([NH2+]c2cc(C=C)cc(-c3ccc4cc[n-]c(=O)c4c3)c2O)c1
REMARK SMILES IDX 8 1 7 4 3 5 4 6 29 7 5 8 6 9 2 11 1 12 9 13 10 14 27 15
REMARK SMILES IDX 11 16 15 17 14 18 28 19 12 21 13 22 16 23 17 24 26 25 18 26
REMARK SMILES IDX 25 27 19 28 23 29 20 30 22 31 21 32 24 33
REMARK H PARENT 8 2 8 3 5 10 28 20
ROOT
ATOM      1  N   UNL     1      47.994 122.849  22.770  1.00  0.00    -0.273 N 
ATOM      2  H   UNL     1      47.948 121.819  22.596  1.00  0.00     0.358 HD
ATOM      3  H   UNL     1      48.274 122.954  23.773  1.00  0.00     0.358 HD
ENDROOT
BRANCH   1   4
ATOM      4  C   UNL     1      49.005 123.484  21.954  1.00  0.00     0.200 A 
ATOM      5  C   UNL     1      50.453 123.497  20.004  1.00  0.00     0.094 A 
ATOM      6  C   UNL     1      50.995 124.710  20.436  1.00  0.00     0.324 A 
ATOM      7  C   UNL     1      49.462 122.879  20.771  1.00  0.00     0.098 A 
ATOM      8  N   UNL     1      50.567 125.275  21.597  1.00  0.00    -0.212 N 
ATOM      9  C   UNL     1      49.602 124.692  22.358  1.00  0.00     0.375 A 
ATOM     10  H   UNL     1      50.990 126.176  21.911  1.00  0.00     0.453 HD
BRANCH   5  11
ATOM     11  C   UNL     1      50.914 122.888  18.783  1.00  0.00    -0.064 C 
ATOM     12  C   UNL     1      51.299 122.377  17.762  1.00  0.00     0.010 C 
ENDBRANCH   5  11
ENDBRANCH   1   4
BRANCH   1  13
ATOM     13  C   UNL     1      46.695 123.445  22.538  1.00  0.00     0.178 A 
ATOM     14  C   UNL     1      45.677 122.664  21.957  1.00  0.00     0.080 A 
ATOM     15  C   UNL     1      46.410 124.784  22.906  1.00  0.00     0.185 A 
ATOM     16  C   UNL     1      44.388 123.184  21.751  1.00  0.00    -0.019 A 
ATOM     17  C   UNL     1      45.127 125.318  22.672  1.00  0.00     0.030 A 
ATOM     18  C   UNL     1      44.130 124.514  22.100  1.00  0.00     0.021 A 
BRANCH  15  19
ATOM     19  O   UNL     1      47.370 125.598  23.516  1.00  0.00    -0.502 OA
ATOM     20  H   UNL     1      48.070 125.259  24.159  1.00  0.00     0.293 HD
ENDBRANCH  15  19
BRANCH  16  21
ATOM     21  C   UNL     1      43.295 122.385  21.143  1.00  0.00     0.000 C 
ATOM     22  C   UNL     1      42.016 122.465  21.512  1.00  0.00     0.009 C 
ENDBRANCH  16  21
BRANCH  17  23
ATOM     23  C   UNL     1      44.806 126.723  23.026  1.00  0.00    -0.014 A 
ATOM     24  C   UNL     1      44.236 127.030  24.271  1.00  0.00     0.009 A 
ATOM     25  C   UNL     1      45.094 127.762  22.124  1.00  0.00     0.019 A 
ATOM     26  C   UNL     1      43.943 128.352  24.612  1.00  0.00     0.009 A 
ATOM     27  C   UNL     1      44.804 129.098  22.457  1.00  0.00     0.007 A 
ATOM     28  C   UNL     1      44.222 129.391  23.713  1.00  0.00    -0.018 A 
ATOM     29  C   UNL     1      45.076 130.161  21.572  1.00  0.00     0.086 A 
ATOM     30  C   UNL     1      43.932 130.720  24.049  1.00  0.00    -0.015 A 
ATOM     31  N   UNL     1      44.779 131.437  21.934  1.00  0.00    -0.629 NA
ATOM     32  C   UNL     1      44.221 131.735  23.137  1.00  0.00    -0.136 A 
ATOM     33  O   UNL     1      45.594 129.947  20.443  1.00  0.00    -0.315 OA
ENDBRANCH  17  23
ENDBRANCH   1  13
TORSDOF 6
ENDMDL
MODEL 4
REMARK VINA RESULT:      -5.0      2.589      7.523
REMARK SMILES C#Cc1c[nH+]cc([NH2+]c2cc(C=C)cc(-c3ccc4cc[n-]c(=O)c4c3)c2O)c1
REMARK SMILES IDX 8 1 7 4 3 5 4 6 29 7 5 8 6 9 2 11 1 12 9 13 10 14 27 15
REMARK SMILES IDX 11 16 15 17 14 18 28 19 12 21 13 22 16 23 17 24 26 25 18 26
REMARK SMILES IDX 25 27 19 28 23 29 20 30 22 31 21 32 24 33
REMARK H PARENT 8 2 8 3 5 10 28 20
ROOT
ATOM      1  N   UNL     1      44.739 130.417  23.272  1.00  0.00    -0.273 N 
ATOM      2  H   UNL     1      44.527 131.117  24.019  1.00  0.00     0.358 HD
ATOM      3  H   UNL     1      45.783 130.343  23.242  1.00  0.00     0.358 HD
ENDROOT
BRANCH   1   4
ATOM      4  C   UNL     1      44.208 129.112  23.596  1.00  0.00     0.200 A 
ATOM      5  C   UNL     1      44.295 126.690  23.437  1.00  0.00     0.094 A 
ATOM      6  C   UNL     1      43.125 126.615  24.196  1.00  0.00     0.324 A 
ATOM      7  C   UNL     1      44.832 127.943  23.130  1.00  0.00     0.098 A 
ATOM      8  N   UNL     1      42.511 127.752  24.621  1.00  0.00    -0.212 N 
ATOM      9  C   UNL     1      43.017 128.982  24.334  1.00  0.00     0.375 A 
ATOM     10  H   UNL     1      41.631 127.680  25.177  1.00  0.00     0.453 HD
BRANCH   5  11
ATOM     11  C   UNL     1      44.940 125.488  22.973  1.00  0.00    -0.064 C 
ATOM     12  C   UNL     1      45.479 124.483  22.584  1.00  0.00     0.010 C 
ENDBRANCH   5  11
ENDBRANCH   1   4
BRANCH   1  13
ATOM     13  C   UNL     1      44.224 130.882  22.001  1.00  0.00     0.178 A 
ATOM     14  C   UNL     1      43.010 131.595  21.974  1.00  0.00     0.080 A 
ATOM     15  C   UNL     1      44.923 130.666  20.786  1.00  0.00     0.185 A 
ATOM     16  C   UNL     1      42.491 132.104  20.772  1.00  0.00    -0.019 A 
ATOM     17  C   UNL     1      44.388 131.148  19.574  1.00  0.00     0.030 A 
ATOM     18  C   UNL     1      43.182 131.863  19.579  1.00  0.00     0.021 A 
BRANCH  15  19
ATOM     19  O   UNL     1      46.149 129.993  20.754  1.00  0.00    -0.502 OA
ATOM     20  H   UNL     1      46.830 130.027  21.498  1.00  0.00     0.293 HD
ENDBRANCH  15  19
BRANCH  16  21
ATOM     21  C   UNL     1      41.215 132.860  20.712  1.00  0.00     0.000 C 
ATOM     22  C   UNL     1      40.989 133.999  21.369  1.00  0.00     0.009 C 
ENDBRANCH  16  21
BRANCH  17  23
ATOM     23  C   UNL     1      45.086 130.917  18.285  1.00  0.00    -0.014 A 
ATOM     24  C   UNL     1      46.352 130.311  18.260  1.00  0.00     0.009 A 
ATOM     25  C   UNL     1      44.473 131.284  17.075  1.00  0.00     0.019 A 
ATOM     26  C   UNL     1      47.006 130.082  17.048  1.00  0.00     0.009 A 
ATOM     27  C   UNL     1      45.123 131.058  15.847  1.00  0.00     0.007 A 
ATOM     28  C   UNL     1      46.402 130.453  15.839  1.00  0.00    -0.018 A 
ATOM     29  C   UNL     1      44.537 131.420  14.618  1.00  0.00     0.086 A 
ATOM     30  C   UNL     1      47.052 130.225  14.619  1.00  0.00    -0.015 A 
ATOM     31  N   UNL     1      45.200 131.184  13.455  1.00  0.00    -0.629 NA
ATOM     32  C   UNL     1      46.429 130.602  13.430  1.00  0.00    -0.136 A 
ATOM     33  O   UNL     1      43.400 131.962  14.577  1.00  0.00    -0.315 OA
ENDBRANCH  17  23
ENDBRANCH   1  13
TORSDOF 6
ENDMDL
MODEL 5
REMARK VINA RESULT:      -4.9      2.941      8.085
REMARK SMILES C#Cc1c[nH+]cc([NH2+]c2cc(C=C)cc(-c3ccc4cc[n-]c(=O)c4c3)c2O)c1
REMARK SMILES IDX 8 1 7 4 3 5 4 6 29 7 5 8 6 9 2 11 1 12 9 13 10 14 27 15
REMARK SMILES IDX 11 16 15 17 14 18 28 19 12 21 13 22 16 23 17 24 26 25 18 26
REMARK SMILES IDX 25 27 19 28 23 29 20 30 22 31 21 32 24 33
REMARK H PARENT 8 2 8 3 5 10 28 20
ROOT
ATOM      1  N   UNL     1      47.675 123.971  24.037  1.00  0.00    -0.273 N 
ATOM      2  H   UNL     1      47.747 123.154  24.685  1.00  0.00     0.358 HD
ATOM      3  H   UNL     1      48.158 124.762  24.524  1.00  0.00     0.358 HD
ENDROOT
BRANCH   1   4
ATOM      4  C   UNL     1      48.366 123.727  22.790  1.00  0.00     0.200 A 
ATOM      5  C   UNL     1      50.393 123.746  21.452  1.00  0.00     0.094 A 
ATOM      6  C   UNL     1      49.652 123.295  20.356  1.00  0.00     0.324 A 
ATOM      7  C   UNL     1      49.744 123.970  22.669  1.00  0.00     0.098 A 
ATOM      8  N   UNL     1      48.313 123.088  20.474  1.00  0.00    -0.212 N 
ATOM      9  C   UNL     1      47.662 123.299  21.649  1.00  0.00     0.375 A 
ATOM     10  H   UNL     1      47.773 122.762  19.642  1.00  0.00     0.453 HD
BRANCH   5  11
ATOM     11  C   UNL     1      51.808 123.981  21.327  1.00  0.00    -0.064 C 
ATOM     12  C   UNL     1      52.992 124.178  21.224  1.00  0.00     0.010 C 
ENDBRANCH   5  11
ENDBRANCH   1   4
BRANCH   1  13
ATOM     13  C   UNL     1      46.283 124.291  23.801  1.00  0.00     0.178 A 
ATOM     14  C   UNL     1      45.374 123.247  23.547  1.00  0.00     0.080 A 
ATOM     15  C   UNL     1      45.804 125.625  23.849  1.00  0.00     0.185 A 
ATOM     16  C   UNL     1      44.006 123.502  23.355  1.00  0.00    -0.019 A 
ATOM     17  C   UNL     1      44.437 125.888  23.625  1.00  0.00     0.030 A 
ATOM     18  C   UNL     1      43.553 124.826  23.383  1.00  0.00     0.021 A 
BRANCH  15  19
ATOM     19  O   UNL     1      46.653 126.701  24.129  1.00  0.00    -0.502 OA
ATOM     20  H   UNL     1      46.384 127.670  24.035  1.00  0.00     0.293 HD
ENDBRANCH  15  19
BRANCH  16  21
ATOM     21  C   UNL     1      43.023 122.423  23.087  1.00  0.00     0.000 C 
ATOM     22  C   UNL     1      41.725 122.503  23.381  1.00  0.00     0.009 C 
ENDBRANCH  16  21
BRANCH  17  23
ATOM     23  C   UNL     1      43.911 127.275  23.646  1.00  0.00    -0.014 A 
ATOM     24  C   UNL     1      42.950 127.657  24.595  1.00  0.00     0.009 A 
ATOM     25  C   UNL     1      44.389 128.225  22.728  1.00  0.00     0.019 A 
ATOM     26  C   UNL     1      42.461 128.965  24.625  1.00  0.00     0.009 A 
ATOM     27  C   UNL     1      43.904 129.547  22.749  1.00  0.00     0.007 A 
ATOM     28  C   UNL     1      42.930 129.915  23.707  1.00  0.00    -0.018 A 
ATOM     29  C   UNL     1      44.360 130.520  21.837  1.00  0.00     0.086 A 
ATOM     30  C   UNL     1      42.445 131.228  23.731  1.00  0.00    -0.015 A 
ATOM     31  N   UNL     1      43.864 131.785  21.893  1.00  0.00    -0.629 NA
ATOM     32  C   UNL     1      42.929 132.155  22.807  1.00  0.00    -0.136 A 
ATOM     33  O   UNL     1      45.226 130.238  20.966  1.00  0.00    -0.315 OA
ENDBRANCH  17  23
ENDBRANCH   1  13
TORSDOF 6
ENDMDL
MODEL 6
REMARK VINA RESULT:      -4.8      2.784      7.423
REMARK SMILES C#Cc1c[nH+]cc([NH2+]c2cc(C=C)cc(-c3ccc4cc[n-]c(=O)c4c3)c2O)c1
REMARK SMILES IDX 8 1 7 4 3 5 4 6 29 7 5 8 6 9 2 11 1 12 9 13 10 14 27 15
REMARK SMILES IDX 11 16 15 17 14 18 28 19 12 21 13 22 16 23 17 24 26 25 18 26
REMARK SMILES IDX 25 27 19 28 23 29 20 30 22 31 21 32 24 33
REMARK H PARENT 8 2 8 3 5 10 28 20
ROOT
ATOM      1  N   UNL     1      45.188 130.685  22.419  1.00  0.00    -0.273 N 
ATOM      2  H   UNL     1      45.413 131.490  23.047  1.00  0.00     0.358 HD
ATOM      3  H   UNL     1      46.105 130.232  22.200  1.00  0.00     0.358 HD
ENDROOT
BRANCH   1   4
ATOM      4  C   UNL     1      44.352 129.708  23.082  1.00  0.00     0.200 A 
ATOM      5  C   UNL     1      43.629 127.413  23.409  1.00  0.00     0.094 A 
ATOM      6  C   UNL     1      42.688 127.861  24.340  1.00  0.00     0.324 A 
ATOM      7  C   UNL     1      44.456 128.342  22.772  1.00  0.00     0.098 A 
ATOM      8  N   UNL     1      42.575 129.188  24.614  1.00  0.00    -0.212 N 
ATOM      9  C   UNL     1      43.371 130.110  24.007  1.00  0.00     0.375 A 
ATOM     10  H   UNL     1      41.860 129.507  25.304  1.00  0.00     0.453 HD
BRANCH   5  11
ATOM     11  C   UNL     1      43.742 126.010  23.105  1.00  0.00    -0.064 C 
ATOM     12  C   UNL     1      43.836 124.836  22.851  1.00  0.00     0.010 C 
ENDBRANCH   5  11
ENDBRANCH   1   4
BRANCH   1  13
ATOM     13  C   UNL     1      44.556 131.168  21.209  1.00  0.00     0.178 A 
ATOM     14  C   UNL     1      43.258 131.709  21.282  1.00  0.00     0.080 A 
ATOM     15  C   UNL     1      45.220 131.138  19.956  1.00  0.00     0.185 A 
ATOM     16  C   UNL     1      42.620 132.229  20.144  1.00  0.00    -0.019 A 
ATOM     17  C   UNL     1      44.570 131.631  18.806  1.00  0.00     0.030 A 
ATOM     18  C   UNL     1      43.280 132.173  18.912  1.00  0.00     0.021 A 
BRANCH  15  19
ATOM     19  O   UNL     1      46.522 130.643  19.826  1.00  0.00    -0.502 OA
ATOM     20  H   UNL     1      47.158 130.917  19.092  1.00  0.00     0.293 HD
ENDBRANCH  15  19
BRANCH  16  21
ATOM     21  C   UNL     1      41.254 132.807  20.191  1.00  0.00     0.000 C 
ATOM     22  C   UNL     1      40.743 133.436  21.251  1.00  0.00     0.009 C 
ENDBRANCH  16  21
BRANCH  17  23
ATOM     23  C   UNL     1      45.231 131.592  17.478  1.00  0.00    -0.014 A 
ATOM     24  C   UNL     1      45.503 132.781  16.784  1.00  0.00     0.009 A 
ATOM     25  C   UNL     1      45.610 130.362  16.914  1.00  0.00     0.019 A 
ATOM     26  C   UNL     1      46.135 132.749  15.540  1.00  0.00     0.009 A 
ATOM     27  C   UNL     1      46.248 130.317  15.660  1.00  0.00     0.007 A 
ATOM     28  C   UNL     1      46.509 131.524  14.970  1.00  0.00    -0.018 A 
ATOM     29  C   UNL     1      46.635 129.099  15.067  1.00  0.00     0.086 A 
ATOM     30  C   UNL     1      47.144 131.484  13.722  1.00  0.00    -0.015 A 
ATOM     31  N   UNL     1      47.249 129.102  13.854  1.00  0.00    -0.629 NA
ATOM     32  C   UNL     1      47.508 130.252  13.177  1.00  0.00    -0.136 A 
ATOM     33  O   UNL     1      46.423 128.000  15.645  1.00  0.00    -0.315 OA
ENDBRANCH  17  23
ENDBRANCH   1  13
TORSDOF 6
ENDMDL
MODEL 7
REMARK VINA RESULT:      -4.7      2.658      7.717
REMARK SMILES C#Cc1c[nH+]cc([NH2+]c2cc(C=C)cc(-c3ccc4cc[n-]c(=O)c4c3)c2O)c1
REMARK SMILES IDX 8 1 7 4 3 5 4 6 29 7 5 8 6 9 2 11 1 12 9 13 10 14 27 15
REMARK SMILES IDX 11 16 15 17 14 18 28 19 12 21 13 22 16 23 17 24 26 25 18 26
REMARK SMILES IDX 25 27 19 28 23 29 20 30 22 31 21 32 24 33
REMARK H PARENT 8 2 8 3 5 10 28 20
ROOT
ATOM      1  N   UNL     1      44.850 129.343  23.253  1.00  0.00    -0.273 N 
ATOM      2  H   UNL     1      44.707 129.878  24.140  1.00  0.00     0.358 HD
ATOM      3  H   UNL     1      45.878 129.155  23.199  1.00  0.00     0.358 HD
ENDROOT
BRANCH   1   4
ATOM      4  C   UNL     1      44.163 128.070  23.280  1.00  0.00     0.200 A 
ATOM      5  C   UNL     1      42.196 126.735  23.776  1.00  0.00     0.094 A 
ATOM      6  C   UNL     1      42.891 125.592  23.370  1.00  0.00     0.324 A 
ATOM      7  C   UNL     1      42.839 127.975  23.739  1.00  0.00     0.098 A 
ATOM      8  N   UNL     1      44.182 125.689  22.953  1.00  0.00    -0.212 N 
ATOM      9  C   UNL     1      44.826 126.887  22.908  1.00  0.00     0.375 A 
ATOM     10  H   UNL     1      44.690 124.825  22.664  1.00  0.00     0.453 HD
BRANCH   5  11
ATOM     11  C   UNL     1      40.834 126.635  24.232  1.00  0.00    -0.064 C 
ATOM     12  C   UNL     1      39.694 126.551  24.613  1.00  0.00     0.010 C 
ENDBRANCH   5  11
ENDBRANCH   1   4
BRANCH   1  13
ATOM     13  C   UNL     1      44.416 130.139  22.124  1.00  0.00     0.178 A 
ATOM     14  C   UNL     1      43.391 131.086  22.307  1.00  0.00     0.080 A 
ATOM     15  C   UNL     1      45.016 130.011  20.845  1.00  0.00     0.185 A 
ATOM     16  C   UNL     1      42.965 131.912  21.253  1.00  0.00    -0.019 A 
ATOM     17  C   UNL     1      44.570 130.817  19.778  1.00  0.00     0.030 A 
ATOM     18  C   UNL     1      43.553 131.758  19.993  1.00  0.00     0.021 A 
BRANCH  15  19
ATOM     19  O   UNL     1      46.061 129.111  20.610  1.00  0.00    -0.502 OA
ATOM     20  H   UNL     1      45.984 128.113  20.739  1.00  0.00     0.293 HD
ENDBRANCH  15  19
BRANCH  16  21
ATOM     21  C   UNL     1      41.889 132.920  21.416  1.00  0.00     0.000 C 
ATOM     22  C   UNL     1      41.022 133.251  20.457  1.00  0.00     0.009 C 
ENDBRANCH  16  21
BRANCH  17  23
ATOM     23  C   UNL     1      45.163 130.690  18.424  1.00  0.00    -0.014 A 
ATOM     24  C   UNL     1      46.403 130.057  18.247  1.00  0.00     0.009 A 
ATOM     25  C   UNL     1      44.475 131.183  17.302  1.00  0.00     0.019 A 
ATOM     26  C   UNL     1      46.959 129.926  16.973  1.00  0.00     0.009 A 
ATOM     27  C   UNL     1      45.025 131.057  16.013  1.00  0.00     0.007 A 
ATOM     28  C   UNL     1      46.280 130.423  15.852  1.00  0.00    -0.018 A 
ATOM     29  C   UNL     1      44.362 131.547  14.870  1.00  0.00     0.086 A 
ATOM     30  C   UNL     1      46.831 130.294  14.571  1.00  0.00    -0.015 A 
ATOM     31  N   UNL     1      44.930 131.403  13.643  1.00  0.00    -0.629 NA
ATOM     32  C   UNL     1      46.135 130.796  13.471  1.00  0.00    -0.136 A 
ATOM     33  O   UNL     1      43.243 132.118  14.965  1.00  0.00    -0.315 OA
ENDBRANCH  17  23
ENDBRANCH   1  13
TORSDOF 6
ENDMDL
MODEL 8
REMARK VINA RESULT:      -4.6      2.716      7.466
REMARK SMILES C#Cc1c[nH+]cc([NH2+]c2cc(C=C)cc(-c3ccc4cc[n-]c(=O)c4c3)c2O)c1
REMARK SMILES IDX 8 1 7 4 3 5 4 6 29 7 5 8 6 9 2 11 1 12 9 13 10 14 27 15
REMARK SMILES IDX 11 16 15 17 14 18 28 19 12 21 13 22 16 23 17 24 26 25 18 26
REMARK SMILES IDX 25 27 19 28 23 29 20 30 22 31 21 32 24 33
REMARK H PARENT 8 2 8 3 5 10 28 20
ROOT
ATOM      1  N   UNL     1      44.934 130.727  22.741  1.00  0.00    -0.273 N 
ATOM      2  H   UNL     1      44.847 131.542  23.389  1.00  0.00     0.358 HD
ATOM      3  H   UNL     1      45.957 130.511  22.693  1.00  0.00     0.358 HD
ENDROOT
BRANCH   1   4
ATOM      4  C   UNL     1      44.254 129.559  23.256  1.00  0.00     0.200 A 
ATOM      5  C   UNL     1      43.990 127.148  23.390  1.00  0.00     0.094 A 
ATOM      6  C   UNL     1      42.886 127.333  24.226  1.00  0.00     0.324 A 
ATOM      7  C   UNL     1      44.670 128.266  22.897  1.00  0.00     0.098 A 
ATOM      8  N   UNL     1      42.474 128.589  24.547  1.00  0.00    -0.212 N 
ATOM      9  C   UNL     1      43.121 129.691  24.080  1.00  0.00     0.375 A 
ATOM     10  H   UNL     1      41.641 128.710  25.164  1.00  0.00     0.453 HD
BRANCH   5  11
ATOM     11  C   UNL     1      44.421 125.820  23.036  1.00  0.00    -0.064 C 
ATOM     12  C   UNL     1      44.781 124.709  22.740  1.00  0.00     0.010 C 
ENDBRANCH   5  11
ENDBRANCH   1   4
BRANCH   1  13
ATOM     13  C   UNL     1      44.427 131.083  21.432  1.00  0.00     0.178 A 
ATOM     14  C   UNL     1      43.255 131.859  21.340  1.00  0.00     0.080 A 
ATOM     15  C   UNL     1      45.093 130.697  20.241  1.00  0.00     0.185 A 
ATOM     16  C   UNL     1      42.747 132.267  20.095  1.00  0.00    -0.019 A 
ATOM     17  C   UNL     1      44.568 131.078  18.989  1.00  0.00     0.030 A 
ATOM     18  C   UNL     1      43.405 131.859  18.929  1.00  0.00     0.021 A 
BRANCH  15  19
ATOM     19  O   UNL     1      46.277 129.954  20.270  1.00  0.00    -0.502 OA
ATOM     20  H   UNL     1      46.543 129.289  19.558  1.00  0.00     0.293 HD
ENDBRANCH  15  19
BRANCH  16  21
ATOM     21  C   UNL     1      41.517 133.086  19.966  1.00  0.00     0.000 C 
ATOM     22  C   UNL     1      40.838 133.586  21.000  1.00  0.00     0.009 C 
ENDBRANCH  16  21
BRANCH  17  23
ATOM     23  C   UNL     1      45.231 130.670  17.726  1.00  0.00    -0.014 A 
ATOM     24  C   UNL     1      45.412 129.312  17.425  1.00  0.00     0.009 A 
ATOM     25  C   UNL     1      45.663 131.644  16.809  1.00  0.00     0.019 A 
ATOM     26  C   UNL     1      46.026 128.924  16.232  1.00  0.00     0.009 A 
ATOM     27  C   UNL     1      46.282 131.265  15.603  1.00  0.00     0.007 A 
ATOM     28  C   UNL     1      46.465 129.891  15.317  1.00  0.00    -0.018 A 
ATOM     29  C   UNL     1      46.731 132.218  14.667  1.00  0.00     0.086 A 
ATOM     30  C   UNL     1      47.080 129.510  14.118  1.00  0.00    -0.015 A 
ATOM     31  N   UNL     1      47.324 131.808  13.514  1.00  0.00    -0.629 NA
ATOM     32  C   UNL     1      47.506 130.492  13.224  1.00  0.00    -0.136 A 
ATOM     33  O   UNL     1      46.589 133.452  14.879  1.00  0.00    -0.315 OA
ENDBRANCH  17  23
ENDBRANCH   1  13
TORSDOF 6
ENDMDL
MODEL 9
REMARK VINA RESULT:      -4.0      4.547      7.598
REMARK SMILES C#Cc1c[nH+]cc([NH2+]c2cc(C=C)cc(-c3ccc4cc[n-]c(=O)c4c3)c2O)c1
REMARK SMILES IDX 8 1 7 4 3 5 4 6 29 7 5 8 6 9 2 11 1 12 9 13 10 14 27 15
REMARK SMILES IDX 11 16 15 17 14 18 28 19 12 21 13 22 16 23 17 24 26 25 18 26
REMARK SMILES IDX 25 27 19 28 23 29 20 30 22 31 21 32 24 33
REMARK H PARENT 8 2 8 3 5 10 28 20
ROOT
ATOM      1  N   UNL     1      45.834 130.042  19.658  1.00  0.00    -0.273 N 
ATOM      2  H   UNL     1      45.273 129.204  19.934  1.00  0.00     0.358 HD
ATOM      3  H   UNL     1      46.810 129.692  19.511  1.00  0.00     0.358 HD
ENDROOT
BRANCH   1   4
ATOM      4  C   UNL     1      45.370 130.610  18.412  1.00  0.00     0.200 A 
ATOM      5  C   UNL     1      45.673 131.053  16.043  1.00  0.00     0.094 A 
ATOM      6  C   UNL     1      44.470 131.765  16.041  1.00  0.00     0.324 A 
ATOM      7  C   UNL     1      46.127 130.482  17.235  1.00  0.00     0.098 A 
ATOM      8  N   UNL     1      43.758 131.907  17.190  1.00  0.00    -0.212 N 
ATOM      9  C   UNL     1      44.180 131.358  18.361  1.00  0.00     0.375 A 
ATOM     10  H   UNL     1      42.867 132.451  17.174  1.00  0.00     0.453 HD
BRANCH   5  11
ATOM     11  C   UNL     1      46.438 130.912  14.831  1.00  0.00    -0.064 C 
ATOM     12  C   UNL     1      47.079 130.795  13.818  1.00  0.00     0.010 C 
ENDBRANCH   5  11
ENDBRANCH   1   4
BRANCH   1  13
ATOM     13  C   UNL     1      45.800 131.026  20.719  1.00  0.00     0.178 A 
ATOM     14  C   UNL     1      44.680 131.077  21.570  1.00  0.00     0.080 A 
ATOM     15  C   UNL     1      46.876 131.923  20.942  1.00  0.00     0.185 A 
ATOM     16  C   UNL     1      44.619 131.986  22.640  1.00  0.00    -0.019 A 
ATOM     17  C   UNL     1      46.804 132.857  21.995  1.00  0.00     0.030 A 
ATOM     18  C   UNL     1      45.680 132.878  22.833  1.00  0.00     0.021 A 
BRANCH  15  19
ATOM     19  O   UNL     1      48.029 131.899  20.149  1.00  0.00    -0.502 OA
ATOM     20  H   UNL     1      48.264 131.146  19.519  1.00  0.00     0.293 HD
ENDBRANCH  15  19
BRANCH  16  21
ATOM     21  C   UNL     1      43.454 132.062  23.555  1.00  0.00     0.000 C 
ATOM     22  C   UNL     1      42.188 131.880  23.174  1.00  0.00     0.009 C 
ENDBRANCH  16  21
BRANCH  17  23
ATOM     23  C   UNL     1      47.905 133.822  22.238  1.00  0.00    -0.014 A 
ATOM     24  C   UNL     1      48.842 133.589  23.256  1.00  0.00     0.009 A 
ATOM     25  C   UNL     1      48.030 134.968  21.434  1.00  0.00     0.019 A 
ATOM     26  C   UNL     1      49.886 134.490  23.481  1.00  0.00     0.009 A 
ATOM     27  C   UNL     1      49.078 135.882  21.651  1.00  0.00     0.007 A 
ATOM     28  C   UNL     1      50.011 135.637  22.686  1.00  0.00    -0.018 A 
ATOM     29  C   UNL     1      49.227 137.042  20.864  1.00  0.00     0.086 A 
ATOM     30  C   UNL     1      51.056 136.544  22.904  1.00  0.00    -0.015 A 
ATOM     31  N   UNL     1      50.254 137.899  21.108  1.00  0.00    -0.629 NA
ATOM     32  C   UNL     1      51.159 137.678  22.098  1.00  0.00    -0.136 A 
ATOM     33  O   UNL     1      48.420 137.301  19.932  1.00  0.00    -0.315 OA
ENDBRANCH  17  23
ENDBRANCH   1  13
TORSDOF 6
ENDMDL


