REMARK SMILES Cc1ccc2ccc([C@@H]3CCCN(c4ccc(F)c(F)n4)[C@@H]3F)nc2c1F
REMARK SMILES IDX 9 1 10 2 11 3 12 4 13 5 22 6 23 7 8 8 2 9 3 10 26 11 4 12
REMARK SMILES IDX 25 13 5 14 24 15 6 16 7 17 1 18 27 19 14 20 15 21 21 22
REMARK SMILES IDX 16 23 19 24 17 25 20 26 18 27
REMARK H PARENT
ROOT
ATOM      1  C   UNL     1       0.422   0.220  -0.988  1.00  0.00     0.093 C 
ATOM      2  C   UNL     1       0.610   1.609  -1.626  1.00  0.00     0.017 C 
ATOM      3  C   UNL     1       0.321   1.550  -3.131  1.00  0.00     0.022 C 
ATOM      4  C   UNL     1      -1.084   1.000  -3.401  1.00  0.00     0.121 C 
ATOM      5  N   UNL     1      -1.279  -0.276  -2.699  1.00  0.00    -0.326 N 
ATOM      6  C   UNL     1      -0.996  -0.321  -1.256  1.00  0.00     0.273 C 
ATOM      7  F   UNL     1      -1.947   0.433  -0.588  1.00  0.00    -0.223 F 
ENDROOT
BRANCH   1   8
ATOM      8  C   UNL     1       0.759   0.213   0.487  1.00  0.00     0.049 A 
ATOM      9  C   UNL     1       3.279  -1.830   4.049  1.00  0.00    -0.013 A 
ATOM     10  C   UNL     1       2.690  -0.952   4.974  1.00  0.00     0.007 A 
ATOM     11  C   UNL     1       2.918  -1.751   2.692  1.00  0.00     0.152 A 
ATOM     12  C   UNL     1       1.767   0.009   4.551  1.00  0.00     0.011 A 
ATOM     13  C   UNL     1       1.994  -0.789   2.264  1.00  0.00     0.106 A 
ATOM     14  C   UNL     1       1.416   0.097   3.198  1.00  0.00     0.003 A 
ATOM     15  N   UNL     1       1.650  -0.707   0.951  1.00  0.00    -0.249 NA
ATOM     16  C   UNL     1       0.493   1.047   2.748  1.00  0.00     0.012 A 
ATOM     17  C   UNL     1       0.160   1.107   1.393  1.00  0.00     0.025 A 
ATOM     18  C   UNL     1       4.251  -2.877   4.511  1.00  0.00     0.047 C 
ATOM     19  F   UNL     1       3.464  -2.608   1.789  1.00  0.00    -0.204 F 
ENDBRANCH   1   8
BRANCH   5  20
ATOM     20  C   UNL     1      -2.086  -1.301  -3.310  1.00  0.00     0.134 A 
ATOM     21  C   UNL     1      -1.787  -2.660  -3.120  1.00  0.00     0.050 A 
ATOM     22  N   UNL     1      -3.135  -0.953  -4.107  1.00  0.00    -0.200 NA
ATOM     23  C   UNL     1      -2.581  -3.630  -3.735  1.00  0.00     0.048 A 
ATOM     24  C   UNL     1      -3.919  -1.883  -4.715  1.00  0.00     0.250 A 
ATOM     25  C   UNL     1      -3.657  -3.243  -4.536  1.00  0.00     0.178 A 
ATOM     26  F   UNL     1      -4.954  -1.485  -5.496  1.00  0.00    -0.182 F 
ATOM     27  F   UNL     1      -4.432  -4.178  -5.139  1.00  0.00    -0.202 F 
ENDBRANCH   5  20
TORSDOF 2


