MODEL 1
REMARK VINA RESULT:      -2.5      0.000      0.000
REMARK SMILES C=C[C@@H]1C[C@@]([NH2+]c2ccc3cc[nH]c3c2)(c2ccc(C(C)=O)cc2)[C@H](F)C[C@@H]1O
REMARK SMILES IDX 3 1 4 2 5 3 25 4 26 5 27 6 28 7 2 8 1 9 29 10 6 12 7 15 8 16
REMARK SMILES IDX 15 17 9 18 14 19 10 20 13 21 11 22 12 23 16 25 17 26 24 27
REMARK SMILES IDX 18 28 23 29 19 30 20 31 21 32 22 33
REMARK H PARENT 29 11 6 13 6 14 13 24
ROOT
ATOM      1  C   UNL     1      43.172 132.312  21.249  1.00  0.00     0.047 C 
ATOM      2  C   UNL     1      43.935 131.392  20.270  1.00  0.00     0.087 C 
ATOM      3  C   UNL     1      45.340 130.970  20.822  1.00  0.00     0.158 C 
ATOM      4  C   UNL     1      45.059 130.238  22.188  1.00  0.00     0.235 C 
ATOM      5  F   UNL     1      44.343 129.070  21.966  1.00  0.00    -0.240 F 
ATOM      6  C   UNL     1      44.268 131.112  23.186  1.00  0.00     0.077 C 
ATOM      7  C   UNL     1      42.932 131.606  22.601  1.00  0.00     0.124 C 
ENDROOT
BRANCH   1   8
ATOM      8  C   UNL     1      41.890 132.850  20.647  1.00  0.00    -0.028 C 
ATOM      9  C   UNL     1      41.570 132.728  19.352  1.00  0.00     0.004 C 
ENDBRANCH   1   8
BRANCH   7  10
ATOM     10  O   UNL     1      42.045 130.526  22.449  1.00  0.00    -0.392 OA
ATOM     11  H   UNL     1      42.600 129.709  22.346  1.00  0.00     0.210 HD
ENDBRANCH   7  10
BRANCH   3  12
ATOM     12  N   UNL     1      45.950 130.021  19.844  1.00  0.00    -0.303 N 
ATOM     13  H   UNL     1      46.972 129.906  20.040  1.00  0.00     0.353 HD
ATOM     14  H   UNL     1      45.532 129.069  19.973  1.00  0.00     0.353 HD
BRANCH  12  15
ATOM     15  C   UNL     1      45.780 130.411  18.459  1.00  0.00     0.132 A 
ATOM     16  C   UNL     1      44.885 131.460  18.111  1.00  0.00     0.068 A 
ATOM     17  C   UNL     1      46.518 129.764  17.438  1.00  0.00     0.094 A 
ATOM     18  C   UNL     1      44.698 131.833  16.767  1.00  0.00     0.016 A 
ATOM     19  C   UNL     1      46.303 130.154  16.118  1.00  0.00     0.051 A 
ATOM     20  C   UNL     1      45.424 131.151  15.796  1.00  0.00    -0.000 A 
ATOM     21  N   UNL     1      46.883 129.654  15.015  1.00  0.00    -0.361 N 
ATOM     22  C   UNL     1      45.444 131.292  14.426  1.00  0.00     0.028 A 
ATOM     23  C   UNL     1      46.360 130.346  13.977  1.00  0.00     0.083 A 
ATOM     24  H   UNL     1      47.591 128.887  14.965  1.00  0.00     0.166 HD
ENDBRANCH  12  15
ENDBRANCH   3  12
BRANCH   3  25
ATOM     25  C   UNL     1      46.261 132.217  20.965  1.00  0.00     0.016 A 
ATOM     26  C   UNL     1      47.572 132.074  21.473  1.00  0.00     0.011 A 
ATOM     27  C   UNL     1      45.796 133.535  20.744  1.00  0.00     0.011 A 
ATOM     28  C   UNL     1      48.400 133.181  21.676  1.00  0.00     0.012 A 
ATOM     29  C   UNL     1      46.625 134.641  20.949  1.00  0.00     0.012 A 
ATOM     30  C   UNL     1      47.941 134.479  21.409  1.00  0.00     0.017 A 
BRANCH  30  31
ATOM     31  C   UNL     1      48.833 135.648  21.636  1.00  0.00     0.159 C 
ATOM     32  C   UNL     1      48.735 136.893  20.807  1.00  0.00     0.093 C 
ATOM     33  O   UNL     1      49.702 135.604  22.549  1.00  0.00    -0.295 OA
ENDBRANCH  30  31
ENDBRANCH   3  25
TORSDOF 6
ENDMDL
MODEL 2
REMARK VINA RESULT:      -1.6      2.787      5.209
REMARK SMILES C=C[C@@H]1C[C@@]([NH2+]c2ccc3cc[nH]c3c2)(c2ccc(C(C)=O)cc2)[C@H](F)C[C@@H]1O
REMARK SMILES IDX 3 1 4 2 5 3 25 4 26 5 27 6 28 7 2 8 1 9 29 10 6 12 7 15 8 16
REMARK SMILES IDX 15 17 9 18 14 19 10 20 13 21 11 22 12 23 16 25 17 26 24 27
REMARK SMILES IDX 18 28 23 29 19 30 20 31 21 32 22 33
REMARK H PARENT 29 11 6 13 6 14 13 24
ROOT
ATOM      1  C   UNL     1      44.624 131.245  19.685  1.00  0.00     0.047 C 
ATOM      2  C   UNL     1      44.726 130.454  21.008  1.00  0.00     0.087 C 
ATOM      3  C   UNL     1      44.550 131.372  22.266  1.00  0.00     0.158 C 
ATOM      4  C   UNL     1      43.133 132.040  22.110  1.00  0.00     0.235 C 
ATOM      5  F   UNL     1      42.139 131.073  22.172  1.00  0.00    -0.240 F 
ATOM      6  C   UNL     1      42.977 132.815  20.784  1.00  0.00     0.077 C 
ATOM      7  C   UNL     1      43.248 131.931  19.553  1.00  0.00     0.124 C 
ENDROOT
BRANCH   1   8
ATOM      8  C   UNL     1      44.957 130.389  18.479  1.00  0.00    -0.028 C 
ATOM      9  C   UNL     1      45.827 130.754  17.528  1.00  0.00     0.004 C 
ENDBRANCH   1   8
BRANCH   7  10
ATOM     10  O   UNL     1      42.226 130.975  19.412  1.00  0.00    -0.392 OA
ATOM     11  H   UNL     1      41.365 131.469  19.441  1.00  0.00     0.210 HD
ENDBRANCH   7  10
BRANCH   3  12
ATOM     12  N   UNL     1      44.579 130.499  23.477  1.00  0.00    -0.303 N 
ATOM     13  H   UNL     1      45.485 130.619  23.989  1.00  0.00     0.353 HD
ATOM     14  H   UNL     1      43.836 130.807  24.148  1.00  0.00     0.353 HD
BRANCH  12  15
ATOM     15  C   UNL     1      44.385 129.091  23.194  1.00  0.00     0.132 A 
ATOM     16  C   UNL     1      45.376 128.355  22.488  1.00  0.00     0.068 A 
ATOM     17  C   UNL     1      43.214 128.428  23.635  1.00  0.00     0.094 A 
ATOM     18  C   UNL     1      45.189 126.993  22.192  1.00  0.00     0.016 A 
ATOM     19  C   UNL     1      43.058 127.080  23.318  1.00  0.00     0.051 A 
ATOM     20  C   UNL     1      44.011 126.390  22.621  1.00  0.00    -0.000 A 
ATOM     21  N   UNL     1      42.019 126.285  23.623  1.00  0.00    -0.361 N 
ATOM     22  C   UNL     1      43.559 125.097  22.474  1.00  0.00     0.028 A 
ATOM     23  C   UNL     1      42.320 125.071  23.108  1.00  0.00     0.083 A 
ATOM     24  H   UNL     1      41.155 126.548  24.147  1.00  0.00     0.166 HD
ENDBRANCH  12  15
ENDBRANCH   3  12
BRANCH   3  25
ATOM     25  C   UNL     1      45.715 132.401  22.351  1.00  0.00     0.016 A 
ATOM     26  C   UNL     1      46.679 132.465  21.319  1.00  0.00     0.011 A 
ATOM     27  C   UNL     1      45.948 133.193  23.500  1.00  0.00     0.011 A 
ATOM     28  C   UNL     1      47.772 133.330  21.397  1.00  0.00     0.012 A 
ATOM     29  C   UNL     1      47.043 134.057  23.576  1.00  0.00     0.012 A 
ATOM     30  C   UNL     1      47.966 134.144  22.523  1.00  0.00     0.017 A 
BRANCH  30  31
ATOM     31  C   UNL     1      49.140 135.056  22.593  1.00  0.00     0.159 C 
ATOM     32  C   UNL     1      49.390 136.108  21.555  1.00  0.00     0.093 C 
ATOM     33  O   UNL     1      49.957 134.951  23.548  1.00  0.00    -0.295 OA
ENDBRANCH  30  31
ENDBRANCH   3  25
TORSDOF 6
ENDMDL
MODEL 3
REMARK VINA RESULT:      -0.8      1.098      1.766
REMARK SMILES C=C[C@@H]1C[C@@]([NH2+]c2ccc3cc[nH]c3c2)(c2ccc(C(C)=O)cc2)[C@H](F)C[C@@H]1O
REMARK SMILES IDX 3 1 4 2 5 3 25 4 26 5 27 6 28 7 2 8 1 9 29 10 6 12 7 15 8 16
REMARK SMILES IDX 15 17 9 18 14 19 10 20 13 21 11 22 12 23 16 25 17 26 24 27
REMARK SMILES IDX 18 28 23 29 19 30 20 31 21 32 22 33
REMARK H PARENT 29 11 6 13 6 14 13 24
ROOT
ATOM      1  C   UNL     1      43.262 132.467  20.972  1.00  0.00     0.047 C 
ATOM      2  C   UNL     1      44.158 131.578  20.080  1.00  0.00     0.087 C 
ATOM      3  C   UNL     1      45.507 131.198  20.782  1.00  0.00     0.158 C 
ATOM      4  C   UNL     1      45.101 130.449  22.106  1.00  0.00     0.235 C 
ATOM      5  F   UNL     1      44.454 129.261  21.804  1.00  0.00    -0.240 F 
ATOM      6  C   UNL     1      44.177 131.292  23.014  1.00  0.00     0.077 C 
ATOM      7  C   UNL     1      42.898 131.745  22.287  1.00  0.00     0.124 C 
ENDROOT
BRANCH   1   8
ATOM      8  C   UNL     1      42.037 132.967  20.234  1.00  0.00    -0.028 C 
ATOM      9  C   UNL     1      41.582 132.424  19.097  1.00  0.00     0.004 C 
ENDBRANCH   1   8
BRANCH   7  10
ATOM     10  O   UNL     1      42.069 130.638  22.035  1.00  0.00    -0.392 OA
ATOM     11  H   UNL     1      42.167 130.023  22.809  1.00  0.00     0.210 HD
ENDBRANCH   7  10
BRANCH   3  12
ATOM     12  N   UNL     1      46.251 130.276  19.875  1.00  0.00    -0.303 N 
ATOM     13  H   UNL     1      47.282 130.444  19.952  1.00  0.00     0.353 HD
ATOM     14  H   UNL     1      46.106 129.286  20.185  1.00  0.00     0.353 HD
BRANCH  12  15
ATOM     15  C   UNL     1      45.865 130.380  18.482  1.00  0.00     0.132 A 
ATOM     16  C   UNL     1      46.477 129.552  17.501  1.00  0.00     0.068 A 
ATOM     17  C   UNL     1      44.860 131.296  18.085  1.00  0.00     0.094 A 
ATOM     18  C   UNL     1      46.123 129.659  16.144  1.00  0.00     0.016 A 
ATOM     19  C   UNL     1      44.539 131.379  16.732  1.00  0.00     0.051 A 
ATOM     20  C   UNL     1      45.150 130.590  15.797  1.00  0.00    -0.000 A 
ATOM     21  N   UNL     1      43.637 132.192  16.156  1.00  0.00    -0.361 N 
ATOM     22  C   UNL     1      44.615 130.915  14.570  1.00  0.00     0.028 A 
ATOM     23  C   UNL     1      43.681 131.912  14.833  1.00  0.00     0.083 A 
ATOM     24  H   UNL     1      43.029 132.897  16.629  1.00  0.00     0.166 HD
ENDBRANCH  12  15
ENDBRANCH   3  12
BRANCH   3  25
ATOM     25  C   UNL     1      46.365 132.474  21.028  1.00  0.00     0.016 A 
ATOM     26  C   UNL     1      45.984 133.706  20.450  1.00  0.00     0.011 A 
ATOM     27  C   UNL     1      47.613 132.434  21.695  1.00  0.00     0.011 A 
ATOM     28  C   UNL     1      46.767 134.852  20.596  1.00  0.00     0.012 A 
ATOM     29  C   UNL     1      48.396 133.582  21.839  1.00  0.00     0.012 A 
ATOM     30  C   UNL     1      47.980 134.809  21.300  1.00  0.00     0.017 A 
BRANCH  30  31
ATOM     31  C   UNL     1      48.807 136.039  21.441  1.00  0.00     0.159 C 
ATOM     32  C   UNL     1      50.036 136.074  22.298  1.00  0.00     0.093 C 
ATOM     33  O   UNL     1      48.474 137.090  20.828  1.00  0.00    -0.295 OA
ENDBRANCH  30  31
ENDBRANCH   3  25
TORSDOF 6
ENDMDL
MODEL 4
REMARK VINA RESULT:      -0.7      0.935      1.381
REMARK SMILES C=C[C@@H]1C[C@@]([NH2+]c2ccc3cc[nH]c3c2)(c2ccc(C(C)=O)cc2)[C@H](F)C[C@@H]1O
REMARK SMILES IDX 3 1 4 2 5 3 25 4 26 5 27 6 28 7 2 8 1 9 29 10 6 12 7 15 8 16
REMARK SMILES IDX 15 17 9 18 14 19 10 20 13 21 11 22 12 23 16 25 17 26 24 27
REMARK SMILES IDX 18 28 23 29 19 30 20 31 21 32 22 33
REMARK H PARENT 29 11 6 13 6 14 13 24
ROOT
ATOM      1  C   UNL     1      43.211 132.113  21.228  1.00  0.00     0.047 C 
ATOM      2  C   UNL     1      44.006 131.223  20.247  1.00  0.00     0.087 C 
ATOM      3  C   UNL     1      45.422 130.843  20.802  1.00  0.00     0.158 C 
ATOM      4  C   UNL     1      45.160 130.097  22.163  1.00  0.00     0.235 C 
ATOM      5  F   UNL     1      44.484 128.908  21.933  1.00  0.00    -0.240 F 
ATOM      6  C   UNL     1      44.339 130.940  23.162  1.00  0.00     0.077 C 
ATOM      7  C   UNL     1      42.989 131.394  22.575  1.00  0.00     0.124 C 
ENDROOT
BRANCH   1   8
ATOM      8  C   UNL     1      41.914 132.613  20.624  1.00  0.00    -0.028 C 
ATOM      9  C   UNL     1      41.710 132.742  19.306  1.00  0.00     0.004 C 
ENDBRANCH   1   8
BRANCH   7  10
ATOM     10  O   UNL     1      42.138 130.286  22.415  1.00  0.00    -0.392 OA
ATOM     11  H   UNL     1      42.141 130.057  21.449  1.00  0.00     0.210 HD
ENDBRANCH   7  10
BRANCH   3  12
ATOM     12  N   UNL     1      46.065 129.920  19.821  1.00  0.00    -0.303 N 
ATOM     13  H   UNL     1      47.104 129.911  19.957  1.00  0.00     0.353 HD
ATOM     14  H   UNL     1      45.752 128.938  20.008  1.00  0.00     0.353 HD
BRANCH  12  15
ATOM     15  C   UNL     1      45.778 130.236  18.437  1.00  0.00     0.132 A 
ATOM     16  C   UNL     1      46.639 129.781  17.400  1.00  0.00     0.068 A 
ATOM     17  C   UNL     1      44.626 130.988  18.099  1.00  0.00     0.094 A 
ATOM     18  C   UNL     1      46.380 130.100  16.055  1.00  0.00     0.016 A 
ATOM     19  C   UNL     1      44.405 131.291  16.757  1.00  0.00     0.051 A 
ATOM     20  C   UNL     1      45.252 130.863  15.773  1.00  0.00    -0.000 A 
ATOM     21  N   UNL     1      43.391 132.003  16.238  1.00  0.00    -0.361 N 
ATOM     22  C   UNL     1      44.757 131.324  14.573  1.00  0.00     0.028 A 
ATOM     23  C   UNL     1      43.603 132.028  14.903  1.00  0.00     0.083 A 
ATOM     24  H   UNL     1      42.602 132.450  16.757  1.00  0.00     0.166 HD
ENDBRANCH  12  15
ENDBRANCH   3  12
BRANCH   3  25
ATOM     25  C   UNL     1      46.303 132.119  20.953  1.00  0.00     0.016 A 
ATOM     26  C   UNL     1      47.669 132.000  21.292  1.00  0.00     0.011 A 
ATOM     27  C   UNL     1      45.761 133.426  20.911  1.00  0.00     0.011 A 
ATOM     28  C   UNL     1      48.469 133.125  21.500  1.00  0.00     0.012 A 
ATOM     29  C   UNL     1      46.563 134.551  21.121  1.00  0.00     0.012 A 
ATOM     30  C   UNL     1      47.929 134.417  21.410  1.00  0.00     0.017 A 
BRANCH  30  31
ATOM     31  C   UNL     1      48.794 135.606  21.641  1.00  0.00     0.159 C 
ATOM     32  C   UNL     1      48.714 136.825  20.773  1.00  0.00     0.093 C 
ATOM     33  O   UNL     1      49.623 135.601  22.592  1.00  0.00    -0.295 OA
ENDBRANCH  30  31
ENDBRANCH   3  25
TORSDOF 6
ENDMDL
MODEL 5
REMARK VINA RESULT:      -0.6      2.726      5.322
REMARK SMILES C=C[C@@H]1C[C@@]([NH2+]c2ccc3cc[nH]c3c2)(c2ccc(C(C)=O)cc2)[C@H](F)C[C@@H]1O
REMARK SMILES IDX 3 1 4 2 5 3 25 4 26 5 27 6 28 7 2 8 1 9 29 10 6 12 7 15 8 16
REMARK SMILES IDX 15 17 9 18 14 19 10 20 13 21 11 22 12 23 16 25 17 26 24 27
REMARK SMILES IDX 18 28 23 29 19 30 20 31 21 32 22 33
REMARK H PARENT 29 11 6 13 6 14 13 24
ROOT
ATOM      1  C   UNL     1      45.900 132.386  22.814  1.00  0.00     0.047 C 
ATOM      2  C   UNL     1      44.772 132.310  21.762  1.00  0.00     0.087 C 
ATOM      3  C   UNL     1      43.655 131.285  22.159  1.00  0.00     0.158 C 
ATOM      4  C   UNL     1      43.103 131.776  23.550  1.00  0.00     0.235 C 
ATOM      5  F   UNL     1      42.488 133.011  23.411  1.00  0.00    -0.240 F 
ATOM      6  C   UNL     1      44.206 131.897  24.625  1.00  0.00     0.077 C 
ATOM      7  C   UNL     1      45.350 132.830  24.186  1.00  0.00     0.124 C 
ENDROOT
BRANCH   1   8
ATOM      8  C   UNL     1      47.056 133.251  22.353  1.00  0.00    -0.028 C 
ATOM      9  C   UNL     1      47.517 134.304  23.042  1.00  0.00     0.004 C 
ENDBRANCH   1   8
BRANCH   7  10
ATOM     10  O   UNL     1      44.895 134.159  24.136  1.00  0.00    -0.392 OA
ATOM     11  H   UNL     1      44.844 134.409  23.176  1.00  0.00     0.210 HD
ENDBRANCH   7  10
BRANCH   3  12
ATOM     12  N   UNL     1      42.581 131.355  21.124  1.00  0.00    -0.303 N 
ATOM     13  H   UNL     1      41.953 130.519  21.197  1.00  0.00     0.353 HD
ATOM     14  H   UNL     1      41.967 132.182  21.311  1.00  0.00     0.353 HD
BRANCH  12  15
ATOM     15  C   UNL     1      43.076 131.450  19.766  1.00  0.00     0.132 A 
ATOM     16  C   UNL     1      42.242 131.951  18.729  1.00  0.00     0.068 A 
ATOM     17  C   UNL     1      44.404 131.062  19.460  1.00  0.00     0.094 A 
ATOM     18  C   UNL     1      42.707 132.029  17.403  1.00  0.00     0.016 A 
ATOM     19  C   UNL     1      44.828 131.147  18.136  1.00  0.00     0.051 A 
ATOM     20  C   UNL     1      44.008 131.612  17.145  1.00  0.00    -0.000 A 
ATOM     21  N   UNL     1      46.031 130.810  17.642  1.00  0.00    -0.361 N 
ATOM     22  C   UNL     1      44.720 131.569  15.966  1.00  0.00     0.028 A 
ATOM     23  C   UNL     1      45.970 131.066  16.315  1.00  0.00     0.083 A 
ATOM     24  H   UNL     1      46.847 130.428  18.170  1.00  0.00     0.166 HD
ENDBRANCH  12  15
ENDBRANCH   3  12
BRANCH   3  25
ATOM     25  C   UNL     1      44.235 129.841  22.196  1.00  0.00     0.016 A 
ATOM     26  C   UNL     1      43.766 128.913  23.153  1.00  0.00     0.011 A 
ATOM     27  C   UNL     1      45.335 129.443  21.400  1.00  0.00     0.011 A 
ATOM     28  C   UNL     1      44.312 127.633  23.256  1.00  0.00     0.012 A 
ATOM     29  C   UNL     1      45.881 128.161  21.504  1.00  0.00     0.012 A 
ATOM     30  C   UNL     1      45.372 127.235  22.427  1.00  0.00     0.017 A 
BRANCH  30  31
ATOM     31  C   UNL     1      45.947 125.869  22.554  1.00  0.00     0.159 C 
ATOM     32  C   UNL     1      47.269 125.506  21.948  1.00  0.00     0.093 C 
ATOM     33  O   UNL     1      45.315 124.980  23.187  1.00  0.00    -0.295 OA
ENDBRANCH  30  31
ENDBRANCH   3  25
TORSDOF 6
ENDMDL
MODEL 6
REMARK VINA RESULT:      -0.2      2.876      5.471
REMARK SMILES C=C[C@@H]1C[C@@]([NH2+]c2ccc3cc[nH]c3c2)(c2ccc(C(C)=O)cc2)[C@H](F)C[C@@H]1O
REMARK SMILES IDX 3 1 4 2 5 3 25 4 26 5 27 6 28 7 2 8 1 9 29 10 6 12 7 15 8 16
REMARK SMILES IDX 15 17 9 18 14 19 10 20 13 21 11 22 12 23 16 25 17 26 24 27
REMARK SMILES IDX 18 28 23 29 19 30 20 31 21 32 22 33
REMARK H PARENT 29 11 6 13 6 14 13 24
ROOT
ATOM      1  C   UNL     1      44.545 131.284  19.990  1.00  0.00     0.047 C 
ATOM      2  C   UNL     1      44.657 130.529  21.332  1.00  0.00     0.087 C 
ATOM      3  C   UNL     1      44.620 131.495  22.565  1.00  0.00     0.158 C 
ATOM      4  C   UNL     1      43.252 132.268  22.459  1.00  0.00     0.235 C 
ATOM      5  F   UNL     1      42.192 131.386  22.606  1.00  0.00    -0.240 F 
ATOM      6  C   UNL     1      43.086 133.013  21.116  1.00  0.00     0.077 C 
ATOM      7  C   UNL     1      43.221 132.073  19.905  1.00  0.00     0.124 C 
ENDROOT
BRANCH   1   8
ATOM      8  C   UNL     1      44.745 130.369  18.799  1.00  0.00    -0.028 C 
ATOM      9  C   UNL     1      45.872 130.327  18.076  1.00  0.00     0.004 C 
ENDBRANCH   1   8
BRANCH   7  10
ATOM     10  O   UNL     1      42.122 131.198  19.849  1.00  0.00    -0.392 OA
ATOM     11  H   UNL     1      41.305 131.756  19.931  1.00  0.00     0.210 HD
ENDBRANCH   7  10
BRANCH   3  12
ATOM     12  N   UNL     1      44.647 130.661  23.803  1.00  0.00    -0.303 N 
ATOM     13  H   UNL     1      45.623 130.598  24.177  1.00  0.00     0.353 HD
ATOM     14  H   UNL     1      44.090 131.131  24.554  1.00  0.00     0.353 HD
BRANCH  12  15
ATOM     15  C   UNL     1      44.129 129.320  23.621  1.00  0.00     0.132 A 
ATOM     16  C   UNL     1      44.993 128.260  23.230  1.00  0.00     0.068 A 
ATOM     17  C   UNL     1      42.758 129.046  23.848  1.00  0.00     0.094 A 
ATOM     18  C   UNL     1      44.496 126.960  23.031  1.00  0.00     0.016 A 
ATOM     19  C   UNL     1      42.299 127.747  23.636  1.00  0.00     0.051 A 
ATOM     20  C   UNL     1      43.139 126.743  23.241  1.00  0.00    -0.000 A 
ATOM     21  N   UNL     1      41.043 127.293  23.775  1.00  0.00    -0.361 N 
ATOM     22  C   UNL     1      42.383 125.597  23.121  1.00  0.00     0.028 A 
ATOM     23  C   UNL     1      41.089 125.979  23.460  1.00  0.00     0.083 A 
ATOM     24  H   UNL     1      40.201 127.841  24.064  1.00  0.00     0.166 HD
ENDBRANCH  12  15
ENDBRANCH   3  12
BRANCH   3  25
ATOM     25  C   UNL     1      45.864 132.431  22.554  1.00  0.00     0.016 A 
ATOM     26  C   UNL     1      46.098 133.311  23.636  1.00  0.00     0.011 A 
ATOM     27  C   UNL     1      46.713 132.555  21.429  1.00  0.00     0.011 A 
ATOM     28  C   UNL     1      47.166 134.209  23.626  1.00  0.00     0.012 A 
ATOM     29  C   UNL     1      47.782 133.455  21.421  1.00  0.00     0.012 A 
ATOM     30  C   UNL     1      48.028 134.289  22.522  1.00  0.00     0.017 A 
BRANCH  30  31
ATOM     31  C   UNL     1      49.159 135.256  22.525  1.00  0.00     0.159 C 
ATOM     32  C   UNL     1      50.261 135.184  23.538  1.00  0.00     0.093 C 
ATOM     33  O   UNL     1      49.204 136.169  21.656  1.00  0.00    -0.295 OA
ENDBRANCH  30  31
ENDBRANCH   3  25
TORSDOF 6
ENDMDL


