REMARK SMILES CC(=O)c1ccc([NH2+]c2ccc3[nH]ccc3c2)c2c1CCC2
REMARK SMILES IDX 4 1 5 2 6 3 7 4 18 5 19 6 20 7 21 8 22 9 2 10 1 11 3 12 8 13
REMARK SMILES IDX 9 16 10 17 17 18 11 19 16 20 12 21 15 22 13 23 14 24
REMARK H PARENT 8 14 8 15 13 25
ROOT
ATOM      1  C   UNL     1      -2.418   0.125  -1.079  1.00  0.00     0.021 A 
ATOM      2  C   UNL     1      -1.521  -0.956  -1.216  1.00  0.00     0.018 A 
ATOM      3  C   UNL     1      -0.154  -0.795  -0.954  1.00  0.00     0.069 A 
ATOM      4  C   UNL     1       0.361   0.450  -0.548  1.00  0.00     0.138 A 
ATOM      5  C   UNL     1      -0.539   1.524  -0.415  1.00  0.00     0.017 A 
ATOM      6  C   UNL     1      -1.886   1.368  -0.673  1.00  0.00    -0.028 A 
ATOM      7  C   UNL     1      -2.622   2.647  -0.477  1.00  0.00     0.037 C 
ATOM      8  C   UNL     1      -1.525   3.686  -0.206  1.00  0.00     0.010 C 
ATOM      9  C   UNL     1      -0.217   2.913   0.005  1.00  0.00     0.042 C 
ENDROOT
BRANCH   1  10
ATOM     10  C   UNL     1      -3.871  -0.062  -1.355  1.00  0.00     0.160 C 
ATOM     11  C   UNL     1      -4.375  -1.231  -2.147  1.00  0.00     0.093 C 
ATOM     12  O   UNL     1      -4.714   0.751  -0.891  1.00  0.00    -0.295 OA
ENDBRANCH   1  10
BRANCH   4  13
ATOM     13  N   UNL     1       1.770   0.598  -0.265  1.00  0.00    -0.281 N 
ATOM     14  H   UNL     1       2.113   1.513  -0.638  1.00  0.00     0.358 HD
ATOM     15  H   UNL     1       2.320  -0.146  -0.755  1.00  0.00     0.358 HD
BRANCH  13  16
ATOM     16  C   UNL     1       2.012   0.494   1.154  1.00  0.00     0.135 A 
ATOM     17  C   UNL     1       1.872  -0.758   1.815  1.00  0.00     0.070 A 
ATOM     18  C   UNL     1       2.406   1.631   1.898  1.00  0.00     0.078 A 
ATOM     19  C   UNL     1       2.100  -0.873   3.197  1.00  0.00     0.033 A 
ATOM     20  C   UNL     1       2.622   1.480   3.265  1.00  0.00     0.005 A 
ATOM     21  C   UNL     1       2.473   0.274   3.893  1.00  0.00     0.046 A 
ATOM     22  C   UNL     1       2.998   2.399   4.220  1.00  0.00     0.028 A 
ATOM     23  N   UNL     1       2.738   0.383   5.205  1.00  0.00    -0.361 N 
ATOM     24  C   UNL     1       3.059   1.681   5.411  1.00  0.00     0.083 A 
ATOM     25  H   UNL     1       2.704  -0.375   5.923  1.00  0.00     0.166 HD
ENDBRANCH  13  16
ENDBRANCH   4  13
TORSDOF 3


