REMARK SMILES C=Cc1cccc(-c2ccc3ccn(/C(O)=C/[C@H](O)CO)c(=O)c3c2)c1
REMARK SMILES IDX 15 1 16 2 17 4 18 5 19 6 20 8 21 9 14 11 13 12 22 13 12 14
REMARK SMILES IDX 24 15 11 16 25 17 10 18 8 19 9 20 23 21 7 22 6 23 26 24 5 25
REMARK SMILES IDX 3 26 4 27 2 28 1 29
REMARK H PARENT 16 3 19 7 21 10
ROOT
ATOM      1  C   UNL     1      -3.696   0.293   0.081  1.00  0.00     0.196 C 
ENDROOT
BRANCH   1   2
ATOM      2  O   UNL     1      -3.796   1.662  -0.168  1.00  0.00    -0.494 OA
ATOM      3  H   UNL     1      -3.058   2.165  -0.644  1.00  0.00     0.295 HD
ENDBRANCH   1   2
BRANCH   1   4
ATOM      4  C   UNL     1      -4.715  -0.360   0.660  1.00  0.00     0.073 C 
BRANCH   4   5
ATOM      5  C   UNL     1      -6.015   0.312   1.037  1.00  0.00     0.168 C 
BRANCH   5   6
ATOM      6  O   UNL     1      -6.597  -0.348   2.133  1.00  0.00    -0.386 OA
ATOM      7  H   UNL     1      -6.832  -1.270   1.844  1.00  0.00     0.211 HD
ENDBRANCH   5   6
BRANCH   5   8
ATOM      8  C   UNL     1      -6.994   0.340  -0.150  1.00  0.00     0.192 C 
BRANCH   8   9
ATOM      9  O   UNL     1      -6.497   1.130  -1.196  1.00  0.00    -0.393 OA
ATOM     10  H   UNL     1      -6.619   2.076  -0.920  1.00  0.00     0.210 HD
ENDBRANCH   8   9
ENDBRANCH   5   8
ENDBRANCH   4   5
ENDBRANCH   1   4
BRANCH   1  11
ATOM     11  N   UNL     1      -2.489  -0.410  -0.279  1.00  0.00    -0.254 N 
ATOM     12  C   UNL     1      -2.578  -1.512  -1.085  1.00  0.00     0.099 A 
ATOM     13  C   UNL     1      -1.269   0.035   0.166  1.00  0.00     0.265 A 
ATOM     14  C   UNL     1      -1.436  -2.209  -1.473  1.00  0.00     0.027 A 
ATOM     15  C   UNL     1      -0.086  -0.638  -0.208  1.00  0.00     0.048 A 
ATOM     16  C   UNL     1      -0.182  -1.776  -1.038  1.00  0.00    -0.011 A 
ATOM     17  C   UNL     1       1.181  -0.208   0.229  1.00  0.00     0.023 A 
ATOM     18  C   UNL     1       0.979  -2.463  -1.419  1.00  0.00     0.009 A 
ATOM     19  C   UNL     1       2.346  -0.898  -0.154  1.00  0.00    -0.018 A 
ATOM     20  C   UNL     1       2.231  -2.028  -0.981  1.00  0.00     0.009 A 
ATOM     21  O   UNL     1      -1.202   1.044   0.925  1.00  0.00    -0.268 OA
BRANCH  19  22
ATOM     22  C   UNL     1       3.681  -0.438   0.308  1.00  0.00    -0.018 A 
ATOM     23  C   UNL     1       4.646  -1.366   0.732  1.00  0.00     0.009 A 
ATOM     24  C   UNL     1       3.997   0.933   0.329  1.00  0.00     0.016 A 
ATOM     25  C   UNL     1       5.897  -0.932   1.173  1.00  0.00     0.001 A 
ATOM     26  C   UNL     1       5.259   1.379   0.758  1.00  0.00    -0.026 A 
ATOM     27  C   UNL     1       6.205   0.430   1.192  1.00  0.00     0.008 A 
BRANCH  26  28
ATOM     28  C   UNL     1       5.531   2.838   0.762  1.00  0.00     0.000 C 
ATOM     29  C   UNL     1       6.751   3.374   0.828  1.00  0.00     0.009 C 
ENDBRANCH  26  28
ENDBRANCH  19  22
ENDBRANCH   1  11
TORSDOF 9


