REMARK SMILES C#C[C@@H]1CNC(=[NH2+])[C@@H](Nc2cc(C)c3c(n[nH+]n3C)c2O)C1
REMARK SMILES IDX 9 1 8 3 3 4 4 5 22 6 5 7 6 8 2 10 1 11 7 12 10 15 11 16
REMARK SMILES IDX 20 17 12 18 15 19 14 20 16 21 18 22 17 23 13 24 19 25 21 27
REMARK H PARENT 9 2 5 9 7 13 7 14 17 26 21 28
ROOT
ATOM      1  N   UNL     1       0.780  -0.595   0.780  1.00  0.00    -0.368 N 
ATOM      2  H   UNL     1       0.986  -1.561   1.121  1.00  0.00     0.161 HD
ENDROOT
BRANCH   1   3
ATOM      3  C   UNL     1       1.805   0.414   1.086  1.00  0.00     0.195 C 
ATOM      4  C   UNL     1       3.315   2.180  -0.000  1.00  0.00     0.108 C 
ATOM      5  C   UNL     1       2.402   3.300   0.514  1.00  0.00     0.250 C 
ATOM      6  C   UNL     1       2.502   0.894  -0.207  1.00  0.00     0.058 C 
ATOM      7  N   UNL     1       1.686   2.893   1.721  1.00  0.00    -0.276 N 
ATOM      8  C   UNL     1       1.254   1.540   1.941  1.00  0.00     0.263 C 
ATOM      9  H   UNL     1       1.374   3.644   2.378  1.00  0.00     0.304 HD
BRANCH   4  10
ATOM     10  C   UNL     1       4.445   1.958   0.920  1.00  0.00    -0.099 C 
ATOM     11  C   UNL     1       5.368   1.775   1.674  1.00  0.00     0.004 C 
ENDBRANCH   4  10
BRANCH   8  12
ATOM     12  N   UNL     1       0.489   1.270   2.957  1.00  0.00    -0.289 N 
ATOM     13  H   UNL     1       0.139   2.030   3.581  1.00  0.00     0.301 HD
ATOM     14  H   UNL     1       0.209   0.289   3.181  1.00  0.00     0.301 HD
ENDBRANCH   8  12
ENDBRANCH   1   3
BRANCH   1  15
ATOM     15  C   UNL     1      -0.464  -0.378   0.071  1.00  0.00     0.080 A 
ATOM     16  C   UNL     1      -0.884   0.922  -0.334  1.00  0.00     0.035 A 
ATOM     17  C   UNL     1      -1.293  -1.488  -0.219  1.00  0.00     0.173 A 
ATOM     18  C   UNL     1      -2.104   1.129  -1.020  1.00  0.00    -0.017 A 
ATOM     19  C   UNL     1      -2.490  -1.257  -0.894  1.00  0.00     0.206 A 
ATOM     20  C   UNL     1      -2.887  -0.008  -1.282  1.00  0.00     0.140 A 
ATOM     21  N   UNL     1      -3.418  -2.157  -1.267  1.00  0.00     0.029 NA
ATOM     22  N   UNL     1      -4.079  -0.154  -1.903  1.00  0.00    -0.132 N 
ATOM     23  N   UNL     1      -4.365  -1.452  -1.875  1.00  0.00    -0.016 N 
ATOM     24  C   UNL     1      -2.507   2.517  -1.430  1.00  0.00     0.047 C 
ATOM     25  C   UNL     1      -4.942   0.856  -2.508  1.00  0.00     0.226 C 
ATOM     26  H   UNL     1      -5.229  -1.876  -2.281  1.00  0.00     0.526 HD
BRANCH  17  27
ATOM     27  O   UNL     1      -0.923  -2.779   0.159  1.00  0.00    -0.504 OA
ATOM     28  H   UNL     1      -1.508  -3.582  -0.042  1.00  0.00     0.293 HD
ENDBRANCH  17  27
ENDBRANCH   1  15
TORSDOF 5


