REMARK SMILES C=C[C@@H](Oc1nc[nH+]c(C)c1C)c1ccc2[nH]c(-c3cnc4ocnc4c3)cc2c1
REMARK SMILES IDX 3 1 2 2 1 3 4 4 5 5 6 6 11 7 7 8 9 9 8 10 12 11 10 12 13 14
REMARK SMILES IDX 14 15 30 16 15 17 29 18 16 19 28 20 17 21 18 22 19 24 20 25
REMARK SMILES IDX 27 26 21 27 26 28 22 29 25 30 23 31 24 32
REMARK H PARENT 8 13 17 23
ROOT
ATOM      1  C   UNL     1      -1.681   0.756   2.507  1.00  0.00     0.230 C 
ENDROOT
BRANCH   1   2
ATOM      2  C   UNL     1      -1.568   1.880   3.503  1.00  0.00     0.014 C 
ATOM      3  C   UNL     1      -2.412   1.975   4.535  1.00  0.00     0.008 C 
ENDBRANCH   1   2
BRANCH   1   4
ATOM      4  O   UNL     1      -2.931   0.857   1.824  1.00  0.00    -0.447 OA
BRANCH   4   5
ATOM      5  C   UNL     1      -3.437  -0.142   0.981  1.00  0.00     0.335 A 
ATOM      6  N   UNL     1      -2.749  -1.302   0.808  1.00  0.00    -0.010 NA
ATOM      7  C   UNL     1      -4.655   0.054   0.306  1.00  0.00     0.080 A 
ATOM      8  C   UNL     1      -3.206  -2.278  -0.012  1.00  0.00     0.453 A 
ATOM      9  C   UNL     1      -5.099  -0.965  -0.568  1.00  0.00     0.108 A 
ATOM     10  N   UNL     1      -4.368  -2.110  -0.692  1.00  0.00    -0.247 N 
ATOM     11  C   UNL     1      -5.424   1.343   0.467  1.00  0.00     0.057 C 
ATOM     12  C   UNL     1      -6.380  -0.822  -1.347  1.00  0.00     0.093 C 
ATOM     13  H   UNL     1      -4.692  -2.879  -1.321  1.00  0.00     0.311 HD
ENDBRANCH   4   5
ENDBRANCH   1   4
BRANCH   1  14
ATOM     14  C   UNL     1      -0.537   0.815   1.520  1.00  0.00    -0.003 A 
ATOM     15  C   UNL     1      -0.514   1.811   0.508  1.00  0.00     0.010 A 
ATOM     16  C   UNL     1       0.527  -0.112   1.613  1.00  0.00     0.018 A 
ATOM     17  C   UNL     1       0.548   1.876  -0.411  1.00  0.00     0.027 A 
ATOM     18  C   UNL     1       1.560  -0.017   0.685  1.00  0.00     0.000 A 
ATOM     19  C   UNL     1       1.573   0.941  -0.291  1.00  0.00     0.046 A 
ATOM     20  C   UNL     1       2.698  -0.778   0.534  1.00  0.00     0.037 A 
ATOM     21  N   UNL     1       2.670   0.830  -1.058  1.00  0.00    -0.354 N 
ATOM     22  C   UNL     1       3.367  -0.223  -0.561  1.00  0.00     0.048 A 
ATOM     23  H   UNL     1       2.910   1.427  -1.880  1.00  0.00     0.167 HD
BRANCH  22  24
ATOM     24  C   UNL     1       4.657  -0.702  -1.116  1.00  0.00     0.019 A 
ATOM     25  C   UNL     1       5.118  -2.024  -0.851  1.00  0.00     0.125 A 
ATOM     26  C   UNL     1       5.454   0.149  -1.919  1.00  0.00     0.046 A 
ATOM     27  N   UNL     1       6.306  -2.469  -1.362  1.00  0.00    -0.219 NA
ATOM     28  C   UNL     1       6.650  -0.363  -2.406  1.00  0.00     0.130 A 
ATOM     29  C   UNL     1       7.041  -1.626  -2.125  1.00  0.00     0.246 A 
ATOM     30  N   UNL     1       7.571   0.240  -3.176  1.00  0.00    -0.215 NA
ATOM     31  O   UNL     1       8.190  -1.863  -2.692  1.00  0.00    -0.425 OA
ATOM     32  C   UNL     1       8.504  -0.741  -3.322  1.00  0.00     0.311 A 
ENDBRANCH  22  24
ENDBRANCH   1  14
TORSDOF 5


