MODEL 1
REMARK VINA RESULT:      -6.4      0.000      0.000
REMARK SMILES CC(=O)/C(C)=C/C(=O)N(N)c1ccccc1-c1[nH]c2ccccc2[nH+]1
REMARK SMILES IDX 7 1 8 2 6 3 4 4 5 5 2 6 3 7 1 8 9 9 11 10 12 11 16 12 13 13
REMARK SMILES IDX 15 14 14 15 17 16 18 17 25 18 19 19 24 20 20 21 23 22 21 23
REMARK SMILES IDX 22 24 10 27
REMARK H PARENT 18 25 25 26 10 28 10 29
ROOT
ATOM      1  C   UNL     1      45.407 129.655  21.464  1.00  0.00     0.265 C 
ATOM      2  O   UNL     1      45.831 128.770  20.672  1.00  0.00    -0.268 OA
ENDROOT
BRANCH   1   3
ATOM      3  C   UNL     1      45.007 129.281  22.843  1.00  0.00     0.080 C 
BRANCH   3   4
ATOM      4  C   UNL     1      44.049 128.380  23.157  1.00  0.00    -0.003 C 
ATOM      5  C   UNL     1      42.635 128.809  23.470  1.00  0.00     0.048 C 
BRANCH   4   6
ATOM      6  C   UNL     1      44.373 126.926  23.216  1.00  0.00     0.155 C 
ATOM      7  O   UNL     1      43.437 126.083  23.240  1.00  0.00    -0.295 OA
ATOM      8  C   UNL     1      45.785 126.420  23.263  1.00  0.00     0.093 C 
ENDBRANCH   4   6
ENDBRANCH   3   4
ENDBRANCH   1   3
BRANCH   1   9
ATOM      9  N   UNL     1      45.265 131.014  20.994  1.00  0.00    -0.244 N 
BRANCH   9  10
ATOM     10  C   UNL     1      43.982 131.577  20.663  1.00  0.00     0.076 A 
ATOM     11  C   UNL     1      43.083 131.866  21.701  1.00  0.00     0.029 A 
ATOM     12  C   UNL     1      43.617 131.879  19.325  1.00  0.00     0.089 A 
ATOM     13  C   UNL     1      41.858 132.480  21.432  1.00  0.00     0.002 A 
ATOM     14  C   UNL     1      42.390 132.516  19.074  1.00  0.00     0.019 A 
ATOM     15  C   UNL     1      41.516 132.812  20.121  1.00  0.00     0.001 A 
BRANCH  12  16
ATOM     16  C   UNL     1      44.488 131.539  18.179  1.00  0.00     0.287 A 
ATOM     17  N   UNL     1      44.879 130.271  17.891  1.00  0.00    -0.236 N 
ATOM     18  N   UNL     1      44.950 132.447  17.280  1.00  0.00    -0.236 N 
ATOM     19  C   UNL     1      45.592 130.397  16.761  1.00  0.00     0.172 A 
ATOM     20  C   UNL     1      45.637 131.710  16.395  1.00  0.00     0.172 A 
ATOM     21  C   UNL     1      46.188 129.396  15.999  1.00  0.00     0.056 A 
ATOM     22  C   UNL     1      46.289 132.132  15.238  1.00  0.00     0.056 A 
ATOM     23  C   UNL     1      46.858 129.786  14.823  1.00  0.00     0.005 A 
ATOM     24  C   UNL     1      46.909 131.148  14.445  1.00  0.00     0.005 A 
ATOM     25  H   UNL     1      44.644 129.391  18.402  1.00  0.00     0.312 HD
ATOM     26  H   UNL     1      44.802 133.481  17.270  1.00  0.00     0.312 HD
ENDBRANCH  12  16
ENDBRANCH   9  10
BRANCH   9  27
ATOM     27  N   UNL     1      46.410 131.798  20.764  1.00  0.00    -0.240 NA
ATOM     28  H   UNL     1      46.743 132.157  21.687  1.00  0.00     0.144 HD
ATOM     29  H   UNL     1      47.152 131.174  20.373  1.00  0.00     0.144 HD
ENDBRANCH   9  27
ENDBRANCH   1   9
TORSDOF 7
ENDMDL
MODEL 2
REMARK VINA RESULT:      -6.4      0.729      1.227
REMARK SMILES CC(=O)/C(C)=C/C(=O)N(N)c1ccccc1-c1[nH]c2ccccc2[nH+]1
REMARK SMILES IDX 7 1 8 2 6 3 4 4 5 5 2 6 3 7 1 8 9 9 11 10 12 11 16 12 13 13
REMARK SMILES IDX 15 14 14 15 17 16 18 17 25 18 19 19 24 20 20 21 23 22 21 23
REMARK SMILES IDX 22 24 10 27
REMARK H PARENT 18 25 25 26 10 28 10 29
ROOT
ATOM      1  C   UNL     1      45.264 129.505  21.547  1.00  0.00     0.265 C 
ATOM      2  O   UNL     1      45.712 128.617  20.772  1.00  0.00    -0.268 OA
ENDROOT
BRANCH   1   3
ATOM      3  C   UNL     1      44.783 129.132  22.899  1.00  0.00     0.080 C 
BRANCH   3   4
ATOM      4  C   UNL     1      44.224 127.944  23.225  1.00  0.00    -0.003 C 
ATOM      5  C   UNL     1      42.733 127.802  23.416  1.00  0.00     0.048 C 
BRANCH   4   6
ATOM      6  C   UNL     1      45.077 126.738  23.419  1.00  0.00     0.155 C 
ATOM      7  O   UNL     1      44.840 125.697  22.749  1.00  0.00    -0.295 OA
ATOM      8  C   UNL     1      46.211 126.706  24.401  1.00  0.00     0.093 C 
ENDBRANCH   4   6
ENDBRANCH   3   4
ENDBRANCH   1   3
BRANCH   1   9
ATOM      9  N   UNL     1      45.174 130.870  21.079  1.00  0.00    -0.244 N 
BRANCH   9  10
ATOM     10  C   UNL     1      43.908 131.525  20.875  1.00  0.00     0.076 A 
ATOM     11  C   UNL     1      43.139 131.871  21.997  1.00  0.00     0.029 A 
ATOM     12  C   UNL     1      43.436 131.860  19.579  1.00  0.00     0.089 A 
ATOM     13  C   UNL     1      41.941 132.573  21.849  1.00  0.00     0.002 A 
ATOM     14  C   UNL     1      42.239 132.584  19.449  1.00  0.00     0.019 A 
ATOM     15  C   UNL     1      41.496 132.936  20.578  1.00  0.00     0.001 A 
BRANCH  12  16
ATOM     16  C   UNL     1      44.163 131.464  18.353  1.00  0.00     0.287 A 
ATOM     17  N   UNL     1      43.882 131.972  17.125  1.00  0.00    -0.236 N 
ATOM     18  N   UNL     1      45.203 130.592  18.335  1.00  0.00    -0.236 N 
ATOM     19  C   UNL     1      44.797 131.407  16.321  1.00  0.00     0.172 A 
ATOM     20  C   UNL     1      45.591 130.572  17.051  1.00  0.00     0.172 A 
ATOM     21  C   UNL     1      44.998 131.616  14.959  1.00  0.00     0.056 A 
ATOM     22  C   UNL     1      46.650 129.871  16.478  1.00  0.00     0.056 A 
ATOM     23  C   UNL     1      46.059 130.922  14.345  1.00  0.00     0.005 A 
ATOM     24  C   UNL     1      46.880 130.053  15.100  1.00  0.00     0.005 A 
ATOM     25  H   UNL     1      43.154 132.675  16.867  1.00  0.00     0.312 HD
ATOM     26  H   UNL     1      45.616 130.060  19.134  1.00  0.00     0.312 HD
ENDBRANCH  12  16
ENDBRANCH   9  10
BRANCH   9  27
ATOM     27  N   UNL     1      46.343 131.566  20.723  1.00  0.00    -0.240 NA
ATOM     28  H   UNL     1      47.153 130.918  20.851  1.00  0.00     0.144 HD
ATOM     29  H   UNL     1      46.277 131.805  19.708  1.00  0.00     0.144 HD
ENDBRANCH   9  27
ENDBRANCH   1   9
TORSDOF 7
ENDMDL
MODEL 3
REMARK VINA RESULT:      -6.4      1.566      2.123
REMARK SMILES CC(=O)/C(C)=C/C(=O)N(N)c1ccccc1-c1[nH]c2ccccc2[nH+]1
REMARK SMILES IDX 7 1 8 2 6 3 4 4 5 5 2 6 3 7 1 8 9 9 11 10 12 11 16 12 13 13
REMARK SMILES IDX 15 14 14 15 17 16 18 17 25 18 19 19 24 20 20 21 23 22 21 23
REMARK SMILES IDX 22 24 10 27
REMARK H PARENT 18 25 25 26 10 28 10 29
ROOT
ATOM      1  C   UNL     1      45.602 131.382  20.969  1.00  0.00     0.265 C 
ATOM      2  O   UNL     1      46.224 132.430  21.292  1.00  0.00    -0.268 OA
ENDROOT
BRANCH   1   3
ATOM      3  C   UNL     1      45.269 130.373  22.003  1.00  0.00     0.080 C 
BRANCH   3   4
ATOM      4  C   UNL     1      44.171 130.400  22.792  1.00  0.00    -0.003 C 
ATOM      5  C   UNL     1      43.613 131.700  23.321  1.00  0.00     0.048 C 
BRANCH   4   6
ATOM      6  C   UNL     1      43.485 129.133  23.171  1.00  0.00     0.155 C 
ATOM      7  O   UNL     1      44.016 128.028  22.877  1.00  0.00    -0.295 OA
ATOM      8  C   UNL     1      42.164 129.117  23.884  1.00  0.00     0.093 C 
ENDBRANCH   4   6
ENDBRANCH   3   4
ENDBRANCH   1   3
BRANCH   1   9
ATOM      9  N   UNL     1      45.272 131.157  19.580  1.00  0.00    -0.244 N 
BRANCH   9  10
ATOM     10  C   UNL     1      43.996 131.533  19.028  1.00  0.00     0.076 A 
ATOM     11  C   UNL     1      42.945 131.840  19.906  1.00  0.00     0.029 A 
ATOM     12  C   UNL     1      43.784 131.634  17.629  1.00  0.00     0.089 A 
ATOM     13  C   UNL     1      41.714 132.280  19.416  1.00  0.00     0.002 A 
ATOM     14  C   UNL     1      42.545 132.097  17.153  1.00  0.00     0.019 A 
ATOM     15  C   UNL     1      41.518 132.416  18.042  1.00  0.00     0.001 A 
BRANCH  12  16
ATOM     16  C   UNL     1      44.826 131.260  16.648  1.00  0.00     0.287 A 
ATOM     17  N   UNL     1      45.180 129.974  16.391  1.00  0.00    -0.236 N 
ATOM     18  N   UNL     1      45.503 132.154  15.881  1.00  0.00    -0.236 N 
ATOM     19  C   UNL     1      46.094 130.076  15.414  1.00  0.00     0.172 A 
ATOM     20  C   UNL     1      46.291 131.390  15.110  1.00  0.00     0.172 A 
ATOM     21  C   UNL     1      46.754 129.053  14.737  1.00  0.00     0.056 A 
ATOM     22  C   UNL     1      47.170 131.793  14.106  1.00  0.00     0.056 A 
ATOM     23  C   UNL     1      47.652 129.422  13.717  1.00  0.00     0.005 A 
ATOM     24  C   UNL     1      47.860 130.785  13.404  1.00  0.00     0.005 A 
ATOM     25  H   UNL     1      44.797 129.101  16.819  1.00  0.00     0.312 HD
ATOM     26  H   UNL     1      45.427 133.195  15.881  1.00  0.00     0.312 HD
ENDBRANCH  12  16
ENDBRANCH   9  10
BRANCH   9  27
ATOM     27  N   UNL     1      46.177 130.474  18.747  1.00  0.00    -0.240 NA
ATOM     28  H   UNL     1      46.045 129.450  18.903  1.00  0.00     0.144 HD
ATOM     29  H   UNL     1      45.920 130.685  17.756  1.00  0.00     0.144 HD
ENDBRANCH   9  27
ENDBRANCH   1   9
TORSDOF 7
ENDMDL
MODEL 4
REMARK VINA RESULT:      -6.0      1.865      2.342
REMARK SMILES CC(=O)/C(C)=C/C(=O)N(N)c1ccccc1-c1[nH]c2ccccc2[nH+]1
REMARK SMILES IDX 7 1 8 2 6 3 4 4 5 5 2 6 3 7 1 8 9 9 11 10 12 11 16 12 13 13
REMARK SMILES IDX 15 14 14 15 17 16 18 17 25 18 19 19 24 20 20 21 23 22 21 23
REMARK SMILES IDX 22 24 10 27
REMARK H PARENT 18 25 25 26 10 28 10 29
ROOT
ATOM      1  C   UNL     1      45.614 131.624  20.892  1.00  0.00     0.265 C 
ATOM      2  O   UNL     1      46.752 132.141  21.061  1.00  0.00    -0.268 OA
ENDROOT
BRANCH   1   3
ATOM      3  C   UNL     1      44.723 131.404  22.057  1.00  0.00     0.080 C 
BRANCH   3   4
ATOM      4  C   UNL     1      44.524 130.215  22.670  1.00  0.00    -0.003 C 
ATOM      5  C   UNL     1      45.007 128.921  22.056  1.00  0.00     0.048 C 
BRANCH   4   6
ATOM      6  C   UNL     1      43.804 130.150  23.973  1.00  0.00     0.155 C 
ATOM      7  O   UNL     1      43.587 131.213  24.614  1.00  0.00    -0.295 OA
ATOM      8  C   UNL     1      43.336 128.855  24.568  1.00  0.00     0.093 C 
ENDBRANCH   4   6
ENDBRANCH   3   4
ENDBRANCH   1   3
BRANCH   1   9
ATOM      9  N   UNL     1      45.219 131.203  19.567  1.00  0.00    -0.244 N 
BRANCH   9  10
ATOM     10  C   UNL     1      43.949 131.569  18.996  1.00  0.00     0.076 A 
ATOM     11  C   UNL     1      42.889 131.890  19.858  1.00  0.00     0.029 A 
ATOM     12  C   UNL     1      43.751 131.648  17.592  1.00  0.00     0.089 A 
ATOM     13  C   UNL     1      41.663 132.322  19.347  1.00  0.00     0.002 A 
ATOM     14  C   UNL     1      42.518 132.103  17.097  1.00  0.00     0.019 A 
ATOM     15  C   UNL     1      41.481 132.436  17.970  1.00  0.00     0.001 A 
BRANCH  12  16
ATOM     16  C   UNL     1      44.804 131.259  16.629  1.00  0.00     0.287 A 
ATOM     17  N   UNL     1      45.158 129.969  16.394  1.00  0.00    -0.236 N 
ATOM     18  N   UNL     1      45.491 132.141  15.857  1.00  0.00    -0.236 N 
ATOM     19  C   UNL     1      46.083 130.055  15.426  1.00  0.00     0.172 A 
ATOM     20  C   UNL     1      46.286 131.365  15.105  1.00  0.00     0.172 A 
ATOM     21  C   UNL     1      46.749 129.022  14.771  1.00  0.00     0.056 A 
ATOM     22  C   UNL     1      47.177 131.752  14.106  1.00  0.00     0.056 A 
ATOM     23  C   UNL     1      47.659 129.375  13.756  1.00  0.00     0.005 A 
ATOM     24  C   UNL     1      47.873 130.734  13.425  1.00  0.00     0.005 A 
ATOM     25  H   UNL     1      44.770 129.103  16.830  1.00  0.00     0.312 HD
ATOM     26  H   UNL     1      45.417 133.182  15.842  1.00  0.00     0.312 HD
ENDBRANCH  12  16
ENDBRANCH   9  10
BRANCH   9  27
ATOM     27  N   UNL     1      46.049 130.338  18.831  1.00  0.00    -0.240 NA
ATOM     28  H   UNL     1      45.436 129.679  18.301  1.00  0.00     0.144 HD
ATOM     29  H   UNL     1      46.578 130.915  18.138  1.00  0.00     0.144 HD
ENDBRANCH   9  27
ENDBRANCH   1   9
TORSDOF 7
ENDMDL
MODEL 5
REMARK VINA RESULT:      -5.9      1.603      2.475
REMARK SMILES CC(=O)/C(C)=C/C(=O)N(N)c1ccccc1-c1[nH]c2ccccc2[nH+]1
REMARK SMILES IDX 7 1 8 2 6 3 4 4 5 5 2 6 3 7 1 8 9 9 11 10 12 11 16 12 13 13
REMARK SMILES IDX 15 14 14 15 17 16 18 17 25 18 19 19 24 20 20 21 23 22 21 23
REMARK SMILES IDX 22 24 10 27
REMARK H PARENT 18 25 25 26 10 28 10 29
ROOT
ATOM      1  C   UNL     1      45.784 131.719  21.045  1.00  0.00     0.265 C 
ATOM      2  O   UNL     1      46.754 132.524  21.077  1.00  0.00    -0.268 OA
ENDROOT
BRANCH   1   3
ATOM      3  C   UNL     1      45.238 131.171  22.310  1.00  0.00     0.080 C 
BRANCH   3   4
ATOM      4  C   UNL     1      44.577 129.996  22.427  1.00  0.00    -0.003 C 
ATOM      5  C   UNL     1      45.135 128.717  21.850  1.00  0.00     0.048 C 
BRANCH   4   6
ATOM      6  C   UNL     1      43.262 129.939  23.126  1.00  0.00     0.155 C 
ATOM      7  O   UNL     1      42.670 128.832  23.244  1.00  0.00    -0.295 OA
ATOM      8  C   UNL     1      42.597 131.162  23.687  1.00  0.00     0.093 C 
ENDBRANCH   4   6
ENDBRANCH   3   4
ENDBRANCH   1   3
BRANCH   1   9
ATOM      9  N   UNL     1      45.256 131.300  19.766  1.00  0.00    -0.244 N 
BRANCH   9  10
ATOM     10  C   UNL     1      43.938 131.678  19.324  1.00  0.00     0.076 A 
ATOM     11  C   UNL     1      42.978 132.028  20.286  1.00  0.00     0.029 A 
ATOM     12  C   UNL     1      43.596 131.738  17.948  1.00  0.00     0.089 A 
ATOM     13  C   UNL     1      41.712 132.470  19.899  1.00  0.00     0.002 A 
ATOM     14  C   UNL     1      42.325 132.205  17.575  1.00  0.00     0.019 A 
ATOM     15  C   UNL     1      41.389 132.567  18.546  1.00  0.00     0.001 A 
BRANCH  12  16
ATOM     16  C   UNL     1      44.538 131.318  16.887  1.00  0.00     0.287 A 
ATOM     17  N   UNL     1      45.255 132.195  16.138  1.00  0.00    -0.236 N 
ATOM     18  N   UNL     1      44.810 130.023  16.583  1.00  0.00    -0.236 N 
ATOM     19  C   UNL     1      46.014 131.412  15.356  1.00  0.00     0.172 A 
ATOM     20  C   UNL     1      45.742 130.102  15.621  1.00  0.00     0.172 A 
ATOM     21  C   UNL     1      46.978 131.793  14.426  1.00  0.00     0.056 A 
ATOM     22  C   UNL     1      46.408 129.063  14.974  1.00  0.00     0.056 A 
ATOM     23  C   UNL     1      47.670 130.770  13.750  1.00  0.00     0.005 A 
ATOM     24  C   UNL     1      47.386 129.411  14.022  1.00  0.00     0.005 A 
ATOM     25  H   UNL     1      45.254 133.238  16.188  1.00  0.00     0.312 HD
ATOM     26  H   UNL     1      44.397 129.159  17.000  1.00  0.00     0.312 HD
ENDBRANCH  12  16
ENDBRANCH   9  10
BRANCH   9  27
ATOM     27  N   UNL     1      46.001 130.427  18.953  1.00  0.00    -0.240 NA
ATOM     28  H   UNL     1      46.992 130.758  18.952  1.00  0.00     0.144 HD
ATOM     29  H   UNL     1      45.977 129.480  19.395  1.00  0.00     0.144 HD
ENDBRANCH   9  27
ENDBRANCH   1   9
TORSDOF 7
ENDMDL
MODEL 6
REMARK VINA RESULT:      -5.5      0.954      1.556
REMARK SMILES CC(=O)/C(C)=C/C(=O)N(N)c1ccccc1-c1[nH]c2ccccc2[nH+]1
REMARK SMILES IDX 7 1 8 2 6 3 4 4 5 5 2 6 3 7 1 8 9 9 11 10 12 11 16 12 13 13
REMARK SMILES IDX 15 14 14 15 17 16 18 17 25 18 19 19 24 20 20 21 23 22 21 23
REMARK SMILES IDX 22 24 10 27
REMARK H PARENT 18 25 25 26 10 28 10 29
ROOT
ATOM      1  C   UNL     1      45.460 129.232  21.067  1.00  0.00     0.265 C 
ATOM      2  O   UNL     1      45.902 128.384  20.245  1.00  0.00    -0.268 OA
ENDROOT
BRANCH   1   3
ATOM      3  C   UNL     1      44.949 128.784  22.386  1.00  0.00     0.080 C 
BRANCH   3   4
ATOM      4  C   UNL     1      44.863 127.496  22.790  1.00  0.00    -0.003 C 
ATOM      5  C   UNL     1      43.586 126.705  22.631  1.00  0.00     0.048 C 
BRANCH   4   6
ATOM      6  C   UNL     1      46.034 126.824  23.420  1.00  0.00     0.155 C 
ATOM      7  O   UNL     1      46.318 127.071  24.623  1.00  0.00    -0.295 OA
ATOM      8  C   UNL     1      46.909 125.865  22.667  1.00  0.00     0.093 C 
ENDBRANCH   4   6
ENDBRANCH   3   4
ENDBRANCH   1   3
BRANCH   1   9
ATOM      9  N   UNL     1      45.406 130.625  20.686  1.00  0.00    -0.244 N 
BRANCH   9  10
ATOM     10  C   UNL     1      44.158 131.312  20.478  1.00  0.00     0.076 A 
ATOM     11  C   UNL     1      43.360 131.612  21.593  1.00  0.00     0.029 A 
ATOM     12  C   UNL     1      43.732 131.723  19.188  1.00  0.00     0.089 A 
ATOM     13  C   UNL     1      42.179 132.342  21.446  1.00  0.00     0.002 A 
ATOM     14  C   UNL     1      42.552 132.474  19.061  1.00  0.00     0.019 A 
ATOM     15  C   UNL     1      41.780 132.779  20.183  1.00  0.00     0.001 A 
BRANCH  12  16
ATOM     16  C   UNL     1      44.491 131.380  17.966  1.00  0.00     0.287 A 
ATOM     17  N   UNL     1      44.862 132.299  17.037  1.00  0.00    -0.236 N 
ATOM     18  N   UNL     1      44.927 130.128  17.669  1.00  0.00    -0.236 N 
ATOM     19  C   UNL     1      45.571 131.593  16.143  1.00  0.00     0.172 A 
ATOM     20  C   UNL     1      45.607 130.283  16.523  1.00  0.00     0.172 A 
ATOM     21  C   UNL     1      46.231 132.051  15.006  1.00  0.00     0.056 A 
ATOM     22  C   UNL     1      46.302 129.321  15.793  1.00  0.00     0.056 A 
ATOM     23  C   UNL     1      46.942 131.107  14.242  1.00  0.00     0.005 A 
ATOM     24  C   UNL     1      46.977 129.747  14.632  1.00  0.00     0.005 A 
ATOM     25  H   UNL     1      44.679 133.328  17.038  1.00  0.00     0.312 HD
ATOM     26  H   UNL     1      44.778 129.246  18.207  1.00  0.00     0.312 HD
ENDBRANCH  12  16
ENDBRANCH   9  10
BRANCH   9  27
ATOM     27  N   UNL     1      46.598 131.324  20.420  1.00  0.00    -0.240 NA
ATOM     28  H   UNL     1      46.596 132.193  21.000  1.00  0.00     0.144 HD
ATOM     29  H   UNL     1      47.396 130.727  20.735  1.00  0.00     0.144 HD
ENDBRANCH   9  27
ENDBRANCH   1   9
TORSDOF 7
ENDMDL
MODEL 7
REMARK VINA RESULT:      -5.5      1.427      2.149
REMARK SMILES CC(=O)/C(C)=C/C(=O)N(N)c1ccccc1-c1[nH]c2ccccc2[nH+]1
REMARK SMILES IDX 7 1 8 2 6 3 4 4 5 5 2 6 3 7 1 8 9 9 11 10 12 11 16 12 13 13
REMARK SMILES IDX 15 14 14 15 17 16 18 17 25 18 19 19 24 20 20 21 23 22 21 23
REMARK SMILES IDX 22 24 10 27
REMARK H PARENT 18 25 25 26 10 28 10 29
ROOT
ATOM      1  C   UNL     1      45.364 130.492  21.131  1.00  0.00     0.265 C 
ATOM      2  O   UNL     1      45.690 129.278  21.240  1.00  0.00    -0.268 OA
ENDROOT
BRANCH   1   3
ATOM      3  C   UNL     1      45.131 131.305  22.349  1.00  0.00     0.080 C 
BRANCH   3   4
ATOM      4  C   UNL     1      44.214 131.030  23.305  1.00  0.00    -0.003 C 
ATOM      5  C   UNL     1      43.750 132.086  24.279  1.00  0.00     0.048 C 
BRANCH   4   6
ATOM      6  C   UNL     1      43.644 129.658  23.428  1.00  0.00     0.155 C 
ATOM      7  O   UNL     1      42.543 129.393  22.875  1.00  0.00    -0.295 OA
ATOM      8  C   UNL     1      44.328 128.572  24.205  1.00  0.00     0.093 C 
ENDBRANCH   4   6
ENDBRANCH   3   4
ENDBRANCH   1   3
BRANCH   1   9
ATOM      9  N   UNL     1      45.169 131.054  19.815  1.00  0.00    -0.244 N 
BRANCH   9  10
ATOM     10  C   UNL     1      43.890 131.556  19.381  1.00  0.00     0.076 A 
ATOM     11  C   UNL     1      42.942 131.915  20.351  1.00  0.00     0.029 A 
ATOM     12  C   UNL     1      43.579 131.729  18.007  1.00  0.00     0.089 A 
ATOM     13  C   UNL     1      41.719 132.474  19.977  1.00  0.00     0.002 A 
ATOM     14  C   UNL     1      42.351 132.311  17.649  1.00  0.00     0.019 A 
ATOM     15  C   UNL     1      41.427 132.680  18.629  1.00  0.00     0.001 A 
BRANCH  12  16
ATOM     16  C   UNL     1      44.505 131.308  16.934  1.00  0.00     0.287 A 
ATOM     17  N   UNL     1      45.209 132.184  16.171  1.00  0.00    -0.236 N 
ATOM     18  N   UNL     1      44.776 130.012  16.629  1.00  0.00    -0.236 N 
ATOM     19  C   UNL     1      45.958 131.401  15.380  1.00  0.00     0.172 A 
ATOM     20  C   UNL     1      45.694 130.092  15.654  1.00  0.00     0.172 A 
ATOM     21  C   UNL     1      46.907 131.783  14.434  1.00  0.00     0.056 A 
ATOM     22  C   UNL     1      46.353 129.053  15.000  1.00  0.00     0.056 A 
ATOM     23  C   UNL     1      47.592 130.759  13.751  1.00  0.00     0.005 A 
ATOM     24  C   UNL     1      47.315 129.400  14.032  1.00  0.00     0.005 A 
ATOM     25  H   UNL     1      45.206 133.228  16.218  1.00  0.00     0.312 HD
ATOM     26  H   UNL     1      44.373 129.149  17.055  1.00  0.00     0.312 HD
ENDBRANCH  12  16
ENDBRANCH   9  10
BRANCH   9  27
ATOM     27  N   UNL     1      46.224 131.042  18.884  1.00  0.00    -0.240 NA
ATOM     28  H   UNL     1      46.793 131.905  19.034  1.00  0.00     0.144 HD
ATOM     29  H   UNL     1      46.828 130.216  19.098  1.00  0.00     0.144 HD
ENDBRANCH   9  27
ENDBRANCH   1   9
TORSDOF 7
ENDMDL
MODEL 8
REMARK VINA RESULT:      -5.2      1.648      2.577
REMARK SMILES CC(=O)/C(C)=C/C(=O)N(N)c1ccccc1-c1[nH]c2ccccc2[nH+]1
REMARK SMILES IDX 7 1 8 2 6 3 4 4 5 5 2 6 3 7 1 8 9 9 11 10 12 11 16 12 13 13
REMARK SMILES IDX 15 14 14 15 17 16 18 17 25 18 19 19 24 20 20 21 23 22 21 23
REMARK SMILES IDX 22 24 10 27
REMARK H PARENT 18 25 25 26 10 28 10 29
ROOT
ATOM      1  C   UNL     1      45.866 131.753  20.744  1.00  0.00     0.265 C 
ATOM      2  O   UNL     1      47.120 131.842  20.854  1.00  0.00    -0.268 OA
ENDROOT
BRANCH   1   3
ATOM      3  C   UNL     1      44.996 132.169  21.870  1.00  0.00     0.080 C 
BRANCH   3   4
ATOM      4  C   UNL     1      44.593 131.364  22.880  1.00  0.00    -0.003 C 
ATOM      5  C   UNL     1      44.359 131.904  24.271  1.00  0.00     0.048 C 
BRANCH   4   6
ATOM      6  C   UNL     1      44.381 129.908  22.644  1.00  0.00     0.155 C 
ATOM      7  O   UNL     1      45.178 129.278  21.899  1.00  0.00    -0.295 OA
ATOM      8  C   UNL     1      43.235 129.155  23.254  1.00  0.00     0.093 C 
ENDBRANCH   4   6
ENDBRANCH   3   4
ENDBRANCH   1   3
BRANCH   1   9
ATOM      9  N   UNL     1      45.302 131.192  19.538  1.00  0.00    -0.244 N 
BRANCH   9  10
ATOM     10  C   UNL     1      43.995 131.565  19.061  1.00  0.00     0.076 A 
ATOM     11  C   UNL     1      43.002 131.891  19.999  1.00  0.00     0.029 A 
ATOM     12  C   UNL     1      43.695 131.646  17.677  1.00  0.00     0.089 A 
ATOM     13  C   UNL     1      41.745 132.330  19.580  1.00  0.00     0.002 A 
ATOM     14  C   UNL     1      42.431 132.108  17.272  1.00  0.00     0.019 A 
ATOM     15  C   UNL     1      41.463 132.446  18.219  1.00  0.00     0.001 A 
BRANCH  12  16
ATOM     16  C   UNL     1      44.672 131.251  16.639  1.00  0.00     0.287 A 
ATOM     17  N   UNL     1      45.337 132.146  15.863  1.00  0.00    -0.236 N 
ATOM     18  N   UNL     1      45.033 129.966  16.384  1.00  0.00    -0.236 N 
ATOM     19  C   UNL     1      46.154 131.388  15.116  1.00  0.00     0.172 A 
ATOM     20  C   UNL     1      45.967 130.073  15.427  1.00  0.00     0.172 A 
ATOM     21  C   UNL     1      47.099 131.798  14.179  1.00  0.00     0.056 A 
ATOM     22  C   UNL     1      46.706 129.058  14.823  1.00  0.00     0.056 A 
ATOM     23  C   UNL     1      47.864 130.799  13.546  1.00  0.00     0.005 A 
ATOM     24  C   UNL     1      47.668 129.435  13.866  1.00  0.00     0.005 A 
ATOM     25  H   UNL     1      45.267 133.188  15.874  1.00  0.00     0.312 HD
ATOM     26  H   UNL     1      44.674 129.093  16.830  1.00  0.00     0.312 HD
ENDBRANCH  12  16
ENDBRANCH   9  10
BRANCH   9  27
ATOM     27  N   UNL     1      45.996 130.186  18.842  1.00  0.00    -0.240 NA
ATOM     28  H   UNL     1      45.290 129.575  18.372  1.00  0.00     0.144 HD
ATOM     29  H   UNL     1      46.567 130.649  18.098  1.00  0.00     0.144 HD
ENDBRANCH   9  27
ENDBRANCH   1   9
TORSDOF 7
ENDMDL
MODEL 9
REMARK VINA RESULT:      -5.2      2.876      4.292
REMARK SMILES CC(=O)/C(C)=C/C(=O)N(N)c1ccccc1-c1[nH]c2ccccc2[nH+]1
REMARK SMILES IDX 7 1 8 2 6 3 4 4 5 5 2 6 3 7 1 8 9 9 11 10 12 11 16 12 13 13
REMARK SMILES IDX 15 14 14 15 17 16 18 17 25 18 19 19 24 20 20 21 23 22 21 23
REMARK SMILES IDX 22 24 10 27
REMARK H PARENT 18 25 25 26 10 28 10 29
ROOT
ATOM      1  C   UNL     1      46.822 132.189  20.980  1.00  0.00     0.265 C 
ATOM      2  O   UNL     1      48.037 131.910  20.792  1.00  0.00    -0.268 OA
ENDROOT
BRANCH   1   3
ATOM      3  C   UNL     1      46.452 133.448  21.671  1.00  0.00     0.080 C 
BRANCH   3   4
ATOM      4  C   UNL     1      47.209 134.077  22.599  1.00  0.00    -0.003 C 
ATOM      5  C   UNL     1      46.789 134.137  24.048  1.00  0.00     0.048 C 
BRANCH   4   6
ATOM      6  C   UNL     1      48.483 134.744  22.206  1.00  0.00     0.155 C 
ATOM      7  O   UNL     1      49.557 134.413  22.776  1.00  0.00    -0.295 OA
ATOM      8  C   UNL     1      48.537 135.816  21.158  1.00  0.00     0.093 C 
ENDBRANCH   4   6
ENDBRANCH   3   4
ENDBRANCH   1   3
BRANCH   1   9
ATOM      9  N   UNL     1      45.808 131.246  20.566  1.00  0.00    -0.244 N 
BRANCH   9  10
ATOM     10  C   UNL     1      44.442 131.642  20.342  1.00  0.00     0.076 A 
ATOM     11  C   UNL     1      43.629 131.919  21.453  1.00  0.00     0.029 A 
ATOM     12  C   UNL     1      43.908 131.793  19.036  1.00  0.00     0.089 A 
ATOM     13  C   UNL     1      42.322 132.377  21.281  1.00  0.00     0.002 A 
ATOM     14  C   UNL     1      42.597 132.274  18.881  1.00  0.00     0.019 A 
ATOM     15  C   UNL     1      41.809 132.563  19.998  1.00  0.00     0.001 A 
BRANCH  12  16
ATOM     16  C   UNL     1      44.687 131.453  17.826  1.00  0.00     0.287 A 
ATOM     17  N   UNL     1      44.937 132.340  16.828  1.00  0.00    -0.236 N 
ATOM     18  N   UNL     1      45.263 130.242  17.609  1.00  0.00    -0.236 N 
ATOM     19  C   UNL     1      45.713 131.658  15.972  1.00  0.00     0.172 A 
ATOM     20  C   UNL     1      45.906 130.392  16.441  1.00  0.00     0.172 A 
ATOM     21  C   UNL     1      46.302 132.107  14.793  1.00  0.00     0.056 A 
ATOM     22  C   UNL     1      46.700 129.467  15.766  1.00  0.00     0.056 A 
ATOM     23  C   UNL     1      47.110 131.198  14.082  1.00  0.00     0.005 A 
ATOM     24  C   UNL     1      47.307 129.884  14.566  1.00  0.00     0.005 A 
ATOM     25  H   UNL     1      44.636 133.338  16.760  1.00  0.00     0.312 HD
ATOM     26  H   UNL     1      45.223 129.389  18.210  1.00  0.00     0.312 HD
ENDBRANCH  12  16
ENDBRANCH   9  10
BRANCH   9  27
ATOM     27  N   UNL     1      46.126 129.880  20.456  1.00  0.00    -0.240 NA
ATOM     28  H   UNL     1      46.617 129.594  21.333  1.00  0.00     0.144 HD
ATOM     29  H   UNL     1      45.229 129.346  20.400  1.00  0.00     0.144 HD
ENDBRANCH   9  27
ENDBRANCH   1   9
TORSDOF 7
ENDMDL


