MODEL 1
REMARK VINA RESULT:      -8.8      0.000      0.000
REMARK SMILES Cc1[nH+]cnc(O[C@@H](c2ccccc2)[C@@H]2CO2)c1C
REMARK SMILES IDX 7 1 6 2 2 3 3 4 18 5 4 6 5 7 1 8 19 10 8 11 9 12 10 13 14 14
REMARK SMILES IDX 11 15 13 16 12 17 15 18 16 19 17 20
REMARK H PARENT 3 9
ROOT
ATOM      1  O   UNL     1      45.512 131.336  17.296  1.00  0.00    -0.448 OA
ENDROOT
BRANCH   1   2
ATOM      2  C   UNL     1      44.548 131.494  18.302  1.00  0.00     0.335 A 
ATOM      3  C   UNL     1      43.886 131.453  20.626  1.00  0.00     0.108 A 
ATOM      4  N   UNL     1      42.641 131.855  20.243  1.00  0.00    -0.247 N 
ATOM      5  C   UNL     1      44.879 131.234  19.644  1.00  0.00     0.080 A 
ATOM      6  C   UNL     1      42.344 132.077  18.938  1.00  0.00     0.453 A 
ATOM      7  N   UNL     1      43.291 131.903  17.985  1.00  0.00    -0.010 NA
ATOM      8  C   UNL     1      44.169 131.224  22.088  1.00  0.00     0.093 C 
ATOM      9  H   UNL     1      41.889 132.002  20.955  1.00  0.00     0.311 HD
ATOM     10  C   UNL     1      46.275 130.800  20.019  1.00  0.00     0.057 C 
ENDBRANCH   1   2
BRANCH   1  11
ATOM     11  C   UNL     1      45.285 131.666  15.926  1.00  0.00     0.239 C 
BRANCH  11  12
ATOM     12  C   UNL     1      46.328 131.016  15.046  1.00  0.00    -0.005 A 
ATOM     13  C   UNL     1      46.691 129.671  15.242  1.00  0.00     0.007 A 
ATOM     14  C   UNL     1      46.919 131.740  13.996  1.00  0.00     0.007 A 
ATOM     15  C   UNL     1      47.646 129.071  14.415  1.00  0.00     0.000 A 
ATOM     16  C   UNL     1      47.872 131.135  13.172  1.00  0.00     0.000 A 
ATOM     17  C   UNL     1      48.237 129.802  13.381  1.00  0.00     0.000 A 
ENDBRANCH  11  12
BRANCH  11  18
ATOM     18  C   UNL     1      43.897 131.158  15.524  1.00  0.00     0.189 C 
ATOM     19  C   UNL     1      43.621 131.048  14.074  1.00  0.00     0.197 C 
ATOM     20  O   UNL     1      43.159 132.140  14.837  1.00  0.00    -0.369 OA
ENDBRANCH  11  18
ENDBRANCH   1  11
TORSDOF 4
ENDMDL
MODEL 2
REMARK VINA RESULT:      -8.8      0.118      1.118
REMARK SMILES Cc1[nH+]cnc(O[C@@H](c2ccccc2)[C@@H]2CO2)c1C
REMARK SMILES IDX 7 1 6 2 2 3 3 4 18 5 4 6 5 7 1 8 19 10 8 11 9 12 10 13 14 14
REMARK SMILES IDX 11 15 13 16 12 17 15 18 16 19 17 20
REMARK H PARENT 3 9
ROOT
ATOM      1  O   UNL     1      45.412 131.137  17.265  1.00  0.00    -0.448 OA
ENDROOT
BRANCH   1   2
ATOM      2  C   UNL     1      44.495 131.398  18.292  1.00  0.00     0.335 A 
ATOM      3  C   UNL     1      43.921 131.520  20.637  1.00  0.00     0.108 A 
ATOM      4  N   UNL     1      42.681 131.958  20.275  1.00  0.00    -0.247 N 
ATOM      5  C   UNL     1      44.865 131.199  19.635  1.00  0.00     0.080 A 
ATOM      6  C   UNL     1      42.345 132.119  18.970  1.00  0.00     0.453 A 
ATOM      7  N   UNL     1      43.246 131.846  17.996  1.00  0.00    -0.010 NA
ATOM      8  C   UNL     1      44.248 131.363  22.099  1.00  0.00     0.093 C 
ATOM      9  H   UNL     1      41.965 132.181  21.003  1.00  0.00     0.311 HD
ATOM     10  C   UNL     1      46.253 130.722  19.986  1.00  0.00     0.057 C 
ENDBRANCH   1   2
BRANCH   1  11
ATOM     11  C   UNL     1      45.222 131.552  15.912  1.00  0.00     0.239 C 
BRANCH  11  12
ATOM     12  C   UNL     1      46.277 130.944  15.018  1.00  0.00    -0.005 A 
ATOM     13  C   UNL     1      46.885 131.711  14.006  1.00  0.00     0.007 A 
ATOM     14  C   UNL     1      46.689 129.615  15.212  1.00  0.00     0.007 A 
ATOM     15  C   UNL     1      47.872 131.146  13.192  1.00  0.00     0.000 A 
ATOM     16  C   UNL     1      47.676 129.056  14.396  1.00  0.00     0.000 A 
ATOM     17  C   UNL     1      48.267 129.820  13.385  1.00  0.00     0.000 A 
ENDBRANCH  11  12
BRANCH  11  18
ATOM     18  C   UNL     1      43.838 131.088  15.448  1.00  0.00     0.189 C 
ATOM     19  C   UNL     1      43.524 131.258  14.012  1.00  0.00     0.197 C 
ATOM     20  O   UNL     1      43.052 132.161  14.987  1.00  0.00    -0.369 OA
ENDBRANCH  11  18
ENDBRANCH   1  11
TORSDOF 4
ENDMDL
MODEL 3
REMARK VINA RESULT:      -7.5      1.225      1.844
REMARK SMILES Cc1[nH+]cnc(O[C@@H](c2ccccc2)[C@@H]2CO2)c1C
REMARK SMILES IDX 7 1 6 2 2 3 3 4 18 5 4 6 5 7 1 8 19 10 8 11 9 12 10 13 14 14
REMARK SMILES IDX 11 15 13 16 12 17 15 18 16 19 17 20
REMARK H PARENT 3 9
ROOT
ATOM      1  O   UNL     1      44.864 130.741  16.840  1.00  0.00    -0.448 OA
ENDROOT
BRANCH   1   2
ATOM      2  C   UNL     1      44.882 130.993  18.219  1.00  0.00     0.335 A 
ATOM      3  C   UNL     1      43.815 131.772  20.243  1.00  0.00     0.108 A 
ATOM      4  N   UNL     1      44.945 131.434  20.928  1.00  0.00    -0.247 N 
ATOM      5  C   UNL     1      43.766 131.579  18.843  1.00  0.00     0.080 A 
ATOM      6  C   UNL     1      46.015 130.891  20.294  1.00  0.00     0.453 A 
ATOM      7  N   UNL     1      45.976 130.670  18.958  1.00  0.00    -0.010 NA
ATOM      8  C   UNL     1      42.651 132.367  20.991  1.00  0.00     0.093 C 
ATOM      9  H   UNL     1      45.005 131.588  21.960  1.00  0.00     0.311 HD
ATOM     10  C   UNL     1      42.534 131.926  18.044  1.00  0.00     0.057 C 
ENDBRANCH   1   2
BRANCH   1  11
ATOM     11  C   UNL     1      45.374 131.649  15.864  1.00  0.00     0.239 C 
BRANCH  11  12
ATOM     12  C   UNL     1      46.411 130.971  15.000  1.00  0.00    -0.005 A 
ATOM     13  C   UNL     1      46.781 129.635  15.242  1.00  0.00     0.007 A 
ATOM     14  C   UNL     1      46.990 131.657  13.919  1.00  0.00     0.007 A 
ATOM     15  C   UNL     1      47.730 129.008  14.430  1.00  0.00     0.000 A 
ATOM     16  C   UNL     1      47.939 131.025  13.109  1.00  0.00     0.000 A 
ATOM     17  C   UNL     1      48.309 129.702  13.364  1.00  0.00     0.000 A 
ENDBRANCH  11  12
BRANCH  11  18
ATOM     18  C   UNL     1      44.213 132.123  14.984  1.00  0.00     0.189 C 
ATOM     19  C   UNL     1      43.283 131.083  14.489  1.00  0.00     0.197 C 
ATOM     20  O   UNL     1      44.306 131.612  13.675  1.00  0.00    -0.369 OA
ENDBRANCH  11  18
ENDBRANCH   1  11
TORSDOF 4
ENDMDL
MODEL 4
REMARK VINA RESULT:      -7.4      1.187      2.129
REMARK SMILES Cc1[nH+]cnc(O[C@@H](c2ccccc2)[C@@H]2CO2)c1C
REMARK SMILES IDX 7 1 6 2 2 3 3 4 18 5 4 6 5 7 1 8 19 10 8 11 9 12 10 13 14 14
REMARK SMILES IDX 11 15 13 16 12 17 15 18 16 19 17 20
REMARK H PARENT 3 9
ROOT
ATOM      1  O   UNL     1      45.071 130.644  17.199  1.00  0.00    -0.448 OA
ENDROOT
BRANCH   1   2
ATOM      2  C   UNL     1      45.001 131.009  18.551  1.00  0.00     0.335 A 
ATOM      3  C   UNL     1      43.774 131.846  20.458  1.00  0.00     0.108 A 
ATOM      4  N   UNL     1      44.897 131.674  21.212  1.00  0.00    -0.247 N 
ATOM      5  C   UNL     1      43.809 131.536  19.079  1.00  0.00     0.080 A 
ATOM      6  C   UNL     1      46.040 131.184  20.670  1.00  0.00     0.453 A 
ATOM      7  N   UNL     1      46.084 130.853  19.357  1.00  0.00    -0.010 NA
ATOM      8  C   UNL     1      42.527 132.387  21.106  1.00  0.00     0.093 C 
ATOM      9  H   UNL     1      44.893 131.917  22.229  1.00  0.00     0.311 HD
ATOM     10  C   UNL     1      42.589 131.698  18.205  1.00  0.00     0.057 C 
ENDBRANCH   1   2
BRANCH   1  11
ATOM     11  C   UNL     1      45.338 131.568  16.144  1.00  0.00     0.239 C 
BRANCH  11  12
ATOM     12  C   UNL     1      46.318 130.976  15.158  1.00  0.00    -0.005 A 
ATOM     13  C   UNL     1      46.887 131.775  14.148  1.00  0.00     0.007 A 
ATOM     14  C   UNL     1      46.700 129.628  15.262  1.00  0.00     0.007 A 
ATOM     15  C   UNL     1      47.805 131.225  13.248  1.00  0.00     0.000 A 
ATOM     16  C   UNL     1      47.618 129.083  14.360  1.00  0.00     0.000 A 
ATOM     17  C   UNL     1      48.169 129.880  13.352  1.00  0.00     0.000 A 
ENDBRANCH  11  12
BRANCH  11  18
ATOM     18  C   UNL     1      44.024 131.882  15.424  1.00  0.00     0.189 C 
ATOM     19  C   UNL     1      43.490 130.836  14.522  1.00  0.00     0.197 C 
ATOM     20  O   UNL     1      44.194 131.953  14.028  1.00  0.00    -0.369 OA
ENDBRANCH  11  18
ENDBRANCH   1  11
TORSDOF 4
ENDMDL
MODEL 5
REMARK VINA RESULT:      -7.1      2.591      3.974
REMARK SMILES Cc1[nH+]cnc(O[C@@H](c2ccccc2)[C@@H]2CO2)c1C
REMARK SMILES IDX 7 1 6 2 2 3 3 4 18 5 4 6 5 7 1 8 19 10 8 11 9 12 10 13 14 14
REMARK SMILES IDX 11 15 13 16 12 17 15 18 16 19 17 20
REMARK H PARENT 3 9
ROOT
ATOM      1  O   UNL     1      44.993 131.635  20.556  1.00  0.00    -0.448 OA
ENDROOT
BRANCH   1   2
ATOM      2  C   UNL     1      44.455 131.119  21.743  1.00  0.00     0.335 A 
ATOM      3  C   UNL     1      44.189 129.328  23.344  1.00  0.00     0.108 A 
ATOM      4  N   UNL     1      43.414 130.161  24.096  1.00  0.00    -0.247 N 
ATOM      5  C   UNL     1      44.716 129.788  22.116  1.00  0.00     0.080 A 
ATOM      6  C   UNL     1      43.161 131.434  23.700  1.00  0.00     0.453 A 
ATOM      7  N   UNL     1      43.682 131.903  22.540  1.00  0.00    -0.010 NA
ATOM      8  C   UNL     1      44.446 127.925  23.829  1.00  0.00     0.093 C 
ATOM      9  H   UNL     1      43.000 129.830  24.997  1.00  0.00     0.311 HD
ATOM     10  C   UNL     1      45.589 128.908  21.255  1.00  0.00     0.057 C 
ENDBRANCH   1   2
BRANCH   1  11
ATOM     11  C   UNL     1      44.198 132.095  19.463  1.00  0.00     0.239 C 
BRANCH  11  12
ATOM     12  C   UNL     1      44.650 131.452  18.173  1.00  0.00    -0.005 A 
ATOM     13  C   UNL     1      45.716 130.533  18.166  1.00  0.00     0.007 A 
ATOM     14  C   UNL     1      43.984 131.737  16.968  1.00  0.00     0.007 A 
ATOM     15  C   UNL     1      46.120 129.930  16.971  1.00  0.00     0.000 A 
ATOM     16  C   UNL     1      44.392 131.132  15.776  1.00  0.00     0.000 A 
ATOM     17  C   UNL     1      45.460 130.229  15.777  1.00  0.00     0.000 A 
ENDBRANCH  11  12
BRANCH  11  18
ATOM     18  C   UNL     1      42.737 131.720  19.729  1.00  0.00     0.189 C 
ATOM     19  C   UNL     1      41.717 132.355  18.864  1.00  0.00     0.197 C 
ATOM     20  O   UNL     1      41.984 132.826  20.166  1.00  0.00    -0.369 OA
ENDBRANCH  11  18
ENDBRANCH   1  11
TORSDOF 4
ENDMDL
MODEL 6
REMARK VINA RESULT:      -7.1      2.554      4.001
REMARK SMILES Cc1[nH+]cnc(O[C@@H](c2ccccc2)[C@@H]2CO2)c1C
REMARK SMILES IDX 7 1 6 2 2 3 3 4 18 5 4 6 5 7 1 8 19 10 8 11 9 12 10 13 14 14
REMARK SMILES IDX 11 15 13 16 12 17 15 18 16 19 17 20
REMARK H PARENT 3 9
ROOT
ATOM      1  O   UNL     1      45.110 131.531  20.405  1.00  0.00    -0.448 OA
ENDROOT
BRANCH   1   2
ATOM      2  C   UNL     1      44.609 131.080  21.635  1.00  0.00     0.335 A 
ATOM      3  C   UNL     1      44.317 129.349  23.295  1.00  0.00     0.108 A 
ATOM      4  N   UNL     1      43.646 130.251  24.068  1.00  0.00    -0.247 N 
ATOM      5  C   UNL     1      44.800 129.743  22.026  1.00  0.00     0.080 A 
ATOM      6  C   UNL     1      43.458 131.529  23.654  1.00  0.00     0.453 A 
ATOM      7  N   UNL     1      43.940 131.934  22.454  1.00  0.00    -0.010 NA
ATOM      8  C   UNL     1      44.505 127.942  23.801  1.00  0.00     0.093 C 
ATOM      9  H   UNL     1      43.265 129.969  25.000  1.00  0.00     0.311 HD
ATOM     10  C   UNL     1      45.558 128.785  21.140  1.00  0.00     0.057 C 
ENDBRANCH   1   2
BRANCH   1  11
ATOM     11  C   UNL     1      44.284 132.013  19.345  1.00  0.00     0.239 C 
BRANCH  11  12
ATOM     12  C   UNL     1      44.674 131.368  18.036  1.00  0.00    -0.005 A 
ATOM     13  C   UNL     1      43.988 131.687  16.849  1.00  0.00     0.007 A 
ATOM     14  C   UNL     1      45.752 130.468  17.983  1.00  0.00     0.007 A 
ATOM     15  C   UNL     1      44.364 131.098  15.637  1.00  0.00     0.000 A 
ATOM     16  C   UNL     1      46.123 129.882  16.770  1.00  0.00     0.000 A 
ATOM     17  C   UNL     1      45.430 130.195  15.597  1.00  0.00     0.000 A 
ENDBRANCH  11  12
BRANCH  11  18
ATOM     18  C   UNL     1      42.827 131.667  19.664  1.00  0.00     0.189 C 
ATOM     19  C   UNL     1      41.786 132.377  18.886  1.00  0.00     0.197 C 
ATOM     20  O   UNL     1      42.131 132.769  20.196  1.00  0.00    -0.369 OA
ENDBRANCH  11  18
ENDBRANCH   1  11
TORSDOF 4
ENDMDL
MODEL 7
REMARK VINA RESULT:      -6.5      3.320      7.427
REMARK SMILES Cc1[nH+]cnc(O[C@@H](c2ccccc2)[C@@H]2CO2)c1C
REMARK SMILES IDX 7 1 6 2 2 3 3 4 18 5 4 6 5 7 1 8 19 10 8 11 9 12 10 13 14 14
REMARK SMILES IDX 11 15 13 16 12 17 15 18 16 19 17 20
REMARK H PARENT 3 9
ROOT
ATOM      1  O   UNL     1      44.439 131.738  21.946  1.00  0.00    -0.448 OA
ENDROOT
BRANCH   1   2
ATOM      2  C   UNL     1      43.802 131.917  20.710  1.00  0.00     0.335 A 
ATOM      3  C   UNL     1      43.724 131.650  18.309  1.00  0.00     0.108 A 
ATOM      4  N   UNL     1      42.501 132.252  18.316  1.00  0.00    -0.247 N 
ATOM      5  C   UNL     1      44.427 131.489  19.525  1.00  0.00     0.080 A 
ATOM      6  C   UNL     1      41.932 132.675  19.473  1.00  0.00     0.453 A 
ATOM      7  N   UNL     1      42.576 132.502  20.652  1.00  0.00    -0.010 NA
ATOM      8  C   UNL     1      44.312 131.192  17.000  1.00  0.00     0.093 C 
ATOM      9  H   UNL     1      41.977 132.396  17.423  1.00  0.00     0.311 HD
ATOM     10  C   UNL     1      45.779 130.819  19.570  1.00  0.00     0.057 C 
ENDBRANCH   1   2
BRANCH   1  11
ATOM     11  C   UNL     1      43.747 131.411  23.151  1.00  0.00     0.239 C 
BRANCH  11  12
ATOM     12  C   UNL     1      43.691 129.913  23.339  1.00  0.00    -0.005 A 
ATOM     13  C   UNL     1      42.686 129.330  24.134  1.00  0.00     0.007 A 
ATOM     14  C   UNL     1      44.620 129.082  22.690  1.00  0.00     0.007 A 
ATOM     15  C   UNL     1      42.630 127.941  24.292  1.00  0.00     0.000 A 
ATOM     16  C   UNL     1      44.559 127.695  22.851  1.00  0.00     0.000 A 
ATOM     17  C   UNL     1      43.566 127.125  23.652  1.00  0.00     0.000 A 
ENDBRANCH  11  12
BRANCH  11  18
ATOM     18  C   UNL     1      44.495 132.041  24.330  1.00  0.00     0.189 C 
ATOM     19  C   UNL     1      44.200 133.461  24.625  1.00  0.00     0.197 C 
ATOM     20  O   UNL     1      45.355 133.074  23.914  1.00  0.00    -0.369 OA
ENDBRANCH  11  18
ENDBRANCH   1  11
TORSDOF 4
ENDMDL
MODEL 8
REMARK VINA RESULT:      -6.3      2.646      4.148
REMARK SMILES Cc1[nH+]cnc(O[C@@H](c2ccccc2)[C@@H]2CO2)c1C
REMARK SMILES IDX 7 1 6 2 2 3 3 4 18 5 4 6 5 7 1 8 19 10 8 11 9 12 10 13 14 14
REMARK SMILES IDX 11 15 13 16 12 17 15 18 16 19 17 20
REMARK H PARENT 3 9
ROOT
ATOM      1  O   UNL     1      45.161 131.787  20.497  1.00  0.00    -0.448 OA
ENDROOT
BRANCH   1   2
ATOM      2  C   UNL     1      44.976 130.672  21.327  1.00  0.00     0.335 A 
ATOM      3  C   UNL     1      44.082 129.643  23.323  1.00  0.00     0.108 A 
ATOM      4  N   UNL     1      44.602 128.455  22.902  1.00  0.00    -0.247 N 
ATOM      5  C   UNL     1      44.283 130.806  22.543  1.00  0.00     0.080 A 
ATOM      6  C   UNL     1      45.287 128.361  21.734  1.00  0.00     0.453 A 
ATOM      7  N   UNL     1      45.463 129.458  20.958  1.00  0.00    -0.010 NA
ATOM      8  C   UNL     1      43.325 129.696  24.624  1.00  0.00     0.093 C 
ATOM      9  H   UNL     1      44.480 127.591  23.477  1.00  0.00     0.311 HD
ATOM     10  C   UNL     1      43.716 132.141  22.960  1.00  0.00     0.057 C 
ENDBRANCH   1   2
BRANCH   1  11
ATOM     11  C   UNL     1      44.282 132.128  19.426  1.00  0.00     0.239 C 
BRANCH  11  12
ATOM     12  C   UNL     1      44.711 131.443  18.150  1.00  0.00    -0.005 A 
ATOM     13  C   UNL     1      44.029 131.685  16.943  1.00  0.00     0.007 A 
ATOM     14  C   UNL     1      45.823 130.583  18.147  1.00  0.00     0.007 A 
ATOM     15  C   UNL     1      44.440 131.059  15.762  1.00  0.00     0.000 A 
ATOM     16  C   UNL     1      46.230 129.960  16.964  1.00  0.00     0.000 A 
ATOM     17  C   UNL     1      45.539 130.196  15.772  1.00  0.00     0.000 A 
ENDBRANCH  11  12
BRANCH  11  18
ATOM     18  C   UNL     1      42.866 131.674  19.792  1.00  0.00     0.189 C 
ATOM     19  C   UNL     1      41.752 132.281  19.028  1.00  0.00     0.197 C 
ATOM     20  O   UNL     1      42.097 132.728  20.320  1.00  0.00    -0.369 OA
ENDBRANCH  11  18
ENDBRANCH   1  11
TORSDOF 4
ENDMDL
MODEL 9
REMARK VINA RESULT:      -6.2      2.486      3.714
REMARK SMILES Cc1[nH+]cnc(O[C@@H](c2ccccc2)[C@@H]2CO2)c1C
REMARK SMILES IDX 7 1 6 2 2 3 3 4 18 5 4 6 5 7 1 8 19 10 8 11 9 12 10 13 14 14
REMARK SMILES IDX 11 15 13 16 12 17 15 18 16 19 17 20
REMARK H PARENT 3 9
ROOT
ATOM      1  O   UNL     1      45.269 131.908  20.306  1.00  0.00    -0.448 OA
ENDROOT
BRANCH   1   2
ATOM      2  C   UNL     1      45.070 130.814  21.160  1.00  0.00     0.335 A 
ATOM      3  C   UNL     1      44.144 129.834  23.166  1.00  0.00     0.108 A 
ATOM      4  N   UNL     1      44.669 128.635  22.781  1.00  0.00    -0.247 N 
ATOM      5  C   UNL     1      44.359 130.977  22.362  1.00  0.00     0.080 A 
ATOM      6  C   UNL     1      45.369 128.513  21.626  1.00  0.00     0.453 A 
ATOM      7  N   UNL     1      45.559 129.590  20.827  1.00  0.00    -0.010 NA
ATOM      8  C   UNL     1      43.369 129.919  24.454  1.00  0.00     0.093 C 
ATOM      9  H   UNL     1      44.536 127.785  23.374  1.00  0.00     0.311 HD
ATOM     10  C   UNL     1      43.789 132.323  22.740  1.00  0.00     0.057 C 
ENDBRANCH   1   2
BRANCH   1  11
ATOM     11  C   UNL     1      44.480 132.157  19.143  1.00  0.00     0.239 C 
BRANCH  11  12
ATOM     12  C   UNL     1      45.146 131.574  17.918  1.00  0.00    -0.005 A 
ATOM     13  C   UNL     1      45.592 130.239  17.913  1.00  0.00     0.007 A 
ATOM     14  C   UNL     1      45.294 132.351  16.756  1.00  0.00     0.007 A 
ATOM     15  C   UNL     1      46.194 129.702  16.771  1.00  0.00     0.000 A 
ATOM     16  C   UNL     1      45.897 131.808  15.617  1.00  0.00     0.000 A 
ATOM     17  C   UNL     1      46.347 130.485  15.624  1.00  0.00     0.000 A 
ENDBRANCH  11  12
BRANCH  11  18
ATOM     18  C   UNL     1      43.109 131.501  19.332  1.00  0.00     0.189 C 
ATOM     19  C   UNL     1      41.978 132.092  18.584  1.00  0.00     0.197 C 
ATOM     20  O   UNL     1      42.192 132.372  19.949  1.00  0.00    -0.369 OA
ENDBRANCH  11  18
ENDBRANCH   1  11
TORSDOF 4
ENDMDL


