REMARK SMILES CC(=O)c1ncc(N2CC[C@@H](C)[C@H](c3cc4cc(F)ccc4[nH]3)[C@H]2F)[n-]1
REMARK SMILES IDX 8 1 9 2 10 3 11 4 12 5 13 6 24 7 25 8 7 9 4 10 5 11 26 12
REMARK SMILES IDX 6 13 2 14 1 15 3 16 14 17 15 18 23 19 16 20 22 21 17 22
REMARK SMILES IDX 21 23 18 24 20 25 19 27
REMARK H PARENT 23 26
ROOT
ATOM      1  N   UNL     1      -0.129   0.109  -2.414  1.00  0.00    -0.398 N 
ATOM      2  C   UNL     1       1.267  -0.203  -2.752  1.00  0.00     0.044 C 
ATOM      3  C   UNL     1       2.210   0.243  -1.631  1.00  0.00     0.010 C 
ATOM      4  C   UNL     1       1.987   1.711  -1.223  1.00  0.00    -0.001 C 
ATOM      5  C   UNL     1       2.549   2.680  -2.277  1.00  0.00     0.008 C 
ATOM      6  C   UNL     1       0.496   1.998  -0.902  1.00  0.00     0.079 C 
ATOM      7  C   UNL     1      -0.467   1.478  -1.994  1.00  0.00     0.213 C 
ATOM      8  F   UNL     1      -0.428   2.313  -3.098  1.00  0.00    -0.239 F 
ENDROOT
BRANCH   1   9
ATOM      9  C   UNL     1      -1.192  -0.799  -2.770  1.00  0.00     0.005 A 
ATOM     10  C   UNL     1      -3.084  -1.746  -2.864  1.00  0.00     0.054 A 
ATOM     11  N   UNL     1      -2.310  -2.462  -3.709  1.00  0.00    -0.365 NA
ATOM     12  N   UNL     1      -2.439  -0.719  -2.272  1.00  0.00    -0.356 NA
ATOM     13  C   UNL     1      -1.110  -1.860  -3.647  1.00  0.00     0.034 A 
BRANCH  10  14
ATOM     14  C   UNL     1      -4.498  -2.059  -2.615  1.00  0.00     0.165 C 
ATOM     15  C   UNL     1      -5.305  -1.235  -1.662  1.00  0.00     0.094 C 
ATOM     16  O   UNL     1      -5.037  -3.032  -3.208  1.00  0.00    -0.294 OA
ENDBRANCH  10  14
ENDBRANCH   1   9
BRANCH   6  17
ATOM     17  C   UNL     1       0.128   1.464   0.467  1.00  0.00     0.023 A 
ATOM     18  C   UNL     1       0.179   2.216   1.640  1.00  0.00     0.032 A 
ATOM     19  N   UNL     1      -0.225   0.181   0.733  1.00  0.00    -0.358 N 
ATOM     20  C   UNL     1      -0.174   1.341   2.643  1.00  0.00     0.003 A 
ATOM     21  C   UNL     1      -0.411   0.123   2.061  1.00  0.00     0.046 A 
ATOM     22  C   UNL     1      -0.291   1.535   4.017  1.00  0.00     0.049 A 
ATOM     23  C   UNL     1      -0.783  -0.989   2.816  1.00  0.00     0.029 A 
ATOM     24  C   UNL     1      -0.668   0.432   4.806  1.00  0.00     0.123 A 
ATOM     25  C   UNL     1      -0.913  -0.825   4.207  1.00  0.00     0.041 A 
ATOM     26  H   UNL     1      -0.325  -0.611   0.061  1.00  0.00     0.166 HD
ATOM     27  F   UNL     1      -0.795   0.576   6.148  1.00  0.00    -0.207 F 
ENDBRANCH   6  17
TORSDOF 3


