MODEL 1
REMARK VINA RESULT:      -6.0      0.000      0.000
REMARK SMILES Cc1ccc(-c2ccc([O-])cc2)c2cn(/C(O)=N/c3ccc(N(C)C)cc3)[nH+]c12
REMARK SMILES IDX 16 1 17 2 18 4 19 5 20 6 27 7 21 8 26 9 22 10 23 11 24 12
REMARK SMILES IDX 25 13 15 14 14 15 28 16 13 17 29 18 5 19 2 20 4 21 3 22 1 24
REMARK SMILES IDX 6 25 7 26 12 27 8 28 11 29 9 30 10 31
REMARK H PARENT 17 3 28 23
ROOT
ATOM      1  C   UNL     1      44.056 131.381  23.372  1.00  0.00     0.349 C 
ENDROOT
BRANCH   1   2
ATOM      2  O   UNL     1      44.861 131.956  24.357  1.00  0.00    -0.477 OA
ATOM      3  H   UNL     1      45.426 132.777  24.192  1.00  0.00     0.297 HD
ENDBRANCH   1   2
BRANCH   1   4
ATOM      4  N   UNL     1      43.735 132.062  22.310  1.00  0.00    -0.193 NA
BRANCH   4   5
ATOM      5  C   UNL     1      44.082 131.745  20.953  1.00  0.00     0.069 A 
ATOM      6  C   UNL     1      45.434 131.687  20.603  1.00  0.00     0.030 A 
ATOM      7  C   UNL     1      43.109 131.580  19.953  1.00  0.00     0.030 A 
ATOM      8  C   UNL     1      45.817 131.413  19.288  1.00  0.00     0.028 A 
ATOM      9  C   UNL     1      43.490 131.309  18.635  1.00  0.00     0.028 A 
ATOM     10  C   UNL     1      44.851 131.213  18.279  1.00  0.00     0.036 A 
BRANCH  10  11
ATOM     11  N   UNL     1      45.248 130.928  16.913  1.00  0.00    -0.378 N 
ATOM     12  C   UNL     1      45.798 131.987  16.058  1.00  0.00     0.143 C 
ATOM     13  C   UNL     1      45.109 129.573  16.362  1.00  0.00     0.143 C 
ENDBRANCH  10  11
ENDBRANCH   4   5
ENDBRANCH   1   4
BRANCH   1  14
ATOM     14  N   UNL     1      43.546 130.044  23.531  1.00  0.00    -0.073 N 
ATOM     15  C   UNL     1      44.259 128.904  23.350  1.00  0.00     0.179 A 
ATOM     16  N   UNL     1      42.299 129.734  23.872  1.00  0.00    -0.114 N 
ATOM     17  C   UNL     1      43.415 127.835  23.589  1.00  0.00     0.079 A 
ATOM     18  C   UNL     1      42.206 128.394  23.917  1.00  0.00     0.240 A 
ATOM     19  C   UNL     1      43.619 126.450  23.578  1.00  0.00    -0.003 A 
ATOM     20  C   UNL     1      41.097 127.612  24.260  1.00  0.00     0.024 A 
ATOM     21  C   UNL     1      42.518 125.638  23.934  1.00  0.00     0.010 A 
ATOM     22  C   UNL     1      41.272 126.211  24.267  1.00  0.00     0.011 A 
ATOM     23  H   UNL     1      41.527 130.412  24.059  1.00  0.00     0.489 HD
ATOM     24  C   UNL     1      39.784 128.237  24.625  1.00  0.00     0.052 C 
BRANCH  19  25
ATOM     25  C   UNL     1      44.921 125.843  23.215  1.00  0.00    -0.018 A 
ATOM     26  C   UNL     1      46.094 126.196  23.906  1.00  0.00     0.008 A 
ATOM     27  C   UNL     1      45.002 124.923  22.155  1.00  0.00     0.008 A 
ATOM     28  C   UNL     1      47.321 125.627  23.552  1.00  0.00    -0.008 A 
ATOM     29  C   UNL     1      46.231 124.355  21.806  1.00  0.00    -0.008 A 
ATOM     30  C   UNL     1      47.390 124.705  22.504  1.00  0.00    -0.109 A 
ATOM     31  O   UNL     1      48.610 124.139  22.156  1.00  0.00    -0.872 OA
ENDBRANCH  19  25
ENDBRANCH   1  14
TORSDOF 6
ENDMDL
MODEL 2
REMARK VINA RESULT:      -5.4      2.195      3.751
REMARK SMILES Cc1ccc(-c2ccc([O-])cc2)c2cn(/C(O)=N/c3ccc(N(C)C)cc3)[nH+]c12
REMARK SMILES IDX 16 1 17 2 18 4 19 5 20 6 27 7 21 8 26 9 22 10 23 11 24 12
REMARK SMILES IDX 25 13 15 14 14 15 28 16 13 17 29 18 5 19 2 20 4 21 3 22 1 24
REMARK SMILES IDX 6 25 7 26 12 27 8 28 11 29 9 30 10 31
REMARK H PARENT 17 3 28 23
ROOT
ATOM      1  C   UNL     1      44.730 131.713  19.113  1.00  0.00     0.349 C 
ENDROOT
BRANCH   1   2
ATOM      2  O   UNL     1      45.280 132.993  19.018  1.00  0.00    -0.477 OA
ATOM      3  H   UNL     1      44.848 133.737  18.488  1.00  0.00     0.297 HD
ENDBRANCH   1   2
BRANCH   1   4
ATOM      4  N   UNL     1      44.436 131.046  18.034  1.00  0.00    -0.193 NA
BRANCH   4   5
ATOM      5  C   UNL     1      45.294 130.824  16.905  1.00  0.00     0.069 A 
ATOM      6  C   UNL     1      45.760 131.930  16.189  1.00  0.00     0.030 A 
ATOM      7  C   UNL     1      45.607 129.533  16.448  1.00  0.00     0.030 A 
ATOM      8  C   UNL     1      46.572 131.759  15.065  1.00  0.00     0.028 A 
ATOM      9  C   UNL     1      46.417 129.359  15.322  1.00  0.00     0.028 A 
ATOM     10  C   UNL     1      46.921 130.469  14.613  1.00  0.00     0.036 A 
BRANCH  10  11
ATOM     11  N   UNL     1      47.765 130.291  13.446  1.00  0.00    -0.378 N 
ATOM     12  C   UNL     1      47.697 131.234  12.324  1.00  0.00     0.143 C 
ATOM     13  C   UNL     1      48.705 129.164  13.370  1.00  0.00     0.143 C 
ENDBRANCH  10  11
ENDBRANCH   4   5
ENDBRANCH   1   4
BRANCH   1  14
ATOM     14  N   UNL     1      44.452 131.128  20.399  1.00  0.00    -0.073 N 
ATOM     15  C   UNL     1      44.804 129.877  20.785  1.00  0.00     0.179 A 
ATOM     16  N   UNL     1      43.804 131.731  21.392  1.00  0.00    -0.114 N 
ATOM     17  C   UNL     1      44.352 129.691  22.079  1.00  0.00     0.079 A 
ATOM     18  C   UNL     1      43.741 130.870  22.423  1.00  0.00     0.240 A 
ATOM     19  C   UNL     1      44.459 128.617  22.972  1.00  0.00    -0.003 A 
ATOM     20  C   UNL     1      43.182 131.073  23.689  1.00  0.00     0.024 A 
ATOM     21  C   UNL     1      43.914 128.802  24.263  1.00  0.00     0.010 A 
ATOM     22  C   UNL     1      43.280 130.013  24.616  1.00  0.00     0.011 A 
ATOM     23  H   UNL     1      43.405 132.696  21.369  1.00  0.00     0.489 HD
ATOM     24  C   UNL     1      42.524 132.371  24.054  1.00  0.00     0.052 C 
BRANCH  19  25
ATOM     25  C   UNL     1      45.110 127.339  22.600  1.00  0.00    -0.018 A 
ATOM     26  C   UNL     1      44.348 126.170  22.432  1.00  0.00     0.008 A 
ATOM     27  C   UNL     1      46.505 127.277  22.436  1.00  0.00     0.008 A 
ATOM     28  C   UNL     1      44.970 124.965  22.090  1.00  0.00    -0.008 A 
ATOM     29  C   UNL     1      47.122 126.071  22.092  1.00  0.00    -0.008 A 
ATOM     30  C   UNL     1      46.355 124.915  21.918  1.00  0.00    -0.109 A 
ATOM     31  O   UNL     1      46.971 123.717  21.577  1.00  0.00    -0.872 OA
ENDBRANCH  19  25
ENDBRANCH   1  14
TORSDOF 6
ENDMDL
MODEL 3
REMARK VINA RESULT:      -4.8      2.717      6.874
REMARK SMILES Cc1ccc(-c2ccc([O-])cc2)c2cn(/C(O)=N/c3ccc(N(C)C)cc3)[nH+]c12
REMARK SMILES IDX 16 1 17 2 18 4 19 5 20 6 27 7 21 8 26 9 22 10 23 11 24 12
REMARK SMILES IDX 25 13 15 14 14 15 28 16 13 17 29 18 5 19 2 20 4 21 3 22 1 24
REMARK SMILES IDX 6 25 7 26 12 27 8 28 11 29 9 30 10 31
REMARK H PARENT 17 3 28 23
ROOT
ATOM      1  C   UNL     1      43.859 129.479  24.129  1.00  0.00     0.349 C 
ENDROOT
BRANCH   1   2
ATOM      2  O   UNL     1      45.191 129.540  24.546  1.00  0.00    -0.477 OA
ATOM      3  H   UNL     1      45.937 129.864  23.947  1.00  0.00     0.297 HD
ENDBRANCH   1   2
BRANCH   1   4
ATOM      4  N   UNL     1      43.060 128.578  24.625  1.00  0.00    -0.193 NA
BRANCH   4   5
ATOM      5  C   UNL     1      42.754 127.298  24.051  1.00  0.00     0.069 A 
ATOM      6  C   UNL     1      43.804 126.503  23.585  1.00  0.00     0.030 A 
ATOM      7  C   UNL     1      41.431 126.861  23.865  1.00  0.00     0.030 A 
ATOM      8  C   UNL     1      43.551 125.264  22.990  1.00  0.00     0.028 A 
ATOM      9  C   UNL     1      41.174 125.623  23.269  1.00  0.00     0.028 A 
ATOM     10  C   UNL     1      42.229 124.798  22.826  1.00  0.00     0.036 A 
BRANCH  10  11
ATOM     11  N   UNL     1      41.964 123.511  22.210  1.00  0.00    -0.378 N 
ATOM     12  C   UNL     1      42.712 123.084  21.022  1.00  0.00     0.143 C 
ATOM     13  C   UNL     1      40.945 122.612  22.768  1.00  0.00     0.143 C 
ENDBRANCH  10  11
ENDBRANCH   4   5
ENDBRANCH   1   4
BRANCH   1  14
ATOM     14  N   UNL     1      43.362 130.385  23.127  1.00  0.00    -0.073 N 
ATOM     15  C   UNL     1      43.813 130.470  21.851  1.00  0.00     0.179 A 
ATOM     16  N   UNL     1      42.390 131.273  23.311  1.00  0.00    -0.114 N 
ATOM     17  C   UNL     1      43.090 131.459  21.212  1.00  0.00     0.079 A 
ATOM     18  C   UNL     1      42.209 131.930  22.152  1.00  0.00     0.240 A 
ATOM     19  C   UNL     1      43.111 131.946  19.898  1.00  0.00    -0.003 A 
ATOM     20  C   UNL     1      41.277 132.931  21.859  1.00  0.00     0.024 A 
ATOM     21  C   UNL     1      42.170 132.949  19.572  1.00  0.00     0.010 A 
ATOM     22  C   UNL     1      41.267 133.438  20.541  1.00  0.00     0.011 A 
ATOM     23  H   UNL     1      41.869 131.439  24.201  1.00  0.00     0.489 HD
ATOM     24  C   UNL     1      40.315 133.431  22.895  1.00  0.00     0.052 C 
BRANCH  19  25
ATOM     25  C   UNL     1      44.067 131.446  18.883  1.00  0.00    -0.018 A 
ATOM     26  C   UNL     1      43.811 131.619  17.511  1.00  0.00     0.008 A 
ATOM     27  C   UNL     1      45.233 130.767  19.281  1.00  0.00     0.008 A 
ATOM     28  C   UNL     1      44.713 131.137  16.558  1.00  0.00    -0.008 A 
ATOM     29  C   UNL     1      46.132 130.288  18.325  1.00  0.00    -0.008 A 
ATOM     30  C   UNL     1      45.874 130.474  16.963  1.00  0.00    -0.109 A 
ATOM     31  O   UNL     1      46.769 129.996  16.015  1.00  0.00    -0.872 OA
ENDBRANCH  19  25
ENDBRANCH   1  14
TORSDOF 6
ENDMDL
MODEL 4
REMARK VINA RESULT:      -3.9      2.988      4.769
REMARK SMILES Cc1ccc(-c2ccc([O-])cc2)c2cn(/C(O)=N/c3ccc(N(C)C)cc3)[nH+]c12
REMARK SMILES IDX 16 1 17 2 18 4 19 5 20 6 27 7 21 8 26 9 22 10 23 11 24 12
REMARK SMILES IDX 25 13 15 14 14 15 28 16 13 17 29 18 5 19 2 20 4 21 3 22 1 24
REMARK SMILES IDX 6 25 7 26 12 27 8 28 11 29 9 30 10 31
REMARK H PARENT 17 3 28 23
ROOT
ATOM      1  C   UNL     1      42.668 132.008  19.197  1.00  0.00     0.349 C 
ENDROOT
BRANCH   1   2
ATOM      2  O   UNL     1      42.110 133.265  18.957  1.00  0.00    -0.477 OA
ATOM      3  H   UNL     1      42.503 133.922  18.298  1.00  0.00     0.297 HD
ENDBRANCH   1   2
BRANCH   1   4
ATOM      4  N   UNL     1      42.773 131.144  18.229  1.00  0.00    -0.193 NA
BRANCH   4   5
ATOM      5  C   UNL     1      43.872 131.016  17.313  1.00  0.00     0.069 A 
ATOM      6  C   UNL     1      43.650 131.279  15.959  1.00  0.00     0.030 A 
ATOM      7  C   UNL     1      45.133 130.551  17.721  1.00  0.00     0.030 A 
ATOM      8  C   UNL     1      44.682 131.137  15.027  1.00  0.00     0.028 A 
ATOM      9  C   UNL     1      46.167 130.405  16.791  1.00  0.00     0.028 A 
ATOM     10  C   UNL     1      45.963 130.702  15.428  1.00  0.00     0.036 A 
BRANCH  10  11
ATOM     11  N   UNL     1      47.037 130.555  14.462  1.00  0.00    -0.378 N 
ATOM     12  C   UNL     1      47.441 131.684  13.617  1.00  0.00     0.143 C 
ATOM     13  C   UNL     1      47.739 129.273  14.316  1.00  0.00     0.143 C 
ENDBRANCH  10  11
ENDBRANCH   4   5
ENDBRANCH   1   4
BRANCH   1  14
ATOM     14  N   UNL     1      43.103 131.638  20.519  1.00  0.00    -0.073 N 
ATOM     15  C   UNL     1      42.734 130.514  21.181  1.00  0.00     0.179 A 
ATOM     16  N   UNL     1      43.926 132.351  21.283  1.00  0.00    -0.114 N 
ATOM     17  C   UNL     1      43.355 130.528  22.417  1.00  0.00     0.079 A 
ATOM     18  C   UNL     1      44.093 131.684  22.439  1.00  0.00     0.240 A 
ATOM     19  C   UNL     1      43.358 129.620  23.483  1.00  0.00    -0.003 A 
ATOM     20  C   UNL     1      44.894 132.032  23.531  1.00  0.00     0.024 A 
ATOM     21  C   UNL     1      44.170 129.941  24.595  1.00  0.00     0.010 A 
ATOM     22  C   UNL     1      44.926 131.133  24.620  1.00  0.00     0.011 A 
ATOM     23  H   UNL     1      44.354 133.270  21.033  1.00  0.00     0.489 HD
ATOM     24  C   UNL     1      45.702 133.295  23.538  1.00  0.00     0.052 C 
BRANCH  19  25
ATOM     25  C   UNL     1      42.555 128.375  23.466  1.00  0.00    -0.018 A 
ATOM     26  C   UNL     1      43.176 127.125  23.300  1.00  0.00     0.008 A 
ATOM     27  C   UNL     1      41.156 128.434  23.593  1.00  0.00     0.008 A 
ATOM     28  C   UNL     1      42.411 125.954  23.277  1.00  0.00    -0.008 A 
ATOM     29  C   UNL     1      40.396 127.260  23.570  1.00  0.00    -0.008 A 
ATOM     30  C   UNL     1      41.023 126.021  23.413  1.00  0.00    -0.109 A 
ATOM     31  O   UNL     1      40.265 124.857  23.391  1.00  0.00    -0.872 OA
ENDBRANCH  19  25
ENDBRANCH   1  14
TORSDOF 6
ENDMDL
MODEL 5
REMARK VINA RESULT:      -3.9      3.015      7.936
REMARK SMILES Cc1ccc(-c2ccc([O-])cc2)c2cn(/C(O)=N/c3ccc(N(C)C)cc3)[nH+]c12
REMARK SMILES IDX 16 1 17 2 18 4 19 5 20 6 27 7 21 8 26 9 22 10 23 11 24 12
REMARK SMILES IDX 25 13 15 14 14 15 28 16 13 17 29 18 5 19 2 20 4 21 3 22 1 24
REMARK SMILES IDX 6 25 7 26 12 27 8 28 11 29 9 30 10 31
REMARK H PARENT 17 3 28 23
ROOT
ATOM      1  C   UNL     1      45.766 130.741  20.756  1.00  0.00     0.349 C 
ENDROOT
BRANCH   1   2
ATOM      2  O   UNL     1      47.158 130.770  20.864  1.00  0.00    -0.477 OA
ATOM      3  H   UNL     1      47.658 130.311  21.612  1.00  0.00     0.297 HD
ENDBRANCH   1   2
BRANCH   1   4
ATOM      4  N   UNL     1      45.036 130.435  21.789  1.00  0.00    -0.193 NA
BRANCH   4   5
ATOM      5  C   UNL     1      44.803 129.117  22.312  1.00  0.00     0.069 A 
ATOM      6  C   UNL     1      43.957 128.973  23.414  1.00  0.00     0.030 A 
ATOM      7  C   UNL     1      45.467 127.987  21.807  1.00  0.00     0.030 A 
ATOM      8  C   UNL     1      43.727 127.714  23.975  1.00  0.00     0.028 A 
ATOM      9  C   UNL     1      45.241 126.726  22.367  1.00  0.00     0.028 A 
ATOM     10  C   UNL     1      44.361 126.565  23.458  1.00  0.00     0.036 A 
BRANCH  10  11
ATOM     11  N   UNL     1      44.123 125.256  24.039  1.00  0.00    -0.378 N 
ATOM     12  C   UNL     1      42.759 124.729  24.156  1.00  0.00     0.143 C 
ATOM     13  C   UNL     1      45.244 124.436  24.516  1.00  0.00     0.143 C 
ENDBRANCH  10  11
ENDBRANCH   4   5
ENDBRANCH   1   4
BRANCH   1  14
ATOM     14  N   UNL     1      45.123 131.017  19.497  1.00  0.00    -0.073 N 
ATOM     15  C   UNL     1      45.665 130.797  18.274  1.00  0.00     0.179 A 
ATOM     16  N   UNL     1      43.905 131.531  19.355  1.00  0.00    -0.114 N 
ATOM     17  C   UNL     1      44.742 131.196  17.325  1.00  0.00     0.079 A 
ATOM     18  C   UNL     1      43.657 131.640  18.038  1.00  0.00     0.240 A 
ATOM     19  C   UNL     1      44.755 131.170  15.924  1.00  0.00    -0.003 A 
ATOM     20  C   UNL     1      42.494 132.099  17.409  1.00  0.00     0.024 A 
ATOM     21  C   UNL     1      43.587 131.617  15.265  1.00  0.00     0.010 A 
ATOM     22  C   UNL     1      42.472 132.079  15.998  1.00  0.00     0.011 A 
ATOM     23  H   UNL     1      43.262 131.811  20.128  1.00  0.00     0.489 HD
ATOM     24  C   UNL     1      41.314 132.575  18.202  1.00  0.00     0.052 C 
BRANCH  19  25
ATOM     25  C   UNL     1      45.928 130.700  15.151  1.00  0.00    -0.018 A 
ATOM     26  C   UNL     1      46.344 131.382  13.994  1.00  0.00     0.008 A 
ATOM     27  C   UNL     1      46.625 129.547  15.554  1.00  0.00     0.008 A 
ATOM     28  C   UNL     1      47.446 130.928  13.264  1.00  0.00    -0.008 A 
ATOM     29  C   UNL     1      47.728 129.097  14.822  1.00  0.00    -0.008 A 
ATOM     30  C   UNL     1      48.140 129.788  13.678  1.00  0.00    -0.109 A 
ATOM     31  O   UNL     1      49.236 129.339  12.952  1.00  0.00    -0.872 OA
ENDBRANCH  19  25
ENDBRANCH   1  14
TORSDOF 6
ENDMDL
MODEL 6
REMARK VINA RESULT:      -3.9      5.340      8.092
REMARK SMILES Cc1ccc(-c2ccc([O-])cc2)c2cn(/C(O)=N/c3ccc(N(C)C)cc3)[nH+]c12
REMARK SMILES IDX 16 1 17 2 18 4 19 5 20 6 27 7 21 8 26 9 22 10 23 11 24 12
REMARK SMILES IDX 25 13 15 14 14 15 28 16 13 17 29 18 5 19 2 20 4 21 3 22 1 24
REMARK SMILES IDX 6 25 7 26 12 27 8 28 11 29 9 30 10 31
REMARK H PARENT 17 3 28 23
ROOT
ATOM      1  C   UNL     1      47.234 132.673  21.285  1.00  0.00     0.349 C 
ENDROOT
BRANCH   1   2
ATOM      2  O   UNL     1      48.326 131.803  21.230  1.00  0.00    -0.477 OA
ATOM      3  H   UNL     1      48.225 130.798  21.212  1.00  0.00     0.297 HD
ENDBRANCH   1   2
BRANCH   1   4
ATOM      4  N   UNL     1      47.252 133.695  22.091  1.00  0.00    -0.193 NA
BRANCH   4   5
ATOM      5  C   UNL     1      48.414 134.404  22.547  1.00  0.00     0.069 A 
ATOM      6  C   UNL     1      48.994 135.355  21.703  1.00  0.00     0.030 A 
ATOM      7  C   UNL     1      49.035 134.110  23.773  1.00  0.00     0.030 A 
ATOM      8  C   UNL     1      50.144 136.046  22.092  1.00  0.00     0.028 A 
ATOM      9  C   UNL     1      50.187 134.799  24.165  1.00  0.00     0.028 A 
ATOM     10  C   UNL     1      50.759 135.785  23.334  1.00  0.00     0.036 A 
BRANCH  10  11
ATOM     11  N   UNL     1      51.953 136.503  23.741  1.00  0.00    -0.378 N 
ATOM     12  C   UNL     1      53.285 135.950  23.470  1.00  0.00     0.143 C 
ATOM     13  C   UNL     1      51.849 137.797  24.427  1.00  0.00     0.143 C 
ENDBRANCH  10  11
ENDBRANCH   4   5
ENDBRANCH   1   4
BRANCH   1  14
ATOM     14  N   UNL     1      46.066 132.435  20.477  1.00  0.00    -0.073 N 
ATOM     15  C   UNL     1      46.074 131.997  19.194  1.00  0.00     0.179 A 
ATOM     16  N   UNL     1      44.810 132.615  20.874  1.00  0.00    -0.114 N 
ATOM     17  C   UNL     1      44.761 131.903  18.771  1.00  0.00     0.079 A 
ATOM     18  C   UNL     1      44.004 132.290  19.848  1.00  0.00     0.240 A 
ATOM     19  C   UNL     1      44.184 131.483  17.566  1.00  0.00    -0.003 A 
ATOM     20  C   UNL     1      42.606 132.292  19.808  1.00  0.00     0.024 A 
ATOM     21  C   UNL     1      42.772 131.463  17.504  1.00  0.00     0.010 A 
ATOM     22  C   UNL     1      41.993 131.867  18.610  1.00  0.00     0.011 A 
ATOM     23  H   UNL     1      44.505 132.961  21.811  1.00  0.00     0.489 HD
ATOM     24  C   UNL     1      41.792 132.711  20.996  1.00  0.00     0.052 C 
BRANCH  19  25
ATOM     25  C   UNL     1      44.999 131.073  16.398  1.00  0.00    -0.018 A 
ATOM     26  C   UNL     1      44.681 131.529  15.107  1.00  0.00     0.008 A 
ATOM     27  C   UNL     1      46.089 130.200  16.566  1.00  0.00     0.008 A 
ATOM     28  C   UNL     1      45.448 131.131  14.007  1.00  0.00    -0.008 A 
ATOM     29  C   UNL     1      46.854 129.806  15.464  1.00  0.00    -0.008 A 
ATOM     30  C   UNL     1      46.535 130.272  14.186  1.00  0.00    -0.109 A 
ATOM     31  O   UNL     1      47.297 129.879  13.093  1.00  0.00    -0.872 OA
ENDBRANCH  19  25
ENDBRANCH   1  14
TORSDOF 6
ENDMDL
MODEL 7
REMARK VINA RESULT:      -3.6      5.282      7.521
REMARK SMILES Cc1ccc(-c2ccc([O-])cc2)c2cn(/C(O)=N/c3ccc(N(C)C)cc3)[nH+]c12
REMARK SMILES IDX 16 1 17 2 18 4 19 5 20 6 27 7 21 8 26 9 22 10 23 11 24 12
REMARK SMILES IDX 25 13 15 14 14 15 28 16 13 17 29 18 5 19 2 20 4 21 3 22 1 24
REMARK SMILES IDX 6 25 7 26 12 27 8 28 11 29 9 30 10 31
REMARK H PARENT 17 3 28 23
ROOT
ATOM      1  C   UNL     1      46.452 132.669  22.135  1.00  0.00     0.349 C 
ENDROOT
BRANCH   1   2
ATOM      2  O   UNL     1      46.101 132.639  23.486  1.00  0.00    -0.477 OA
ATOM      3  H   UNL     1      45.311 132.115  23.836  1.00  0.00     0.297 HD
ENDBRANCH   1   2
BRANCH   1   4
ATOM      4  N   UNL     1      47.689 132.872  21.785  1.00  0.00    -0.193 NA
BRANCH   4   5
ATOM      5  C   UNL     1      48.380 134.131  21.775  1.00  0.00     0.069 A 
ATOM      6  C   UNL     1      49.452 134.315  22.651  1.00  0.00     0.030 A 
ATOM      7  C   UNL     1      47.956 135.208  20.978  1.00  0.00     0.030 A 
ATOM      8  C   UNL     1      50.133 135.534  22.698  1.00  0.00     0.028 A 
ATOM      9  C   UNL     1      48.634 136.430  21.024  1.00  0.00     0.028 A 
ATOM     10  C   UNL     1      49.739 136.614  21.880  1.00  0.00     0.036 A 
BRANCH  10  11
ATOM     11  N   UNL     1      50.446 137.881  21.926  1.00  0.00    -0.378 N 
ATOM     12  C   UNL     1      50.191 138.915  20.917  1.00  0.00     0.143 C 
ATOM     13  C   UNL     1      51.426 138.151  22.986  1.00  0.00     0.143 C 
ENDBRANCH  10  11
ENDBRANCH   4   5
ENDBRANCH   1   4
BRANCH   1  14
ATOM     14  N   UNL     1      45.449 132.510  21.114  1.00  0.00    -0.073 N 
ATOM     15  C   UNL     1      45.676 132.059  19.855  1.00  0.00     0.179 A 
ATOM     16  N   UNL     1      44.157 132.786  21.258  1.00  0.00    -0.114 N 
ATOM     17  C   UNL     1      44.468 132.058  19.183  1.00  0.00     0.079 A 
ATOM     18  C   UNL     1      43.546 132.510  20.092  1.00  0.00     0.240 A 
ATOM     19  C   UNL     1      44.108 131.669  17.886  1.00  0.00    -0.003 A 
ATOM     20  C   UNL     1      42.186 132.616  19.780  1.00  0.00     0.024 A 
ATOM     21  C   UNL     1      42.738 131.754  17.549  1.00  0.00     0.010 A 
ATOM     22  C   UNL     1      41.789 132.224  18.483  1.00  0.00     0.011 A 
ATOM     23  H   UNL     1      43.701 133.162  22.119  1.00  0.00     0.489 HD
ATOM     24  C   UNL     1      41.189 133.105  20.787  1.00  0.00     0.052 C 
BRANCH  19  25
ATOM     25  C   UNL     1      45.103 131.189  16.898  1.00  0.00    -0.018 A 
ATOM     26  C   UNL     1      45.662 129.904  17.011  1.00  0.00     0.008 A 
ATOM     27  C   UNL     1      45.517 132.026  15.847  1.00  0.00     0.008 A 
ATOM     28  C   UNL     1      46.606 129.460  16.081  1.00  0.00    -0.008 A 
ATOM     29  C   UNL     1      46.461 131.577  14.918  1.00  0.00    -0.008 A 
ATOM     30  C   UNL     1      47.005 130.294  15.033  1.00  0.00    -0.109 A 
ATOM     31  O   UNL     1      47.942 129.851  14.109  1.00  0.00    -0.872 OA
ENDBRANCH  19  25
ENDBRANCH   1  14
TORSDOF 6
ENDMDL
MODEL 8
REMARK VINA RESULT:      -3.5      2.087      3.357
REMARK SMILES Cc1ccc(-c2ccc([O-])cc2)c2cn(/C(O)=N/c3ccc(N(C)C)cc3)[nH+]c12
REMARK SMILES IDX 16 1 17 2 18 4 19 5 20 6 27 7 21 8 26 9 22 10 23 11 24 12
REMARK SMILES IDX 25 13 15 14 14 15 28 16 13 17 29 18 5 19 2 20 4 21 3 22 1 24
REMARK SMILES IDX 6 25 7 26 12 27 8 28 11 29 9 30 10 31
REMARK H PARENT 17 3 28 23
ROOT
ATOM      1  C   UNL     1      44.129 132.166  19.588  1.00  0.00     0.349 C 
ENDROOT
BRANCH   1   2
ATOM      2  O   UNL     1      44.912 133.318  19.687  1.00  0.00    -0.477 OA
ATOM      3  H   UNL     1      45.797 133.421  19.211  1.00  0.00     0.297 HD
ENDBRANCH   1   2
BRANCH   1   4
ATOM      4  N   UNL     1      43.780 131.711  18.419  1.00  0.00    -0.193 NA
BRANCH   4   5
ATOM      5  C   UNL     1      44.662 131.313  17.358  1.00  0.00     0.069 A 
ATOM      6  C   UNL     1      44.372 131.725  16.054  1.00  0.00     0.030 A 
ATOM      7  C   UNL     1      45.752 130.454  17.576  1.00  0.00     0.030 A 
ATOM      8  C   UNL     1      45.185 131.335  14.987  1.00  0.00     0.028 A 
ATOM      9  C   UNL     1      46.566 130.060  16.510  1.00  0.00     0.028 A 
ATOM     10  C   UNL     1      46.302 130.499  15.196  1.00  0.00     0.036 A 
BRANCH  10  11
ATOM     11  N   UNL     1      47.148 130.094  14.089  1.00  0.00    -0.378 N 
ATOM     12  C   UNL     1      47.749 128.756  14.059  1.00  0.00     0.143 C 
ATOM     13  C   UNL     1      47.415 131.016  12.976  1.00  0.00     0.143 C 
ENDBRANCH  10  11
ENDBRANCH   4   5
ENDBRANCH   1   4
BRANCH   1  14
ATOM     14  N   UNL     1      43.672 131.487  20.772  1.00  0.00    -0.073 N 
ATOM     15  C   UNL     1      44.090 130.265  21.187  1.00  0.00     0.179 A 
ATOM     16  N   UNL     1      42.769 131.958  21.626  1.00  0.00    -0.114 N 
ATOM     17  C   UNL     1      43.413 129.961  22.354  1.00  0.00     0.079 A 
ATOM     18  C   UNL     1      42.606 131.043  22.598  1.00  0.00     0.240 A 
ATOM     19  C   UNL     1      43.469 128.861  23.219  1.00  0.00    -0.003 A 
ATOM     20  C   UNL     1      41.783 131.114  23.727  1.00  0.00     0.024 A 
ATOM     21  C   UNL     1      42.657 128.913  24.375  1.00  0.00     0.010 A 
ATOM     22  C   UNL     1      41.821 130.024  24.624  1.00  0.00     0.011 A 
ATOM     23  H   UNL     1      42.267 132.871  21.549  1.00  0.00     0.489 HD
ATOM     24  C   UNL     1      40.911 132.306  23.984  1.00  0.00     0.052 C 
BRANCH  19  25
ATOM     25  C   UNL     1      44.333 127.687  22.954  1.00  0.00    -0.018 A 
ATOM     26  C   UNL     1      45.728 127.775  23.107  1.00  0.00     0.008 A 
ATOM     27  C   UNL     1      43.767 126.474  22.521  1.00  0.00     0.008 A 
ATOM     28  C   UNL     1      46.539 126.666  22.847  1.00  0.00    -0.008 A 
ATOM     29  C   UNL     1      44.582 125.368  22.264  1.00  0.00    -0.008 A 
ATOM     30  C   UNL     1      45.967 125.463  22.427  1.00  0.00    -0.109 A 
ATOM     31  O   UNL     1      46.774 124.361  22.171  1.00  0.00    -0.872 OA
ENDBRANCH  19  25
ENDBRANCH   1  14
TORSDOF 6
ENDMDL


