REMARK SMILES [H]/N=c1\[nH]cccc1Nc1ccc2c(n[nH+]n2C)c1C=C
REMARK SMILES IDX 9 1 8 3 3 4 4 5 7 6 5 7 6 8 2 10 1 11 10 12 11 13 19 14
REMARK SMILES IDX 12 15 14 16 13 17 15 18 17 19 16 20 18 21 20 23 21 24
REMARK H PARENT 9 2 4 9 16 22
ROOT
ATOM      1  N   UNL     1      -0.882  -1.787   0.859  1.00  0.00    -0.352 N 
ATOM      2  H   UNL     1      -0.434  -2.293   1.656  1.00  0.00     0.167 HD
ENDROOT
BRANCH   1   3
ATOM      3  C   UNL     1      -2.246  -2.110   0.519  1.00  0.00     0.081 A 
ATOM      4  C   UNL     1      -2.765  -3.395   0.777  1.00  0.00     0.146 A 
ATOM      5  N   UNL     1      -4.063  -3.683   0.461  1.00  0.00    -0.345 N 
ATOM      6  C   UNL     1      -3.097  -1.145  -0.048  1.00  0.00     0.031 A 
ATOM      7  C   UNL     1      -4.884  -2.756  -0.099  1.00  0.00     0.084 A 
ATOM      8  C   UNL     1      -4.415  -1.470  -0.362  1.00  0.00     0.020 A 
ATOM      9  H   UNL     1      -4.448  -4.637   0.646  1.00  0.00     0.167 HD
BRANCH   4  10
ATOM     10  N   UNL     1      -2.006  -4.307   1.302  1.00  0.00    -0.283 NA
ATOM     11  H   UNL     1      -2.353  -5.272   1.503  1.00  0.00     0.189 HD
ENDBRANCH   4  10
ENDBRANCH   1   3
BRANCH   1  12
ATOM     12  C   UNL     1      -0.153  -0.693   0.280  1.00  0.00     0.048 A 
ATOM     13  C   UNL     1       0.466   0.241   1.151  1.00  0.00     0.029 A 
ATOM     14  C   UNL     1      -0.031  -0.544  -1.133  1.00  0.00     0.032 A 
ATOM     15  C   UNL     1       1.180   1.340   0.645  1.00  0.00     0.037 A 
ATOM     16  C   UNL     1       0.692   0.568  -1.590  1.00  0.00     0.171 A 
ATOM     17  C   UNL     1       1.260   1.469  -0.736  1.00  0.00     0.133 A 
ATOM     18  N   UNL     1       1.028   0.905  -2.853  1.00  0.00     0.026 NA
ATOM     19  N   UNL     1       1.920   2.372  -1.477  1.00  0.00    -0.132 N 
ATOM     20  N   UNL     1       1.769   2.004  -2.744  1.00  0.00    -0.016 N 
ATOM     21  C   UNL     1       2.757   3.473  -1.014  1.00  0.00     0.226 C 
ATOM     22  H   UNL     1       2.196   2.499  -3.559  1.00  0.00     0.526 HD
BRANCH  14  23
ATOM     23  C   UNL     1      -0.558  -1.574  -2.061  1.00  0.00     0.005 C 
ATOM     24  C   UNL     1      -1.079  -1.282  -3.251  1.00  0.00     0.009 C 
ENDBRANCH  14  23
ENDBRANCH   1  12
TORSDOF 4


