REMARK SMILES [O-]/C(=C\Cc1c(F)cccc1F)c1ccc(Nc2ccc3cc[nH]c3c2[O-])cc1
REMARK SMILES IDX 2 1 1 2 3 3 4 4 5 5 6 6 11 7 8 8 10 9 9 10 7 11 12 12 13 13
REMARK SMILES IDX 14 14 29 15 15 16 28 17 16 18 17 19 18 21 19 22 26 23 20 24
REMARK SMILES IDX 25 25 21 26 24 27 22 28 23 29 27 30
REMARK H PARENT 17 20 24 31
ROOT
ATOM      1  C   UNL     1      -1.219  -0.338  -2.477  1.00  0.00    -0.105 C 
ATOM      2  O   UNL     1      -0.091  -0.571  -3.259  1.00  0.00    -0.872 OA
ENDROOT
BRANCH   1   3
ATOM      3  C   UNL     1      -2.437  -0.596  -2.979  1.00  0.00    -0.030 C 
BRANCH   3   4
ATOM      4  C   UNL     1      -2.646  -1.089  -4.384  1.00  0.00     0.068 C 
BRANCH   4   5
ATOM      5  C   UNL     1      -2.430   0.021  -5.384  1.00  0.00     0.027 A 
ATOM      6  C   UNL     1      -1.303   0.023  -6.231  1.00  0.00     0.129 A 
ATOM      7  C   UNL     1      -3.353   1.082  -5.470  1.00  0.00     0.129 A 
ATOM      8  C   UNL     1      -1.109   1.067  -7.141  1.00  0.00     0.040 A 
ATOM      9  C   UNL     1      -3.150   2.121  -6.383  1.00  0.00     0.040 A 
ATOM     10  C   UNL     1      -2.030   2.114  -7.217  1.00  0.00     0.006 A 
ATOM     11  F   UNL     1      -0.393  -0.983  -6.181  1.00  0.00    -0.207 F 
ATOM     12  F   UNL     1      -4.448   1.110  -4.667  1.00  0.00    -0.207 F 
ENDBRANCH   4   5
ENDBRANCH   3   4
ENDBRANCH   1   3
BRANCH   1  13
ATOM     13  C   UNL     1      -1.031   0.170  -1.094  1.00  0.00    -0.034 A 
ATOM     14  C   UNL     1       0.157  -0.130  -0.405  1.00  0.00     0.009 A 
ATOM     15  C   UNL     1      -1.992   0.984  -0.465  1.00  0.00     0.009 A 
ATOM     16  C   UNL     1       0.366   0.344   0.893  1.00  0.00     0.026 A 
ATOM     17  C   UNL     1      -1.781   1.458   0.833  1.00  0.00     0.026 A 
ATOM     18  C   UNL     1      -0.612   1.127   1.531  1.00  0.00     0.038 A 
BRANCH  18  19
ATOM     19  N   UNL     1      -0.410   1.646   2.857  1.00  0.00    -0.356 N 
ATOM     20  H   UNL     1      -0.878   2.545   3.110  1.00  0.00     0.166 HD
BRANCH  19  21
ATOM     21  C   UNL     1       0.470   1.057   3.828  1.00  0.00     0.033 A 
ATOM     22  C   UNL     1       1.320   1.898   4.588  1.00  0.00     0.026 A 
ATOM     23  C   UNL     1       0.462  -0.339   4.078  1.00  0.00    -0.060 A 
ATOM     24  C   UNL     1       2.187   1.362   5.556  1.00  0.00     0.012 A 
ATOM     25  C   UNL     1       1.338  -0.838   5.042  1.00  0.00     0.039 A 
ATOM     26  C   UNL     1       2.171  -0.016   5.752  1.00  0.00    -0.001 A 
ATOM     27  N   UNL     1       1.495  -2.117   5.423  1.00  0.00    -0.362 N 
ATOM     28  C   UNL     1       2.890  -0.806   6.621  1.00  0.00     0.028 A 
ATOM     29  C   UNL     1       2.443  -2.102   6.388  1.00  0.00     0.083 A 
ATOM     30  O   UNL     1      -0.407  -1.192   3.406  1.00  0.00    -0.870 OA
ATOM     31  H   UNL     1       0.990  -2.954   5.056  1.00  0.00     0.166 HD
ENDBRANCH  19  21
ENDBRANCH  18  19
ENDBRANCH   1  13
TORSDOF 6


