REMARK SMILES Fc1ccc2cc(-c3nc[nH+]cc3F)[nH]c2c1
REMARK SMILES IDX 1 1 2 2 3 3 4 4 5 5 6 6 7 7 15 8 16 9 17 10 8 12 9 13 13 14
REMARK SMILES IDX 10 15 12 16 11 17 14 18
REMARK H PARENT 15 11 11 19
ROOT
ATOM      1  F   UNL     1      -5.212   0.038  -1.793  1.00  0.00    -0.207 F 
ATOM      2  C   UNL     1      -4.105   0.059  -1.012  1.00  0.00     0.125 A 
ATOM      3  C   UNL     1      -4.237   0.150   0.393  1.00  0.00     0.040 A 
ATOM      4  C   UNL     1      -3.096   0.173   1.216  1.00  0.00     0.013 A 
ATOM      5  C   UNL     1      -1.848   0.104   0.599  1.00  0.00     0.000 A 
ATOM      6  C   UNL     1      -0.581   0.107   1.138  1.00  0.00     0.041 A 
ATOM      7  C   UNL     1       0.286   0.018   0.041  1.00  0.00     0.095 A 
ATOM      8  N   UNL     1      -0.425  -0.037  -1.114  1.00  0.00    -0.351 N 
ATOM      9  C   UNL     1      -1.719   0.017  -0.760  1.00  0.00     0.049 A 
ATOM     10  C   UNL     1      -2.829  -0.009  -1.603  1.00  0.00     0.066 A 
ATOM     11  H   UNL     1      -0.050  -0.106  -2.087  1.00  0.00     0.167 HD
ENDROOT
BRANCH   7  12
ATOM     12  C   UNL     1       1.771  -0.017   0.064  1.00  0.00     0.237 A 
ATOM     13  N   UNL     1       2.428  -0.107  -1.126  1.00  0.00    -0.044 NA
ATOM     14  C   UNL     1       2.531   0.038   1.249  1.00  0.00     0.215 A 
ATOM     15  C   UNL     1       3.783  -0.145  -1.195  1.00  0.00     0.449 A 
ATOM     16  C   UNL     1       3.923  -0.002   1.155  1.00  0.00     0.241 A 
ATOM     17  N   UNL     1       4.524  -0.092  -0.059  1.00  0.00    -0.247 N 
ATOM     18  F   UNL     1       1.963   0.128   2.476  1.00  0.00    -0.198 F 
ATOM     19  H   UNL     1       5.566  -0.121  -0.120  1.00  0.00     0.311 HD
ENDBRANCH   7  12
TORSDOF 1


