REMARK SMILES C#C[C@@H]1CNC(=[NH2+])[C@@H](Nc2cc(C)c3c(n[nH+]n3C)c2O)C1
REMARK SMILES IDX 9 1 8 3 3 4 4 5 22 6 5 7 6 8 2 10 1 11 7 12 10 15 11 16
REMARK SMILES IDX 20 17 12 18 15 19 14 20 16 21 18 22 17 23 13 24 19 25 21 27
REMARK H PARENT 9 2 5 9 7 13 7 14 17 26 21 28
ROOT
ATOM      1  N   UNL     1      -0.029   0.655   1.571  1.00  0.00    -0.368 N 
ATOM      2  H   UNL     1      -0.333   1.417   2.218  1.00  0.00     0.161 HD
ENDROOT
BRANCH   1   3
ATOM      3  C   UNL     1       1.306   0.066   1.757  1.00  0.00     0.195 C 
ATOM      4  C   UNL     1       2.607   1.823   0.473  1.00  0.00     0.108 C 
ATOM      5  C   UNL     1       3.448   2.186   1.705  1.00  0.00     0.250 C 
ATOM      6  C   UNL     1       2.199   0.344   0.534  1.00  0.00     0.058 C 
ATOM      7  N   UNL     1       2.783   1.783   2.943  1.00  0.00    -0.276 N 
ATOM      8  C   UNL     1       1.939   0.621   3.015  1.00  0.00     0.263 C 
ATOM      9  H   UNL     1       3.106   2.231   3.830  1.00  0.00     0.304 HD
BRANCH   4  10
ATOM     10  C   UNL     1       3.371   2.088  -0.755  1.00  0.00    -0.099 C 
ATOM     11  C   UNL     1       3.996   2.305  -1.763  1.00  0.00     0.004 C 
ENDBRANCH   4  10
BRANCH   8  12
ATOM     12  N   UNL     1       1.623   0.124   4.173  1.00  0.00    -0.289 N 
ATOM     13  H   UNL     1       2.015   0.524   5.054  1.00  0.00     0.301 HD
ATOM     14  H   UNL     1       0.969  -0.688   4.251  1.00  0.00     0.301 HD
ENDBRANCH   8  12
ENDBRANCH   1   3
BRANCH   1  15
ATOM     15  C   UNL     1      -0.914   0.287   0.497  1.00  0.00     0.080 A 
ATOM     16  C   UNL     1      -1.025  -1.071   0.091  1.00  0.00     0.035 A 
ATOM     17  C   UNL     1      -1.706   1.273  -0.147  1.00  0.00     0.173 A 
ATOM     18  C   UNL     1      -1.910  -1.466  -0.939  1.00  0.00    -0.017 A 
ATOM     19  C   UNL     1      -2.576   0.852  -1.146  1.00  0.00     0.206 A 
ATOM     20  C   UNL     1      -2.682  -0.454  -1.536  1.00  0.00     0.140 A 
ATOM     21  N   UNL     1      -3.410   1.608  -1.884  1.00  0.00     0.029 NA
ATOM     22  N   UNL     1      -3.602  -0.491  -2.525  1.00  0.00    -0.132 N 
ATOM     23  N   UNL     1      -4.015   0.759  -2.707  1.00  0.00    -0.016 N 
ATOM     24  C   UNL     1      -2.000  -2.912  -1.337  1.00  0.00     0.047 C 
ATOM     25  C   UNL     1      -4.089  -1.630  -3.299  1.00  0.00     0.226 C 
ATOM     26  H   UNL     1      -4.729   1.049  -3.413  1.00  0.00     0.526 HD
BRANCH  17  27
ATOM     27  O   UNL     1      -1.625   2.632   0.163  1.00  0.00    -0.504 OA
ATOM     28  H   UNL     1      -0.952   3.009   0.816  1.00  0.00     0.293 HD
ENDBRANCH  17  27
ENDBRANCH   1  15
TORSDOF 5


