REMARK SMILES C=C[C@@H](Oc1ncnc(C)c1C)c1cc2[nH]ccc2cc1-c1c[nH+]c2c(c1)C(=O)[N-]C2
REMARK SMILES IDX 3 1 2 2 1 3 4 4 5 5 6 6 11 7 7 8 9 9 8 10 12 11 10 12 13 13
REMARK SMILES IDX 14 14 21 15 15 16 20 17 16 18 19 19 17 20 18 21 22 23 23 24
REMARK SMILES IDX 27 25 24 26 26 27 25 28 28 29 31 30 30 31 29 33
REMARK H PARENT 16 22 24 32
ROOT
ATOM      1  C   UNL     1       1.495  -0.340  -0.599  1.00  0.00     0.229 C 
ENDROOT
BRANCH   1   2
ATOM      2  C   UNL     1       2.638   0.637  -0.678  1.00  0.00     0.014 C 
ATOM      3  C   UNL     1       3.568   0.697   0.280  1.00  0.00     0.008 C 
ENDBRANCH   1   2
BRANCH   1   4
ATOM      4  O   UNL     1       0.809  -0.181   0.644  1.00  0.00    -0.465 OA
BRANCH   4   5
ATOM      5  C   UNL     1      -0.167  -1.069   1.116  1.00  0.00     0.220 A 
ATOM      6  N   UNL     1      -0.519  -2.153   0.374  1.00  0.00    -0.202 NA
ATOM      7  C   UNL     1      -0.795  -0.834   2.353  1.00  0.00     0.032 A 
ATOM      8  C   UNL     1      -1.470  -3.020   0.800  1.00  0.00     0.226 A 
ATOM      9  C   UNL     1      -1.776  -1.756   2.779  1.00  0.00     0.047 A 
ATOM     10  N   UNL     1      -2.089  -2.817   1.989  1.00  0.00    -0.241 NA
ATOM     11  C   UNL     1      -0.412   0.349   3.208  1.00  0.00     0.052 C 
ATOM     12  C   UNL     1      -2.505  -1.589   4.080  1.00  0.00     0.067 C 
ENDBRANCH   4   5
ENDBRANCH   1   4
BRANCH   1  13
ATOM     13  C   UNL     1       0.565  -0.166  -1.791  1.00  0.00     0.006 A 
ATOM     14  C   UNL     1       0.803  -0.977  -2.927  1.00  0.00     0.035 A 
ATOM     15  C   UNL     1      -0.513   0.786  -1.825  1.00  0.00    -0.004 A 
ATOM     16  C   UNL     1      -0.036  -0.850  -4.028  1.00  0.00     0.046 A 
ATOM     17  C   UNL     1      -1.345   0.869  -2.964  1.00  0.00     0.019 A 
ATOM     18  N   UNL     1       0.025  -1.532  -5.183  1.00  0.00    -0.361 N 
ATOM     19  C   UNL     1      -1.073   0.037  -4.043  1.00  0.00    -0.000 A 
ATOM     20  C   UNL     1      -0.992  -1.066  -5.942  1.00  0.00     0.083 A 
ATOM     21  C   UNL     1      -1.703  -0.083  -5.262  1.00  0.00     0.028 A 
ATOM     22  H   UNL     1       0.716  -2.270  -5.446  1.00  0.00     0.166 HD
BRANCH  15  23
ATOM     23  C   UNL     1      -0.823   1.681  -0.691  1.00  0.00     0.047 A 
ATOM     24  C   UNL     1      -2.039   1.527   0.020  1.00  0.00     0.315 A 
ATOM     25  C   UNL     1       0.067   2.705  -0.315  1.00  0.00     0.031 A 
ATOM     26  N   UNL     1      -2.332   2.338   1.080  1.00  0.00    -0.215 N 
ATOM     27  C   UNL     1      -0.281   3.496   0.773  1.00  0.00     0.065 A 
ATOM     28  C   UNL     1      -1.455   3.306   1.449  1.00  0.00     0.171 A 
ATOM     29  C   UNL     1       0.402   4.585   1.419  1.00  0.00     0.089 C 
ATOM     30  C   UNL     1      -1.595   4.273   2.586  1.00  0.00    -0.006 C 
ATOM     31  N   UNL     1      -0.366   5.073   2.515  1.00  0.00    -0.641 NA
ATOM     32  H   UNL     1      -3.224   2.207   1.608  1.00  0.00     0.453 HD
ATOM     33  O   UNL     1       1.521   5.054   1.083  1.00  0.00    -0.315 OA
ENDBRANCH  15  23
ENDBRANCH   1  13
TORSDOF 5


