MODEL 1
REMARK VINA RESULT:      -9.1      0.000      0.000
REMARK SMILES [H]/N=c1\[nH]cccc1[NH2+]c1ccc(C(C)=O)c(F)c1
REMARK SMILES IDX 9 1 8 4 3 5 4 6 7 7 5 8 6 9 2 11 1 12 10 13 11 14 19 15
REMARK SMILES IDX 12 16 17 17 13 18 18 19 14 20 16 21 15 22
REMARK H PARENT 9 2 9 3 4 10
ROOT
ATOM      1  N   UNL     1      43.563 131.895  17.610  1.00  0.00    -0.278 N 
ATOM      2  H   UNL     1      43.387 132.920  17.495  1.00  0.00     0.358 HD
ATOM      3  H   UNL     1      42.643 131.420  17.450  1.00  0.00     0.358 HD
ENDROOT
BRANCH   1   4
ATOM      4  C   UNL     1      44.048 131.621  18.944  1.00  0.00     0.177 A 
ATOM      5  C   UNL     1      43.293 131.952  20.093  1.00  0.00     0.185 A 
ATOM      6  N   UNL     1      43.776 131.649  21.336  1.00  0.00    -0.342 N 
ATOM      7  C   UNL     1      45.283 130.972  19.121  1.00  0.00     0.074 A 
ATOM      8  C   UNL     1      44.973 131.027  21.506  1.00  0.00     0.084 A 
ATOM      9  C   UNL     1      45.746 130.678  20.401  1.00  0.00     0.024 A 
ATOM     10  H   UNL     1      43.222 131.895  22.188  1.00  0.00     0.168 HD
BRANCH   5  11
ATOM     11  N   UNL     1      42.147 132.546  19.971  1.00  0.00    -0.279 NA
ATOM     12  H   UNL     1      41.690 132.689  19.043  1.00  0.00     0.190 HD
ENDBRANCH   5  11
ENDBRANCH   1   4
BRANCH   1  13
ATOM     13  C   UNL     1      44.535 131.461  16.635  1.00  0.00     0.137 A 
ATOM     14  C   UNL     1      45.441 132.377  16.080  1.00  0.00     0.069 A 
ATOM     15  C   UNL     1      44.606 130.114  16.246  1.00  0.00     0.108 A 
ATOM     16  C   UNL     1      46.399 131.955  15.155  1.00  0.00     0.021 A 
ATOM     17  C   UNL     1      45.562 129.685  15.321  1.00  0.00     0.139 A 
ATOM     18  C   UNL     1      46.481 130.605  14.766  1.00  0.00     0.053 A 
ATOM     19  F   UNL     1      45.558 128.379  14.955  1.00  0.00    -0.206 F 
BRANCH  18  20
ATOM     20  C   UNL     1      47.523 130.197  13.784  1.00  0.00     0.162 C 
ATOM     21  O   UNL     1      48.148 129.115  13.959  1.00  0.00    -0.294 OA
ATOM     22  C   UNL     1      47.872 131.027  12.586  1.00  0.00     0.093 C 
ENDBRANCH  18  20
ENDBRANCH   1  13
TORSDOF 4
ENDMDL
MODEL 2
REMARK VINA RESULT:      -8.9      3.408      6.205
REMARK SMILES [H]/N=c1\[nH]cccc1[NH2+]c1ccc(C(C)=O)c(F)c1
REMARK SMILES IDX 9 1 8 4 3 5 4 6 7 7 5 8 6 9 2 11 1 12 10 13 11 14 19 15
REMARK SMILES IDX 12 16 17 17 13 18 18 19 14 20 16 21 15 22
REMARK H PARENT 9 2 9 3 4 10
ROOT
ATOM      1  N   UNL     1      44.518 131.031  14.949  1.00  0.00    -0.278 N 
ATOM      2  H   UNL     1      43.767 130.360  14.665  1.00  0.00     0.358 HD
ATOM      3  H   UNL     1      44.278 131.945  14.498  1.00  0.00     0.358 HD
ENDROOT
BRANCH   1   4
ATOM      4  C   UNL     1      45.805 130.562  14.488  1.00  0.00     0.177 A 
ATOM      5  C   UNL     1      46.238 129.234  14.715  1.00  0.00     0.185 A 
ATOM      6  N   UNL     1      47.450 128.822  14.236  1.00  0.00    -0.342 N 
ATOM      7  C   UNL     1      46.644 131.421  13.758  1.00  0.00     0.074 A 
ATOM      8  C   UNL     1      48.264 129.657  13.535  1.00  0.00     0.084 A 
ATOM      9  C   UNL     1      47.874 130.970  13.284  1.00  0.00     0.024 A 
ATOM     10  H   UNL     1      47.775 127.843  14.404  1.00  0.00     0.168 HD
BRANCH   5  11
ATOM     11  N   UNL     1      45.490 128.409  15.380  1.00  0.00    -0.279 NA
ATOM     12  H   UNL     1      45.834 127.473  15.691  1.00  0.00     0.190 HD
ENDBRANCH   5  11
ENDBRANCH   1   4
BRANCH   1  13
ATOM     13  C   UNL     1      44.529 131.162  16.386  1.00  0.00     0.137 A 
ATOM     14  C   UNL     1      45.676 130.824  17.121  1.00  0.00     0.069 A 
ATOM     15  C   UNL     1      43.405 131.651  17.069  1.00  0.00     0.108 A 
ATOM     16  C   UNL     1      45.698 130.973  18.509  1.00  0.00     0.021 A 
ATOM     17  C   UNL     1      43.421 131.803  18.459  1.00  0.00     0.139 A 
ATOM     18  C   UNL     1      44.578 131.470  19.199  1.00  0.00     0.053 A 
ATOM     19  F   UNL     1      42.292 132.245  19.067  1.00  0.00    -0.206 F 
BRANCH  18  20
ATOM     20  C   UNL     1      44.647 131.621  20.679  1.00  0.00     0.162 C 
ATOM     21  O   UNL     1      45.690 132.099  21.204  1.00  0.00    -0.294 OA
ATOM     22  C   UNL     1      43.523 131.218  21.584  1.00  0.00     0.093 C 
ENDBRANCH  18  20
ENDBRANCH   1  13
TORSDOF 4
ENDMDL
MODEL 3
REMARK VINA RESULT:      -8.5      3.227      6.129
REMARK SMILES [H]/N=c1\[nH]cccc1[NH2+]c1ccc(C(C)=O)c(F)c1
REMARK SMILES IDX 9 1 8 4 3 5 4 6 7 7 5 8 6 9 2 11 1 12 10 13 11 14 19 15
REMARK SMILES IDX 12 16 17 17 13 18 18 19 14 20 16 21 15 22
REMARK H PARENT 9 2 9 3 4 10
ROOT
ATOM      1  N   UNL     1      44.219 131.191  15.346  1.00  0.00    -0.278 N 
ATOM      2  H   UNL     1      43.455 130.534  15.062  1.00  0.00     0.358 HD
ATOM      3  H   UNL     1      43.981 132.117  14.919  1.00  0.00     0.358 HD
ENDROOT
BRANCH   1   4
ATOM      4  C   UNL     1      45.491 130.716  14.849  1.00  0.00     0.177 A 
ATOM      5  C   UNL     1      45.857 129.352  14.925  1.00  0.00     0.185 A 
ATOM      6  N   UNL     1      47.057 128.940  14.417  1.00  0.00    -0.342 N 
ATOM      7  C   UNL     1      46.383 131.613  14.236  1.00  0.00     0.074 A 
ATOM      8  C   UNL     1      47.922 129.810  13.829  1.00  0.00     0.084 A 
ATOM      9  C   UNL     1      47.598 131.161  13.728  1.00  0.00     0.024 A 
ATOM     10  H   UNL     1      47.333 127.933  14.473  1.00  0.00     0.168 HD
BRANCH   5  11
ATOM     11  N   UNL     1      45.059 128.492  15.479  1.00  0.00    -0.279 NA
ATOM     12  H   UNL     1      44.024 128.520  15.335  1.00  0.00     0.190 HD
ENDBRANCH   5  11
ENDBRANCH   1   4
BRANCH   1  13
ATOM     13  C   UNL     1      44.260 131.291  16.785  1.00  0.00     0.137 A 
ATOM     14  C   UNL     1      43.153 131.783  17.494  1.00  0.00     0.069 A 
ATOM     15  C   UNL     1      45.395 130.875  17.499  1.00  0.00     0.108 A 
ATOM     16  C   UNL     1      43.181 131.857  18.888  1.00  0.00     0.021 A 
ATOM     17  C   UNL     1      45.428 130.947  18.895  1.00  0.00     0.139 A 
ATOM     18  C   UNL     1      44.311 131.435  19.611  1.00  0.00     0.053 A 
ATOM     19  F   UNL     1      46.565 130.566  19.528  1.00  0.00    -0.206 F 
BRANCH  18  20
ATOM     20  C   UNL     1      44.295 131.523  21.098  1.00  0.00     0.162 C 
ATOM     21  O   UNL     1      45.289 132.015  21.699  1.00  0.00    -0.294 OA
ATOM     22  C   UNL     1      43.140 131.042  21.921  1.00  0.00     0.093 C 
ENDBRANCH  18  20
ENDBRANCH   1  13
TORSDOF 4
ENDMDL
MODEL 4
REMARK VINA RESULT:      -8.4      1.163      1.629
REMARK SMILES [H]/N=c1\[nH]cccc1[NH2+]c1ccc(C(C)=O)c(F)c1
REMARK SMILES IDX 9 1 8 4 3 5 4 6 7 7 5 8 6 9 2 11 1 12 10 13 11 14 19 15
REMARK SMILES IDX 12 16 17 17 13 18 18 19 14 20 16 21 15 22
REMARK H PARENT 9 2 9 3 4 10
ROOT
ATOM      1  N   UNL     1      43.353 131.704  17.351  1.00  0.00    -0.278 N 
ATOM      2  H   UNL     1      43.049 132.678  17.118  1.00  0.00     0.358 HD
ATOM      3  H   UNL     1      42.510 131.097  17.222  1.00  0.00     0.358 HD
ENDROOT
BRANCH   1   4
ATOM      4  C   UNL     1      43.818 131.642  18.718  1.00  0.00     0.177 A 
ATOM      5  C   UNL     1      43.068 132.192  19.785  1.00  0.00     0.185 A 
ATOM      6  N   UNL     1      43.530 132.085  21.067  1.00  0.00    -0.342 N 
ATOM      7  C   UNL     1      45.025 130.988  19.020  1.00  0.00     0.074 A 
ATOM      8  C   UNL     1      44.701 131.458  21.356  1.00  0.00     0.084 A 
ATOM      9  C   UNL     1      45.468 130.898  20.336  1.00  0.00     0.024 A 
ATOM     10  H   UNL     1      42.979 132.492  21.857  1.00  0.00     0.168 HD
BRANCH   5  11
ATOM     11  N   UNL     1      41.946 132.798  19.548  1.00  0.00    -0.279 NA
ATOM     12  H   UNL     1      41.222 132.937  20.288  1.00  0.00     0.190 HD
ENDBRANCH   5  11
ENDBRANCH   1   4
BRANCH   1  13
ATOM     13  C   UNL     1      44.410 131.302  16.454  1.00  0.00     0.137 A 
ATOM     14  C   UNL     1      44.515 129.967  16.035  1.00  0.00     0.069 A 
ATOM     15  C   UNL     1      45.333 132.241  15.969  1.00  0.00     0.108 A 
ATOM     16  C   UNL     1      45.522 129.580  15.147  1.00  0.00     0.021 A 
ATOM     17  C   UNL     1      46.343 131.860  15.080  1.00  0.00     0.139 A 
ATOM     18  C   UNL     1      46.446 130.517  14.651  1.00  0.00     0.053 A 
ATOM     19  F   UNL     1      47.228 132.804  14.675  1.00  0.00    -0.206 F 
BRANCH  18  20
ATOM     20  C   UNL     1      47.498 130.063  13.700  1.00  0.00     0.162 C 
ATOM     21  O   UNL     1      48.091 128.969  13.909  1.00  0.00    -0.294 OA
ATOM     22  C   UNL     1      47.895 130.861  12.495  1.00  0.00     0.093 C 
ENDBRANCH  18  20
ENDBRANCH   1  13
TORSDOF 4
ENDMDL
MODEL 5
REMARK VINA RESULT:      -8.0      3.224      6.272
REMARK SMILES [H]/N=c1\[nH]cccc1[NH2+]c1ccc(C(C)=O)c(F)c1
REMARK SMILES IDX 9 1 8 4 3 5 4 6 7 7 5 8 6 9 2 11 1 12 10 13 11 14 19 15
REMARK SMILES IDX 12 16 17 17 13 18 18 19 14 20 16 21 15 22
REMARK H PARENT 9 2 9 3 4 10
ROOT
ATOM      1  N   UNL     1      43.856 131.980  16.600  1.00  0.00    -0.278 N 
ATOM      2  H   UNL     1      42.894 131.772  16.243  1.00  0.00     0.358 HD
ATOM      3  H   UNL     1      44.037 132.987  16.380  1.00  0.00     0.358 HD
ENDROOT
BRANCH   1   4
ATOM      4  C   UNL     1      44.824 131.135  15.938  1.00  0.00     0.177 A 
ATOM      5  C   UNL     1      45.999 131.665  15.356  1.00  0.00     0.185 A 
ATOM      6  N   UNL     1      46.904 130.827  14.766  1.00  0.00    -0.342 N 
ATOM      7  C   UNL     1      44.629 129.743  15.899  1.00  0.00     0.074 A 
ATOM      8  C   UNL     1      46.711 129.481  14.723  1.00  0.00     0.084 A 
ATOM      9  C   UNL     1      45.570 128.917  15.290  1.00  0.00     0.024 A 
ATOM     10  H   UNL     1      47.772 131.215  14.332  1.00  0.00     0.168 HD
BRANCH   5  11
ATOM     11  N   UNL     1      46.218 132.943  15.377  1.00  0.00    -0.279 NA
ATOM     12  H   UNL     1      47.040 133.375  14.898  1.00  0.00     0.190 HD
ENDBRANCH   5  11
ENDBRANCH   1   4
BRANCH   1  13
ATOM     13  C   UNL     1      43.900 131.755  18.025  1.00  0.00     0.137 A 
ATOM     14  C   UNL     1      42.724 131.810  18.789  1.00  0.00     0.069 A 
ATOM     15  C   UNL     1      45.113 131.455  18.664  1.00  0.00     0.108 A 
ATOM     16  C   UNL     1      42.761 131.568  20.164  1.00  0.00     0.021 A 
ATOM     17  C   UNL     1      45.156 131.212  20.041  1.00  0.00     0.139 A 
ATOM     18  C   UNL     1      43.971 131.259  20.811  1.00  0.00     0.053 A 
ATOM     19  F   UNL     1      46.362 130.963  20.609  1.00  0.00    -0.206 F 
BRANCH  18  20
ATOM     20  C   UNL     1      43.964 131.000  22.277  1.00  0.00     0.162 C 
ATOM     21  O   UNL     1      44.528 129.964  22.725  1.00  0.00    -0.294 OA
ATOM     22  C   UNL     1      43.301 131.921  23.255  1.00  0.00     0.093 C 
ENDBRANCH  18  20
ENDBRANCH   1  13
TORSDOF 4
ENDMDL
MODEL 6
REMARK VINA RESULT:      -7.9      0.998      1.028
REMARK SMILES [H]/N=c1\[nH]cccc1[NH2+]c1ccc(C(C)=O)c(F)c1
REMARK SMILES IDX 9 1 8 4 3 5 4 6 7 7 5 8 6 9 2 11 1 12 10 13 11 14 19 15
REMARK SMILES IDX 12 16 17 17 13 18 18 19 14 20 16 21 15 22
REMARK H PARENT 9 2 9 3 4 10
ROOT
ATOM      1  N   UNL     1      43.179 131.867  17.521  1.00  0.00    -0.278 N 
ATOM      2  H   UNL     1      42.935 132.864  17.315  1.00  0.00     0.358 HD
ATOM      3  H   UNL     1      42.297 131.318  17.388  1.00  0.00     0.358 HD
ENDROOT
BRANCH   1   4
ATOM      4  C   UNL     1      43.654 131.742  18.880  1.00  0.00     0.177 A 
ATOM      5  C   UNL     1      42.816 132.006  19.989  1.00  0.00     0.185 A 
ATOM      6  N   UNL     1      43.297 131.847  21.258  1.00  0.00    -0.342 N 
ATOM      7  C   UNL     1      44.968 131.308  19.126  1.00  0.00     0.074 A 
ATOM      8  C   UNL     1      44.571 131.433  21.495  1.00  0.00     0.084 A 
ATOM      9  C   UNL     1      45.427 131.156  20.431  1.00  0.00     0.024 A 
ATOM     10  H   UNL     1      42.681 132.044  22.080  1.00  0.00     0.168 HD
BRANCH   5  11
ATOM     11  N   UNL     1      41.595 132.403  19.803  1.00  0.00    -0.279 NA
ATOM     12  H   UNL     1      41.322 133.410  19.861  1.00  0.00     0.190 HD
ENDBRANCH   5  11
ENDBRANCH   1   4
BRANCH   1  13
ATOM     13  C   UNL     1      44.197 131.420  16.601  1.00  0.00     0.137 A 
ATOM     14  C   UNL     1      44.099 131.718  15.233  1.00  0.00     0.069 A 
ATOM     15  C   UNL     1      45.313 130.703  17.062  1.00  0.00     0.108 A 
ATOM     16  C   UNL     1      45.096 131.309  14.345  1.00  0.00     0.021 A 
ATOM     17  C   UNL     1      46.314 130.291  16.177  1.00  0.00     0.139 A 
ATOM     18  C   UNL     1      46.221 130.597  14.801  1.00  0.00     0.053 A 
ATOM     19  F   UNL     1      47.349 129.570  16.675  1.00  0.00    -0.206 F 
BRANCH  18  20
ATOM     20  C   UNL     1      47.265 130.187  13.821  1.00  0.00     0.162 C 
ATOM     21  O   UNL     1      47.766 129.032  13.899  1.00  0.00    -0.294 OA
ATOM     22  C   UNL     1      47.757 131.099  12.739  1.00  0.00     0.093 C 
ENDBRANCH  18  20
ENDBRANCH   1  13
TORSDOF 4
ENDMDL
MODEL 7
REMARK VINA RESULT:      -7.8      1.177      1.265
REMARK SMILES [H]/N=c1\[nH]cccc1[NH2+]c1ccc(C(C)=O)c(F)c1
REMARK SMILES IDX 9 1 8 4 3 5 4 6 7 7 5 8 6 9 2 11 1 12 10 13 11 14 19 15
REMARK SMILES IDX 12 16 17 17 13 18 18 19 14 20 16 21 15 22
REMARK H PARENT 9 2 9 3 4 10
ROOT
ATOM      1  N   UNL     1      43.175 132.000  17.979  1.00  0.00    -0.278 N 
ATOM      2  H   UNL     1      42.995 133.025  17.867  1.00  0.00     0.358 HD
ATOM      3  H   UNL     1      42.256 131.523  17.820  1.00  0.00     0.358 HD
ENDROOT
BRANCH   1   4
ATOM      4  C   UNL     1      43.666 131.724  19.310  1.00  0.00     0.177 A 
ATOM      5  C   UNL     1      42.915 132.051  20.463  1.00  0.00     0.185 A 
ATOM      6  N   UNL     1      43.404 131.746  21.702  1.00  0.00    -0.342 N 
ATOM      7  C   UNL     1      44.903 131.077  19.481  1.00  0.00     0.074 A 
ATOM      8  C   UNL     1      44.603 131.126  21.866  1.00  0.00     0.084 A 
ATOM      9  C   UNL     1      45.372 130.781  20.757  1.00  0.00     0.024 A 
ATOM     10  H   UNL     1      42.852 131.989  22.557  1.00  0.00     0.168 HD
BRANCH   5  11
ATOM     11  N   UNL     1      41.767 132.643  20.347  1.00  0.00    -0.279 NA
ATOM     12  H   UNL     1      41.654 133.672  20.490  1.00  0.00     0.190 HD
ENDBRANCH   5  11
ENDBRANCH   1   4
BRANCH   1  13
ATOM     13  C   UNL     1      44.144 131.571  16.999  1.00  0.00     0.137 A 
ATOM     14  C   UNL     1      45.409 131.116  17.403  1.00  0.00     0.069 A 
ATOM     15  C   UNL     1      43.830 131.578  15.631  1.00  0.00     0.108 A 
ATOM     16  C   UNL     1      46.339 130.678  16.459  1.00  0.00     0.021 A 
ATOM     17  C   UNL     1      44.757 131.140  14.681  1.00  0.00     0.139 A 
ATOM     18  C   UNL     1      46.028 130.675  15.087  1.00  0.00     0.053 A 
ATOM     19  F   UNL     1      44.410 131.205  13.371  1.00  0.00    -0.206 F 
BRANCH  18  20
ATOM     20  C   UNL     1      47.047 130.190  14.114  1.00  0.00     0.162 C 
ATOM     21  O   UNL     1      47.483 129.010  14.211  1.00  0.00    -0.294 OA
ATOM     22  C   UNL     1      47.590 131.055  13.017  1.00  0.00     0.093 C 
ENDBRANCH  18  20
ENDBRANCH   1  13
TORSDOF 4
ENDMDL
MODEL 8
REMARK VINA RESULT:      -7.5      2.675      3.984
REMARK SMILES [H]/N=c1\[nH]cccc1[NH2+]c1ccc(C(C)=O)c(F)c1
REMARK SMILES IDX 9 1 8 4 3 5 4 6 7 7 5 8 6 9 2 11 1 12 10 13 11 14 19 15
REMARK SMILES IDX 12 16 17 17 13 18 18 19 14 20 16 21 15 22
REMARK H PARENT 9 2 9 3 4 10
ROOT
ATOM      1  N   UNL     1      44.969 131.488  21.814  1.00  0.00    -0.278 N 
ATOM      2  H   UNL     1      45.969 131.403  22.112  1.00  0.00     0.358 HD
ATOM      3  H   UNL     1      44.657 132.443  22.108  1.00  0.00     0.358 HD
ENDROOT
BRANCH   1   4
ATOM      4  C   UNL     1      44.170 130.473  22.463  1.00  0.00     0.177 A 
ATOM      5  C   UNL     1      42.857 130.738  22.920  1.00  0.00     0.185 A 
ATOM      6  N   UNL     1      42.125 129.741  23.501  1.00  0.00    -0.342 N 
ATOM      7  C   UNL     1      44.678 129.171  22.615  1.00  0.00     0.074 A 
ATOM      8  C   UNL     1      42.621 128.484  23.653  1.00  0.00     0.084 A 
ATOM      9  C   UNL     1      43.906 128.178  23.212  1.00  0.00     0.024 A 
ATOM     10  H   UNL     1      41.156 129.934  23.843  1.00  0.00     0.168 HD
BRANCH   5  11
ATOM     11  N   UNL     1      42.350 131.925  22.793  1.00  0.00    -0.279 NA
ATOM     12  H   UNL     1      41.668 132.160  22.037  1.00  0.00     0.190 HD
ENDBRANCH   5  11
ENDBRANCH   1   4
BRANCH   1  13
ATOM     13  C   UNL     1      44.879 131.343  20.381  1.00  0.00     0.137 A 
ATOM     14  C   UNL     1      45.896 130.689  19.669  1.00  0.00     0.069 A 
ATOM     15  C   UNL     1      43.763 131.829  19.681  1.00  0.00     0.108 A 
ATOM     16  C   UNL     1      45.800 130.525  18.285  1.00  0.00     0.021 A 
ATOM     17  C   UNL     1      43.662 131.668  18.296  1.00  0.00     0.139 A 
ATOM     18  C   UNL     1      44.682 131.003  17.578  1.00  0.00     0.053 A 
ATOM     19  F   UNL     1      42.579 132.191  17.670  1.00  0.00    -0.206 F 
BRANCH  18  20
ATOM     20  C   UNL     1      44.615 130.800  16.104  1.00  0.00     0.162 C 
ATOM     21  O   UNL     1      44.064 131.676  15.383  1.00  0.00    -0.294 OA
ATOM     22  C   UNL     1      45.174 129.582  15.433  1.00  0.00     0.093 C 
ENDBRANCH  18  20
ENDBRANCH   1  13
TORSDOF 4
ENDMDL
MODEL 9
REMARK VINA RESULT:      -7.5      3.445      6.289
REMARK SMILES [H]/N=c1\[nH]cccc1[NH2+]c1ccc(C(C)=O)c(F)c1
REMARK SMILES IDX 9 1 8 4 3 5 4 6 7 7 5 8 6 9 2 11 1 12 10 13 11 14 19 15
REMARK SMILES IDX 12 16 17 17 13 18 18 19 14 20 16 21 15 22
REMARK H PARENT 9 2 9 3 4 10
ROOT
ATOM      1  N   UNL     1      43.889 131.528  16.257  1.00  0.00    -0.278 N 
ATOM      2  H   UNL     1      42.998 131.067  15.958  1.00  0.00     0.358 HD
ATOM      3  H   UNL     1      43.827 132.522  15.934  1.00  0.00     0.358 HD
ENDROOT
BRANCH   1   4
ATOM      4  C   UNL     1      45.020 130.867  15.646  1.00  0.00     0.177 A 
ATOM      5  C   UNL     1      46.156 131.588  15.208  1.00  0.00     0.185 A 
ATOM      6  N   UNL     1      47.217 130.920  14.662  1.00  0.00    -0.342 N 
ATOM      7  C   UNL     1      45.026 129.468  15.511  1.00  0.00     0.074 A 
ATOM      8  C   UNL     1      47.218 129.567  14.527  1.00  0.00     0.084 A 
ATOM      9  C   UNL     1      46.122 128.818  14.950  1.00  0.00     0.024 A 
ATOM     10  H   UNL     1      48.057 131.450  14.335  1.00  0.00     0.168 HD
BRANCH   5  11
ATOM     11  N   UNL     1      46.192 132.879  15.320  1.00  0.00    -0.279 NA
ATOM     12  H   UNL     1      45.795 133.377  16.149  1.00  0.00     0.190 HD
ENDBRANCH   5  11
ENDBRANCH   1   4
BRANCH   1  13
ATOM     13  C   UNL     1      44.004 131.467  17.695  1.00  0.00     0.137 A 
ATOM     14  C   UNL     1      45.186 131.006  18.294  1.00  0.00     0.069 A 
ATOM     15  C   UNL     1      42.946 131.891  18.515  1.00  0.00     0.108 A 
ATOM     16  C   UNL     1      45.308 130.970  19.685  1.00  0.00     0.021 A 
ATOM     17  C   UNL     1      43.063 131.857  19.908  1.00  0.00     0.139 A 
ATOM     18  C   UNL     1      44.255 131.401  20.513  1.00  0.00     0.053 A 
ATOM     19  F   UNL     1      41.994 132.244  20.648  1.00  0.00    -0.206 F 
BRANCH  18  20
ATOM     20  C   UNL     1      44.431 131.354  21.991  1.00  0.00     0.162 C 
ATOM     21  O   UNL     1      45.270 132.121  22.539  1.00  0.00    -0.294 OA
ATOM     22  C   UNL     1      43.653 130.419  22.866  1.00  0.00     0.093 C 
ENDBRANCH  18  20
ENDBRANCH   1  13
TORSDOF 4
ENDMDL


