REMARK SMILES N#C[C@H]1C[C@@H]1C(=O)N(c1ccc2cc[nH]c2c1)c1c2o[n-]cc-2cc(-n2nc3ccccc3n2)c1=O
REMARK SMILES IDX 6 1 7 2 5 3 3 4 4 5 2 6 1 7 8 8 9 9 10 10 17 11 11 12 16 13
REMARK SMILES IDX 12 14 15 15 13 16 14 17 18 19 19 20 35 21 20 22 23 23 25 24
REMARK SMILES IDX 21 25 22 26 24 27 36 28 26 29 27 30 34 31 28 32 33 33 29 34
REMARK SMILES IDX 32 35 30 36 31 37
REMARK H PARENT 15 18
ROOT
ATOM      1  C   UNL     1       1.689   3.131   1.144  1.00  0.00     0.236 C 
ATOM      2  O   UNL     1       2.708   3.460   1.810  1.00  0.00    -0.274 OA
ENDROOT
BRANCH   1   3
ATOM      3  C   UNL     1       0.475   4.015   1.186  1.00  0.00     0.098 C 
ATOM      4  C   UNL     1       0.018   4.510  -0.181  1.00  0.00     0.106 C 
ATOM      5  C   UNL     1       0.720   5.463   0.774  1.00  0.00     0.034 C 
BRANCH   4   6
ATOM      6  C   UNL     1      -1.433   4.705  -0.279  1.00  0.00     0.066 C 
ATOM      7  N   UNL     1      -2.578   4.853  -0.356  1.00  0.00    -0.198 NA
ENDBRANCH   4   6
ENDBRANCH   1   3
BRANCH   1   8
ATOM      8  N   UNL     1       1.685   1.899   0.392  1.00  0.00    -0.273 N 
BRANCH   8   9
ATOM      9  C   UNL     1       2.920   1.318  -0.072  1.00  0.00     0.051 A 
ATOM     10  C   UNL     1       3.946   2.140  -0.612  1.00  0.00     0.027 A 
ATOM     11  C   UNL     1       3.106  -0.084  -0.020  1.00  0.00     0.053 A 
ATOM     12  C   UNL     1       5.145   1.578  -1.085  1.00  0.00     0.012 A 
ATOM     13  C   UNL     1       4.307  -0.607  -0.496  1.00  0.00     0.047 A 
ATOM     14  C   UNL     1       5.289   0.196  -1.008  1.00  0.00    -0.000 A 
ATOM     15  N   UNL     1       4.676  -1.897  -0.535  1.00  0.00    -0.361 N 
ATOM     16  C   UNL     1       6.331  -0.620  -1.392  1.00  0.00     0.028 A 
ATOM     17  C   UNL     1       5.914  -1.911  -1.082  1.00  0.00     0.083 A 
ATOM     18  H   UNL     1       4.125  -2.723  -0.214  1.00  0.00     0.166 HD
ENDBRANCH   8   9
BRANCH   8  19
ATOM     19  C   UNL     1       0.436   1.273   0.038  1.00  0.00     0.141 A 
ATOM     20  C   UNL     1       0.101   1.062  -1.293  1.00  0.00     0.141 A 
ATOM     21  C   UNL     1      -0.508   0.875   1.020  1.00  0.00     0.233 A 
ATOM     22  O   UNL     1       0.770   1.339  -2.384  1.00  0.00    -0.555 OA
ATOM     23  C   UNL     1      -1.141   0.486  -1.665  1.00  0.00     0.000 A 
ATOM     24  C   UNL     1      -1.768   0.294   0.647  1.00  0.00     0.136 A 
ATOM     25  N   UNL     1       0.079   0.995  -3.441  1.00  0.00    -0.513 NA
ATOM     26  C   UNL     1      -1.105   0.467  -3.038  1.00  0.00    -0.098 A 
ATOM     27  C   UNL     1      -2.081   0.105  -0.724  1.00  0.00     0.044 A 
ATOM     28  O   UNL     1      -0.221   1.037   2.236  1.00  0.00    -0.285 OA
BRANCH  24  29
ATOM     29  N   UNL     1      -2.735  -0.101   1.645  1.00  0.00    -0.146 N 
ATOM     30  N   UNL     1      -2.501  -0.101   2.958  1.00  0.00    -0.148 NA
ATOM     31  N   UNL     1      -3.966  -0.520   1.346  1.00  0.00    -0.148 NA
ATOM     32  C   UNL     1      -3.640  -0.536   3.515  1.00  0.00     0.113 A 
ATOM     33  C   UNL     1      -4.537  -0.792   2.528  1.00  0.00     0.113 A 
ATOM     34  C   UNL     1      -3.941  -0.725   4.860  1.00  0.00     0.032 A 
ATOM     35  C   UNL     1      -5.821  -1.259   2.793  1.00  0.00     0.032 A 
ATOM     36  C   UNL     1      -5.231  -1.199   5.172  1.00  0.00     0.002 A 
ATOM     37  C   UNL     1      -6.167  -1.466   4.143  1.00  0.00     0.002 A 
ENDBRANCH  24  29
ENDBRANCH   8  19
ENDBRANCH   1   8
TORSDOF 6


