REMARK SMILES C[C@H](Cn1cccc1C/N=C(\O)c1ccc2cc[nH]c2c1N)OCCC#N
REMARK SMILES IDX 8 1 7 2 6 3 5 4 4 5 9 6 10 7 11 8 12 9 13 11 14 12 21 13
REMARK SMILES IDX 15 14 20 15 16 16 19 17 17 18 18 19 22 21 3 24 2 25 1 26
REMARK SMILES IDX 23 27 24 28 25 29 26 30 27 31
REMARK H PARENT 12 10 19 20 22 22 22 23
ROOT
ATOM      1  C   UNL     1      -2.350   0.406  -0.110  1.00  0.00     0.039 A 
ATOM      2  C   UNL     1      -3.230   1.446   0.126  1.00  0.00     0.025 A 
ATOM      3  C   UNL     1      -3.857   1.164   1.323  1.00  0.00     0.020 A 
ATOM      4  C   UNL     1      -3.329  -0.028   1.776  1.00  0.00     0.086 A 
ATOM      5  N   UNL     1      -2.411  -0.489   0.903  1.00  0.00    -0.347 N 
ENDROOT
BRANCH   1   6
ATOM      6  C   UNL     1      -1.393   0.346  -1.263  1.00  0.00     0.200 C 
BRANCH   6   7
ATOM      7  N   UNL     1      -0.051   0.666  -0.792  1.00  0.00    -0.245 NA
BRANCH   7   8
ATOM      8  C   UNL     1       1.024   0.654  -1.527  1.00  0.00     0.216 C 
BRANCH   8   9
ATOM      9  O   UNL     1       0.979   0.314  -2.883  1.00  0.00    -0.493 OA
ATOM     10  H   UNL     1       0.121   0.087  -3.369  1.00  0.00     0.295 HD
ENDBRANCH   8   9
BRANCH   8  11
ATOM     11  C   UNL     1       2.327   0.967  -0.901  1.00  0.00     0.061 A 
ATOM     12  C   UNL     1       2.582   0.488   0.411  1.00  0.00     0.016 A 
ATOM     13  C   UNL     1       3.342   1.689  -1.596  1.00  0.00     0.069 A 
ATOM     14  C   UNL     1       3.826   0.690   1.027  1.00  0.00     0.011 A 
ATOM     15  C   UNL     1       4.577   1.858  -0.949  1.00  0.00     0.070 A 
ATOM     16  C   UNL     1       4.801   1.374   0.314  1.00  0.00     0.002 A 
ATOM     17  N   UNL     1       5.670   2.503  -1.400  1.00  0.00    -0.359 N 
ATOM     18  C   UNL     1       6.086   1.717   0.674  1.00  0.00     0.028 A 
ATOM     19  C   UNL     1       6.592   2.415  -0.414  1.00  0.00     0.083 A 
ATOM     20  H   UNL     1       5.801   2.984  -2.316  1.00  0.00     0.166 HD
BRANCH  13  21
ATOM     21  N   UNL     1       3.106   2.283  -2.881  1.00  0.00    -0.396 N 
ATOM     22  H   UNL     1       2.139   2.440  -3.240  1.00  0.00     0.156 HD
ATOM     23  H   UNL     1       3.888   2.663  -3.457  1.00  0.00     0.156 HD
ENDBRANCH  13  21
ENDBRANCH   8  11
ENDBRANCH   7   8
ENDBRANCH   6   7
ENDBRANCH   1   6
BRANCH   5  24
ATOM     24  C   UNL     1      -1.628  -1.720   1.066  1.00  0.00     0.153 C 
BRANCH  24  25
ATOM     25  C   UNL     1      -2.351  -2.951   0.489  1.00  0.00     0.135 C 
ATOM     26  C   UNL     1      -3.612  -3.294   1.288  1.00  0.00     0.040 C 
BRANCH  25  27
ATOM     27  O   UNL     1      -2.702  -2.701  -0.863  1.00  0.00    -0.376 OA
BRANCH  27  28
ATOM     28  C   UNL     1      -2.476  -3.832  -1.683  1.00  0.00     0.176 C 
BRANCH  28  29
ATOM     29  C   UNL     1      -1.052  -3.806  -2.244  1.00  0.00     0.148 C 
BRANCH  29  30
ATOM     30  C   UNL     1      -0.827  -4.954  -3.128  1.00  0.00     0.065 C 
ATOM     31  N   UNL     1      -0.649  -5.860  -3.826  1.00  0.00    -0.198 NA
ENDBRANCH  29  30
ENDBRANCH  28  29
ENDBRANCH  27  28
ENDBRANCH  25  27
ENDBRANCH  24  25
ENDBRANCH   5  24
TORSDOF 12


