MODEL 1
REMARK VINA RESULT:     -10.4      0.000      0.000
REMARK SMILES c1ccc2[nH]c(Nc3cn4ccccc4n3)cc2c1
REMARK SMILES IDX 1 1 2 2 3 3 4 4 5 5 6 6 17 7 18 8 19 9 7 11 8 13 9 14 16 15
REMARK SMILES IDX 10 16 15 17 11 18 14 19 12 20 13 21
REMARK H PARENT 5 10 7 12
ROOT
ATOM      1  C   UNL     1      48.032 129.316  13.713  1.00  0.00     0.001 A 
ATOM      2  C   UNL     1      48.067 130.598  13.118  1.00  0.00     0.002 A 
ATOM      3  C   UNL     1      47.166 131.598  13.527  1.00  0.00     0.027 A 
ATOM      4  C   UNL     1      46.247 131.277  14.525  1.00  0.00     0.047 A 
ATOM      5  N   UNL     1      45.316 132.081  15.065  1.00  0.00    -0.341 N 
ATOM      6  C   UNL     1      44.676 131.327  15.989  1.00  0.00     0.109 A 
ATOM      7  C   UNL     1      45.214 130.040  16.051  1.00  0.00     0.055 A 
ATOM      8  C   UNL     1      46.211 130.033  15.100  1.00  0.00     0.002 A 
ATOM      9  C   UNL     1      47.094 129.023  14.721  1.00  0.00     0.010 A 
ATOM     10  H   UNL     1      45.128 133.080  14.826  1.00  0.00     0.168 HD
ENDROOT
BRANCH   6  11
ATOM     11  N   UNL     1      43.632 131.852  16.823  1.00  0.00    -0.325 N 
ATOM     12  H   UNL     1      42.812 132.296  16.352  1.00  0.00     0.170 HD
BRANCH  11  13
ATOM     13  C   UNL     1      43.611 131.757  18.254  1.00  0.00     0.150 A 
ATOM     14  C   UNL     1      44.700 131.395  19.030  1.00  0.00     0.139 A 
ATOM     15  N   UNL     1      42.546 132.072  19.030  1.00  0.00    -0.211 NA
ATOM     16  N   UNL     1      44.299 131.472  20.306  1.00  0.00    -0.305 N 
ATOM     17  C   UNL     1      43.018 131.875  20.279  1.00  0.00     0.139 A 
ATOM     18  C   UNL     1      44.983 131.219  21.451  1.00  0.00     0.093 A 
ATOM     19  C   UNL     1      42.302 132.060  21.460  1.00  0.00     0.048 A 
ATOM     20  C   UNL     1      44.311 131.388  22.671  1.00  0.00     0.018 A 
ATOM     21  C   UNL     1      42.967 131.808  22.671  1.00  0.00     0.005 A 
ENDBRANCH  11  13
ENDBRANCH   6  11
TORSDOF 2
ENDMDL
MODEL 2
REMARK VINA RESULT:     -10.3      0.626      1.333
REMARK SMILES c1ccc2[nH]c(Nc3cn4ccccc4n3)cc2c1
REMARK SMILES IDX 1 1 2 2 3 3 4 4 5 5 6 6 17 7 18 8 19 9 7 11 8 13 9 14 16 15
REMARK SMILES IDX 10 16 15 17 11 18 14 19 12 20 13 21
REMARK H PARENT 5 10 7 12
ROOT
ATOM      1  C   UNL     1      48.110 129.354  13.743  1.00  0.00     0.001 A 
ATOM      2  C   UNL     1      48.001 130.569  13.029  1.00  0.00     0.002 A 
ATOM      3  C   UNL     1      47.034 131.524  13.392  1.00  0.00     0.027 A 
ATOM      4  C   UNL     1      46.197 131.227  14.466  1.00  0.00     0.047 A 
ATOM      5  N   UNL     1      45.225 131.998  14.980  1.00  0.00    -0.341 N 
ATOM      6  C   UNL     1      44.701 131.288  16.006  1.00  0.00     0.109 A 
ATOM      7  C   UNL     1      45.355 130.063  16.159  1.00  0.00     0.055 A 
ATOM      8  C   UNL     1      46.302 130.048  15.158  1.00  0.00     0.002 A 
ATOM      9  C   UNL     1      47.253 129.084  14.826  1.00  0.00     0.010 A 
ATOM     10  H   UNL     1      44.936 132.950  14.659  1.00  0.00     0.168 HD
ENDROOT
BRANCH   6  11
ATOM     11  N   UNL     1      43.655 131.802  16.845  1.00  0.00    -0.325 N 
ATOM     12  H   UNL     1      42.805 132.189  16.378  1.00  0.00     0.170 HD
BRANCH  11  13
ATOM     13  C   UNL     1      43.675 131.768  18.279  1.00  0.00     0.150 A 
ATOM     14  C   UNL     1      42.575 132.019  19.082  1.00  0.00     0.139 A 
ATOM     15  N   UNL     1      44.751 131.422  19.025  1.00  0.00    -0.211 NA
ATOM     16  N   UNL     1      42.981 131.841  20.347  1.00  0.00    -0.305 N 
ATOM     17  C   UNL     1      44.275 131.488  20.286  1.00  0.00     0.139 A 
ATOM     18  C   UNL     1      42.290 131.965  21.509  1.00  0.00     0.093 A 
ATOM     19  C   UNL     1      45.000 131.222  21.446  1.00  0.00     0.048 A 
ATOM     20  C   UNL     1      42.969 131.710  22.710  1.00  0.00     0.018 A 
ATOM     21  C   UNL     1      44.328 131.339  22.674  1.00  0.00     0.005 A 
ENDBRANCH  11  13
ENDBRANCH   6  11
TORSDOF 2
ENDMDL
MODEL 3
REMARK VINA RESULT:     -10.2      0.858      1.891
REMARK SMILES c1ccc2[nH]c(Nc3cn4ccccc4n3)cc2c1
REMARK SMILES IDX 1 1 2 2 3 3 4 4 5 5 6 6 17 7 18 8 19 9 7 11 8 13 9 14 16 15
REMARK SMILES IDX 10 16 15 17 11 18 14 19 12 20 13 21
REMARK H PARENT 5 10 7 12
ROOT
ATOM      1  C   UNL     1      48.072 130.474  13.146  1.00  0.00     0.001 A 
ATOM      2  C   UNL     1      47.995 129.225  13.805  1.00  0.00     0.002 A 
ATOM      3  C   UNL     1      47.063 129.021  14.838  1.00  0.00     0.027 A 
ATOM      4  C   UNL     1      46.232 130.085  15.185  1.00  0.00     0.047 A 
ATOM      5  N   UNL     1      45.274 130.099  16.126  1.00  0.00    -0.341 N 
ATOM      6  C   UNL     1      44.744 131.343  16.088  1.00  0.00     0.109 A 
ATOM      7  C   UNL     1      45.356 132.124  15.104  1.00  0.00     0.055 A 
ATOM      8  C   UNL     1      46.308 131.297  14.548  1.00  0.00     0.002 A 
ATOM      9  C   UNL     1      47.217 131.529  13.516  1.00  0.00     0.010 A 
ATOM     10  H   UNL     1      44.992 129.312  16.753  1.00  0.00     0.168 HD
ENDROOT
BRANCH   6  11
ATOM     11  N   UNL     1      43.645 131.740  16.923  1.00  0.00    -0.325 N 
ATOM     12  H   UNL     1      42.756 132.022  16.453  1.00  0.00     0.170 HD
BRANCH  11  13
ATOM     13  C   UNL     1      43.669 131.721  18.357  1.00  0.00     0.150 A 
ATOM     14  C   UNL     1      42.604 132.091  19.162  1.00  0.00     0.139 A 
ATOM     15  N   UNL     1      44.710 131.277  19.103  1.00  0.00    -0.211 NA
ATOM     16  N   UNL     1      42.997 131.888  20.427  1.00  0.00    -0.305 N 
ATOM     17  C   UNL     1      44.250 131.406  20.365  1.00  0.00     0.139 A 
ATOM     18  C   UNL     1      42.329 132.094  21.590  1.00  0.00     0.093 A 
ATOM     19  C   UNL     1      44.950 131.083  21.525  1.00  0.00     0.048 A 
ATOM     20  C   UNL     1      42.985 131.787  22.792  1.00  0.00     0.018 A 
ATOM     21  C   UNL     1      44.300 131.281  22.755  1.00  0.00     0.005 A 
ENDBRANCH  11  13
ENDBRANCH   6  11
TORSDOF 2
ENDMDL
MODEL 4
REMARK VINA RESULT:      -9.8      0.611      1.338
REMARK SMILES c1ccc2[nH]c(Nc3cn4ccccc4n3)cc2c1
REMARK SMILES IDX 1 1 2 2 3 3 4 4 5 5 6 6 17 7 18 8 19 9 7 11 8 13 9 14 16 15
REMARK SMILES IDX 10 16 15 17 11 18 14 19 12 20 13 21
REMARK H PARENT 5 10 7 12
ROOT
ATOM      1  C   UNL     1      48.006 130.362  13.064  1.00  0.00     0.001 A 
ATOM      2  C   UNL     1      48.048 129.202  13.872  1.00  0.00     0.002 A 
ATOM      3  C   UNL     1      47.168 129.059  14.960  1.00  0.00     0.027 A 
ATOM      4  C   UNL     1      46.268 130.094  15.209  1.00  0.00     0.047 A 
ATOM      5  N   UNL     1      45.342 130.153  16.180  1.00  0.00    -0.341 N 
ATOM      6  C   UNL     1      44.715 131.341  16.013  1.00  0.00     0.109 A 
ATOM      7  C   UNL     1      45.234 132.037  14.918  1.00  0.00     0.055 A 
ATOM      8  C   UNL     1      46.229 131.220  14.427  1.00  0.00     0.002 A 
ATOM      9  C   UNL     1      47.084 131.389  13.339  1.00  0.00     0.010 A 
ATOM     10  H   UNL     1      45.143 129.432  16.908  1.00  0.00     0.168 HD
ENDROOT
BRANCH   6  11
ATOM     11  N   UNL     1      43.617 131.756  16.839  1.00  0.00    -0.325 N 
ATOM     12  H   UNL     1      42.750 132.092  16.361  1.00  0.00     0.170 HD
BRANCH  11  13
ATOM     13  C   UNL     1      43.607 131.688  18.271  1.00  0.00     0.150 A 
ATOM     14  C   UNL     1      44.696 131.320  19.044  1.00  0.00     0.139 A 
ATOM     15  N   UNL     1      42.555 132.037  19.050  1.00  0.00    -0.211 NA
ATOM     16  N   UNL     1      44.308 131.427  20.322  1.00  0.00    -0.305 N 
ATOM     17  C   UNL     1      43.034 131.854  20.299  1.00  0.00     0.139 A 
ATOM     18  C   UNL     1      44.997 131.183  21.465  1.00  0.00     0.093 A 
ATOM     19  C   UNL     1      42.332 132.074  21.482  1.00  0.00     0.048 A 
ATOM     20  C   UNL     1      44.340 131.386  22.689  1.00  0.00     0.018 A 
ATOM     21  C   UNL     1      43.004 131.832  22.692  1.00  0.00     0.005 A 
ENDBRANCH  11  13
ENDBRANCH   6  11
TORSDOF 2
ENDMDL
MODEL 5
REMARK VINA RESULT:      -9.7      0.758      7.099
REMARK SMILES c1ccc2[nH]c(Nc3cn4ccccc4n3)cc2c1
REMARK SMILES IDX 1 1 2 2 3 3 4 4 5 5 6 6 17 7 18 8 19 9 7 11 8 13 9 14 16 15
REMARK SMILES IDX 10 16 15 17 11 18 14 19 12 20 13 21
REMARK H PARENT 5 10 7 12
ROOT
ATOM      1  C   UNL     1      43.002 131.767  22.699  1.00  0.00     0.001 A 
ATOM      2  C   UNL     1      44.343 131.324  22.633  1.00  0.00     0.002 A 
ATOM      3  C   UNL     1      44.975 131.147  21.389  1.00  0.00     0.027 A 
ATOM      4  C   UNL     1      44.235 131.418  20.239  1.00  0.00     0.047 A 
ATOM      5  N   UNL     1      44.647 131.328  18.964  1.00  0.00    -0.341 N 
ATOM      6  C   UNL     1      43.583 131.694  18.211  1.00  0.00     0.109 A 
ATOM      7  C   UNL     1      42.491 132.037  19.012  1.00  0.00     0.055 A 
ATOM      8  C   UNL     1      42.934 131.845  20.303  1.00  0.00     0.002 A 
ATOM      9  C   UNL     1      42.282 132.035  21.521  1.00  0.00     0.010 A 
ATOM     10  H   UNL     1      45.591 131.040  18.623  1.00  0.00     0.168 HD
ENDROOT
BRANCH   6  11
ATOM     11  N   UNL     1      43.643 131.772  16.778  1.00  0.00    -0.325 N 
ATOM     12  H   UNL     1      42.840 132.223  16.284  1.00  0.00     0.170 HD
BRANCH  11  13
ATOM     13  C   UNL     1      44.752 131.327  15.987  1.00  0.00     0.150 A 
ATOM     14  C   UNL     1      45.350 130.084  16.108  1.00  0.00     0.139 A 
ATOM     15  N   UNL     1      45.311 132.038  14.978  1.00  0.00    -0.211 NA
ATOM     16  N   UNL     1      46.306 130.029  15.170  1.00  0.00    -0.305 N 
ATOM     17  C   UNL     1      46.263 131.200  14.514  1.00  0.00     0.139 A 
ATOM     18  C   UNL     1      47.178 129.033  14.872  1.00  0.00     0.093 A 
ATOM     19  C   UNL     1      47.137 131.463  13.461  1.00  0.00     0.048 A 
ATOM     20  C   UNL     1      48.084 129.241  13.821  1.00  0.00     0.018 A 
ATOM     21  C   UNL     1      48.060 130.461  13.117  1.00  0.00     0.005 A 
ENDBRANCH  11  13
ENDBRANCH   6  11
TORSDOF 2
ENDMDL
MODEL 6
REMARK VINA RESULT:      -9.6      0.874      7.111
REMARK SMILES c1ccc2[nH]c(Nc3cn4ccccc4n3)cc2c1
REMARK SMILES IDX 1 1 2 2 3 3 4 4 5 5 6 6 17 7 18 8 19 9 7 11 8 13 9 14 16 15
REMARK SMILES IDX 10 16 15 17 11 18 14 19 12 20 13 21
REMARK H PARENT 5 10 7 12
ROOT
ATOM      1  C   UNL     1      43.078 131.788  22.752  1.00  0.00     0.001 A 
ATOM      2  C   UNL     1      44.389 131.272  22.636  1.00  0.00     0.002 A 
ATOM      3  C   UNL     1      44.962 131.061  21.369  1.00  0.00     0.027 A 
ATOM      4  C   UNL     1      44.195 131.374  20.247  1.00  0.00     0.047 A 
ATOM      5  N   UNL     1      44.553 131.262  18.957  1.00  0.00    -0.341 N 
ATOM      6  C   UNL     1      43.484 131.688  18.245  1.00  0.00     0.109 A 
ATOM      7  C   UNL     1      42.444 132.090  19.086  1.00  0.00     0.055 A 
ATOM      8  C   UNL     1      42.923 131.873  20.360  1.00  0.00     0.002 A 
ATOM      9  C   UNL     1      42.329 132.097  21.601  1.00  0.00     0.010 A 
ATOM     10  H   UNL     1      45.467 130.923  18.582  1.00  0.00     0.168 HD
ENDROOT
BRANCH   6  11
ATOM     11  N   UNL     1      43.493 131.764  16.811  1.00  0.00    -0.325 N 
ATOM     12  H   UNL     1      42.696 132.253  16.346  1.00  0.00     0.170 HD
BRANCH  11  13
ATOM     13  C   UNL     1      44.549 131.265  15.979  1.00  0.00     0.150 A 
ATOM     14  C   UNL     1      45.167 131.994  14.978  1.00  0.00     0.139 A 
ATOM     15  N   UNL     1      45.118 130.042  16.111  1.00  0.00    -0.211 NA
ATOM     16  N   UNL     1      46.125 131.206  14.470  1.00  0.00    -0.305 N 
ATOM     17  C   UNL     1      46.075 130.054  15.159  1.00  0.00     0.139 A 
ATOM     18  C   UNL     1      47.011 131.445  13.470  1.00  0.00     0.093 A 
ATOM     19  C   UNL     1      46.956 129.012  14.876  1.00  0.00     0.048 A 
ATOM     20  C   UNL     1      47.923 130.431  13.140  1.00  0.00     0.018 A 
ATOM     21  C   UNL     1      47.891 129.212  13.846  1.00  0.00     0.005 A 
ENDBRANCH  11  13
ENDBRANCH   6  11
TORSDOF 2
ENDMDL
MODEL 7
REMARK VINA RESULT:      -9.5      0.633      7.109
REMARK SMILES c1ccc2[nH]c(Nc3cn4ccccc4n3)cc2c1
REMARK SMILES IDX 1 1 2 2 3 3 4 4 5 5 6 6 17 7 18 8 19 9 7 11 8 13 9 14 16 15
REMARK SMILES IDX 10 16 15 17 11 18 14 19 12 20 13 21
REMARK H PARENT 5 10 7 12
ROOT
ATOM      1  C   UNL     1      44.257 131.345  22.910  1.00  0.00     0.001 A 
ATOM      2  C   UNL     1      42.899 131.732  22.858  1.00  0.00     0.002 A 
ATOM      3  C   UNL     1      42.274 131.978  21.622  1.00  0.00     0.027 A 
ATOM      4  C   UNL     1      43.039 131.831  20.466  1.00  0.00     0.047 A 
ATOM      5  N   UNL     1      42.639 132.003  19.195  1.00  0.00    -0.341 N 
ATOM      6  C   UNL     1      43.727 131.744  18.433  1.00  0.00     0.109 A 
ATOM      7  C   UNL     1      44.824 131.388  19.221  1.00  0.00     0.055 A 
ATOM      8  C   UNL     1      44.358 131.458  20.516  1.00  0.00     0.002 A 
ATOM      9  C   UNL     1      45.003 131.202  21.725  1.00  0.00     0.010 A 
ATOM     10  H   UNL     1      41.687 132.275  18.864  1.00  0.00     0.168 HD
ENDROOT
BRANCH   6  11
ATOM     11  N   UNL     1      43.688 131.776  16.998  1.00  0.00    -0.325 N 
ATOM     12  H   UNL     1      42.838 132.179  16.544  1.00  0.00     0.170 HD
BRANCH  11  13
ATOM     13  C   UNL     1      44.760 131.345  16.147  1.00  0.00     0.150 A 
ATOM     14  C   UNL     1      45.519 130.207  16.362  1.00  0.00     0.139 A 
ATOM     15  N   UNL     1      45.121 131.959  14.995  1.00  0.00    -0.211 NA
ATOM     16  N   UNL     1      46.375 130.122  15.334  1.00  0.00    -0.305 N 
ATOM     17  C   UNL     1      46.118 131.174  14.537  1.00  0.00     0.139 A 
ATOM     18  C   UNL     1      47.331 129.196  15.070  1.00  0.00     0.093 A 
ATOM     19  C   UNL     1      46.842 131.375  13.364  1.00  0.00     0.048 A 
ATOM     20  C   UNL     1      48.092 129.348  13.901  1.00  0.00     0.018 A 
ATOM     21  C   UNL     1      47.845 130.442  13.049  1.00  0.00     0.005 A 
ENDBRANCH  11  13
ENDBRANCH   6  11
TORSDOF 2
ENDMDL
MODEL 8
REMARK VINA RESULT:      -9.4      0.776      7.128
REMARK SMILES c1ccc2[nH]c(Nc3cn4ccccc4n3)cc2c1
REMARK SMILES IDX 1 1 2 2 3 3 4 4 5 5 6 6 17 7 18 8 19 9 7 11 8 13 9 14 16 15
REMARK SMILES IDX 10 16 15 17 11 18 14 19 12 20 13 21
REMARK H PARENT 5 10 7 12
ROOT
ATOM      1  C   UNL     1      44.164 131.648  22.617  1.00  0.00     0.001 A 
ATOM      2  C   UNL     1      42.815 132.062  22.537  1.00  0.00     0.002 A 
ATOM      3  C   UNL     1      42.196 132.238  21.286  1.00  0.00     0.027 A 
ATOM      4  C   UNL     1      42.958 131.996  20.144  1.00  0.00     0.047 A 
ATOM      5  N   UNL     1      42.561 132.090  18.864  1.00  0.00    -0.341 N 
ATOM      6  C   UNL     1      43.642 131.755  18.122  1.00  0.00     0.109 A 
ATOM      7  C   UNL     1      44.731 131.427  18.935  1.00  0.00     0.055 A 
ATOM      8  C   UNL     1      44.267 131.596  20.221  1.00  0.00     0.002 A 
ATOM      9  C   UNL     1      44.906 131.408  21.446  1.00  0.00     0.010 A 
ATOM     10  H   UNL     1      41.615 132.361  18.514  1.00  0.00     0.168 HD
ENDROOT
BRANCH   6  11
ATOM     11  N   UNL     1      43.604 131.690  16.688  1.00  0.00    -0.325 N 
ATOM     12  H   UNL     1      42.751 132.055  16.209  1.00  0.00     0.170 HD
BRANCH  11  13
ATOM     13  C   UNL     1      44.680 131.212  15.869  1.00  0.00     0.150 A 
ATOM     14  C   UNL     1      45.282 131.947  14.861  1.00  0.00     0.139 A 
ATOM     15  N   UNL     1      45.285 130.009  16.020  1.00  0.00    -0.211 NA
ATOM     16  N   UNL     1      46.265 131.181  14.369  1.00  0.00    -0.305 N 
ATOM     17  C   UNL     1      46.246 130.037  15.074  1.00  0.00     0.139 A 
ATOM     18  C   UNL     1      47.150 131.434  13.372  1.00  0.00     0.093 A 
ATOM     19  C   UNL     1      47.160 129.019  14.809  1.00  0.00     0.048 A 
ATOM     20  C   UNL     1      48.094 130.444  13.060  1.00  0.00     0.018 A 
ATOM     21  C   UNL     1      48.095 129.234  13.782  1.00  0.00     0.005 A 
ENDBRANCH  11  13
ENDBRANCH   6  11
TORSDOF 2
ENDMDL
MODEL 9
REMARK VINA RESULT:      -8.5      1.910      2.938
REMARK SMILES c1ccc2[nH]c(Nc3cn4ccccc4n3)cc2c1
REMARK SMILES IDX 1 1 2 2 3 3 4 4 5 5 6 6 17 7 18 8 19 9 7 11 8 13 9 14 16 15
REMARK SMILES IDX 10 16 15 17 11 18 14 19 12 20 13 21
REMARK H PARENT 5 10 7 12
ROOT
ATOM      1  C   UNL     1      46.139 130.205  14.582  1.00  0.00     0.001 A 
ATOM      2  C   UNL     1      44.975 130.896  14.177  1.00  0.00     0.002 A 
ATOM      3  C   UNL     1      44.143 131.510  15.131  1.00  0.00     0.027 A 
ATOM      4  C   UNL     1      44.506 131.408  16.473  1.00  0.00     0.047 A 
ATOM      5  N   UNL     1      43.866 131.928  17.533  1.00  0.00    -0.341 N 
ATOM      6  C   UNL     1      44.597 131.567  18.613  1.00  0.00     0.109 A 
ATOM      7  C   UNL     1      45.722 130.828  18.238  1.00  0.00     0.055 A 
ATOM      8  C   UNL     1      45.635 130.736  16.866  1.00  0.00     0.002 A 
ATOM      9  C   UNL     1      46.482 130.121  15.944  1.00  0.00     0.010 A 
ATOM     10  H   UNL     1      42.989 132.495  17.526  1.00  0.00     0.168 HD
ENDROOT
BRANCH   6  11
ATOM     11  N   UNL     1      44.258 131.978  19.947  1.00  0.00    -0.325 N 
ATOM     12  H   UNL     1      44.139 133.000  20.124  1.00  0.00     0.170 HD
BRANCH  11  13
ATOM     13  C   UNL     1      44.017 131.077  21.036  1.00  0.00     0.150 A 
ATOM     14  C   UNL     1      44.919 130.124  21.478  1.00  0.00     0.139 A 
ATOM     15  N   UNL     1      42.905 131.088  21.810  1.00  0.00    -0.211 NA
ATOM     16  N   UNL     1      44.351 129.524  22.533  1.00  0.00    -0.305 N 
ATOM     17  C   UNL     1      43.157 130.114  22.709  1.00  0.00     0.139 A 
ATOM     18  C   UNL     1      44.819 128.524  23.322  1.00  0.00     0.093 A 
ATOM     19  C   UNL     1      42.310 129.718  23.743  1.00  0.00     0.048 A 
ATOM     20  C   UNL     1      44.008 128.083  24.379  1.00  0.00     0.018 A 
ATOM     21  C   UNL     1      42.750 128.683  24.585  1.00  0.00     0.005 A 
ENDBRANCH  11  13
ENDBRANCH   6  11
TORSDOF 2
ENDMDL


