MODEL 1
REMARK VINA RESULT:      -4.4      0.000      0.000
REMARK SMILES CC(C)(C)COC(=O)N(c1ccc2cc[nH]c2c1)c1c2o[n-]cc-2cc(-n2[nH+]c3ccccc3[nH+]2)c1=O
REMARK SMILES IDX 7 1 8 2 6 3 5 4 2 5 1 6 3 7 4 8 9 9 10 10 11 11 18 12 12 13
REMARK SMILES IDX 17 14 13 15 16 16 14 17 15 18 19 20 20 21 36 22 21 23 24 24
REMARK SMILES IDX 26 25 22 26 23 27 25 28 37 29 27 30 28 31 35 32 29 33 34 34
REMARK SMILES IDX 30 35 33 36 31 37 32 38
REMARK H PARENT 16 19 28 39 35 40
ROOT
ATOM      1  C   UNL     1      45.005 131.961  23.317  1.00  0.00     0.419 C 
ATOM      2  O   UNL     1      44.324 132.391  24.285  1.00  0.00    -0.224 OA
ENDROOT
BRANCH   1   3
ATOM      3  O   UNL     1      46.316 132.402  23.134  1.00  0.00    -0.448 OA
BRANCH   3   4
ATOM      4  C   UNL     1      46.879 133.525  23.811  1.00  0.00     0.241 C 
BRANCH   4   5
ATOM      5  C   UNL     1      47.968 134.189  22.934  1.00  0.00    -0.004 C 
ATOM      6  C   UNL     1      48.530 133.158  21.931  1.00  0.00     0.014 C 
ATOM      7  C   UNL     1      47.372 135.387  22.161  1.00  0.00     0.014 C 
ATOM      8  C   UNL     1      49.111 134.691  23.841  1.00  0.00     0.014 C 
ENDBRANCH   4   5
ENDBRANCH   3   4
ENDBRANCH   1   3
BRANCH   1   9
ATOM      9  N   UNL     1      44.461 130.982  22.411  1.00  0.00    -0.238 N 
BRANCH   9  10
ATOM     10  C   UNL     1      44.389 129.576  22.743  1.00  0.00     0.055 A 
ATOM     11  C   UNL     1      45.335 128.662  22.200  1.00  0.00     0.027 A 
ATOM     12  C   UNL     1      43.355 129.082  23.571  1.00  0.00     0.053 A 
ATOM     13  C   UNL     1      45.270 127.290  22.498  1.00  0.00     0.012 A 
ATOM     14  C   UNL     1      43.322 127.718  23.853  1.00  0.00     0.047 A 
ATOM     15  C   UNL     1      44.249 126.854  23.333  1.00  0.00    -0.000 A 
ATOM     16  N   UNL     1      42.437 127.060  24.622  1.00  0.00    -0.361 N 
ATOM     17  C   UNL     1      43.947 125.594  23.798  1.00  0.00     0.028 A 
ATOM     18  C   UNL     1      42.818 125.762  24.597  1.00  0.00     0.083 A 
ATOM     19  H   UNL     1      41.626 127.464  25.138  1.00  0.00     0.166 HD
ENDBRANCH   9  10
BRANCH   9  20
ATOM     20  C   UNL     1      44.046 131.435  21.112  1.00  0.00     0.144 A 
ATOM     21  C   UNL     1      42.862 132.148  20.955  1.00  0.00     0.141 A 
ATOM     22  C   UNL     1      44.796 131.145  19.944  1.00  0.00     0.242 A 
ATOM     23  O   UNL     1      41.985 132.540  21.848  1.00  0.00    -0.555 OA
ATOM     24  C   UNL     1      42.422 132.581  19.676  1.00  0.00     0.001 A 
ATOM     25  C   UNL     1      44.347 131.576  18.654  1.00  0.00     0.218 A 
ATOM     26  N   UNL     1      41.008 133.194  21.271  1.00  0.00    -0.513 NA
ATOM     27  C   UNL     1      41.241 133.239  19.933  1.00  0.00    -0.098 A 
ATOM     28  C   UNL     1      43.138 132.303  18.522  1.00  0.00     0.053 A 
ATOM     29  O   UNL     1      45.853 130.465  20.046  1.00  0.00    -0.285 OA
BRANCH  25  30
ATOM     30  N   UNL     1      45.085 131.237  17.466  1.00  0.00     0.084 N 
ATOM     31  N   UNL     1      45.063 131.938  16.334  1.00  0.00    -0.062 N 
ATOM     32  N   UNL     1      45.880 130.174  17.362  1.00  0.00    -0.062 N 
ATOM     33  C   UNL     1      45.881 131.295  15.483  1.00  0.00     0.306 A 
ATOM     34  C   UNL     1      46.389 130.204  16.121  1.00  0.00     0.306 A 
ATOM     35  C   UNL     1      46.228 131.618  14.174  1.00  0.00     0.089 A 
ATOM     36  C   UNL     1      47.295 129.341  15.514  1.00  0.00     0.089 A 
ATOM     37  C   UNL     1      47.139 130.761  13.518  1.00  0.00     0.007 A 
ATOM     38  C   UNL     1      47.670 129.630  14.185  1.00  0.00     0.007 A 
ATOM     39  H   UNL     1      44.503 132.800  16.151  1.00  0.00     0.495 HD
ATOM     40  H   UNL     1      46.086 129.482  18.116  1.00  0.00     0.495 HD
ENDBRANCH  25  30
ENDBRANCH   9  20
ENDBRANCH   1   9
TORSDOF 7
ENDMDL
MODEL 2
REMARK VINA RESULT:      -2.7      1.563      5.288
REMARK SMILES CC(C)(C)COC(=O)N(c1ccc2cc[nH]c2c1)c1c2o[n-]cc-2cc(-n2[nH+]c3ccccc3[nH+]2)c1=O
REMARK SMILES IDX 7 1 8 2 6 3 5 4 2 5 1 6 3 7 4 8 9 9 10 10 11 11 18 12 12 13
REMARK SMILES IDX 17 14 13 15 16 16 14 17 15 18 19 20 20 21 36 22 21 23 24 24
REMARK SMILES IDX 26 25 22 26 23 27 25 28 37 29 27 30 28 31 35 32 29 33 34 34
REMARK SMILES IDX 30 35 33 36 31 37 32 38
REMARK H PARENT 16 19 28 39 35 40
ROOT
ATOM      1  C   UNL     1      44.550 131.652  22.909  1.00  0.00     0.419 C 
ATOM      2  O   UNL     1      44.088 132.299  23.885  1.00  0.00    -0.224 OA
ENDROOT
BRANCH   1   3
ATOM      3  O   UNL     1      44.411 130.264  22.861  1.00  0.00    -0.448 OA
BRANCH   3   4
ATOM      4  C   UNL     1      44.683 129.401  23.964  1.00  0.00     0.241 C 
BRANCH   4   5
ATOM      5  C   UNL     1      44.553 127.921  23.530  1.00  0.00    -0.004 C 
ATOM      6  C   UNL     1      45.239 127.010  24.572  1.00  0.00     0.014 C 
ATOM      7  C   UNL     1      43.063 127.530  23.407  1.00  0.00     0.014 C 
ATOM      8  C   UNL     1      45.239 127.732  22.161  1.00  0.00     0.014 C 
ENDBRANCH   4   5
ENDBRANCH   3   4
ENDBRANCH   1   3
BRANCH   1   9
ATOM      9  N   UNL     1      45.190 132.331  21.811  1.00  0.00    -0.238 N 
BRANCH   9  10
ATOM     10  C   UNL     1      46.356 133.168  21.993  1.00  0.00     0.055 A 
ATOM     11  C   UNL     1      47.202 132.982  23.123  1.00  0.00     0.027 A 
ATOM     12  C   UNL     1      46.647 134.209  21.082  1.00  0.00     0.053 A 
ATOM     13  C   UNL     1      48.329 133.796  23.325  1.00  0.00     0.012 A 
ATOM     14  C   UNL     1      47.776 134.994  21.306  1.00  0.00     0.047 A 
ATOM     15  C   UNL     1      48.587 134.793  22.391  1.00  0.00    -0.000 A 
ATOM     16  N   UNL     1      48.228 136.014  20.557  1.00  0.00    -0.361 N 
ATOM     17  C   UNL     1      49.604 135.718  22.325  1.00  0.00     0.028 A 
ATOM     18  C   UNL     1      49.349 136.457  21.172  1.00  0.00     0.083 A 
ATOM     19  H   UNL     1      47.807 136.388  19.679  1.00  0.00     0.166 HD
ENDBRANCH   9  10
BRANCH   9  20
ATOM     20  C   UNL     1      44.588 132.212  20.512  1.00  0.00     0.144 A 
ATOM     21  C   UNL     1      43.224 132.424  20.341  1.00  0.00     0.141 A 
ATOM     22  C   UNL     1      45.342 131.840  19.369  1.00  0.00     0.242 A 
ATOM     23  O   UNL     1      42.304 132.764  21.212  1.00  0.00    -0.555 OA
ATOM     24  C   UNL     1      42.606 132.284  19.070  1.00  0.00     0.001 A 
ATOM     25  C   UNL     1      44.716 131.692  18.090  1.00  0.00     0.218 A 
ATOM     26  N   UNL     1      41.137 132.862  20.628  1.00  0.00    -0.513 NA
ATOM     27  C   UNL     1      41.282 132.572  19.307  1.00  0.00    -0.098 A 
ATOM     28  C   UNL     1      43.325 131.916  17.943  1.00  0.00     0.053 A 
ATOM     29  O   UNL     1      46.573 131.600  19.498  1.00  0.00    -0.285 OA
BRANCH  25  30
ATOM     30  N   UNL     1      45.474 131.265  16.944  1.00  0.00     0.084 N 
ATOM     31  N   UNL     1      45.633 131.980  15.832  1.00  0.00    -0.062 N 
ATOM     32  N   UNL     1      46.110 130.098  16.865  1.00  0.00    -0.062 N 
ATOM     33  C   UNL     1      46.403 131.236  15.019  1.00  0.00     0.306 A 
ATOM     34  C   UNL     1      46.700 130.072  15.660  1.00  0.00     0.306 A 
ATOM     35  C   UNL     1      46.882 131.524  13.743  1.00  0.00     0.089 A 
ATOM     36  C   UNL     1      47.508 129.092  15.091  1.00  0.00     0.089 A 
ATOM     37  C   UNL     1      47.698 130.552  13.127  1.00  0.00     0.007 A 
ATOM     38  C   UNL     1      48.010 129.344  13.797  1.00  0.00     0.007 A 
ATOM     39  H   UNL     1      45.220 132.919  15.635  1.00  0.00     0.495 HD
ATOM     40  H   UNL     1      46.159 129.371  17.613  1.00  0.00     0.495 HD
ENDBRANCH  25  30
ENDBRANCH   9  20
ENDBRANCH   1   9
TORSDOF 7
ENDMDL
MODEL 3
REMARK VINA RESULT:      -2.5      2.304      7.037
REMARK SMILES CC(C)(C)COC(=O)N(c1ccc2cc[nH]c2c1)c1c2o[n-]cc-2cc(-n2[nH+]c3ccccc3[nH+]2)c1=O
REMARK SMILES IDX 7 1 8 2 6 3 5 4 2 5 1 6 3 7 4 8 9 9 10 10 11 11 18 12 12 13
REMARK SMILES IDX 17 14 13 15 16 16 14 17 15 18 19 20 20 21 36 22 21 23 24 24
REMARK SMILES IDX 26 25 22 26 23 27 25 28 37 29 27 30 28 31 35 32 29 33 34 34
REMARK SMILES IDX 30 35 33 36 31 37 32 38
REMARK H PARENT 16 19 28 39 35 40
ROOT
ATOM      1  C   UNL     1      44.479 131.729  19.795  1.00  0.00     0.419 C 
ATOM      2  O   UNL     1      43.275 132.056  19.626  1.00  0.00    -0.224 OA
ENDROOT
BRANCH   1   3
ATOM      3  O   UNL     1      45.320 131.562  18.694  1.00  0.00    -0.448 OA
BRANCH   3   4
ATOM      4  C   UNL     1      45.359 130.379  17.897  1.00  0.00     0.241 C 
BRANCH   4   5
ATOM      5  C   UNL     1      45.574 130.743  16.408  1.00  0.00    -0.004 C 
ATOM      6  C   UNL     1      44.346 130.302  15.580  1.00  0.00     0.014 C 
ATOM      7  C   UNL     1      45.775 132.268  16.256  1.00  0.00     0.014 C 
ATOM      8  C   UNL     1      46.829 130.014  15.884  1.00  0.00     0.014 C 
ENDBRANCH   4   5
ENDBRANCH   3   4
ENDBRANCH   1   3
BRANCH   1   9
ATOM      9  N   UNL     1      45.017 131.562  21.121  1.00  0.00    -0.238 N 
BRANCH   9  10
ATOM     10  C   UNL     1      46.084 132.394  21.633  1.00  0.00     0.055 A 
ATOM     11  C   UNL     1      47.210 132.699  20.817  1.00  0.00     0.027 A 
ATOM     12  C   UNL     1      46.048 132.878  22.961  1.00  0.00     0.053 A 
ATOM     13  C   UNL     1      48.263 133.492  21.304  1.00  0.00     0.012 A 
ATOM     14  C   UNL     1      47.105 133.666  23.412  1.00  0.00     0.047 A 
ATOM     15  C   UNL     1      48.174 133.961  22.609  1.00  0.00    -0.000 A 
ATOM     16  N   UNL     1      47.250 134.227  24.625  1.00  0.00    -0.361 N 
ATOM     17  C   UNL     1      49.034 134.752  23.339  1.00  0.00     0.028 A 
ATOM     18  C   UNL     1      48.425 134.897  24.583  1.00  0.00     0.083 A 
ATOM     19  H   UNL     1      46.594 134.165  25.432  1.00  0.00     0.166 HD
ENDBRANCH   9  10
BRANCH   9  20
ATOM     20  C   UNL     1      44.506 130.480  21.915  1.00  0.00     0.144 A 
ATOM     21  C   UNL     1      43.507 130.702  22.857  1.00  0.00     0.141 A 
ATOM     22  C   UNL     1      45.019 129.162  21.802  1.00  0.00     0.242 A 
ATOM     23  O   UNL     1      42.870 131.804  23.170  1.00  0.00    -0.555 OA
ATOM     24  C   UNL     1      43.009 129.650  23.670  1.00  0.00     0.001 A 
ATOM     25  C   UNL     1      44.521 128.104  22.628  1.00  0.00     0.218 A 
ATOM     26  N   UNL     1      41.995 131.572  24.117  1.00  0.00    -0.513 NA
ATOM     27  C   UNL     1      42.052 130.255  24.451  1.00  0.00    -0.098 A 
ATOM     28  C   UNL     1      43.501 128.357  23.579  1.00  0.00     0.053 A 
ATOM     29  O   UNL     1      45.955 128.935  20.987  1.00  0.00    -0.285 OA
BRANCH  25  30
ATOM     30  N   UNL     1      45.079 126.781  22.546  1.00  0.00     0.084 N 
ATOM     31  N   UNL     1      44.363 125.658  22.503  1.00  0.00    -0.062 N 
ATOM     32  N   UNL     1      46.384 126.524  22.503  1.00  0.00    -0.062 N 
ATOM     33  C   UNL     1      45.253 124.653  22.425  1.00  0.00     0.306 A 
ATOM     34  C   UNL     1      46.504 125.191  22.423  1.00  0.00     0.306 A 
ATOM     35  C   UNL     1      45.034 123.281  22.338  1.00  0.00     0.089 A 
ATOM     36  C   UNL     1      47.651 124.409  22.325  1.00  0.00     0.089 A 
ATOM     37  C   UNL     1      46.172 122.451  22.245  1.00  0.00     0.007 A 
ATOM     38  C   UNL     1      47.472 123.011  22.238  1.00  0.00     0.007 A 
ATOM     39  H   UNL     1      43.322 125.585  22.543  1.00  0.00     0.495 HD
ATOM     40  H   UNL     1      47.152 127.232  22.499  1.00  0.00     0.495 HD
ENDBRANCH  25  30
ENDBRANCH   9  20
ENDBRANCH   1   9
TORSDOF 7
ENDMDL


