REMARK SMILES OC(CCc1c(F)c(-c2c[n-]c3nccc-3c2)c(F)c2[nH]ccc12)=C1CCC1
REMARK SMILES IDX 3 1 2 2 1 3 25 5 26 6 28 7 27 8 4 9 5 10 6 11 24 12 8 13
REMARK SMILES IDX 23 14 20 15 18 16 22 17 21 18 7 19 19 20 9 22 10 23 17 24
REMARK SMILES IDX 11 25 16 26 12 27 15 28 13 29 14 30
REMARK H PARENT 1 4 21 21
ROOT
ATOM      1  C   UNL     1       1.873   3.017   1.349  1.00  0.00     0.079 C 
ENDROOT
BRANCH   1   2
ATOM      2  C   UNL     1       3.101   2.243   0.958  1.00  0.00     0.092 C 
BRANCH   2   3
ATOM      3  O   UNL     1       4.197   2.934   0.444  1.00  0.00    -0.512 OA
ATOM      4  H   UNL     1       5.040   2.455   0.149  1.00  0.00     0.293 HD
ENDBRANCH   2   3
BRANCH   2   5
ATOM      5  C   UNL     1       3.136   0.913   1.065  1.00  0.00    -0.033 C 
ATOM      6  C   UNL     1       2.223  -0.203   1.540  1.00  0.00     0.035 C 
ATOM      7  C   UNL     1       4.116  -0.199   0.746  1.00  0.00     0.035 C 
ATOM      8  C   UNL     1       3.201  -1.284   1.214  1.00  0.00     0.009 C 
ENDBRANCH   2   5
ENDBRANCH   1   2
BRANCH   1   9
ATOM      9  C   UNL     1       1.022   3.381   0.124  1.00  0.00     0.047 C 
BRANCH   9  10
ATOM     10  C   UNL     1       0.396   2.158  -0.505  1.00  0.00    -0.002 A 
ATOM     11  C   UNL     1      -0.794   1.603   0.024  1.00  0.00     0.137 A 
ATOM     12  C   UNL     1       1.008   1.478  -1.567  1.00  0.00     0.009 A 
ATOM     13  C   UNL     1      -1.339   0.405  -0.512  1.00  0.00     0.055 A 
ATOM     14  C   UNL     1       2.171   1.740  -2.268  1.00  0.00     0.028 A 
ATOM     15  C   UNL     1       0.486   0.321  -2.082  1.00  0.00     0.083 A 
ATOM     16  C   UNL     1      -0.684  -0.245  -1.583  1.00  0.00     0.157 A 
ATOM     17  C   UNL     1       2.291   0.706  -3.188  1.00  0.00     0.083 A 
ATOM     18  N   UNL     1       1.258  -0.157  -3.072  1.00  0.00    -0.359 N 
ATOM     19  F   UNL     1      -1.391   2.198   1.089  1.00  0.00    -0.206 F 
ATOM     20  F   UNL     1      -1.180  -1.383  -2.132  1.00  0.00    -0.204 F 
ATOM     21  H   UNL     1       1.104  -1.024  -3.633  1.00  0.00     0.166 HD
BRANCH  13  22
ATOM     22  C   UNL     1      -2.575  -0.174   0.063  1.00  0.00    -0.016 A 
ATOM     23  C   UNL     1      -3.742   0.631   0.209  1.00  0.00    -0.013 A 
ATOM     24  C   UNL     1      -2.597  -1.527   0.473  1.00  0.00     0.016 A 
ATOM     25  N   UNL     1      -4.896   0.125   0.740  1.00  0.00    -0.442 NA
ATOM     26  C   UNL     1      -3.780  -2.010   1.006  1.00  0.00    -0.026 A 
ATOM     27  C   UNL     1      -4.920  -1.169   1.133  1.00  0.00    -0.052 A 
ATOM     28  C   UNL     1      -4.158  -3.232   1.500  1.00  0.00     0.003 A 
ATOM     29  N   UNL     1      -5.961  -1.821   1.675  1.00  0.00    -0.442 NA
ATOM     30  C   UNL     1      -5.489  -3.077   1.895  1.00  0.00    -0.022 A 
ENDBRANCH  13  22
ENDBRANCH   9  10
ENDBRANCH   1   9
TORSDOF 6


