MODEL 1
REMARK VINA RESULT:      -5.6      0.000      0.000
REMARK SMILES Cc1cccc(C(=O)/N=C(/S)Oc2nccc3ccc(-c4cccc([C@H]5CO5)c4)cc23)c1
REMARK SMILES IDX 10 1 11 2 9 4 7 5 8 6 6 7 5 8 32 9 4 10 2 11 3 12 1 13 12 14
REMARK SMILES IDX 13 15 14 16 31 17 15 18 30 19 17 20 16 21 20 22 18 23 19 24
REMARK SMILES IDX 21 25 22 26 29 27 23 28 25 29 24 30 26 31 28 32 27 33
REMARK H PARENT 11 3
ROOT
ATOM      1  C   UNL     1      45.448 123.816  23.541  1.00  0.00     0.257 C 
ENDROOT
BRANCH   1   2
ATOM      2  S   UNL     1      44.775 122.386  22.712  1.00  0.00    -0.084 SA
ATOM      3  H   UNL     1      45.832 122.363  21.783  1.00  0.00     0.113 HD
ENDBRANCH   1   2
BRANCH   1   4
ATOM      4  N   UNL     1      46.727 124.047  23.452  1.00  0.00    -0.167 NA
BRANCH   4   5
ATOM      5  C   UNL     1      47.369 125.114  22.734  1.00  0.00     0.280 C 
ATOM      6  O   UNL     1      46.645 126.006  22.218  1.00  0.00    -0.267 OA
BRANCH   5   7
ATOM      7  C   UNL     1      48.845 125.232  22.625  1.00  0.00     0.042 A 
ATOM      8  C   UNL     1      49.549 126.046  23.530  1.00  0.00     0.014 A 
ATOM      9  C   UNL     1      49.558 124.542  21.628  1.00  0.00     0.017 A 
ATOM     10  C   UNL     1      50.934 126.192  23.418  1.00  0.00     0.001 A 
ATOM     11  C   UNL     1      50.952 124.679  21.523  1.00  0.00    -0.050 A 
ATOM     12  C   UNL     1      51.633 125.517  22.417  1.00  0.00     0.003 A 
ATOM     13  C   UNL     1      51.691 123.989  20.414  1.00  0.00     0.044 C 
ENDBRANCH   5   7
ENDBRANCH   4   5
ENDBRANCH   1   4
BRANCH   1  14
ATOM     14  O   UNL     1      44.574 124.654  24.242  1.00  0.00    -0.414 OA
BRANCH  14  15
ATOM     15  C   UNL     1      43.179 124.533  24.206  1.00  0.00     0.229 A 
ATOM     16  N   UNL     1      42.587 123.335  24.473  1.00  0.00    -0.221 NA
ATOM     17  C   UNL     1      42.384 125.657  23.917  1.00  0.00     0.045 A 
ATOM     18  C   UNL     1      41.237 123.186  24.480  1.00  0.00     0.116 A 
ATOM     19  C   UNL     1      42.959 126.912  23.665  1.00  0.00     0.023 A 
ATOM     20  C   UNL     1      40.978 125.527  23.952  1.00  0.00    -0.011 A 
ATOM     21  C   UNL     1      40.407 124.277  24.225  1.00  0.00     0.029 A 
ATOM     22  C   UNL     1      42.151 128.047  23.492  1.00  0.00    -0.018 A 
ATOM     23  C   UNL     1      40.170 126.653  23.743  1.00  0.00     0.009 A 
ATOM     24  C   UNL     1      40.753 127.905  23.527  1.00  0.00     0.009 A 
BRANCH  22  25
ATOM     25  C   UNL     1      42.771 129.383  23.335  1.00  0.00    -0.018 A 
ATOM     26  C   UNL     1      42.297 130.481  24.072  1.00  0.00     0.009 A 
ATOM     27  C   UNL     1      43.810 129.578  22.407  1.00  0.00     0.015 A 
ATOM     28  C   UNL     1      42.855 131.749  23.890  1.00  0.00     0.001 A 
ATOM     29  C   UNL     1      44.352 130.855  22.204  1.00  0.00    -0.016 A 
ATOM     30  C   UNL     1      43.882 131.937  22.962  1.00  0.00     0.006 A 
BRANCH  29  31
ATOM     31  C   UNL     1      45.462 131.050  21.213  1.00  0.00     0.174 C 
ATOM     32  O   UNL     1      45.585 132.398  20.822  1.00  0.00    -0.368 OA
ATOM     33  C   UNL     1      45.053 131.511  19.866  1.00  0.00     0.198 C 
ENDBRANCH  29  31
ENDBRANCH  22  25
ENDBRANCH  14  15
ENDBRANCH   1  14
TORSDOF 8
ENDMDL
MODEL 2
REMARK VINA RESULT:      -5.5      4.359      7.982
REMARK SMILES Cc1cccc(C(=O)/N=C(/S)Oc2nccc3ccc(-c4cccc([C@H]5CO5)c4)cc23)c1
REMARK SMILES IDX 10 1 11 2 9 4 7 5 8 6 6 7 5 8 32 9 4 10 2 11 3 12 1 13 12 14
REMARK SMILES IDX 13 15 14 16 31 17 15 18 30 19 17 20 16 21 20 22 18 23 19 24
REMARK SMILES IDX 21 25 22 26 29 27 23 28 25 29 24 30 26 31 28 32 27 33
REMARK H PARENT 11 3
ROOT
ATOM      1  C   UNL     1      43.712 131.225  18.829  1.00  0.00     0.257 C 
ENDROOT
BRANCH   1   2
ATOM      2  S   UNL     1      42.215 132.196  18.802  1.00  0.00    -0.084 SA
ATOM      3  H   UNL     1      42.868 133.312  19.360  1.00  0.00     0.113 HD
ENDBRANCH   1   2
BRANCH   1   4
ATOM      4  N   UNL     1      44.177 130.760  17.704  1.00  0.00    -0.167 NA
BRANCH   4   5
ATOM      5  C   UNL     1      45.549 130.484  17.380  1.00  0.00     0.280 C 
ATOM      6  O   UNL     1      46.290 130.002  18.277  1.00  0.00    -0.267 OA
BRANCH   5   7
ATOM      7  C   UNL     1      46.109 130.695  16.021  1.00  0.00     0.042 A 
ATOM      8  C   UNL     1      45.665 131.779  15.243  1.00  0.00     0.014 A 
ATOM      9  C   UNL     1      47.081 129.826  15.492  1.00  0.00     0.017 A 
ATOM     10  C   UNL     1      46.158 131.970  13.950  1.00  0.00     0.001 A 
ATOM     11  C   UNL     1      47.587 130.025  14.197  1.00  0.00    -0.050 A 
ATOM     12  C   UNL     1      47.111 131.095  13.426  1.00  0.00     0.003 A 
ATOM     13  C   UNL     1      48.574 129.053  13.620  1.00  0.00     0.044 C 
ENDBRANCH   5   7
ENDBRANCH   4   5
ENDBRANCH   1   4
BRANCH   1  14
ATOM     14  O   UNL     1      44.348 131.013  20.057  1.00  0.00    -0.414 OA
BRANCH  14  15
ATOM     15  C   UNL     1      43.761 131.288  21.299  1.00  0.00     0.229 A 
ATOM     16  N   UNL     1      43.032 132.426  21.477  1.00  0.00    -0.221 NA
ATOM     17  C   UNL     1      43.903 130.376  22.360  1.00  0.00     0.045 A 
ATOM     18  C   UNL     1      42.421 132.712  22.655  1.00  0.00     0.116 A 
ATOM     19  C   UNL     1      44.623 129.181  22.204  1.00  0.00     0.023 A 
ATOM     20  C   UNL     1      43.246 130.642  23.582  1.00  0.00    -0.011 A 
ATOM     21  C   UNL     1      42.512 131.825  23.728  1.00  0.00     0.029 A 
ATOM     22  C   UNL     1      44.659 128.229  23.235  1.00  0.00    -0.018 A 
ATOM     23  C   UNL     1      43.314 129.707  24.625  1.00  0.00     0.009 A 
ATOM     24  C   UNL     1      44.004 128.505  24.447  1.00  0.00     0.009 A 
BRANCH  22  25
ATOM     25  C   UNL     1      45.331 126.926  23.019  1.00  0.00    -0.018 A 
ATOM     26  C   UNL     1      46.733 126.831  23.060  1.00  0.00     0.009 A 
ATOM     27  C   UNL     1      44.575 125.779  22.719  1.00  0.00     0.015 A 
ATOM     28  C   UNL     1      47.365 125.610  22.812  1.00  0.00     0.001 A 
ATOM     29  C   UNL     1      45.210 124.560  22.442  1.00  0.00    -0.016 A 
ATOM     30  C   UNL     1      46.608 124.476  22.508  1.00  0.00     0.006 A 
BRANCH  29  31
ATOM     31  C   UNL     1      44.392 123.343  22.126  1.00  0.00     0.174 C 
ATOM     32  O   UNL     1      43.164 123.343  22.819  1.00  0.00    -0.368 OA
ATOM     33  C   UNL     1      44.136 122.423  23.259  1.00  0.00     0.198 C 
ENDBRANCH  29  31
ENDBRANCH  22  25
ENDBRANCH  14  15
ENDBRANCH   1  14
TORSDOF 8
ENDMDL
MODEL 3
REMARK VINA RESULT:      -4.2      6.771      9.052
REMARK SMILES Cc1cccc(C(=O)/N=C(/S)Oc2nccc3ccc(-c4cccc([C@H]5CO5)c4)cc23)c1
REMARK SMILES IDX 10 1 11 2 9 4 7 5 8 6 6 7 5 8 32 9 4 10 2 11 3 12 1 13 12 14
REMARK SMILES IDX 13 15 14 16 31 17 15 18 30 19 17 20 16 21 20 22 18 23 19 24
REMARK SMILES IDX 21 25 22 26 29 27 23 28 25 29 24 30 26 31 28 32 27 33
REMARK H PARENT 11 3
ROOT
ATOM      1  C   UNL     1      47.313 133.326  21.974  1.00  0.00     0.257 C 
ENDROOT
BRANCH   1   2
ATOM      2  S   UNL     1      46.920 133.760  23.660  1.00  0.00    -0.084 SA
ATOM      3  H   UNL     1      47.282 135.104  23.453  1.00  0.00     0.113 HD
ENDBRANCH   1   2
BRANCH   1   4
ATOM      4  N   UNL     1      48.366 133.857  21.420  1.00  0.00    -0.167 NA
BRANCH   4   5
ATOM      5  C   UNL     1      48.835 135.208  21.565  1.00  0.00     0.280 C 
ATOM      6  O   UNL     1      48.159 136.134  21.046  1.00  0.00    -0.267 OA
BRANCH   5   7
ATOM      7  C   UNL     1      50.051 135.554  22.344  1.00  0.00     0.042 A 
ATOM      8  C   UNL     1      50.412 134.776  23.458  1.00  0.00     0.014 A 
ATOM      9  C   UNL     1      50.855 136.652  21.987  1.00  0.00     0.017 A 
ATOM     10  C   UNL     1      51.534 135.110  24.220  1.00  0.00     0.001 A 
ATOM     11  C   UNL     1      51.991 136.981  22.745  1.00  0.00    -0.050 A 
ATOM     12  C   UNL     1      52.318 136.210  23.870  1.00  0.00     0.003 A 
ATOM     13  C   UNL     1      52.801 138.194  22.394  1.00  0.00     0.044 C 
ENDBRANCH   5   7
ENDBRANCH   4   5
ENDBRANCH   1   4
BRANCH   1  14
ATOM     14  O   UNL     1      46.487 132.413  21.310  1.00  0.00    -0.414 OA
BRANCH  14  15
ATOM     15  C   UNL     1      45.134 132.218  21.615  1.00  0.00     0.229 A 
ATOM     16  N   UNL     1      44.691 132.366  22.896  1.00  0.00    -0.221 NA
ATOM     17  C   UNL     1      44.223 131.890  20.595  1.00  0.00     0.045 A 
ATOM     18  C   UNL     1      43.382 132.217  23.227  1.00  0.00     0.116 A 
ATOM     19  C   UNL     1      44.640 131.757  19.262  1.00  0.00     0.023 A 
ATOM     20  C   UNL     1      42.853 131.764  20.916  1.00  0.00    -0.011 A 
ATOM     21  C   UNL     1      42.438 131.918  22.244  1.00  0.00     0.029 A 
ATOM     22  C   UNL     1      43.702 131.543  18.238  1.00  0.00    -0.018 A 
ATOM     23  C   UNL     1      41.922 131.514  19.899  1.00  0.00     0.009 A 
ATOM     24  C   UNL     1      42.342 131.417  18.569  1.00  0.00     0.009 A 
BRANCH  22  25
ATOM     25  C   UNL     1      44.142 131.512  16.824  1.00  0.00    -0.018 A 
ATOM     26  C   UNL     1      43.242 131.826  15.790  1.00  0.00     0.009 A 
ATOM     27  C   UNL     1      45.451 131.119  16.496  1.00  0.00     0.015 A 
ATOM     28  C   UNL     1      43.648 131.753  14.455  1.00  0.00     0.001 A 
ATOM     29  C   UNL     1      45.851 131.019  15.156  1.00  0.00    -0.016 A 
ATOM     30  C   UNL     1      44.948 131.355  14.137  1.00  0.00     0.006 A 
BRANCH  29  31
ATOM     31  C   UNL     1      47.252 130.602  14.820  1.00  0.00     0.174 C 
ATOM     32  O   UNL     1      47.331 130.014  13.541  1.00  0.00    -0.368 OA
ATOM     33  C   UNL     1      47.469 129.147  14.642  1.00  0.00     0.198 C 
ENDBRANCH  29  31
ENDBRANCH  22  25
ENDBRANCH  14  15
ENDBRANCH   1  14
TORSDOF 8
ENDMDL
MODEL 4
REMARK VINA RESULT:      -3.5      1.390      1.711
REMARK SMILES Cc1cccc(C(=O)/N=C(/S)Oc2nccc3ccc(-c4cccc([C@H]5CO5)c4)cc23)c1
REMARK SMILES IDX 10 1 11 2 9 4 7 5 8 6 6 7 5 8 32 9 4 10 2 11 3 12 1 13 12 14
REMARK SMILES IDX 13 15 14 16 31 17 15 18 30 19 17 20 16 21 20 22 18 23 19 24
REMARK SMILES IDX 21 25 22 26 29 27 23 28 25 29 24 30 26 31 28 32 27 33
REMARK H PARENT 11 3
ROOT
ATOM      1  C   UNL     1      45.576 124.073  22.203  1.00  0.00     0.257 C 
ENDROOT
BRANCH   1   2
ATOM      2  S   UNL     1      46.189 122.864  21.044  1.00  0.00    -0.084 SA
ATOM      3  H   UNL     1      46.263 123.817  20.010  1.00  0.00     0.113 HD
ENDBRANCH   1   2
BRANCH   1   4
ATOM      4  N   UNL     1      46.320 124.398  23.222  1.00  0.00    -0.167 NA
BRANCH   4   5
ATOM      5  C   UNL     1      47.509 123.732  23.676  1.00  0.00     0.280 C 
ATOM      6  O   UNL     1      47.394 122.837  24.556  1.00  0.00    -0.267 OA
BRANCH   5   7
ATOM      7  C   UNL     1      48.853 124.018  23.113  1.00  0.00     0.042 A 
ATOM      8  C   UNL     1      48.982 124.371  21.758  1.00  0.00     0.014 A 
ATOM      9  C   UNL     1      50.008 123.943  23.913  1.00  0.00     0.017 A 
ATOM     10  C   UNL     1      50.242 124.610  21.207  1.00  0.00     0.001 A 
ATOM     11  C   UNL     1      51.275 124.196  23.362  1.00  0.00    -0.050 A 
ATOM     12  C   UNL     1      51.386 124.519  22.002  1.00  0.00     0.003 A 
ATOM     13  C   UNL     1      52.504 124.047  24.210  1.00  0.00     0.044 C 
ENDBRANCH   5   7
ENDBRANCH   4   5
ENDBRANCH   1   4
BRANCH   1  14
ATOM     14  O   UNL     1      44.323 124.649  21.967  1.00  0.00    -0.414 OA
BRANCH  14  15
ATOM     15  C   UNL     1      43.172 124.346  22.707  1.00  0.00     0.229 A 
ATOM     16  N   UNL     1      42.846 123.049  22.969  1.00  0.00    -0.221 NA
ATOM     17  C   UNL     1      42.362 125.384  23.202  1.00  0.00     0.045 A 
ATOM     18  C   UNL     1      41.757 122.716  23.709  1.00  0.00     0.116 A 
ATOM     19  C   UNL     1      42.682 126.731  22.975  1.00  0.00     0.023 A 
ATOM     20  C   UNL     1      41.244 125.056  24.002  1.00  0.00    -0.011 A 
ATOM     21  C   UNL     1      40.939 123.711  24.244  1.00  0.00     0.029 A 
ATOM     22  C   UNL     1      41.929 127.755  23.571  1.00  0.00    -0.018 A 
ATOM     23  C   UNL     1      40.470 126.080  24.566  1.00  0.00     0.009 A 
ATOM     24  C   UNL     1      40.819 127.418  24.363  1.00  0.00     0.009 A 
BRANCH  22  25
ATOM     25  C   UNL     1      42.343 129.169  23.412  1.00  0.00    -0.018 A 
ATOM     26  C   UNL     1      41.904 130.147  24.321  1.00  0.00     0.009 A 
ATOM     27  C   UNL     1      43.138 129.557  22.320  1.00  0.00     0.015 A 
ATOM     28  C   UNL     1      42.260 131.486  24.143  1.00  0.00     0.001 A 
ATOM     29  C   UNL     1      43.472 130.905  22.125  1.00  0.00    -0.016 A 
ATOM     30  C   UNL     1      43.044 131.866  23.052  1.00  0.00     0.006 A 
BRANCH  29  31
ATOM     31  C   UNL     1      44.324 131.305  20.957  1.00  0.00     0.174 C 
ATOM     32  O   UNL     1      45.442 130.460  20.809  1.00  0.00    -0.368 OA
ATOM     33  C   UNL     1      45.695 131.762  21.282  1.00  0.00     0.198 C 
ENDBRANCH  29  31
ENDBRANCH  22  25
ENDBRANCH  14  15
ENDBRANCH   1  14
TORSDOF 8
ENDMDL
MODEL 5
REMARK VINA RESULT:      -3.3      4.068      7.997
REMARK SMILES Cc1cccc(C(=O)/N=C(/S)Oc2nccc3ccc(-c4cccc([C@H]5CO5)c4)cc23)c1
REMARK SMILES IDX 10 1 11 2 9 4 7 5 8 6 6 7 5 8 32 9 4 10 2 11 3 12 1 13 12 14
REMARK SMILES IDX 13 15 14 16 31 17 15 18 30 19 17 20 16 21 20 22 18 23 19 24
REMARK SMILES IDX 21 25 22 26 29 27 23 28 25 29 24 30 26 31 28 32 27 33
REMARK H PARENT 11 3
ROOT
ATOM      1  C   UNL     1      43.507 131.363  19.484  1.00  0.00     0.257 C 
ENDROOT
BRANCH   1   2
ATOM      2  S   UNL     1      42.187 132.189  18.612  1.00  0.00    -0.084 SA
ATOM      3  H   UNL     1      42.720 133.459  18.904  1.00  0.00     0.113 HD
ENDBRANCH   1   2
BRANCH   1   4
ATOM      4  N   UNL     1      44.115 130.369  18.902  1.00  0.00    -0.167 NA
BRANCH   4   5
ATOM      5  C   UNL     1      45.364 130.411  18.192  1.00  0.00     0.280 C 
ATOM      6  O   UNL     1      46.431 130.315  18.853  1.00  0.00    -0.267 OA
BRANCH   5   7
ATOM      7  C   UNL     1      45.441 130.508  16.712  1.00  0.00     0.042 A 
ATOM      8  C   UNL     1      46.577 130.027  16.038  1.00  0.00     0.014 A 
ATOM      9  C   UNL     1      44.392 131.076  15.966  1.00  0.00     0.017 A 
ATOM     10  C   UNL     1      46.676 130.142  14.650  1.00  0.00     0.001 A 
ATOM     11  C   UNL     1      44.486 131.181  14.568  1.00  0.00    -0.050 A 
ATOM     12  C   UNL     1      45.640 130.721  13.917  1.00  0.00     0.003 A 
ATOM     13  C   UNL     1      43.390 131.849  13.791  1.00  0.00     0.044 C 
ENDBRANCH   5   7
ENDBRANCH   4   5
ENDBRANCH   1   4
BRANCH   1  14
ATOM     14  O   UNL     1      43.858 131.826  20.756  1.00  0.00    -0.414 OA
BRANCH  14  15
ATOM     15  C   UNL     1      43.025 131.733  21.879  1.00  0.00     0.229 A 
ATOM     16  N   UNL     1      42.116 132.714  22.141  1.00  0.00    -0.221 NA
ATOM     17  C   UNL     1      43.111 130.615  22.727  1.00  0.00     0.045 A 
ATOM     18  C   UNL     1      41.269 132.645  23.201  1.00  0.00     0.116 A 
ATOM     19  C   UNL     1      44.017 129.574  22.472  1.00  0.00     0.023 A 
ATOM     20  C   UNL     1      42.215 130.511  23.815  1.00  0.00    -0.011 A 
ATOM     21  C   UNL     1      41.298 131.542  24.054  1.00  0.00     0.029 A 
ATOM     22  C   UNL     1      44.011 128.412  23.261  1.00  0.00    -0.018 A 
ATOM     23  C   UNL     1      42.235 129.367  24.624  1.00  0.00     0.009 A 
ATOM     24  C   UNL     1      43.117 128.321  24.341  1.00  0.00     0.009 A 
BRANCH  22  25
ATOM     25  C   UNL     1      44.897 127.276  22.915  1.00  0.00    -0.018 A 
ATOM     26  C   UNL     1      45.957 127.448  22.008  1.00  0.00     0.009 A 
ATOM     27  C   UNL     1      44.656 125.999  23.452  1.00  0.00     0.015 A 
ATOM     28  C   UNL     1      46.763 126.365  21.651  1.00  0.00     0.001 A 
ATOM     29  C   UNL     1      45.448 124.906  23.072  1.00  0.00    -0.016 A 
ATOM     30  C   UNL     1      46.514 125.098  22.183  1.00  0.00     0.006 A 
BRANCH  29  31
ATOM     31  C   UNL     1      45.181 123.549  23.655  1.00  0.00     0.174 C 
ATOM     32  O   UNL     1      46.097 122.587  23.182  1.00  0.00    -0.368 OA
ATOM     33  C   UNL     1      44.779 122.498  22.691  1.00  0.00     0.198 C 
ENDBRANCH  29  31
ENDBRANCH  22  25
ENDBRANCH  14  15
ENDBRANCH   1  14
TORSDOF 8
ENDMDL
MODEL 6
REMARK VINA RESULT:      -2.6      5.184      8.230
REMARK SMILES Cc1cccc(C(=O)/N=C(/S)Oc2nccc3ccc(-c4cccc([C@H]5CO5)c4)cc23)c1
REMARK SMILES IDX 10 1 11 2 9 4 7 5 8 6 6 7 5 8 32 9 4 10 2 11 3 12 1 13 12 14
REMARK SMILES IDX 13 15 14 16 31 17 15 18 30 19 17 20 16 21 20 22 18 23 19 24
REMARK SMILES IDX 21 25 22 26 29 27 23 28 25 29 24 30 26 31 28 32 27 33
REMARK H PARENT 11 3
ROOT
ATOM      1  C   UNL     1      42.374 131.594  18.791  1.00  0.00     0.257 C 
ENDROOT
BRANCH   1   2
ATOM      2  S   UNL     1      41.363 133.058  18.666  1.00  0.00    -0.084 SA
ATOM      3  H   UNL     1      42.309 133.833  19.363  1.00  0.00     0.113 HD
ENDBRANCH   1   2
BRANCH   1   4
ATOM      4  N   UNL     1      43.048 131.207  17.745  1.00  0.00    -0.167 NA
BRANCH   4   5
ATOM      5  C   UNL     1      44.449 131.408  17.492  1.00  0.00     0.280 C 
ATOM      6  O   UNL     1      45.178 131.793  18.444  1.00  0.00    -0.267 OA
BRANCH   5   7
ATOM      7  C   UNL     1      45.072 131.128  16.174  1.00  0.00     0.042 A 
ATOM      8  C   UNL     1      44.481 131.628  15.001  1.00  0.00     0.014 A 
ATOM      9  C   UNL     1      46.252 130.367  16.075  1.00  0.00     0.017 A 
ATOM     10  C   UNL     1      45.038 131.345  13.752  1.00  0.00     0.001 A 
ATOM     11  C   UNL     1      46.820 130.092  14.821  1.00  0.00    -0.050 A 
ATOM     12  C   UNL     1      46.199 130.576  13.660  1.00  0.00     0.003 A 
ATOM     13  C   UNL     1      48.040 129.224  14.724  1.00  0.00     0.044 C 
ENDBRANCH   5   7
ENDBRANCH   4   5
ENDBRANCH   1   4
BRANCH   1  14
ATOM     14  O   UNL     1      42.424 130.920  20.016  1.00  0.00    -0.414 OA
BRANCH  14  15
ATOM     15  C   UNL     1      43.398 131.154  20.996  1.00  0.00     0.229 A 
ATOM     16  N   UNL     1      44.299 132.165  20.841  1.00  0.00    -0.221 NA
ATOM     17  C   UNL     1      43.434 130.359  22.155  1.00  0.00     0.045 A 
ATOM     18  C   UNL     1      45.237 132.443  21.783  1.00  0.00     0.116 A 
ATOM     19  C   UNL     1      42.504 129.327  22.360  1.00  0.00     0.023 A 
ATOM     20  C   UNL     1      44.381 130.655  23.160  1.00  0.00    -0.011 A 
ATOM     21  C   UNL     1      45.294 131.699  22.961  1.00  0.00     0.029 A 
ATOM     22  C   UNL     1      42.479 128.618  23.572  1.00  0.00    -0.018 A 
ATOM     23  C   UNL     1      44.380 129.922  24.354  1.00  0.00     0.009 A 
ATOM     24  C   UNL     1      43.428 128.920  24.563  1.00  0.00     0.009 A 
BRANCH  22  25
ATOM     25  C   UNL     1      41.425 127.606  23.819  1.00  0.00    -0.018 A 
ATOM     26  C   UNL     1      40.182 127.986  24.353  1.00  0.00     0.009 A 
ATOM     27  C   UNL     1      41.675 126.245  23.567  1.00  0.00     0.015 A 
ATOM     28  C   UNL     1      39.207 127.024  24.625  1.00  0.00     0.001 A 
ATOM     29  C   UNL     1      40.706 125.277  23.866  1.00  0.00    -0.016 A 
ATOM     30  C   UNL     1      39.464 125.674  24.379  1.00  0.00     0.006 A 
BRANCH  29  31
ATOM     31  C   UNL     1      40.984 123.828  23.590  1.00  0.00     0.174 C 
ATOM     32  O   UNL     1      41.733 123.232  24.625  1.00  0.00    -0.368 OA
ATOM     33  C   UNL     1      42.409 123.465  23.412  1.00  0.00     0.198 C 
ENDBRANCH  29  31
ENDBRANCH  22  25
ENDBRANCH  14  15
ENDBRANCH   1  14
TORSDOF 8
ENDMDL


