REMARK SMILES C=Cc1cc(NN)c([O-])c(-n2nc3ccccc3[nH+]2)c1
REMARK SMILES IDX 3 1 4 2 5 3 8 4 9 5 10 6 20 7 2 8 1 9 6 10 7 12 11 15 12 16
REMARK SMILES IDX 19 17 13 18 18 19 14 20 17 21 15 22 16 23
REMARK H PARENT 6 11 7 13 7 14 19 24
ROOT
ATOM      1  C   UNL     1       2.595   1.633   1.789  1.00  0.00    -0.022 A 
ATOM      2  C   UNL     1       3.591   1.487   0.807  1.00  0.00     0.034 A 
ATOM      3  C   UNL     1       3.283   0.983  -0.465  1.00  0.00     0.044 A 
ATOM      4  C   UNL     1       1.956   0.593  -0.752  1.00  0.00    -0.051 A 
ATOM      5  O   UNL     1       1.630   0.081  -2.004  1.00  0.00    -0.869 OA
ATOM      6  C   UNL     1       0.951   0.721   0.229  1.00  0.00     0.123 A 
ATOM      7  C   UNL     1       1.285   1.237   1.491  1.00  0.00     0.042 A 
ENDROOT
BRANCH   1   8
ATOM      8  C   UNL     1       2.885   2.155   3.148  1.00  0.00     0.000 C 
ATOM      9  C   UNL     1       3.960   2.881   3.458  1.00  0.00     0.009 C 
ENDBRANCH   1   8
BRANCH   3  10
ATOM     10  N   UNL     1       4.344   0.865  -1.433  1.00  0.00    -0.325 N 
ATOM     11  H   UNL     1       5.334   0.981  -1.114  1.00  0.00     0.181 HD
BRANCH  10  12
ATOM     12  N   UNL     1       4.098   0.651  -2.800  1.00  0.00    -0.250 NA
ATOM     13  H   UNL     1       3.665   1.525  -3.175  1.00  0.00     0.143 HD
ATOM     14  H   UNL     1       5.022   0.549  -3.278  1.00  0.00     0.143 HD
ENDBRANCH  10  12
ENDBRANCH   3  10
BRANCH   6  15
ATOM     15  N   UNL     1      -0.404   0.314  -0.044  1.00  0.00    -0.013 N 
ATOM     16  N   UNL     1      -0.727  -0.679  -0.874  1.00  0.00     0.053 NA
ATOM     17  N   UNL     1      -1.481   0.872   0.508  1.00  0.00    -0.161 N 
ATOM     18  C   UNL     1      -2.069  -0.743  -0.839  1.00  0.00     0.249 A 
ATOM     19  C   UNL     1      -2.535   0.212   0.011  1.00  0.00     0.198 A 
ATOM     20  C   UNL     1      -2.922  -1.601  -1.525  1.00  0.00     0.064 A 
ATOM     21  C   UNL     1      -3.893   0.401   0.252  1.00  0.00     0.058 A 
ATOM     22  C   UNL     1      -4.307  -1.446  -1.309  1.00  0.00     0.005 A 
ATOM     23  C   UNL     1      -4.790  -0.450  -0.425  1.00  0.00     0.005 A 
ATOM     24  H   UNL     1      -1.494   1.679   1.170  1.00  0.00     0.340 HD
ENDBRANCH   6  15
TORSDOF 4


