MODEL 1
REMARK VINA RESULT:      -3.2      0.000      0.000
REMARK SMILES C/C(O)=[N+](\C)[C@@H](C)C(=O)N(c1cn2ccccc2n1)c1cc2ccccc2[nH]1
REMARK SMILES IDX 6 1 7 2 4 3 5 4 2 5 1 6 3 7 8 9 9 10 10 11 11 12 19 13 12 14
REMARK SMILES IDX 18 15 13 16 17 17 14 18 16 19 15 20 20 21 21 22 28 23 22 24
REMARK SMILES IDX 27 25 23 26 26 27 24 28 25 29
REMARK H PARENT 3 8 28 30
ROOT
ATOM      1  C   UNL     1      43.069 131.720  21.730  1.00  0.00     0.349 C 
ATOM      2  C   UNL     1      42.277 132.879  21.105  1.00  0.00     0.098 C 
ENDROOT
BRANCH   1   3
ATOM      3  N   UNL     1      43.001 131.799  23.212  1.00  0.00    -0.194 N 
ATOM      4  C   UNL     1      44.084 132.498  23.932  1.00  0.00     0.437 C 
BRANCH   3   5
ATOM      5  C   UNL     1      41.987 131.277  23.875  1.00  0.00     0.331 C 
ATOM      6  C   UNL     1      41.992 129.840  24.338  1.00  0.00     0.172 C 
BRANCH   5   7
ATOM      7  O   UNL     1      40.862 132.052  24.171  1.00  0.00    -0.464 OA
ATOM      8  H   UNL     1      40.184 132.305  23.463  1.00  0.00     0.299 HD
ENDBRANCH   5   7
ENDBRANCH   3   5
ENDBRANCH   1   3
BRANCH   1   9
ATOM      9  C   UNL     1      44.507 131.695  21.248  1.00  0.00     0.302 C 
ATOM     10  O   UNL     1      45.264 132.676  21.487  1.00  0.00    -0.266 OA
BRANCH   9  11
ATOM     11  N   UNL     1      45.042 130.549  20.560  1.00  0.00    -0.243 N 
BRANCH  11  12
ATOM     12  C   UNL     1      45.256 129.322  21.281  1.00  0.00     0.160 A 
ATOM     13  N   UNL     1      46.118 128.354  20.879  1.00  0.00    -0.211 NA
ATOM     14  C   UNL     1      44.623 128.956  22.462  1.00  0.00     0.140 A 
ATOM     15  C   UNL     1      45.986 127.415  21.839  1.00  0.00     0.139 A 
ATOM     16  N   UNL     1      45.101 127.750  22.794  1.00  0.00    -0.305 N 
ATOM     17  C   UNL     1      46.670 126.202  21.893  1.00  0.00     0.048 A 
ATOM     18  C   UNL     1      44.811 126.960  23.857  1.00  0.00     0.093 A 
ATOM     19  C   UNL     1      46.400 125.350  22.976  1.00  0.00     0.005 A 
ATOM     20  C   UNL     1      45.469 125.726  23.964  1.00  0.00     0.018 A 
ENDBRANCH  11  12
BRANCH  11  21
ATOM     21  C   UNL     1      45.293 130.611  19.145  1.00  0.00     0.120 A 
ATOM     22  C   UNL     1      44.780 131.579  18.282  1.00  0.00     0.056 A 
ATOM     23  N   UNL     1      46.088 129.734  18.485  1.00  0.00    -0.341 N 
ATOM     24  C   UNL     1      45.299 131.256  17.048  1.00  0.00     0.002 A 
ATOM     25  C   UNL     1      46.082 130.142  17.205  1.00  0.00     0.047 A 
ATOM     26  C   UNL     1      45.135 131.871  15.809  1.00  0.00     0.010 A 
ATOM     27  C   UNL     1      46.761 129.567  16.131  1.00  0.00     0.027 A 
ATOM     28  C   UNL     1      45.806 131.312  14.706  1.00  0.00     0.001 A 
ATOM     29  C   UNL     1      46.616 130.166  14.866  1.00  0.00     0.002 A 
ATOM     30  H   UNL     1      46.620 128.930  18.886  1.00  0.00     0.168 HD
ENDBRANCH  11  21
ENDBRANCH   9  11
ENDBRANCH   1   9
TORSDOF 7
ENDMDL
MODEL 2
REMARK VINA RESULT:      -3.1      0.934      5.754
REMARK SMILES C/C(O)=[N+](\C)[C@@H](C)C(=O)N(c1cn2ccccc2n1)c1cc2ccccc2[nH]1
REMARK SMILES IDX 6 1 7 2 4 3 5 4 2 5 1 6 3 7 8 9 9 10 10 11 11 12 19 13 12 14
REMARK SMILES IDX 18 15 13 16 17 17 14 18 16 19 15 20 20 21 21 22 28 23 22 24
REMARK SMILES IDX 27 25 23 26 26 27 24 28 25 29
REMARK H PARENT 3 8 28 30
ROOT
ATOM      1  C   UNL     1      42.565 131.829  21.314  1.00  0.00     0.349 C 
ATOM      2  C   UNL     1      42.009 132.895  20.357  1.00  0.00     0.098 C 
ENDROOT
BRANCH   1   3
ATOM      3  N   UNL     1      42.121 132.113  22.704  1.00  0.00    -0.194 N 
ATOM      4  C   UNL     1      40.994 133.044  22.908  1.00  0.00     0.437 C 
BRANCH   3   5
ATOM      5  C   UNL     1      42.704 131.534  23.736  1.00  0.00     0.331 C 
ATOM      6  C   UNL     1      42.301 130.159  24.211  1.00  0.00     0.172 C 
BRANCH   5   7
ATOM      7  O   UNL     1      43.726 132.189  24.430  1.00  0.00    -0.464 OA
ATOM      8  H   UNL     1      43.672 133.173  24.660  1.00  0.00     0.299 HD
ENDBRANCH   5   7
ENDBRANCH   3   5
ENDBRANCH   1   3
BRANCH   1   9
ATOM      9  C   UNL     1      44.076 131.731  21.231  1.00  0.00     0.302 C 
ATOM     10  O   UNL     1      44.792 132.626  21.758  1.00  0.00    -0.266 OA
BRANCH   9  11
ATOM     11  N   UNL     1      44.715 130.605  20.600  1.00  0.00    -0.243 N 
BRANCH  11  12
ATOM     12  C   UNL     1      45.118 130.696  19.221  1.00  0.00     0.160 A 
ATOM     13  N   UNL     1      45.924 129.790  18.612  1.00  0.00    -0.211 NA
ATOM     14  C   UNL     1      44.752 131.702  18.335  1.00  0.00     0.140 A 
ATOM     15  C   UNL     1      46.027 130.274  17.357  1.00  0.00     0.139 A 
ATOM     16  N   UNL     1      45.338 131.412  17.166  1.00  0.00    -0.305 N 
ATOM     17  C   UNL     1      46.756 129.698  16.318  1.00  0.00     0.048 A 
ATOM     18  C   UNL     1      45.296 132.074  15.983  1.00  0.00     0.093 A 
ATOM     19  C   UNL     1      46.743 130.349  15.074  1.00  0.00     0.005 A 
ATOM     20  C   UNL     1      46.012 131.541  14.901  1.00  0.00     0.018 A 
ENDBRANCH  11  12
BRANCH  11  21
ATOM     21  C   UNL     1      45.013 129.424  21.365  1.00  0.00     0.120 A 
ATOM     22  C   UNL     1      44.457 129.113  22.606  1.00  0.00     0.056 A 
ATOM     23  N   UNL     1      45.864 128.455  20.949  1.00  0.00    -0.341 N 
ATOM     24  C   UNL     1      45.010 127.896  22.940  1.00  0.00     0.002 A 
ATOM     25  C   UNL     1      45.851 127.528  21.921  1.00  0.00     0.047 A 
ATOM     26  C   UNL     1      44.823 127.095  24.064  1.00  0.00     0.010 A 
ATOM     27  C   UNL     1      46.561 126.329  21.955  1.00  0.00     0.027 A 
ATOM     28  C   UNL     1      45.528 125.879  24.127  1.00  0.00     0.001 A 
ATOM     29  C   UNL     1      46.393 125.497  23.078  1.00  0.00     0.002 A 
ATOM     30  H   UNL     1      46.395 128.416  20.050  1.00  0.00     0.168 HD
ENDBRANCH  11  21
ENDBRANCH   9  11
ENDBRANCH   1   9
TORSDOF 7
ENDMDL
MODEL 3
REMARK VINA RESULT:      -3.0      1.033      1.721
REMARK SMILES C/C(O)=[N+](\C)[C@@H](C)C(=O)N(c1cn2ccccc2n1)c1cc2ccccc2[nH]1
REMARK SMILES IDX 6 1 7 2 4 3 5 4 2 5 1 6 3 7 8 9 9 10 10 11 11 12 19 13 12 14
REMARK SMILES IDX 18 15 13 16 17 17 14 18 16 19 15 20 20 21 21 22 28 23 22 24
REMARK SMILES IDX 27 25 23 26 26 27 24 28 25 29
REMARK H PARENT 3 8 28 30
ROOT
ATOM      1  C   UNL     1      44.113 132.359  22.308  1.00  0.00     0.349 C 
ATOM      2  C   UNL     1      44.294 131.917  23.768  1.00  0.00     0.098 C 
ENDROOT
BRANCH   1   3
ATOM      3  N   UNL     1      42.849 131.800  21.761  1.00  0.00    -0.194 N 
ATOM      4  C   UNL     1      42.484 130.411  22.107  1.00  0.00     0.437 C 
BRANCH   3   5
ATOM      5  C   UNL     1      42.055 132.529  21.000  1.00  0.00     0.331 C 
ATOM      6  C   UNL     1      42.247 132.620  19.506  1.00  0.00     0.172 C 
BRANCH   5   7
ATOM      7  O   UNL     1      40.999 133.249  21.566  1.00  0.00    -0.464 OA
ATOM      8  H   UNL     1      41.076 133.687  22.475  1.00  0.00     0.299 HD
ENDBRANCH   5   7
ENDBRANCH   3   5
ENDBRANCH   1   3
BRANCH   1   9
ATOM      9  C   UNL     1      45.301 131.970  21.449  1.00  0.00     0.302 C 
ATOM     10  O   UNL     1      46.304 132.732  21.386  1.00  0.00    -0.266 OA
BRANCH   9  11
ATOM     11  N   UNL     1      45.327 130.718  20.739  1.00  0.00    -0.243 N 
BRANCH  11  12
ATOM     12  C   UNL     1      45.307 129.481  21.474  1.00  0.00     0.160 A 
ATOM     13  N   UNL     1      45.924 128.347  21.056  1.00  0.00    -0.211 NA
ATOM     14  C   UNL     1      44.666 129.271  22.688  1.00  0.00     0.140 A 
ATOM     15  C   UNL     1      45.640 127.469  22.039  1.00  0.00     0.139 A 
ATOM     16  N   UNL     1      44.891 127.994  23.023  1.00  0.00    -0.305 N 
ATOM     17  C   UNL     1      46.052 126.138  22.088  1.00  0.00     0.048 A 
ATOM     18  C   UNL     1      44.488 127.296  24.114  1.00  0.00     0.093 A 
ATOM     19  C   UNL     1      45.657 125.375  23.198  1.00  0.00     0.005 A 
ATOM     20  C   UNL     1      44.873 125.951  24.217  1.00  0.00     0.018 A 
ENDBRANCH  11  12
BRANCH  11  21
ATOM     21  C   UNL     1      45.300 130.706  19.300  1.00  0.00     0.120 A 
ATOM     22  C   UNL     1      44.461 131.490  18.509  1.00  0.00     0.056 A 
ATOM     23  N   UNL     1      46.116 129.935  18.541  1.00  0.00    -0.341 N 
ATOM     24  C   UNL     1      44.799 131.164  17.214  1.00  0.00     0.002 A 
ATOM     25  C   UNL     1      45.799 130.227  17.269  1.00  0.00     0.047 A 
ATOM     26  C   UNL     1      44.297 131.634  16.002  1.00  0.00     0.010 A 
ATOM     27  C   UNL     1      46.369 129.696  16.112  1.00  0.00     0.027 A 
ATOM     28  C   UNL     1      44.853 131.115  14.818  1.00  0.00     0.001 A 
ATOM     29  C   UNL     1      45.884 130.151  14.872  1.00  0.00     0.002 A 
ATOM     30  H   UNL     1      46.858 129.277  18.869  1.00  0.00     0.168 HD
ENDBRANCH  11  21
ENDBRANCH   9  11
ENDBRANCH   1   9
TORSDOF 7
ENDMDL
MODEL 4
REMARK VINA RESULT:      -2.9      3.333      5.103
REMARK SMILES C/C(O)=[N+](\C)[C@@H](C)C(=O)N(c1cn2ccccc2n1)c1cc2ccccc2[nH]1
REMARK SMILES IDX 6 1 7 2 4 3 5 4 2 5 1 6 3 7 8 9 9 10 10 11 11 12 19 13 12 14
REMARK SMILES IDX 18 15 13 16 17 17 14 18 16 19 15 20 20 21 21 22 28 23 22 24
REMARK SMILES IDX 27 25 23 26 26 27 24 28 25 29
REMARK H PARENT 3 8 28 30
ROOT
ATOM      1  C   UNL     1      43.889 130.561  22.104  1.00  0.00     0.349 C 
ATOM      2  C   UNL     1      42.470 131.067  21.798  1.00  0.00     0.098 C 
ENDROOT
BRANCH   1   3
ATOM      3  N   UNL     1      43.860 129.649  23.278  1.00  0.00    -0.194 N 
ATOM      4  C   UNL     1      43.204 130.114  24.516  1.00  0.00     0.437 C 
BRANCH   3   5
ATOM      5  C   UNL     1      44.388 128.442  23.214  1.00  0.00     0.331 C 
ATOM      6  C   UNL     1      44.026 127.360  24.202  1.00  0.00     0.172 C 
BRANCH   5   7
ATOM      7  O   UNL     1      45.314 128.127  22.215  1.00  0.00    -0.464 OA
ATOM      8  H   UNL     1      45.786 128.843  21.677  1.00  0.00     0.299 HD
ENDBRANCH   5   7
ENDBRANCH   3   5
ENDBRANCH   1   3
BRANCH   1   9
ATOM      9  C   UNL     1      44.860 131.704  22.323  1.00  0.00     0.302 C 
ATOM     10  O   UNL     1      44.992 132.202  23.474  1.00  0.00    -0.266 OA
BRANCH   9  11
ATOM     11  N   UNL     1      45.674 132.205  21.246  1.00  0.00    -0.243 N 
BRANCH  11  12
ATOM     12  C   UNL     1      46.750 133.117  21.532  1.00  0.00     0.160 A 
ATOM     13  N   UNL     1      47.723 132.872  22.445  1.00  0.00    -0.211 NA
ATOM     14  C   UNL     1      46.943 134.354  20.929  1.00  0.00     0.140 A 
ATOM     15  C   UNL     1      48.491 133.978  22.373  1.00  0.00     0.139 A 
ATOM     16  N   UNL     1      48.048 134.877  21.477  1.00  0.00    -0.305 N 
ATOM     17  C   UNL     1      49.640 134.224  23.122  1.00  0.00     0.048 A 
ATOM     18  C   UNL     1      48.664 136.061  21.234  1.00  0.00     0.093 A 
ATOM     19  C   UNL     1      50.312 135.438  22.905  1.00  0.00     0.005 A 
ATOM     20  C   UNL     1      49.826 136.363  21.960  1.00  0.00     0.018 A 
ENDBRANCH  11  12
BRANCH  11  21
ATOM     21  C   UNL     1      45.459 131.738  19.903  1.00  0.00     0.120 A 
ATOM     22  C   UNL     1      44.518 132.260  19.015  1.00  0.00     0.056 A 
ATOM     23  N   UNL     1      46.172 130.737  19.332  1.00  0.00    -0.341 N 
ATOM     24  C   UNL     1      44.685 131.529  17.860  1.00  0.00     0.002 A 
ATOM     25  C   UNL     1      45.689 130.622  18.084  1.00  0.00     0.047 A 
ATOM     26  C   UNL     1      44.025 131.608  16.636  1.00  0.00     0.010 A 
ATOM     27  C   UNL     1      46.105 129.731  17.095  1.00  0.00     0.027 A 
ATOM     28  C   UNL     1      44.422 130.720  15.619  1.00  0.00     0.001 A 
ATOM     29  C   UNL     1      45.458 129.787  15.847  1.00  0.00     0.002 A 
ATOM     30  H   UNL     1      46.955 130.190  19.756  1.00  0.00     0.168 HD
ENDBRANCH  11  21
ENDBRANCH   9  11
ENDBRANCH   1   9
TORSDOF 7
ENDMDL
MODEL 5
REMARK VINA RESULT:      -2.4      2.826      4.744
REMARK SMILES C/C(O)=[N+](\C)[C@@H](C)C(=O)N(c1cn2ccccc2n1)c1cc2ccccc2[nH]1
REMARK SMILES IDX 6 1 7 2 4 3 5 4 2 5 1 6 3 7 8 9 9 10 10 11 11 12 19 13 12 14
REMARK SMILES IDX 18 15 13 16 17 17 14 18 16 19 15 20 20 21 21 22 28 23 22 24
REMARK SMILES IDX 27 25 23 26 26 27 24 28 25 29
REMARK H PARENT 3 8 28 30
ROOT
ATOM      1  C   UNL     1      44.871 129.959  22.448  1.00  0.00     0.349 C 
ATOM      2  C   UNL     1      44.890 128.517  21.916  1.00  0.00     0.098 C 
ENDROOT
BRANCH   1   3
ATOM      3  N   UNL     1      44.084 130.024  23.707  1.00  0.00    -0.194 N 
ATOM      4  C   UNL     1      44.043 128.831  24.577  1.00  0.00     0.437 C 
BRANCH   3   5
ATOM      5  C   UNL     1      43.451 131.127  24.057  1.00  0.00     0.331 C 
ATOM      6  C   UNL     1      44.185 132.335  24.587  1.00  0.00     0.172 C 
BRANCH   5   7
ATOM      7  O   UNL     1      42.059 131.208  23.946  1.00  0.00    -0.464 OA
ATOM      8  H   UNL     1      41.516 131.866  24.490  1.00  0.00     0.299 HD
ENDBRANCH   5   7
ENDBRANCH   3   5
ENDBRANCH   1   3
BRANCH   1   9
ATOM      9  C   UNL     1      44.337 130.933  21.417  1.00  0.00     0.302 C 
ATOM     10  O   UNL     1      43.104 131.199  21.386  1.00  0.00    -0.266 OA
BRANCH   9  11
ATOM     11  N   UNL     1      45.220 131.602  20.497  1.00  0.00    -0.243 N 
BRANCH  11  12
ATOM     12  C   UNL     1      46.214 132.514  20.999  1.00  0.00     0.160 A 
ATOM     13  N   UNL     1      47.202 132.153  21.857  1.00  0.00    -0.211 NA
ATOM     14  C   UNL     1      46.303 133.865  20.689  1.00  0.00     0.140 A 
ATOM     15  C   UNL     1      47.874 133.307  22.046  1.00  0.00     0.139 A 
ATOM     16  N   UNL     1      47.358 134.342  21.361  1.00  0.00    -0.305 N 
ATOM     17  C   UNL     1      48.996 133.474  22.855  1.00  0.00     0.048 A 
ATOM     18  C   UNL     1      47.872 135.597  21.398  1.00  0.00     0.093 A 
ATOM     19  C   UNL     1      49.563 134.757  22.925  1.00  0.00     0.005 A 
ATOM     20  C   UNL     1      49.003 135.825  22.197  1.00  0.00     0.018 A 
ENDBRANCH  11  12
BRANCH  11  21
ATOM     21  C   UNL     1      45.155 131.304  19.091  1.00  0.00     0.120 A 
ATOM     22  C   UNL     1      45.941 130.357  18.437  1.00  0.00     0.056 A 
ATOM     23  N   UNL     1      44.292 131.905  18.236  1.00  0.00    -0.341 N 
ATOM     24  C   UNL     1      45.521 130.401  17.126  1.00  0.00     0.002 A 
ATOM     25  C   UNL     1      44.527 131.343  17.039  1.00  0.00     0.047 A 
ATOM     26  C   UNL     1      45.945 129.675  16.015  1.00  0.00     0.010 A 
ATOM     27  C   UNL     1      43.885 131.620  15.833  1.00  0.00     0.027 A 
ATOM     28  C   UNL     1      45.316 129.935  14.783  1.00  0.00     0.001 A 
ATOM     29  C   UNL     1      44.290 130.902  14.692  1.00  0.00     0.002 A 
ATOM     30  H   UNL     1      43.574 132.629  18.460  1.00  0.00     0.168 HD
ENDBRANCH  11  21
ENDBRANCH   9  11
ENDBRANCH   1   9
TORSDOF 7
ENDMDL
MODEL 6
REMARK VINA RESULT:      -2.4      2.395      3.847
REMARK SMILES C/C(O)=[N+](\C)[C@@H](C)C(=O)N(c1cn2ccccc2n1)c1cc2ccccc2[nH]1
REMARK SMILES IDX 6 1 7 2 4 3 5 4 2 5 1 6 3 7 8 9 9 10 10 11 11 12 19 13 12 14
REMARK SMILES IDX 18 15 13 16 17 17 14 18 16 19 15 20 20 21 21 22 28 23 22 24
REMARK SMILES IDX 27 25 23 26 26 27 24 28 25 29
REMARK H PARENT 3 8 28 30
ROOT
ATOM      1  C   UNL     1      46.719 133.042  21.431  1.00  0.00     0.349 C 
ATOM      2  C   UNL     1      47.775 132.086  20.856  1.00  0.00     0.098 C 
ENDROOT
BRANCH   1   3
ATOM      3  N   UNL     1      47.330 133.907  22.474  1.00  0.00    -0.194 N 
ATOM      4  C   UNL     1      46.730 133.918  23.822  1.00  0.00     0.437 C 
BRANCH   3   5
ATOM      5  C   UNL     1      48.399 134.635  22.213  1.00  0.00     0.331 C 
ATOM      6  C   UNL     1      48.354 135.806  21.262  1.00  0.00     0.172 C 
BRANCH   5   7
ATOM      7  O   UNL     1      49.623 134.335  22.819  1.00  0.00    -0.464 OA
ATOM      8  H   UNL     1      50.093 134.990  23.431  1.00  0.00     0.299 HD
ENDBRANCH   5   7
ENDBRANCH   3   5
ENDBRANCH   1   3
BRANCH   1   9
ATOM      9  C   UNL     1      45.518 132.294  21.975  1.00  0.00     0.302 C 
ATOM     10  O   UNL     1      44.920 132.728  22.998  1.00  0.00    -0.266 OA
BRANCH   9  11
ATOM     11  N   UNL     1      45.013 131.117  21.316  1.00  0.00    -0.243 N 
BRANCH  11  12
ATOM     12  C   UNL     1      44.412 130.067  22.096  1.00  0.00     0.160 A 
ATOM     13  N   UNL     1      43.183 130.158  22.662  1.00  0.00    -0.211 NA
ATOM     14  C   UNL     1      44.992 128.836  22.378  1.00  0.00     0.140 A 
ATOM     15  C   UNL     1      43.045 128.967  23.279  1.00  0.00     0.139 A 
ATOM     16  N   UNL     1      44.109 128.161  23.125  1.00  0.00    -0.305 N 
ATOM     17  C   UNL     1      41.937 128.553  24.015  1.00  0.00     0.048 A 
ATOM     18  C   UNL     1      44.190 126.916  23.656  1.00  0.00     0.093 A 
ATOM     19  C   UNL     1      41.975 127.270  24.585  1.00  0.00     0.005 A 
ATOM     20  C   UNL     1      43.103 126.446  24.408  1.00  0.00     0.018 A 
ENDBRANCH  11  12
BRANCH  11  21
ATOM     21  C   UNL     1      45.044 131.026  19.881  1.00  0.00     0.120 A 
ATOM     22  C   UNL     1      44.190 131.709  19.017  1.00  0.00     0.056 A 
ATOM     23  N   UNL     1      45.938 130.271  19.196  1.00  0.00    -0.341 N 
ATOM     24  C   UNL     1      44.600 131.338  17.755  1.00  0.00     0.002 A 
ATOM     25  C   UNL     1      45.654 130.472  17.899  1.00  0.00     0.047 A 
ATOM     26  C   UNL     1      44.117 131.707  16.501  1.00  0.00     0.010 A 
ATOM     27  C   UNL     1      46.302 129.919  16.796  1.00  0.00     0.027 A 
ATOM     28  C   UNL     1      44.751 131.163  15.369  1.00  0.00     0.001 A 
ATOM     29  C   UNL     1      45.839 130.274  15.515  1.00  0.00     0.002 A 
ATOM     30  H   UNL     1      46.706 129.681  19.588  1.00  0.00     0.168 HD
ENDBRANCH  11  21
ENDBRANCH   9  11
ENDBRANCH   1   9
TORSDOF 7
ENDMDL
MODEL 7
REMARK VINA RESULT:      -2.1      2.507      5.936
REMARK SMILES C/C(O)=[N+](\C)[C@@H](C)C(=O)N(c1cn2ccccc2n1)c1cc2ccccc2[nH]1
REMARK SMILES IDX 6 1 7 2 4 3 5 4 2 5 1 6 3 7 8 9 9 10 10 11 11 12 19 13 12 14
REMARK SMILES IDX 18 15 13 16 17 17 14 18 16 19 15 20 20 21 21 22 28 23 22 24
REMARK SMILES IDX 27 25 23 26 26 27 24 28 25 29
REMARK H PARENT 3 8 28 30
ROOT
ATOM      1  C   UNL     1      42.957 130.463  22.055  1.00  0.00     0.349 C 
ATOM      2  C   UNL     1      42.631 131.921  21.691  1.00  0.00     0.098 C 
ENDROOT
BRANCH   1   3
ATOM      3  N   UNL     1      42.780 130.253  23.516  1.00  0.00    -0.194 N 
ATOM      4  C   UNL     1      43.080 131.372  24.431  1.00  0.00     0.437 C 
BRANCH   3   5
ATOM      5  C   UNL     1      42.345 129.102  23.989  1.00  0.00     0.331 C 
ATOM      6  C   UNL     1      43.283 128.076  24.577  1.00  0.00     0.172 C 
BRANCH   5   7
ATOM      7  O   UNL     1      40.981 128.794  23.957  1.00  0.00    -0.464 OA
ATOM      8  H   UNL     1      40.515 128.513  23.104  1.00  0.00     0.299 HD
ENDBRANCH   5   7
ENDBRANCH   3   5
ENDBRANCH   1   3
BRANCH   1   9
ATOM      9  C   UNL     1      44.353 130.070  21.610  1.00  0.00     0.302 C 
ATOM     10  O   UNL     1      44.790 128.916  21.870  1.00  0.00    -0.266 OA
BRANCH   9  11
ATOM     11  N   UNL     1      45.174 130.976  20.851  1.00  0.00    -0.243 N 
BRANCH  11  12
ATOM     12  C   UNL     1      45.124 130.948  19.413  1.00  0.00     0.160 A 
ATOM     13  N   UNL     1      44.282 131.713  18.674  1.00  0.00    -0.211 NA
ATOM     14  C   UNL     1      45.911 130.150  18.591  1.00  0.00     0.140 A 
ATOM     15  C   UNL     1      44.582 131.358  17.408  1.00  0.00     0.139 A 
ATOM     16  N   UNL     1      45.549 130.428  17.331  1.00  0.00    -0.305 N 
ATOM     17  C   UNL     1      43.988 131.866  16.255  1.00  0.00     0.048 A 
ATOM     18  C   UNL     1      46.015 129.924  16.161  1.00  0.00     0.093 A 
ATOM     19  C   UNL     1      44.436 131.373  15.019  1.00  0.00     0.005 A 
ATOM     20  C   UNL     1      45.452 130.399  14.967  1.00  0.00     0.018 A 
ENDBRANCH  11  12
BRANCH  11  21
ATOM     21  C   UNL     1      45.987 131.951  21.528  1.00  0.00     0.120 A 
ATOM     22  C   UNL     1      47.145 132.527  21.009  1.00  0.00     0.056 A 
ATOM     23  N   UNL     1      45.699 132.444  22.758  1.00  0.00    -0.341 N 
ATOM     24  C   UNL     1      47.564 133.406  21.983  1.00  0.00     0.002 A 
ATOM     25  C   UNL     1      46.671 133.333  23.021  1.00  0.00     0.047 A 
ATOM     26  C   UNL     1      48.663 134.262  22.018  1.00  0.00     0.010 A 
ATOM     27  C   UNL     1      46.815 134.114  24.167  1.00  0.00     0.027 A 
ATOM     28  C   UNL     1      48.835 135.062  23.163  1.00  0.00     0.001 A 
ATOM     29  C   UNL     1      47.915 134.989  24.232  1.00  0.00     0.002 A 
ATOM     30  H   UNL     1      44.880 132.211  23.362  1.00  0.00     0.168 HD
ENDBRANCH  11  21
ENDBRANCH   9  11
ENDBRANCH   1   9
TORSDOF 7
ENDMDL
MODEL 8
REMARK VINA RESULT:      -2.0      3.053      4.848
REMARK SMILES C/C(O)=[N+](\C)[C@@H](C)C(=O)N(c1cn2ccccc2n1)c1cc2ccccc2[nH]1
REMARK SMILES IDX 6 1 7 2 4 3 5 4 2 5 1 6 3 7 8 9 9 10 10 11 11 12 19 13 12 14
REMARK SMILES IDX 18 15 13 16 17 17 14 18 16 19 15 20 20 21 21 22 28 23 22 24
REMARK SMILES IDX 27 25 23 26 26 27 24 28 25 29
REMARK H PARENT 3 8 28 30
ROOT
ATOM      1  C   UNL     1      44.800 130.084  22.263  1.00  0.00     0.349 C 
ATOM      2  C   UNL     1      45.171 128.873  21.391  1.00  0.00     0.098 C 
ENDROOT
BRANCH   1   3
ATOM      3  N   UNL     1      43.736 129.706  23.229  1.00  0.00    -0.194 N 
ATOM      4  C   UNL     1      42.769 130.738  23.653  1.00  0.00     0.437 C 
BRANCH   3   5
ATOM      5  C   UNL     1      43.639 128.472  23.686  1.00  0.00     0.331 C 
ATOM      6  C   UNL     1      42.305 127.785  23.851  1.00  0.00     0.172 C 
BRANCH   5   7
ATOM      7  O   UNL     1      44.788 127.757  24.038  1.00  0.00    -0.464 OA
ATOM      8  H   UNL     1      45.211 127.839  24.953  1.00  0.00     0.299 HD
ENDBRANCH   5   7
ENDBRANCH   3   5
ENDBRANCH   1   3
BRANCH   1   9
ATOM      9  C   UNL     1      44.380 131.275  21.423  1.00  0.00     0.302 C 
ATOM     10  O   UNL     1      43.237 131.784  21.586  1.00  0.00    -0.266 OA
BRANCH   9  11
ATOM     11  N   UNL     1      45.282 131.870  20.473  1.00  0.00    -0.243 N 
BRANCH  11  12
ATOM     12  C   UNL     1      46.292 132.790  20.928  1.00  0.00     0.160 A 
ATOM     13  N   UNL     1      47.281 132.455  21.793  1.00  0.00    -0.211 NA
ATOM     14  C   UNL     1      46.395 134.125  20.557  1.00  0.00     0.140 A 
ATOM     15  C   UNL     1      47.969 133.607  21.927  1.00  0.00     0.139 A 
ATOM     16  N   UNL     1      47.461 134.618  21.202  1.00  0.00    -0.305 N 
ATOM     17  C   UNL     1      49.099 133.795  22.721  1.00  0.00     0.048 A 
ATOM     18  C   UNL     1      47.992 135.866  21.180  1.00  0.00     0.093 A 
ATOM     19  C   UNL     1      49.682 135.072  22.731  1.00  0.00     0.005 A 
ATOM     20  C   UNL     1      49.130 136.114  21.960  1.00  0.00     0.018 A 
ENDBRANCH  11  12
BRANCH  11  21
ATOM     21  C   UNL     1      45.221 131.491  19.086  1.00  0.00     0.120 A 
ATOM     22  C   UNL     1      44.300 131.984  18.162  1.00  0.00     0.056 A 
ATOM     23  N   UNL     1      46.079 130.615  18.509  1.00  0.00    -0.341 N 
ATOM     24  C   UNL     1      44.632 131.366  16.976  1.00  0.00     0.002 A 
ATOM     25  C   UNL     1      45.707 130.550  17.220  1.00  0.00     0.047 A 
ATOM     26  C   UNL     1      44.063 131.474  15.709  1.00  0.00     0.010 A 
ATOM     27  C   UNL     1      46.290 129.786  16.209  1.00  0.00     0.027 A 
ATOM     28  C   UNL     1      44.630 130.714  14.670  1.00  0.00     0.001 A 
ATOM     29  C   UNL     1      45.738 129.874  14.918  1.00  0.00     0.002 A 
ATOM     30  H   UNL     1      46.880 130.118  18.958  1.00  0.00     0.168 HD
ENDBRANCH  11  21
ENDBRANCH   9  11
ENDBRANCH   1   9
TORSDOF 7
ENDMDL
MODEL 9
REMARK VINA RESULT:      -1.8      2.331      3.642
REMARK SMILES C/C(O)=[N+](\C)[C@@H](C)C(=O)N(c1cn2ccccc2n1)c1cc2ccccc2[nH]1
REMARK SMILES IDX 6 1 7 2 4 3 5 4 2 5 1 6 3 7 8 9 9 10 10 11 11 12 19 13 12 14
REMARK SMILES IDX 18 15 13 16 17 17 14 18 16 19 15 20 20 21 21 22 28 23 22 24
REMARK SMILES IDX 27 25 23 26 26 27 24 28 25 29
REMARK H PARENT 3 8 28 30
ROOT
ATOM      1  C   UNL     1      46.618 132.824  22.258  1.00  0.00     0.349 C 
ATOM      2  C   UNL     1      45.975 133.705  23.341  1.00  0.00     0.098 C 
ENDROOT
BRANCH   1   3
ATOM      3  N   UNL     1      47.978 133.328  21.935  1.00  0.00    -0.194 N 
ATOM      4  C   UNL     1      48.918 132.426  21.240  1.00  0.00     0.437 C 
BRANCH   3   5
ATOM      5  C   UNL     1      48.338 134.560  22.241  1.00  0.00     0.331 C 
ATOM      6  C   UNL     1      49.411 134.847  23.263  1.00  0.00     0.172 C 
BRANCH   5   7
ATOM      7  O   UNL     1      47.723 135.651  21.618  1.00  0.00    -0.464 OA
ATOM      8  H   UNL     1      46.822 135.571  21.165  1.00  0.00     0.299 HD
ENDBRANCH   5   7
ENDBRANCH   3   5
ENDBRANCH   1   3
BRANCH   1   9
ATOM      9  C   UNL     1      45.754 132.741  21.014  1.00  0.00     0.302 C 
ATOM     10  O   UNL     1      45.505 133.788  20.354  1.00  0.00    -0.266 OA
BRANCH   9  11
ATOM     11  N   UNL     1      45.249 131.479  20.541  1.00  0.00    -0.243 N 
BRANCH  11  12
ATOM     12  C   UNL     1      44.707 130.532  21.479  1.00  0.00     0.160 A 
ATOM     13  N   UNL     1      45.229 129.298  21.690  1.00  0.00    -0.211 NA
ATOM     14  C   UNL     1      43.593 130.738  22.284  1.00  0.00     0.140 A 
ATOM     15  C   UNL     1      44.411 128.780  22.629  1.00  0.00     0.139 A 
ATOM     16  N   UNL     1      43.428 129.618  23.000  1.00  0.00    -0.305 N 
ATOM     17  C   UNL     1      44.521 127.513  23.199  1.00  0.00     0.048 A 
ATOM     18  C   UNL     1      42.491 129.310  23.932  1.00  0.00     0.093 A 
ATOM     19  C   UNL     1      43.572 127.149  24.168  1.00  0.00     0.005 A 
ATOM     20  C   UNL     1      42.552 128.047  24.538  1.00  0.00     0.018 A 
ENDBRANCH  11  12
BRANCH  11  21
ATOM     21  C   UNL     1      45.222 131.198  19.131  1.00  0.00     0.120 A 
ATOM     22  C   UNL     1      44.289 131.711  18.230  1.00  0.00     0.056 A 
ATOM     23  N   UNL     1      46.128 130.407  18.505  1.00  0.00    -0.341 N 
ATOM     24  C   UNL     1      44.664 131.196  17.009  1.00  0.00     0.002 A 
ATOM     25  C   UNL     1      45.774 130.416  17.209  1.00  0.00     0.047 A 
ATOM     26  C   UNL     1      44.104 131.366  15.744  1.00  0.00     0.010 A 
ATOM     27  C   UNL     1      46.405 129.755  16.156  1.00  0.00     0.027 A 
ATOM     28  C   UNL     1      44.719 130.710  14.662  1.00  0.00     0.001 A 
ATOM     29  C   UNL     1      45.864 129.909  14.866  1.00  0.00     0.002 A 
ATOM     30  H   UNL     1      46.947 129.918  18.930  1.00  0.00     0.168 HD
ENDBRANCH  11  21
ENDBRANCH   9  11
ENDBRANCH   1   9
TORSDOF 7
ENDMDL


