REMARK SMILES Cc1cc(N)c([NH2+]c2ccc3cc[nH]c3c2O)cc1F
REMARK SMILES IDX 7 1 6 4 2 5 3 6 19 7 4 8 18 9 1 10 20 11 5 12 8 15 9 16
REMARK SMILES IDX 16 17 10 18 15 19 11 20 14 21 12 22 13 23 17 25
REMARK H PARENT 7 2 7 3 5 13 5 14 14 24 17 26
ROOT
ATOM      1  N   UNL     1      -0.350  -1.376  -2.146  1.00  0.00    -0.276 N 
ATOM      2  H   UNL     1      -1.164  -1.977  -1.906  1.00  0.00     0.358 HD
ATOM      3  H   UNL     1       0.034  -1.784  -3.031  1.00  0.00     0.358 HD
ENDROOT
BRANCH   1   4
ATOM      4  C   UNL     1      -0.707   0.006  -2.391  1.00  0.00     0.160 A 
ATOM      5  C   UNL     1      -1.228   2.754  -2.826  1.00  0.00    -0.013 A 
ATOM      6  C   UNL     1      -2.152   1.960  -2.134  1.00  0.00     0.038 A 
ATOM      7  C   UNL     1      -0.046   2.176  -3.300  1.00  0.00     0.132 A 
ATOM      8  C   UNL     1      -1.921   0.590  -1.923  1.00  0.00     0.094 A 
ATOM      9  C   UNL     1       0.207   0.822  -3.088  1.00  0.00     0.110 A 
ATOM     10  C   UNL     1      -1.486   4.220  -3.030  1.00  0.00     0.047 C 
ATOM     11  F   UNL     1       0.870   2.928  -3.963  1.00  0.00    -0.206 F 
BRANCH   8  12
ATOM     12  N   UNL     1      -2.941  -0.165  -1.251  1.00  0.00    -0.394 N 
ATOM     13  H   UNL     1      -2.977  -1.205  -1.234  1.00  0.00     0.156 HD
ATOM     14  H   UNL     1      -3.758   0.326  -0.823  1.00  0.00     0.156 HD
ENDBRANCH   8  12
ENDBRANCH   1   4
BRANCH   1  15
ATOM     15  C   UNL     1       0.646  -1.457  -1.101  1.00  0.00     0.179 A 
ATOM     16  C   UNL     1       2.025  -1.520  -1.442  1.00  0.00     0.073 A 
ATOM     17  C   UNL     1       0.267  -1.448   0.268  1.00  0.00     0.202 A 
ATOM     18  C   UNL     1       3.015  -1.571  -0.448  1.00  0.00     0.017 A 
ATOM     19  C   UNL     1       1.283  -1.499   1.233  1.00  0.00     0.094 A 
ATOM     20  C   UNL     1       2.605  -1.557   0.879  1.00  0.00     0.004 A 
ATOM     21  N   UNL     1       1.157  -1.500   2.573  1.00  0.00    -0.358 N 
ATOM     22  C   UNL     1       3.347  -1.597   2.039  1.00  0.00     0.028 A 
ATOM     23  C   UNL     1       2.414  -1.559   3.067  1.00  0.00     0.083 A 
ATOM     24  H   UNL     1       0.278  -1.462   3.135  1.00  0.00     0.166 HD
BRANCH  17  25
ATOM     25  O   UNL     1      -1.078  -1.397   0.629  1.00  0.00    -0.501 OA
ATOM     26  H   UNL     1      -1.384  -1.388   1.593  1.00  0.00     0.293 HD
ENDBRANCH  17  25
ENDBRANCH   1  15
TORSDOF 4


