MODEL 1
REMARK VINA RESULT:     -10.0      0.000      0.000
REMARK SMILES Cc1ccc([NH2+]c2cc(F)c(C)cc2N)c(F)[nH+]1
REMARK SMILES IDX 7 1 8 2 9 3 10 4 11 5 12 6 13 7 14 8 6 9 5 12 2 13 3 14
REMARK SMILES IDX 18 15 4 16 16 17 1 18 17 20 15 21
REMARK H PARENT 6 10 6 11 18 19 15 22 15 23
ROOT
ATOM      1  C   UNL     1      43.997 131.507  17.560  1.00  0.00     0.161 A 
ATOM      2  C   UNL     1      45.167 130.962  18.123  1.00  0.00     0.110 A 
ATOM      3  C   UNL     1      45.369 130.960  19.504  1.00  0.00     0.132 A 
ATOM      4  F   UNL     1      46.509 130.423  20.008  1.00  0.00    -0.206 F 
ATOM      5  C   UNL     1      44.406 131.512  20.358  1.00  0.00    -0.013 A 
ATOM      6  C   UNL     1      44.610 131.490  21.845  1.00  0.00     0.047 C 
ATOM      7  C   UNL     1      43.222 132.028  19.815  1.00  0.00     0.038 A 
ATOM      8  C   UNL     1      43.001 132.027  18.428  1.00  0.00     0.094 A 
ENDROOT
BRANCH   1   9
ATOM      9  N   UNL     1      43.852 131.535  16.117  1.00  0.00    -0.272 N 
ATOM     10  H   UNL     1      43.035 130.954  15.818  1.00  0.00     0.358 HD
ATOM     11  H   UNL     1      43.633 132.510  15.809  1.00  0.00     0.358 HD
BRANCH   9  12
ATOM     12  C   UNL     1      45.033 131.020  15.461  1.00  0.00     0.239 A 
ATOM     13  C   UNL     1      47.281 130.007  14.144  1.00  0.00     0.179 A 
ATOM     14  C   UNL     1      47.091 131.391  14.227  1.00  0.00     0.080 A 
ATOM     15  N   UNL     1      46.367 129.165  14.708  1.00  0.00    -0.179 N 
ATOM     16  C   UNL     1      45.961 131.893  14.871  1.00  0.00     0.085 A 
ATOM     17  C   UNL     1      45.256 129.632  15.340  1.00  0.00     0.420 A 
ATOM     18  C   UNL     1      48.511 129.454  13.487  1.00  0.00     0.124 C 
ATOM     19  H   UNL     1      46.511 128.132  14.651  1.00  0.00     0.456 HD
ATOM     20  F   UNL     1      44.360 128.745  15.842  1.00  0.00    -0.131 F 
ENDBRANCH   9  12
ENDBRANCH   1   9
BRANCH   8  21
ATOM     21  N   UNL     1      41.756 132.540  17.934  1.00  0.00    -0.394 N 
ATOM     22  H   UNL     1      41.342 133.431  18.276  1.00  0.00     0.156 HD
ATOM     23  H   UNL     1      41.267 132.067  17.142  1.00  0.00     0.156 HD
ENDBRANCH   8  21
TORSDOF 3
ENDMDL
MODEL 2
REMARK VINA RESULT:      -9.7      1.394      1.685
REMARK SMILES Cc1ccc([NH2+]c2cc(F)c(C)cc2N)c(F)[nH+]1
REMARK SMILES IDX 7 1 8 2 9 3 10 4 11 5 12 6 13 7 14 8 6 9 5 12 2 13 3 14
REMARK SMILES IDX 18 15 4 16 16 17 1 18 17 20 15 21
REMARK H PARENT 6 10 6 11 18 19 15 22 15 23
ROOT
ATOM      1  C   UNL     1      43.877 131.674  18.068  1.00  0.00     0.161 A 
ATOM      2  C   UNL     1      45.075 131.145  18.588  1.00  0.00     0.110 A 
ATOM      3  C   UNL     1      45.267 131.015  19.963  1.00  0.00     0.132 A 
ATOM      4  F   UNL     1      46.434 130.498  20.425  1.00  0.00    -0.206 F 
ATOM      5  C   UNL     1      44.266 131.419  20.857  1.00  0.00    -0.013 A 
ATOM      6  C   UNL     1      44.463 131.256  22.336  1.00  0.00     0.047 C 
ATOM      7  C   UNL     1      43.057 131.915  20.354  1.00  0.00     0.038 A 
ATOM      8  C   UNL     1      42.845 132.043  18.971  1.00  0.00     0.094 A 
ENDROOT
BRANCH   1   9
ATOM      9  N   UNL     1      43.739 131.841  16.634  1.00  0.00    -0.272 N 
ATOM     10  H   UNL     1      42.838 131.426  16.300  1.00  0.00     0.358 HD
ATOM     11  H   UNL     1      43.684 132.859  16.406  1.00  0.00     0.358 HD
BRANCH   9  12
ATOM     12  C   UNL     1      44.821 131.193  15.924  1.00  0.00     0.239 A 
ATOM     13  C   UNL     1      46.946 129.947  14.604  1.00  0.00     0.179 A 
ATOM     14  C   UNL     1      45.849 129.187  15.024  1.00  0.00     0.080 A 
ATOM     15  N   UNL     1      46.967 131.290  14.841  1.00  0.00    -0.179 N 
ATOM     16  C   UNL     1      44.798 129.808  15.697  1.00  0.00     0.085 A 
ATOM     17  C   UNL     1      45.953 131.919  15.496  1.00  0.00     0.420 A 
ATOM     18  C   UNL     1      48.066 129.298  13.846  1.00  0.00     0.124 C 
ATOM     19  H   UNL     1      47.783 131.860  14.522  1.00  0.00     0.456 HD
ATOM     20  F   UNL     1      46.051 133.249  15.743  1.00  0.00    -0.131 F 
ENDBRANCH   9  12
ENDBRANCH   1   9
BRANCH   8  21
ATOM     21  N   UNL     1      41.574 132.528  18.517  1.00  0.00    -0.394 N 
ATOM     22  H   UNL     1      41.374 133.541  18.390  1.00  0.00     0.156 HD
ATOM     23  H   UNL     1      40.832 131.858  18.213  1.00  0.00     0.156 HD
ENDBRANCH   8  21
TORSDOF 3
ENDMDL
MODEL 3
REMARK VINA RESULT:      -8.5      1.930      5.781
REMARK SMILES Cc1ccc([NH2+]c2cc(F)c(C)cc2N)c(F)[nH+]1
REMARK SMILES IDX 7 1 8 2 9 3 10 4 11 5 12 6 13 7 14 8 6 9 5 12 2 13 3 14
REMARK SMILES IDX 18 15 4 16 16 17 1 18 17 20 15 21
REMARK H PARENT 6 10 6 11 18 19 15 22 15 23
ROOT
ATOM      1  C   UNL     1      45.170 130.945  15.327  1.00  0.00     0.161 A 
ATOM      2  C   UNL     1      46.054 131.806  14.650  1.00  0.00     0.110 A 
ATOM      3  C   UNL     1      47.190 131.312  14.007  1.00  0.00     0.132 A 
ATOM      4  F   UNL     1      48.016 132.174  13.362  1.00  0.00    -0.206 F 
ATOM      5  C   UNL     1      47.474 129.941  14.032  1.00  0.00    -0.013 A 
ATOM      6  C   UNL     1      48.682 129.405  13.320  1.00  0.00     0.047 C 
ATOM      7  C   UNL     1      46.586 129.067  14.674  1.00  0.00     0.038 A 
ATOM      8  C   UNL     1      45.434 129.549  15.316  1.00  0.00     0.094 A 
ENDROOT
BRANCH   1   9
ATOM      9  N   UNL     1      44.030 131.506  16.026  1.00  0.00    -0.272 N 
ATOM     10  H   UNL     1      43.878 132.502  15.742  1.00  0.00     0.358 HD
ATOM     11  H   UNL     1      43.163 130.996  15.744  1.00  0.00     0.358 HD
BRANCH   9  12
ATOM     12  C   UNL     1      44.225 131.474  17.460  1.00  0.00     0.239 A 
ATOM     13  C   UNL     1      44.566 131.362  20.231  1.00  0.00     0.179 A 
ATOM     14  C   UNL     1      45.615 130.979  19.387  1.00  0.00     0.080 A 
ATOM     15  N   UNL     1      43.388 131.788  19.692  1.00  0.00    -0.179 N 
ATOM     16  C   UNL     1      45.436 131.020  18.006  1.00  0.00     0.085 A 
ATOM     17  C   UNL     1      43.190 131.837  18.347  1.00  0.00     0.420 A 
ATOM     18  C   UNL     1      44.757 131.357  21.719  1.00  0.00     0.124 C 
ATOM     19  H   UNL     1      42.606 132.080  20.322  1.00  0.00     0.456 HD
ATOM     20  F   UNL     1      41.981 132.227  17.870  1.00  0.00    -0.131 F 
ENDBRANCH   9  12
ENDBRANCH   1   9
BRANCH   8  21
ATOM     21  N   UNL     1      44.547 128.603  15.928  1.00  0.00    -0.394 N 
ATOM     22  H   UNL     1      44.884 127.725  16.371  1.00  0.00     0.156 HD
ATOM     23  H   UNL     1      43.529 128.819  16.022  1.00  0.00     0.156 HD
ENDBRANCH   8  21
TORSDOF 3
ENDMDL
MODEL 4
REMARK VINA RESULT:      -8.4      1.354      1.515
REMARK SMILES Cc1ccc([NH2+]c2cc(F)c(C)cc2N)c(F)[nH+]1
REMARK SMILES IDX 7 1 8 2 9 3 10 4 11 5 12 6 13 7 14 8 6 9 5 12 2 13 3 14
REMARK SMILES IDX 18 15 4 16 16 17 1 18 17 20 15 21
REMARK H PARENT 6 10 6 11 18 19 15 22 15 23
ROOT
ATOM      1  C   UNL     1      43.738 131.724  18.302  1.00  0.00     0.161 A 
ATOM      2  C   UNL     1      44.976 131.267  18.795  1.00  0.00     0.110 A 
ATOM      3  C   UNL     1      45.195 131.123  20.165  1.00  0.00     0.132 A 
ATOM      4  F   UNL     1      46.401 130.677  20.601  1.00  0.00    -0.206 F 
ATOM      5  C   UNL     1      44.183 131.440  21.080  1.00  0.00    -0.013 A 
ATOM      6  C   UNL     1      44.411 131.262  22.553  1.00  0.00     0.047 C 
ATOM      7  C   UNL     1      42.936 131.864  20.603  1.00  0.00     0.038 A 
ATOM      8  C   UNL     1      42.696 132.004  19.226  1.00  0.00     0.094 A 
ENDROOT
BRANCH   1   9
ATOM      9  N   UNL     1      43.569 131.910  16.874  1.00  0.00    -0.272 N 
ATOM     10  H   UNL     1      42.661 131.499  16.553  1.00  0.00     0.358 HD
ATOM     11  H   UNL     1      43.508 132.931  16.660  1.00  0.00     0.358 HD
BRANCH   9  12
ATOM     12  C   UNL     1      44.636 131.272  16.132  1.00  0.00     0.239 A 
ATOM     13  C   UNL     1      46.721 130.097  14.690  1.00  0.00     0.179 A 
ATOM     14  C   UNL     1      46.695 129.988  16.084  1.00  0.00     0.080 A 
ATOM     15  N   UNL     1      45.727 130.775  14.047  1.00  0.00    -0.179 N 
ATOM     16  C   UNL     1      45.663 130.589  16.802  1.00  0.00     0.085 A 
ATOM     17  C   UNL     1      44.709 131.371  14.727  1.00  0.00     0.420 A 
ATOM     18  C   UNL     1      47.806 129.424  13.902  1.00  0.00     0.124 C 
ATOM     19  H   UNL     1      45.743 130.852  13.005  1.00  0.00     0.456 HD
ATOM     20  F   UNL     1      43.774 132.070  14.036  1.00  0.00    -0.131 F 
ENDBRANCH   9  12
ENDBRANCH   1   9
BRANCH   8  21
ATOM     21  N   UNL     1      41.390 132.411  18.798  1.00  0.00    -0.394 N 
ATOM     22  H   UNL     1      41.237 133.024  17.972  1.00  0.00     0.156 HD
ATOM     23  H   UNL     1      40.538 132.023  19.262  1.00  0.00     0.156 HD
ENDBRANCH   8  21
TORSDOF 3
ENDMDL
MODEL 5
REMARK VINA RESULT:      -7.9      1.900      5.735
REMARK SMILES Cc1ccc([NH2+]c2cc(F)c(C)cc2N)c(F)[nH+]1
REMARK SMILES IDX 7 1 8 2 9 3 10 4 11 5 12 6 13 7 14 8 6 9 5 12 2 13 3 14
REMARK SMILES IDX 18 15 4 16 16 17 1 18 17 20 15 21
REMARK H PARENT 6 10 6 11 18 19 15 22 15 23
ROOT
ATOM      1  C   UNL     1      44.755 131.215  16.061  1.00  0.00     0.161 A 
ATOM      2  C   UNL     1      44.796 129.815  15.909  1.00  0.00     0.110 A 
ATOM      3  C   UNL     1      45.818 129.200  15.186  1.00  0.00     0.132 A 
ATOM      4  F   UNL     1      45.824 127.848  15.065  1.00  0.00    -0.206 F 
ATOM      5  C   UNL     1      46.823 129.971  14.588  1.00  0.00    -0.013 A 
ATOM      6  C   UNL     1      47.936 129.308  13.830  1.00  0.00     0.047 C 
ATOM      7  C   UNL     1      46.813 131.362  14.759  1.00  0.00     0.038 A 
ATOM      8  C   UNL     1      45.796 131.994  15.492  1.00  0.00     0.094 A 
ENDROOT
BRANCH   1   9
ATOM      9  N   UNL     1      43.646 131.817  16.776  1.00  0.00    -0.272 N 
ATOM     10  H   UNL     1      43.573 132.837  16.551  1.00  0.00     0.358 HD
ATOM     11  H   UNL     1      42.749 131.391  16.451  1.00  0.00     0.358 HD
BRANCH   9  12
ATOM     12  C   UNL     1      43.812 131.685  18.208  1.00  0.00     0.239 A 
ATOM     13  C   UNL     1      44.100 131.377  20.971  1.00  0.00     0.179 A 
ATOM     14  C   UNL     1      45.200 131.170  20.131  1.00  0.00     0.080 A 
ATOM     15  N   UNL     1      42.897 131.729  20.432  1.00  0.00    -0.179 N 
ATOM     16  C   UNL     1      45.050 131.309  18.752  1.00  0.00     0.085 A 
ATOM     17  C   UNL     1      42.726 131.870  19.089  1.00  0.00     0.420 A 
ATOM     18  C   UNL     1      44.258 131.267  22.458  1.00  0.00     0.124 C 
ATOM     19  H   UNL     1      42.076 131.889  21.059  1.00  0.00     0.456 HD
ATOM     20  F   UNL     1      41.495 132.178  18.609  1.00  0.00    -0.131 F 
ENDBRANCH   9  12
ENDBRANCH   1   9
BRANCH   8  21
ATOM     21  N   UNL     1      45.859 133.417  15.659  1.00  0.00    -0.394 N 
ATOM     22  H   UNL     1      45.117 134.055  15.306  1.00  0.00     0.156 HD
ATOM     23  H   UNL     1      46.622 133.849  16.226  1.00  0.00     0.156 HD
ENDBRANCH   8  21
TORSDOF 3
ENDMDL
MODEL 6
REMARK VINA RESULT:      -7.5      1.979      5.599
REMARK SMILES Cc1ccc([NH2+]c2cc(F)c(C)cc2N)c(F)[nH+]1
REMARK SMILES IDX 7 1 8 2 9 3 10 4 11 5 12 6 13 7 14 8 6 9 5 12 2 13 3 14
REMARK SMILES IDX 18 15 4 16 16 17 1 18 17 20 15 21
REMARK H PARENT 6 10 6 11 18 19 15 22 15 23
ROOT
ATOM      1  C   UNL     1      44.318 131.371  16.211  1.00  0.00     0.161 A 
ATOM      2  C   UNL     1      45.396 130.742  16.863  1.00  0.00     0.110 A 
ATOM      3  C   UNL     1      46.436 130.160  16.137  1.00  0.00     0.132 A 
ATOM      4  F   UNL     1      47.459 129.566  16.803  1.00  0.00    -0.206 F 
ATOM      5  C   UNL     1      46.419 130.185  14.737  1.00  0.00    -0.013 A 
ATOM      6  C   UNL     1      47.549 129.580  13.956  1.00  0.00     0.047 C 
ATOM      7  C   UNL     1      45.370 130.836  14.075  1.00  0.00     0.038 A 
ATOM      8  C   UNL     1      44.322 131.436  14.792  1.00  0.00     0.094 A 
ENDROOT
BRANCH   1   9
ATOM      9  N   UNL     1      43.232 131.917  17.002  1.00  0.00    -0.272 N 
ATOM     10  H   UNL     1      43.105 132.937  16.800  1.00  0.00     0.358 HD
ATOM     11  H   UNL     1      42.334 131.460  16.724  1.00  0.00     0.358 HD
BRANCH   9  12
ATOM     12  C   UNL     1      43.489 131.770  18.418  1.00  0.00     0.239 A 
ATOM     13  C   UNL     1      43.965 131.429  21.151  1.00  0.00     0.179 A 
ATOM     14  C   UNL     1      45.040 131.434  20.255  1.00  0.00     0.080 A 
ATOM     15  N   UNL     1      42.694 131.591  20.682  1.00  0.00    -0.179 N 
ATOM     16  C   UNL     1      44.799 131.589  18.892  1.00  0.00     0.085 A 
ATOM     17  C   UNL     1      42.434 131.743  19.354  1.00  0.00     0.420 A 
ATOM     18  C   UNL     1      44.214 131.301  22.625  1.00  0.00     0.124 C 
ATOM     19  H   UNL     1      41.891 131.593  21.350  1.00  0.00     0.456 HD
ATOM     20  F   UNL     1      41.146 131.856  18.942  1.00  0.00    -0.131 F 
ENDBRANCH   9  12
ENDBRANCH   1   9
BRANCH   8  21
ATOM     21  N   UNL     1      43.293 132.114  14.059  1.00  0.00    -0.394 N 
ATOM     22  H   UNL     1      42.353 132.305  14.460  1.00  0.00     0.156 HD
ATOM     23  H   UNL     1      43.496 132.519  13.118  1.00  0.00     0.156 HD
ENDBRANCH   8  21
TORSDOF 3
ENDMDL
MODEL 7
REMARK VINA RESULT:      -7.3      1.335      2.014
REMARK SMILES Cc1ccc([NH2+]c2cc(F)c(C)cc2N)c(F)[nH+]1
REMARK SMILES IDX 7 1 8 2 9 3 10 4 11 5 12 6 13 7 14 8 6 9 5 12 2 13 3 14
REMARK SMILES IDX 18 15 4 16 16 17 1 18 17 20 15 21
REMARK H PARENT 6 10 6 11 18 19 15 22 15 23
ROOT
ATOM      1  C   UNL     1      44.143 131.349  17.554  1.00  0.00     0.161 A 
ATOM      2  C   UNL     1      43.156 131.918  18.383  1.00  0.00     0.110 A 
ATOM      3  C   UNL     1      43.309 131.943  19.769  1.00  0.00     0.132 A 
ATOM      4  F   UNL     1      42.336 132.502  20.534  1.00  0.00    -0.206 F 
ATOM      5  C   UNL     1      44.451 131.392  20.364  1.00  0.00    -0.013 A 
ATOM      6  C   UNL     1      44.627 131.440  21.854  1.00  0.00     0.047 C 
ATOM      7  C   UNL     1      45.456 130.853  19.550  1.00  0.00     0.038 A 
ATOM      8  C   UNL     1      45.321 130.830  18.152  1.00  0.00     0.094 A 
ENDROOT
BRANCH   1   9
ATOM      9  N   UNL     1      43.920 131.297  16.121  1.00  0.00    -0.272 N 
ATOM     10  H   UNL     1      43.146 130.631  15.893  1.00  0.00     0.358 HD
ATOM     11  H   UNL     1      43.597 132.233  15.785  1.00  0.00     0.358 HD
BRANCH   9  12
ATOM     12  C   UNL     1      45.108 130.860  15.421  1.00  0.00     0.239 A 
ATOM     13  C   UNL     1      47.369 130.000  14.020  1.00  0.00     0.179 A 
ATOM     14  C   UNL     1      47.142 131.369  14.197  1.00  0.00     0.080 A 
ATOM     15  N   UNL     1      46.485 129.097  14.535  1.00  0.00    -0.179 N 
ATOM     16  C   UNL     1      46.005 131.795  14.882  1.00  0.00     0.085 A 
ATOM     17  C   UNL     1      45.368 129.489  15.207  1.00  0.00     0.420 A 
ATOM     18  C   UNL     1      48.606 129.527  13.317  1.00  0.00     0.124 C 
ATOM     19  H   UNL     1      46.657 128.074  14.409  1.00  0.00     0.456 HD
ATOM     20  F   UNL     1      44.503 128.547  15.657  1.00  0.00    -0.131 F 
ENDBRANCH   9  12
ENDBRANCH   1   9
BRANCH   8  21
ATOM     21  N   UNL     1      46.398 130.294  17.371  1.00  0.00    -0.394 N 
ATOM     22  H   UNL     1      46.913 129.433  17.644  1.00  0.00     0.156 HD
ATOM     23  H   UNL     1      46.639 130.715  16.446  1.00  0.00     0.156 HD
ENDBRANCH   8  21
TORSDOF 3
ENDMDL
MODEL 8
REMARK VINA RESULT:      -7.3      2.612      6.251
REMARK SMILES Cc1ccc([NH2+]c2cc(F)c(C)cc2N)c(F)[nH+]1
REMARK SMILES IDX 7 1 8 2 9 3 10 4 11 5 12 6 13 7 14 8 6 9 5 12 2 13 3 14
REMARK SMILES IDX 18 15 4 16 16 17 1 18 17 20 15 21
REMARK H PARENT 6 10 6 11 18 19 15 22 15 23
ROOT
ATOM      1  C   UNL     1      44.685 131.679  18.982  1.00  0.00     0.161 A 
ATOM      2  C   UNL     1      45.822 131.004  18.496  1.00  0.00     0.110 A 
ATOM      3  C   UNL     1      45.836 130.445  17.218  1.00  0.00     0.132 A 
ATOM      4  F   UNL     1      46.952 129.805  16.785  1.00  0.00    -0.206 F 
ATOM      5  C   UNL     1      44.707 130.541  16.394  1.00  0.00    -0.013 A 
ATOM      6  C   UNL     1      44.730 129.962  15.009  1.00  0.00     0.047 C 
ATOM      7  C   UNL     1      43.581 131.238  16.850  1.00  0.00     0.038 A 
ATOM      8  C   UNL     1      43.557 131.814  18.131  1.00  0.00     0.094 A 
ENDROOT
BRANCH   1   9
ATOM      9  N   UNL     1      44.695 132.199  20.336  1.00  0.00    -0.272 N 
ATOM     10  H   UNL     1      45.660 132.494  20.610  1.00  0.00     0.358 HD
ATOM     11  H   UNL     1      44.111 133.065  20.379  1.00  0.00     0.358 HD
BRANCH   9  12
ATOM     12  C   UNL     1      44.244 131.203  21.284  1.00  0.00     0.239 A 
ATOM     13  C   UNL     1      43.334 129.258  23.073  1.00  0.00     0.179 A 
ATOM     14  C   UNL     1      44.581 129.104  22.456  1.00  0.00     0.080 A 
ATOM     15  N   UNL     1      42.575 130.358  22.796  1.00  0.00    -0.179 N 
ATOM     16  C   UNL     1      45.025 130.067  21.552  1.00  0.00     0.085 A 
ATOM     17  C   UNL     1      42.988 131.311  21.916  1.00  0.00     0.420 A 
ATOM     18  C   UNL     1      42.861 128.249  24.076  1.00  0.00     0.124 C 
ATOM     19  H   UNL     1      41.647 130.476  23.260  1.00  0.00     0.456 HD
ATOM     20  F   UNL     1      42.170 132.359  21.647  1.00  0.00    -0.131 F 
ENDBRANCH   9  12
ENDBRANCH   1   9
BRANCH   8  21
ATOM     21  N   UNL     1      42.387 132.543  18.529  1.00  0.00    -0.394 N 
ATOM     22  H   UNL     1      42.243 133.544  18.288  1.00  0.00     0.156 HD
ATOM     23  H   UNL     1      41.597 132.053  19.006  1.00  0.00     0.156 HD
ENDBRANCH   8  21
TORSDOF 3
ENDMDL
MODEL 9
REMARK VINA RESULT:      -7.2      3.511      6.884
REMARK SMILES Cc1ccc([NH2+]c2cc(F)c(C)cc2N)c(F)[nH+]1
REMARK SMILES IDX 7 1 8 2 9 3 10 4 11 5 12 6 13 7 14 8 6 9 5 12 2 13 3 14
REMARK SMILES IDX 18 15 4 16 16 17 1 18 17 20 15 21
REMARK H PARENT 6 10 6 11 18 19 15 22 15 23
ROOT
ATOM      1  C   UNL     1      44.363 131.445  20.842  1.00  0.00     0.161 A 
ATOM      2  C   UNL     1      45.381 131.016  19.967  1.00  0.00     0.110 A 
ATOM      3  C   UNL     1      45.199 131.043  18.584  1.00  0.00     0.132 A 
ATOM      4  F   UNL     1      46.205 130.623  17.775  1.00  0.00    -0.206 F 
ATOM      5  C   UNL     1      43.990 131.493  18.040  1.00  0.00    -0.013 A 
ATOM      6  C   UNL     1      43.803 131.545  16.551  1.00  0.00     0.047 C 
ATOM      7  C   UNL     1      42.982 131.955  18.896  1.00  0.00     0.038 A 
ATOM      8  C   UNL     1      43.154 131.943  20.290  1.00  0.00     0.094 A 
ENDROOT
BRANCH   1   9
ATOM      9  N   UNL     1      44.574 131.352  22.274  1.00  0.00    -0.272 N 
ATOM     10  H   UNL     1      45.591 131.443  22.503  1.00  0.00     0.358 HD
ATOM     11  H   UNL     1      44.104 132.156  22.748  1.00  0.00     0.358 HD
BRANCH   9  12
ATOM     12  C   UNL     1      44.110 130.083  22.791  1.00  0.00     0.239 A 
ATOM     13  C   UNL     1      43.170 127.630  23.747  1.00  0.00     0.179 A 
ATOM     14  C   UNL     1      44.364 127.679  23.018  1.00  0.00     0.080 A 
ATOM     15  N   UNL     1      42.477 128.781  23.985  1.00  0.00    -0.179 N 
ATOM     16  C   UNL     1      44.822 128.901  22.529  1.00  0.00     0.085 A 
ATOM     17  C   UNL     1      42.905 129.986  23.517  1.00  0.00     0.420 A 
ATOM     18  C   UNL     1      42.685 126.328  24.311  1.00  0.00     0.124 C 
ATOM     19  H   UNL     1      41.589 128.747  24.534  1.00  0.00     0.456 HD
ATOM     20  F   UNL     1      42.150 131.089  23.748  1.00  0.00    -0.131 F 
ENDBRANCH   9  12
ENDBRANCH   1   9
BRANCH   8  21
ATOM     21  N   UNL     1      42.098 132.458  21.112  1.00  0.00    -0.394 N 
ATOM     22  H   UNL     1      41.837 133.465  21.123  1.00  0.00     0.156 HD
ATOM     23  H   UNL     1      41.496 131.809  21.667  1.00  0.00     0.156 HD
ENDBRANCH   8  21
TORSDOF 3
ENDMDL


