MODEL 1
REMARK VINA RESULT:      -3.2      0.000      0.000
REMARK SMILES Cc1ccc(Nc2cccc(N)c2O[C@H](CO)COC(c2ccccc2)c2ccccc2)cc1
REMARK SMILES IDX 14 1 13 2 7 3 8 4 9 5 11 6 10 7 6 8 5 10 2 11 3 12 34 13
REMARK SMILES IDX 4 14 33 15 1 16 12 17 15 20 16 21 17 22 18 24 19 25 20 26
REMARK SMILES IDX 21 27 22 28 26 29 23 30 25 31 24 32 27 33 28 34 32 35 29 36
REMARK SMILES IDX 31 37 30 38
REMARK H PARENT 6 9 12 18 12 19 17 23
ROOT
ATOM      1  O   UNL     1      44.847 127.097  21.617  1.00  0.00    -0.481 OA
ENDROOT
BRANCH   1   2
ATOM      2  C   UNL     1      45.112 125.844  22.180  1.00  0.00     0.166 A 
ATOM      3  C   UNL     1      44.041 125.011  22.578  1.00  0.00     0.083 A 
ATOM      4  C   UNL     1      44.318 123.794  23.217  1.00  0.00     0.030 A 
ATOM      5  C   UNL     1      45.637 123.376  23.404  1.00  0.00     0.005 A 
ATOM      6  C   UNL     1      46.444 125.404  22.341  1.00  0.00     0.076 A 
ATOM      7  C   UNL     1      46.694 124.171  22.958  1.00  0.00     0.029 A 
BRANCH   3   8
ATOM      8  N   UNL     1      42.671 125.419  22.416  1.00  0.00    -0.352 N 
ATOM      9  H   UNL     1      42.492 126.348  21.968  1.00  0.00     0.167 HD
BRANCH   8  10
ATOM     10  C   UNL     1      41.537 124.656  22.861  1.00  0.00     0.038 A 
ATOM     11  C   UNL     1      39.305 123.146  23.689  1.00  0.00    -0.051 A 
ATOM     12  C   UNL     1      39.446 123.526  22.346  1.00  0.00     0.005 A 
ATOM     13  C   UNL     1      40.266 123.559  24.624  1.00  0.00     0.005 A 
ATOM     14  C   UNL     1      40.553 124.276  21.937  1.00  0.00     0.026 A 
ATOM     15  C   UNL     1      41.372 124.313  24.215  1.00  0.00     0.026 A 
ATOM     16  C   UNL     1      38.096 122.376  24.139  1.00  0.00     0.044 C 
ENDBRANCH   8  10
ENDBRANCH   3   8
BRANCH   6  17
ATOM     17  N   UNL     1      47.542 126.186  21.855  1.00  0.00    -0.396 N 
ATOM     18  H   UNL     1      47.825 127.083  22.308  1.00  0.00     0.156 HD
ATOM     19  H   UNL     1      48.095 125.875  21.022  1.00  0.00     0.156 HD
ENDBRANCH   6  17
ENDBRANCH   1   2
BRANCH   1  20
ATOM     20  C   UNL     1      45.219 128.326  22.243  1.00  0.00     0.224 C 
BRANCH  20  21
ATOM     21  C   UNL     1      44.505 128.459  23.599  1.00  0.00     0.203 C 
BRANCH  21  22
ATOM     22  O   UNL     1      43.277 129.118  23.443  1.00  0.00    -0.392 OA
ATOM     23  H   UNL     1      43.103 129.586  24.300  1.00  0.00     0.210 HD
ENDBRANCH  21  22
ENDBRANCH  20  21
BRANCH  20  24
ATOM     24  C   UNL     1      44.849 129.468  21.295  1.00  0.00     0.209 C 
BRANCH  24  25
ATOM     25  O   UNL     1      46.011 129.953  20.654  1.00  0.00    -0.365 OA
BRANCH  25  26
ATOM     26  C   UNL     1      45.708 131.065  19.823  1.00  0.00     0.178 C 
BRANCH  26  27
ATOM     27  C   UNL     1      45.655 130.671  18.359  1.00  0.00    -0.015 A 
ATOM     28  C   UNL     1      46.340 131.443  17.402  1.00  0.00     0.007 A 
ATOM     29  C   UNL     1      44.886 129.573  17.928  1.00  0.00     0.007 A 
ATOM     30  C   UNL     1      46.270 131.113  16.045  1.00  0.00     0.000 A 
ATOM     31  C   UNL     1      44.822 129.247  16.567  1.00  0.00     0.000 A 
ATOM     32  C   UNL     1      45.512 130.017  15.628  1.00  0.00     0.000 A 
ENDBRANCH  26  27
BRANCH  26  33
ATOM     33  C   UNL     1      44.364 131.633  20.226  1.00  0.00    -0.015 A 
ATOM     34  C   UNL     1      43.953 131.629  21.574  1.00  0.00     0.007 A 
ATOM     35  C   UNL     1      43.475 132.113  19.244  1.00  0.00     0.007 A 
ATOM     36  C   UNL     1      42.692 132.115  21.931  1.00  0.00     0.000 A 
ATOM     37  C   UNL     1      42.218 132.602  19.607  1.00  0.00     0.000 A 
ATOM     38  C   UNL     1      41.826 132.603  20.949  1.00  0.00     0.000 A 
ENDBRANCH  26  33
ENDBRANCH  25  26
ENDBRANCH  24  25
ENDBRANCH  20  24
ENDBRANCH   1  20
TORSDOF 12
ENDMDL
MODEL 2
REMARK VINA RESULT:      -1.2      5.313     10.410
REMARK SMILES Cc1ccc(Nc2cccc(N)c2O[C@H](CO)COC(c2ccccc2)c2ccccc2)cc1
REMARK SMILES IDX 14 1 13 2 7 3 8 4 9 5 11 6 10 7 6 8 5 10 2 11 3 12 34 13
REMARK SMILES IDX 4 14 33 15 1 16 12 17 15 20 16 21 17 22 18 24 19 25 20 26
REMARK SMILES IDX 21 27 22 28 26 29 23 30 25 31 24 32 27 33 28 34 32 35 29 36
REMARK SMILES IDX 31 37 30 38
REMARK H PARENT 6 9 12 18 12 19 17 23
ROOT
ATOM      1  O   UNL     1      48.431 133.683  22.065  1.00  0.00    -0.481 OA
ENDROOT
BRANCH   1   2
ATOM      2  C   UNL     1      49.558 134.252  22.666  1.00  0.00     0.166 A 
ATOM      3  C   UNL     1      49.745 135.653  22.625  1.00  0.00     0.083 A 
ATOM      4  C   UNL     1      50.920 136.205  23.157  1.00  0.00     0.030 A 
ATOM      5  C   UNL     1      51.868 135.389  23.777  1.00  0.00     0.005 A 
ATOM      6  C   UNL     1      50.504 133.434  23.321  1.00  0.00     0.076 A 
ATOM      7  C   UNL     1      51.656 134.013  23.869  1.00  0.00     0.029 A 
BRANCH   3   8
ATOM      8  N   UNL     1      48.796 136.520  21.980  1.00  0.00    -0.352 N 
ATOM      9  H   UNL     1      47.930 136.772  22.511  1.00  0.00     0.167 HD
BRANCH   8  10
ATOM     10  C   UNL     1      48.939 137.031  20.643  1.00  0.00     0.038 A 
ATOM     11  C   UNL     1      49.251 137.998  18.014  1.00  0.00    -0.051 A 
ATOM     12  C   UNL     1      50.231 137.175  18.588  1.00  0.00     0.005 A 
ATOM     13  C   UNL     1      48.133 138.368  18.776  1.00  0.00     0.005 A 
ATOM     14  C   UNL     1      50.075 136.697  19.893  1.00  0.00     0.026 A 
ATOM     15  C   UNL     1      47.979 137.893  20.083  1.00  0.00     0.026 A 
ATOM     16  C   UNL     1      49.435 138.547  16.627  1.00  0.00     0.044 C 
ENDBRANCH   8  10
ENDBRANCH   3   8
BRANCH   6  17
ATOM     17  N   UNL     1      50.287 132.024  23.462  1.00  0.00    -0.396 N 
ATOM     18  H   UNL     1      49.594 131.510  22.874  1.00  0.00     0.156 HD
ATOM     19  H   UNL     1      50.823 131.467  24.167  1.00  0.00     0.156 HD
ENDBRANCH   6  17
ENDBRANCH   1   2
BRANCH   1  20
ATOM     20  C   UNL     1      47.095 134.075  22.389  1.00  0.00     0.224 C 
BRANCH  20  21
ATOM     21  C   UNL     1      46.982 134.347  23.899  1.00  0.00     0.203 C 
BRANCH  21  22
ATOM     22  O   UNL     1      47.926 133.589  24.605  1.00  0.00    -0.392 OA
ATOM     23  H   UNL     1      48.766 134.115  24.596  1.00  0.00     0.210 HD
ENDBRANCH  21  22
ENDBRANCH  20  21
BRANCH  20  24
ATOM     24  C   UNL     1      46.155 132.952  21.945  1.00  0.00     0.209 C 
BRANCH  24  25
ATOM     25  O   UNL     1      46.692 132.297  20.815  1.00  0.00    -0.365 OA
BRANCH  25  26
ATOM     26  C   UNL     1      45.990 131.092  20.543  1.00  0.00     0.178 C 
BRANCH  26  27
ATOM     27  C   UNL     1      44.997 130.764  21.642  1.00  0.00    -0.015 A 
ATOM     28  C   UNL     1      44.612 129.428  21.859  1.00  0.00     0.007 A 
ATOM     29  C   UNL     1      44.407 131.780  22.417  1.00  0.00     0.007 A 
ATOM     30  C   UNL     1      43.670 129.114  22.844  1.00  0.00     0.000 A 
ATOM     31  C   UNL     1      43.466 131.459  23.404  1.00  0.00     0.000 A 
ATOM     32  C   UNL     1      43.097 130.128  23.615  1.00  0.00     0.000 A 
ENDBRANCH  26  27
BRANCH  26  33
ATOM     33  C   UNL     1      45.242 131.240  19.235  1.00  0.00    -0.015 A 
ATOM     34  C   UNL     1      45.901 131.061  18.002  1.00  0.00     0.007 A 
ATOM     35  C   UNL     1      43.888 131.626  19.234  1.00  0.00     0.007 A 
ATOM     36  C   UNL     1      45.213 131.242  16.799  1.00  0.00     0.000 A 
ATOM     37  C   UNL     1      43.203 131.801  18.029  1.00  0.00     0.000 A 
ATOM     38  C   UNL     1      43.864 131.610  16.813  1.00  0.00     0.000 A 
ENDBRANCH  26  33
ENDBRANCH  25  26
ENDBRANCH  24  25
ENDBRANCH  20  24
ENDBRANCH   1  20
TORSDOF 12
ENDMDL


