MODEL 1
REMARK VINA RESULT:     -10.3      0.000      0.000
REMARK SMILES c1cc([NH2+]c2ccc3cc[nH]c3c2)c2oncc2c1
REMARK SMILES IDX 5 1 6 2 7 3 8 4 9 5 10 6 11 7 12 8 13 9 4 11 3 14 1 15 2 16
REMARK SMILES IDX 19 17 18 18 14 19 17 20 15 21 16 22
REMARK H PARENT 11 10 4 12 4 13
ROOT
ATOM      1  C   UNL     1      44.808 131.169  16.211  1.00  0.00     0.136 A 
ATOM      2  C   UNL     1      44.889 129.750  16.196  1.00  0.00     0.069 A 
ATOM      3  C   UNL     1      45.805 129.091  15.355  1.00  0.00     0.016 A 
ATOM      4  C   UNL     1      46.627 129.874  14.550  1.00  0.00    -0.000 A 
ATOM      5  C   UNL     1      47.604 129.514  13.648  1.00  0.00     0.028 A 
ATOM      6  C   UNL     1      48.094 130.715  13.146  1.00  0.00     0.083 A 
ATOM      7  N   UNL     1      47.454 131.766  13.706  1.00  0.00    -0.361 N 
ATOM      8  C   UNL     1      46.563 131.240  14.561  1.00  0.00     0.051 A 
ATOM      9  C   UNL     1      45.667 131.925  15.380  1.00  0.00     0.094 A 
ATOM     10  H   UNL     1      47.623 132.779  13.513  1.00  0.00     0.166 HD
ENDROOT
BRANCH   1  11
ATOM     11  N   UNL     1      43.890 131.832  17.101  1.00  0.00    -0.278 N 
ATOM     12  H   UNL     1      43.915 132.867  16.942  1.00  0.00     0.358 HD
ATOM     13  H   UNL     1      42.910 131.517  16.907  1.00  0.00     0.358 HD
BRANCH  11  14
ATOM     14  C   UNL     1      44.241 131.533  18.466  1.00  0.00     0.181 A 
ATOM     15  C   UNL     1      45.805 130.638  20.138  1.00  0.00     0.007 A 
ATOM     16  C   UNL     1      45.460 130.891  18.790  1.00  0.00     0.072 A 
ATOM     17  C   UNL     1      44.945 131.027  21.181  1.00  0.00     0.014 A 
ATOM     18  C   UNL     1      43.758 131.662  20.830  1.00  0.00     0.048 A 
ATOM     19  C   UNL     1      43.417 131.908  19.534  1.00  0.00     0.227 A 
ATOM     20  C   UNL     1      42.721 132.168  21.578  1.00  0.00     0.167 A 
ATOM     21  O   UNL     1      42.258 132.518  19.507  1.00  0.00    -0.350 OA
ATOM     22  N   UNL     1      41.810 132.690  20.723  1.00  0.00    -0.087 NA
ENDBRANCH  11  14
ENDBRANCH   1  11
TORSDOF 2
ENDMDL
MODEL 2
REMARK VINA RESULT:      -9.3      1.605      2.356
REMARK SMILES c1cc([NH2+]c2ccc3cc[nH]c3c2)c2oncc2c1
REMARK SMILES IDX 5 1 6 2 7 3 8 4 9 5 10 6 11 7 12 8 13 9 4 11 3 14 1 15 2 16
REMARK SMILES IDX 19 17 18 18 14 19 17 20 15 21 16 22
REMARK H PARENT 11 10 4 12 4 13
ROOT
ATOM      1  C   UNL     1      45.992 130.726  17.136  1.00  0.00     0.136 A 
ATOM      2  C   UNL     1      45.645 131.947  16.496  1.00  0.00     0.069 A 
ATOM      3  C   UNL     1      46.016 132.191  15.161  1.00  0.00     0.016 A 
ATOM      4  C   UNL     1      46.724 131.197  14.492  1.00  0.00    -0.000 A 
ATOM      5  C   UNL     1      47.207 131.154  13.202  1.00  0.00     0.028 A 
ATOM      6  C   UNL     1      47.826 129.913  13.089  1.00  0.00     0.083 A 
ATOM      7  N   UNL     1      47.733 129.222  14.247  1.00  0.00    -0.361 N 
ATOM      8  C   UNL     1      47.058 130.015  15.095  1.00  0.00     0.051 A 
ATOM      9  C   UNL     1      46.708 129.741  16.415  1.00  0.00     0.094 A 
ATOM     10  H   UNL     1      48.108 128.265  14.439  1.00  0.00     0.166 HD
ENDROOT
BRANCH   1  11
ATOM     11  N   UNL     1      45.576 130.475  18.492  1.00  0.00    -0.278 N 
ATOM     12  H   UNL     1      45.453 129.446  18.648  1.00  0.00     0.358 HD
ATOM     13  H   UNL     1      46.314 130.799  19.159  1.00  0.00     0.358 HD
BRANCH  11  14
ATOM     14  C   UNL     1      44.339 131.166  18.752  1.00  0.00     0.181 A 
ATOM     15  C   UNL     1      42.244 132.191  17.978  1.00  0.00     0.007 A 
ATOM     16  C   UNL     1      43.471 131.545  17.701  1.00  0.00     0.072 A 
ATOM     17  C   UNL     1      41.861 132.459  19.304  1.00  0.00     0.014 A 
ATOM     18  C   UNL     1      42.732 132.068  20.315  1.00  0.00     0.048 A 
ATOM     19  C   UNL     1      43.918 131.447  20.057  1.00  0.00     0.227 A 
ATOM     20  C   UNL     1      42.668 132.167  21.684  1.00  0.00     0.167 A 
ATOM     21  O   UNL     1      44.521 131.192  21.191  1.00  0.00    -0.350 OA
ATOM     22  N   UNL     1      43.794 131.613  22.194  1.00  0.00    -0.087 NA
ENDBRANCH  11  14
ENDBRANCH   1  11
TORSDOF 2
ENDMDL
MODEL 3
REMARK VINA RESULT:      -9.2      0.844      1.473
REMARK SMILES c1cc([NH2+]c2ccc3cc[nH]c3c2)c2oncc2c1
REMARK SMILES IDX 5 1 6 2 7 3 8 4 9 5 10 6 11 7 12 8 13 9 4 11 3 14 1 15 2 16
REMARK SMILES IDX 19 17 18 18 14 19 17 20 15 21 16 22
REMARK H PARENT 11 10 4 12 4 13
ROOT
ATOM      1  C   UNL     1      44.822 131.300  16.086  1.00  0.00     0.136 A 
ATOM      2  C   UNL     1      45.456 132.428  15.496  1.00  0.00     0.069 A 
ATOM      3  C   UNL     1      46.548 132.266  14.625  1.00  0.00     0.016 A 
ATOM      4  C   UNL     1      46.979 130.970  14.358  1.00  0.00    -0.000 A 
ATOM      5  C   UNL     1      48.002 130.512  13.556  1.00  0.00     0.028 A 
ATOM      6  C   UNL     1      47.961 129.126  13.672  1.00  0.00     0.083 A 
ATOM      7  N   UNL     1      46.966 128.743  14.503  1.00  0.00    -0.361 N 
ATOM      8  C   UNL     1      46.374 129.876  14.915  1.00  0.00     0.051 A 
ATOM      9  C   UNL     1      45.291 130.000  15.782  1.00  0.00     0.094 A 
ATOM     10  H   UNL     1      46.711 127.765  14.768  1.00  0.00     0.166 HD
ENDROOT
BRANCH   1  11
ATOM     11  N   UNL     1      43.683 131.478  16.949  1.00  0.00    -0.278 N 
ATOM     12  H   UNL     1      43.240 132.411  16.777  1.00  0.00     0.358 HD
ATOM     13  H   UNL     1      42.958 130.752  16.741  1.00  0.00     0.358 HD
BRANCH  11  14
ATOM     14  C   UNL     1      44.101 131.375  18.325  1.00  0.00     0.181 A 
ATOM     15  C   UNL     1      45.763 130.762  20.028  1.00  0.00     0.007 A 
ATOM     16  C   UNL     1      45.354 130.820  18.675  1.00  0.00     0.072 A 
ATOM     17  C   UNL     1      44.933 131.261  21.048  1.00  0.00     0.014 A 
ATOM     18  C   UNL     1      43.711 131.806  20.670  1.00  0.00     0.048 A 
ATOM     19  C   UNL     1      43.308 131.865  19.369  1.00  0.00     0.227 A 
ATOM     20  C   UNL     1      42.688 132.376  21.390  1.00  0.00     0.167 A 
ATOM     21  O   UNL     1      42.128 132.430  19.314  1.00  0.00    -0.350 OA
ATOM     22  N   UNL     1      41.724 132.751  20.516  1.00  0.00    -0.087 NA
ENDBRANCH  11  14
ENDBRANCH   1  11
TORSDOF 2
ENDMDL
MODEL 4
REMARK VINA RESULT:      -8.4      1.092      1.374
REMARK SMILES c1cc([NH2+]c2ccc3cc[nH]c3c2)c2oncc2c1
REMARK SMILES IDX 5 1 6 2 7 3 8 4 9 5 10 6 11 7 12 8 13 9 4 11 3 14 1 15 2 16
REMARK SMILES IDX 19 17 18 18 14 19 17 20 15 21 16 22
REMARK H PARENT 11 10 4 12 4 13
ROOT
ATOM      1  C   UNL     1      44.322 131.453  16.477  1.00  0.00     0.136 A 
ATOM      2  C   UNL     1      43.979 131.727  15.124  1.00  0.00     0.069 A 
ATOM      3  C   UNL     1      44.815 131.311  14.072  1.00  0.00     0.016 A 
ATOM      4  C   UNL     1      45.977 130.620  14.400  1.00  0.00    -0.000 A 
ATOM      5  C   UNL     1      46.965 130.094  13.596  1.00  0.00     0.028 A 
ATOM      6  C   UNL     1      47.874 129.512  14.474  1.00  0.00     0.083 A 
ATOM      7  N   UNL     1      47.472 129.667  15.755  1.00  0.00    -0.361 N 
ATOM      8  C   UNL     1      46.314 130.344  15.697  1.00  0.00     0.051 A 
ATOM      9  C   UNL     1      45.511 130.742  16.764  1.00  0.00     0.094 A 
ATOM     10  H   UNL     1      47.964 129.327  16.612  1.00  0.00     0.166 HD
ENDROOT
BRANCH   1  11
ATOM     11  N   UNL     1      43.441 131.855  17.543  1.00  0.00    -0.278 N 
ATOM     12  H   UNL     1      43.265 132.886  17.499  1.00  0.00     0.358 HD
ATOM     13  H   UNL     1      42.513 131.382  17.439  1.00  0.00     0.358 HD
BRANCH  11  14
ATOM     14  C   UNL     1      44.030 131.507  18.811  1.00  0.00     0.181 A 
ATOM     15  C   UNL     1      45.887 130.604  20.144  1.00  0.00     0.007 A 
ATOM     16  C   UNL     1      45.308 130.904  18.889  1.00  0.00     0.072 A 
ATOM     17  C   UNL     1      45.205 130.907  21.337  1.00  0.00     0.014 A 
ATOM     18  C   UNL     1      43.955 131.506  21.226  1.00  0.00     0.048 A 
ATOM     19  C   UNL     1      43.389 131.797  20.021  1.00  0.00     0.227 A 
ATOM     20  C   UNL     1      43.045 131.932  22.164  1.00  0.00     0.167 A 
ATOM     21  O   UNL     1      42.222 132.357  20.223  1.00  0.00    -0.350 OA
ATOM     22  N   UNL     1      41.983 132.454  21.505  1.00  0.00    -0.087 NA
ENDBRANCH  11  14
ENDBRANCH   1  11
TORSDOF 2
ENDMDL
MODEL 5
REMARK VINA RESULT:      -8.0      2.357      6.875
REMARK SMILES c1cc([NH2+]c2ccc3cc[nH]c3c2)c2oncc2c1
REMARK SMILES IDX 5 1 6 2 7 3 8 4 9 5 10 6 11 7 12 8 13 9 4 11 3 14 1 15 2 16
REMARK SMILES IDX 19 17 18 18 14 19 17 20 15 21 16 22
REMARK H PARENT 11 10 4 12 4 13
ROOT
ATOM      1  C   UNL     1      45.472 130.639  19.236  1.00  0.00     0.136 A 
ATOM      2  C   UNL     1      44.576 131.737  19.127  1.00  0.00     0.069 A 
ATOM      3  C   UNL     1      43.799 132.144  20.226  1.00  0.00     0.016 A 
ATOM      4  C   UNL     1      43.943 131.441  21.419  1.00  0.00    -0.000 A 
ATOM      5  C   UNL     1      43.329 131.613  22.641  1.00  0.00     0.028 A 
ATOM      6  C   UNL     1      43.867 130.625  23.458  1.00  0.00     0.083 A 
ATOM      7  N   UNL     1      44.769 129.879  22.781  1.00  0.00    -0.361 N 
ATOM      8  C   UNL     1      44.806 130.387  21.539  1.00  0.00     0.051 A 
ATOM      9  C   UNL     1      45.590 129.956  20.470  1.00  0.00     0.094 A 
ATOM     10  H   UNL     1      45.322 129.074  23.152  1.00  0.00     0.166 HD
ENDROOT
BRANCH   1  11
ATOM     11  N   UNL     1      46.287 130.254  18.113  1.00  0.00    -0.278 N 
ATOM     12  H   UNL     1      47.233 130.699  18.182  1.00  0.00     0.358 HD
ATOM     13  H   UNL     1      46.437 129.217  18.116  1.00  0.00     0.358 HD
BRANCH  11  14
ATOM     14  C   UNL     1      45.641 130.654  16.889  1.00  0.00     0.181 A 
ATOM     15  C   UNL     1      43.762 131.687  15.687  1.00  0.00     0.007 A 
ATOM     16  C   UNL     1      44.366 131.267  16.896  1.00  0.00     0.072 A 
ATOM     17  C   UNL     1      44.423 131.508  14.458  1.00  0.00     0.014 A 
ATOM     18  C   UNL     1      45.678 130.909  14.487  1.00  0.00     0.048 A 
ATOM     19  C   UNL     1      46.266 130.500  15.646  1.00  0.00     0.227 A 
ATOM     20  C   UNL     1      46.580 130.599  13.497  1.00  0.00     0.167 A 
ATOM     21  O   UNL     1      47.437 129.982  15.370  1.00  0.00    -0.350 OA
ATOM     22  N   UNL     1      47.658 130.025  14.082  1.00  0.00    -0.087 NA
ENDBRANCH  11  14
ENDBRANCH   1  11
TORSDOF 2
ENDMDL
MODEL 6
REMARK VINA RESULT:      -7.9      2.199      6.660
REMARK SMILES c1cc([NH2+]c2ccc3cc[nH]c3c2)c2oncc2c1
REMARK SMILES IDX 5 1 6 2 7 3 8 4 9 5 10 6 11 7 12 8 13 9 4 11 3 14 1 15 2 16
REMARK SMILES IDX 19 17 18 18 14 19 17 20 15 21 16 22
REMARK H PARENT 11 10 4 12 4 13
ROOT
ATOM      1  C   UNL     1      45.484 130.668  18.544  1.00  0.00     0.136 A 
ATOM      2  C   UNL     1      45.749 130.543  19.935  1.00  0.00     0.069 A 
ATOM      3  C   UNL     1      44.863 131.078  20.887  1.00  0.00     0.016 A 
ATOM      4  C   UNL     1      43.722 131.724  20.422  1.00  0.00    -0.000 A 
ATOM      5  C   UNL     1      42.691 132.330  21.108  1.00  0.00     0.028 A 
ATOM      6  C   UNL     1      41.828 132.800  20.123  1.00  0.00     0.083 A 
ATOM      7  N   UNL     1      42.297 132.503  18.891  1.00  0.00    -0.361 N 
ATOM      8  C   UNL     1      43.452 131.846  19.087  1.00  0.00     0.051 A 
ATOM      9  C   UNL     1      44.308 131.329  18.116  1.00  0.00     0.094 A 
ATOM     10  H   UNL     1      41.849 132.736  17.976  1.00  0.00     0.166 HD
ENDROOT
BRANCH   1  11
ATOM     11  N   UNL     1      46.381 130.086  17.579  1.00  0.00    -0.278 N 
ATOM     12  H   UNL     1      47.363 130.402  17.762  1.00  0.00     0.358 HD
ATOM     13  H   UNL     1      46.374 129.043  17.666  1.00  0.00     0.358 HD
BRANCH  11  14
ATOM     14  C   UNL     1      45.976 130.471  16.251  1.00  0.00     0.181 A 
ATOM     15  C   UNL     1      44.392 131.552  14.714  1.00  0.00     0.007 A 
ATOM     16  C   UNL     1      44.756 131.149  16.020  1.00  0.00     0.072 A 
ATOM     17  C   UNL     1      45.241 131.293  13.623  1.00  0.00     0.014 A 
ATOM     18  C   UNL     1      46.436 130.631  13.884  1.00  0.00     0.048 A 
ATOM     19  C   UNL     1      46.794 130.238  15.139  1.00  0.00     0.227 A 
ATOM     20  C   UNL     1      47.474 130.237  13.074  1.00  0.00     0.167 A 
ATOM     21  O   UNL     1      47.963 129.650  15.085  1.00  0.00    -0.350 OA
ATOM     22  N   UNL     1      48.403 129.632  13.853  1.00  0.00    -0.087 NA
ENDBRANCH  11  14
ENDBRANCH   1  11
TORSDOF 2
ENDMDL
MODEL 7
REMARK VINA RESULT:      -7.8      3.212      5.043
REMARK SMILES c1cc([NH2+]c2ccc3cc[nH]c3c2)c2oncc2c1
REMARK SMILES IDX 5 1 6 2 7 3 8 4 9 5 10 6 11 7 12 8 13 9 4 11 3 14 1 15 2 16
REMARK SMILES IDX 19 17 18 18 14 19 17 20 15 21 16 22
REMARK H PARENT 11 10 4 12 4 13
ROOT
ATOM      1  C   UNL     1      44.759 131.315  20.864  1.00  0.00     0.136 A 
ATOM      2  C   UNL     1      43.548 131.901  20.403  1.00  0.00     0.069 A 
ATOM      3  C   UNL     1      43.260 131.968  19.028  1.00  0.00     0.016 A 
ATOM      4  C   UNL     1      44.192 131.438  18.141  1.00  0.00    -0.000 A 
ATOM      5  C   UNL     1      44.178 131.359  16.766  1.00  0.00     0.028 A 
ATOM      6  C   UNL     1      45.370 130.726  16.427  1.00  0.00     0.083 A 
ATOM      7  N   UNL     1      46.087 130.427  17.534  1.00  0.00    -0.361 N 
ATOM      8  C   UNL     1      45.358 130.866  18.573  1.00  0.00     0.051 A 
ATOM      9  C   UNL     1      45.677 130.783  19.927  1.00  0.00     0.094 A 
ATOM     10  H   UNL     1      47.016 129.950  17.570  1.00  0.00     0.166 HD
ENDROOT
BRANCH   1  11
ATOM     11  N   UNL     1      45.027 131.221  22.276  1.00  0.00    -0.278 N 
ATOM     12  H   UNL     1      46.018 130.923  22.437  1.00  0.00     0.358 HD
ATOM     13  H   UNL     1      44.912 132.160  22.726  1.00  0.00     0.358 HD
BRANCH  11  14
ATOM     14  C   UNL     1      44.122 130.275  22.876  1.00  0.00     0.181 A 
ATOM     15  C   UNL     1      42.036 129.750  24.066  1.00  0.00     0.007 A 
ATOM     16  C   UNL     1      42.931 130.696  23.514  1.00  0.00     0.072 A 
ATOM     17  C   UNL     1      42.310 128.373  23.982  1.00  0.00     0.014 A 
ATOM     18  C   UNL     1      43.484 127.991  23.343  1.00  0.00     0.048 A 
ATOM     19  C   UNL     1      44.354 128.896  22.810  1.00  0.00     0.227 A 
ATOM     20  C   UNL     1      44.042 126.761  23.083  1.00  0.00     0.167 A 
ATOM     21  O   UNL     1      45.360 128.254  22.270  1.00  0.00    -0.350 OA
ATOM     22  N   UNL     1      45.203 126.964  22.417  1.00  0.00    -0.087 NA
ENDBRANCH  11  14
ENDBRANCH   1  11
TORSDOF 2
ENDMDL
MODEL 8
REMARK VINA RESULT:      -7.8      2.129      3.048
REMARK SMILES c1cc([NH2+]c2ccc3cc[nH]c3c2)c2oncc2c1
REMARK SMILES IDX 5 1 6 2 7 3 8 4 9 5 10 6 11 7 12 8 13 9 4 11 3 14 1 15 2 16
REMARK SMILES IDX 19 17 18 18 14 19 17 20 15 21 16 22
REMARK H PARENT 11 10 4 12 4 13
ROOT
ATOM      1  C   UNL     1      44.913 131.598  19.012  1.00  0.00     0.136 A 
ATOM      2  C   UNL     1      43.750 131.852  18.234  1.00  0.00     0.069 A 
ATOM      3  C   UNL     1      43.664 131.406  16.903  1.00  0.00     0.016 A 
ATOM      4  C   UNL     1      44.748 130.708  16.380  1.00  0.00    -0.000 A 
ATOM      5  C   UNL     1      44.942 130.156  15.132  1.00  0.00     0.028 A 
ATOM      6  C   UNL     1      46.208 129.580  15.184  1.00  0.00     0.083 A 
ATOM      7  N   UNL     1      46.770 129.764  16.400  1.00  0.00    -0.361 N 
ATOM      8  C   UNL     1      45.870 130.453  17.120  1.00  0.00     0.051 A 
ATOM      9  C   UNL     1      45.990 130.880  18.441  1.00  0.00     0.094 A 
ATOM     10  H   UNL     1      47.711 129.434  16.712  1.00  0.00     0.166 HD
ENDROOT
BRANCH   1  11
ATOM     11  N   UNL     1      44.974 132.030  20.384  1.00  0.00    -0.278 N 
ATOM     12  H   UNL     1      45.922 132.420  20.599  1.00  0.00     0.358 HD
ATOM     13  H   UNL     1      44.282 132.798  20.551  1.00  0.00     0.358 HD
BRANCH  11  14
ATOM     14  C   UNL     1      44.691 130.915  21.253  1.00  0.00     0.181 A 
ATOM     15  C   UNL     1      45.128 128.622  22.022  1.00  0.00     0.007 A 
ATOM     16  C   UNL     1      45.394 129.693  21.137  1.00  0.00     0.072 A 
ATOM     17  C   UNL     1      44.164 128.757  23.038  1.00  0.00     0.014 A 
ATOM     18  C   UNL     1      43.495 129.973  23.129  1.00  0.00     0.048 A 
ATOM     19  C   UNL     1      43.744 131.010  22.280  1.00  0.00     0.227 A 
ATOM     20  C   UNL     1      42.525 130.435  23.986  1.00  0.00     0.167 A 
ATOM     21  O   UNL     1      42.978 132.021  22.605  1.00  0.00    -0.350 OA
ATOM     22  N   UNL     1      42.229 131.708  23.631  1.00  0.00    -0.087 NA
ENDBRANCH  11  14
ENDBRANCH   1  11
TORSDOF 2
ENDMDL
MODEL 9
REMARK VINA RESULT:      -7.5      1.672      6.583
REMARK SMILES c1cc([NH2+]c2ccc3cc[nH]c3c2)c2oncc2c1
REMARK SMILES IDX 5 1 6 2 7 3 8 4 9 5 10 6 11 7 12 8 13 9 4 11 3 14 1 15 2 16
REMARK SMILES IDX 19 17 18 18 14 19 17 20 15 21 16 22
REMARK H PARENT 11 10 4 12 4 13
ROOT
ATOM      1  C   UNL     1      44.723 131.801  18.496  1.00  0.00     0.136 A 
ATOM      2  C   UNL     1      45.802 131.111  19.112  1.00  0.00     0.069 A 
ATOM      3  C   UNL     1      45.730 130.719  20.461  1.00  0.00     0.016 A 
ATOM      4  C   UNL     1      44.568 131.024  21.164  1.00  0.00    -0.000 A 
ATOM      5  C   UNL     1      44.218 130.766  22.472  1.00  0.00     0.028 A 
ATOM      6  C   UNL     1      42.940 131.297  22.615  1.00  0.00     0.083 A 
ATOM      7  N   UNL     1      42.518 131.855  21.458  1.00  0.00    -0.361 N 
ATOM      8  C   UNL     1      43.520 131.682  20.581  1.00  0.00     0.051 A 
ATOM      9  C   UNL     1      43.558 132.085  19.248  1.00  0.00     0.094 A 
ATOM     10  H   UNL     1      41.600 132.322  21.285  1.00  0.00     0.166 HD
ENDROOT
BRANCH   1  11
ATOM     11  N   UNL     1      44.795 132.166  17.105  1.00  0.00    -0.278 N 
ATOM     12  H   UNL     1      43.861 132.496  16.767  1.00  0.00     0.358 HD
ATOM     13  H   UNL     1      45.465 132.960  16.976  1.00  0.00     0.358 HD
BRANCH  11  14
ATOM     14  C   UNL     1      45.227 131.030  16.331  1.00  0.00     0.181 A 
ATOM     15  C   UNL     1      45.118 128.637  15.777  1.00  0.00     0.007 A 
ATOM     16  C   UNL     1      44.710 129.734  16.571  1.00  0.00     0.072 A 
ATOM     17  C   UNL     1      46.039 128.816  14.729  1.00  0.00     0.014 A 
ATOM     18  C   UNL     1      46.523 130.102  14.514  1.00  0.00     0.048 A 
ATOM     19  C   UNL     1      46.137 131.165  15.275  1.00  0.00     0.227 A 
ATOM     20  C   UNL     1      47.405 130.619  13.595  1.00  0.00     0.167 A 
ATOM     21  O   UNL     1      46.745 132.242  14.843  1.00  0.00    -0.350 OA
ATOM     22  N   UNL     1      47.518 131.948  13.830  1.00  0.00    -0.087 NA
ENDBRANCH  11  14
ENDBRANCH   1  11
TORSDOF 2
ENDMDL


