REMARK SMILES Cc1ccc(-c2ccc(N(C(=O)C/C=C(\O)Cl)c3cc4ccccc4[n-]3)c(C=O)c2)cc1
REMARK SMILES IDX 13 1 14 2 15 3 17 4 16 5 11 7 12 8 10 9 18 10 26 11 19 12
REMARK SMILES IDX 25 13 20 14 24 15 21 16 23 17 22 18 9 19 8 20 27 21 7 22
REMARK SMILES IDX 30 23 6 24 28 25 29 26 5 27 4 28 31 29 3 30 32 31 2 32 1 33
REMARK H PARENT 16 6
ROOT
ATOM      1  C   UNL     1      -3.140  -2.372  -2.547  1.00  0.00     0.109 C 
ENDROOT
BRANCH   1   2
ATOM      2  C   UNL     1      -3.810  -1.029  -2.599  1.00  0.00     0.040 C 
BRANCH   2   3
ATOM      3  C   UNL     1      -3.676  -0.180  -3.623  1.00  0.00     0.180 C 
ATOM      4  Cl  UNL     1      -4.456   1.391  -3.551  1.00  0.00    -0.044 Cl
BRANCH   3   5
ATOM      5  O   UNL     1      -2.926  -0.519  -4.746  1.00  0.00    -0.499 OA
ATOM      6  H   UNL     1      -2.817   0.134  -5.512  1.00  0.00     0.294 HD
ENDBRANCH   3   5
ENDBRANCH   2   3
ENDBRANCH   1   2
BRANCH   1   7
ATOM      7  C   UNL     1      -2.090  -2.387  -1.468  1.00  0.00     0.155 C 
ATOM      8  O   UNL     1      -2.285  -3.102  -0.448  1.00  0.00    -0.298 OA
BRANCH   7   9
ATOM      9  N   UNL     1      -0.914  -1.553  -1.537  1.00  0.00    -0.387 N 
BRANCH   9  10
ATOM     10  C   UNL     1      -0.365  -1.096  -2.782  1.00  0.00    -0.051 A 
ATOM     11  N   UNL     1       0.092   0.168  -2.961  1.00  0.00    -0.435 NA
ATOM     12  C   UNL     1      -0.161  -1.896  -3.902  1.00  0.00     0.008 A 
ATOM     13  C   UNL     1       0.562   0.170  -4.221  1.00  0.00    -0.034 A 
ATOM     14  C   UNL     1       0.426  -1.058  -4.816  1.00  0.00    -0.023 A 
ATOM     15  C   UNL     1       1.136   1.246  -4.894  1.00  0.00     0.004 A 
ATOM     16  C   UNL     1       0.854  -1.297  -6.120  1.00  0.00     0.008 A 
ATOM     17  C   UNL     1       1.575   1.039  -6.215  1.00  0.00     0.000 A 
ATOM     18  C   UNL     1       1.435  -0.227  -6.825  1.00  0.00     0.001 A 
ENDBRANCH   9  10
BRANCH   9  19
ATOM     19  C   UNL     1      -0.217  -1.214  -0.329  1.00  0.00    -0.025 A 
ATOM     20  C   UNL     1       0.883  -1.989   0.057  1.00  0.00     0.005 A 
ATOM     21  C   UNL     1      -0.623  -0.124   0.472  1.00  0.00     0.018 A 
ATOM     22  C   UNL     1       1.577  -1.701   1.232  1.00  0.00     0.009 A 
ATOM     23  C   UNL     1       0.081   0.155   1.657  1.00  0.00     0.020 A 
ATOM     24  C   UNL     1       1.183  -0.627   2.046  1.00  0.00    -0.018 A 
BRANCH  21  25
ATOM     25  C   UNL     1      -1.762   0.730   0.068  1.00  0.00     0.260 C 
ATOM     26  O   UNL     1      -2.172   1.661   0.811  1.00  0.00    -0.298 OA
ENDBRANCH  21  25
BRANCH  24  27
ATOM     27  C   UNL     1       1.924  -0.321   3.296  1.00  0.00    -0.018 A 
ATOM     28  C   UNL     1       2.354  -1.358   4.144  1.00  0.00     0.009 A 
ATOM     29  C   UNL     1       2.205   1.010   3.655  1.00  0.00     0.009 A 
ATOM     30  C   UNL     1       3.051  -1.069   5.321  1.00  0.00     0.004 A 
ATOM     31  C   UNL     1       2.903   1.297   4.831  1.00  0.00     0.004 A 
ATOM     32  C   UNL     1       3.343   0.258   5.664  1.00  0.00    -0.051 A 
ATOM     33  C   UNL     1       4.057   0.569   6.947  1.00  0.00     0.044 C 
ENDBRANCH  24  27
ENDBRANCH   9  19
ENDBRANCH   7   9
ENDBRANCH   1   7
TORSDOF 9


