REMARK SMILES CC(=O)c1ccc(C(=O)N[C@@H]2C=CCC2)c(F)c1[O-]
REMARK SMILES IDX 4 1 5 2 6 3 7 4 16 5 17 6 18 7 19 8 2 9 1 10 3 11 8 12 10 13
REMARK SMILES IDX 9 14 11 16 12 17 15 18 13 19 14 20
REMARK H PARENT 10 15
ROOT
ATOM      1  C   UNL     1       3.319   1.002   0.173  1.00  0.00     0.012 A 
ATOM      2  C   UNL     1       2.854   1.170   1.491  1.00  0.00     0.012 A 
ATOM      3  C   UNL     1       1.712   0.503   1.938  1.00  0.00     0.017 A 
ATOM      4  C   UNL     1       1.009  -0.360   1.086  1.00  0.00     0.074 A 
ATOM      5  C   UNL     1       1.452  -0.520  -0.240  1.00  0.00     0.128 A 
ATOM      6  F   UNL     1       0.751  -1.284  -1.117  1.00  0.00    -0.207 F 
ATOM      7  C   UNL     1       2.595   0.152  -0.693  1.00  0.00    -0.060 A 
ATOM      8  O   UNL     1       2.989  -0.024  -2.016  1.00  0.00    -0.870 OA
ENDROOT
BRANCH   1   9
ATOM      9  C   UNL     1       4.546   1.714  -0.288  1.00  0.00     0.159 C 
ATOM     10  C   UNL     1       5.139   2.851   0.490  1.00  0.00     0.093 C 
ATOM     11  O   UNL     1       5.132   1.347  -1.343  1.00  0.00    -0.295 OA
ENDBRANCH   1   9
BRANCH   4  12
ATOM     12  C   UNL     1      -0.196  -1.060   1.587  1.00  0.00     0.254 C 
ATOM     13  N   UNL     1      -0.516  -2.387   1.143  1.00  0.00    -0.346 N 
ATOM     14  O   UNL     1      -0.934  -0.488   2.435  1.00  0.00    -0.269 OA
ATOM     15  H   UNL     1       0.208  -2.934   0.624  1.00  0.00     0.164 HD
BRANCH  13  16
ATOM     16  C   UNL     1      -1.795  -3.022   1.475  1.00  0.00     0.105 C 
ATOM     17  C   UNL     1      -1.805  -4.452   1.055  1.00  0.00    -0.007 C 
ATOM     18  C   UNL     1      -2.955  -2.389   0.688  1.00  0.00     0.033 C 
ATOM     19  C   UNL     1      -2.794  -4.725   0.223  1.00  0.00    -0.029 C 
ATOM     20  C   UNL     1      -3.629  -3.534  -0.076  1.00  0.00     0.029 C 
ENDBRANCH  13  16
ENDBRANCH   4  12
TORSDOF 3


