REMARK SMILES Nc1cc(F)c[n-]/c1=N\c1ccc2nc(Nc3cc4cccc(F)c4[nH]3)cn2c1
REMARK SMILES IDX 10 1 11 2 12 3 13 4 14 5 15 6 27 7 28 8 29 9 9 10 8 11 6 12
REMARK SMILES IDX 7 13 4 14 3 15 2 16 5 17 1 18 16 21 17 23 18 24 26 25 19 26
REMARK SMILES IDX 25 27 20 28 23 29 21 30 22 31 24 33
REMARK H PARENT 1 19 1 20 16 22 26 32
ROOT
ATOM      1  C   UNL     1       2.033   0.492  -3.224  1.00  0.00    -0.024 A 
ATOM      2  C   UNL     1       3.361   0.054  -3.030  1.00  0.00     0.009 A 
ATOM      3  C   UNL     1       3.679  -0.831  -1.988  1.00  0.00     0.048 A 
ATOM      4  C   UNL     1       2.641  -1.270  -1.171  1.00  0.00     0.139 A 
ATOM      5  N   UNL     1       2.757  -2.136  -0.144  1.00  0.00    -0.211 NA
ATOM      6  C   UNL     1       1.482  -2.246   0.303  1.00  0.00     0.150 A 
ATOM      7  C   UNL     1       0.621  -1.477  -0.468  1.00  0.00     0.139 A 
ATOM      8  N   UNL     1       1.379  -0.862  -1.385  1.00  0.00    -0.305 N 
ATOM      9  C   UNL     1       1.020  -0.014  -2.381  1.00  0.00     0.096 A 
ENDROOT
BRANCH   1  10
ATOM     10  N   UNL     1       1.746   1.367  -4.329  1.00  0.00    -0.433 NA
BRANCH  10  11
ATOM     11  C   UNL     1       0.863   2.325  -4.363  1.00  0.00    -0.035 A 
ATOM     12  C   UNL     1      -0.760   3.666  -3.243  1.00  0.00     0.018 A 
ATOM     13  N   UNL     1       0.150   2.658  -3.248  1.00  0.00    -0.438 NA
ATOM     14  C   UNL     1      -0.986   4.407  -4.403  1.00  0.00     0.121 A 
ATOM     15  C   UNL     1      -0.267   4.102  -5.559  1.00  0.00     0.064 A 
ATOM     16  C   UNL     1       0.670   3.059  -5.551  1.00  0.00     0.033 A 
ATOM     17  F   UNL     1      -1.892   5.415  -4.406  1.00  0.00    -0.207 F 
BRANCH  16  18
ATOM     18  N   UNL     1       1.406   2.757  -6.744  1.00  0.00    -0.399 N 
ATOM     19  H   UNL     1       2.108   1.985  -6.773  1.00  0.00     0.156 HD
ATOM     20  H   UNL     1       1.252   3.310  -7.617  1.00  0.00     0.156 HD
ENDBRANCH  16  18
ENDBRANCH  10  11
ENDBRANCH   1  10
BRANCH   6  21
ATOM     21  N   UNL     1       1.106  -3.133   1.365  1.00  0.00    -0.325 N 
ATOM     22  H   UNL     1       1.751  -3.922   1.592  1.00  0.00     0.170 HD
BRANCH  21  23
ATOM     23  C   UNL     1      -0.099  -3.008   2.133  1.00  0.00     0.110 A 
ATOM     24  C   UNL     1      -0.810  -1.827   2.349  1.00  0.00     0.055 A 
ATOM     25  N   UNL     1      -0.633  -4.039   2.827  1.00  0.00    -0.339 N 
ATOM     26  C   UNL     1      -1.833  -2.188   3.200  1.00  0.00     0.005 A 
ATOM     27  C   UNL     1      -1.698  -3.527   3.467  1.00  0.00     0.083 A 
ATOM     28  C   UNL     1      -2.852  -1.425   3.764  1.00  0.00     0.010 A 
ATOM     29  C   UNL     1      -2.579  -4.194   4.318  1.00  0.00     0.147 A 
ATOM     30  C   UNL     1      -3.759  -2.072   4.623  1.00  0.00     0.004 A 
ATOM     31  C   UNL     1      -3.624  -3.452   4.899  1.00  0.00     0.041 A 
ATOM     32  H   UNL     1      -0.285  -5.023   2.862  1.00  0.00     0.168 HD
ATOM     33  F   UNL     1      -2.436  -5.517   4.580  1.00  0.00    -0.205 F 
ENDBRANCH  21  23
ENDBRANCH   6  21
TORSDOF 5


