REMARK SMILES [N-]=[N+]=Nc1[nH+]ccc2ccc(-c3cccc([C@H]4CO4)c3)cc12
REMARK SMILES IDX 11 1 10 2 9 3 8 4 7 5 6 6 5 7 4 9 22 10 21 11 12 12 14 13
REMARK SMILES IDX 13 14 15 15 16 16 20 17 17 18 19 19 18 20 3 21 2 22 1 23
REMARK H PARENT 5 8
ROOT
ATOM      1  C   UNL     1      -0.061   0.031   0.889  1.00  0.00    -0.018 A 
ATOM      2  C   UNL     1       0.181  -0.024   2.272  1.00  0.00     0.009 A 
ATOM      3  C   UNL     1       0.106   1.130   3.054  1.00  0.00     0.009 A 
ATOM      4  C   UNL     1      -0.213   2.362   2.467  1.00  0.00    -0.011 A 
ATOM      5  C   UNL     1      -0.289   3.519   3.248  1.00  0.00     0.052 A 
ATOM      6  C   UNL     1      -0.610   4.734   2.646  1.00  0.00     0.194 A 
ATOM      7  N   UNL     1      -0.848   4.798   1.308  1.00  0.00    -0.279 N 
ATOM      8  H   UNL     1      -1.085   5.730   0.901  1.00  0.00     0.308 HD
ATOM      9  C   UNL     1      -0.784   3.689   0.509  1.00  0.00     0.193 A 
ATOM     10  C   UNL     1      -0.462   2.438   1.077  1.00  0.00     0.031 A 
ATOM     11  C   UNL     1      -0.383   1.267   0.299  1.00  0.00     0.021 A 
ENDROOT
BRANCH   1  12
ATOM     12  C   UNL     1       0.023  -1.200   0.063  1.00  0.00    -0.018 A 
ATOM     13  C   UNL     1      -0.438  -3.569  -0.249  1.00  0.00     0.001 A 
ATOM     14  C   UNL     1      -0.509  -2.414   0.534  1.00  0.00     0.009 A 
ATOM     15  C   UNL     1       0.169  -3.530  -1.505  1.00  0.00     0.006 A 
ATOM     16  C   UNL     1       0.722  -2.334  -1.983  1.00  0.00    -0.016 A 
ATOM     17  C   UNL     1       0.633  -1.170  -1.205  1.00  0.00     0.015 A 
BRANCH  16  18
ATOM     18  C   UNL     1       1.350  -2.281  -3.345  1.00  0.00     0.174 C 
ATOM     19  O   UNL     1       2.326  -3.284  -3.509  1.00  0.00    -0.368 OA
ATOM     20  C   UNL     1       2.796  -1.963  -3.385  1.00  0.00     0.198 C 
ENDBRANCH  16  18
ENDBRANCH   1  12
BRANCH   9  21
ATOM     21  N   UNL     1      -1.040   3.791  -0.901  1.00  0.00    -0.017 NA
BRANCH  21  22
ATOM     22  N   UNL     1      -1.323   4.860  -1.443  1.00  0.00     0.009 N 
ATOM     23  N   UNL     1      -1.607   5.927  -1.985  1.00  0.00    -0.003 NA
ENDBRANCH  21  22
ENDBRANCH   9  21
TORSDOF 4


