REMARK SMILES C=C[C@@H](Oc1ncnc(C)c1C)c1cc(-c2c[n-]c3nccc-3c2)cc2c1CC(O)=N2
REMARK SMILES IDX 3 1 2 2 1 3 4 4 5 5 6 6 11 7 7 8 9 9 8 10 12 11 10 12 13 13
REMARK SMILES IDX 14 14 27 15 15 16 26 17 28 18 25 19 31 20 29 21 16 22 17 23
REMARK SMILES IDX 24 24 18 25 23 26 19 27 22 28 20 29 21 30 30 31
REMARK H PARENT 30 32
ROOT
ATOM      1  C   UNL     1      -2.454   0.583   1.633  1.00  0.00     0.228 C 
ENDROOT
BRANCH   1   2
ATOM      2  C   UNL     1      -3.264   1.547   2.457  1.00  0.00     0.014 C 
ATOM      3  C   UNL     1      -3.004   1.750   3.752  1.00  0.00     0.008 C 
ENDBRANCH   1   2
BRANCH   1   4
ATOM      4  O   UNL     1      -3.124   0.345   0.396  1.00  0.00    -0.465 OA
BRANCH   4   5
ATOM      5  C   UNL     1      -2.721  -0.627  -0.529  1.00  0.00     0.220 A 
ATOM      6  N   UNL     1      -1.703  -1.478  -0.228  1.00  0.00    -0.202 NA
ATOM      7  C   UNL     1      -3.364  -0.723  -1.777  1.00  0.00     0.032 A 
ATOM      8  C   UNL     1      -1.281  -2.414  -1.111  1.00  0.00     0.226 A 
ATOM      9  C   UNL     1      -2.889  -1.689  -2.692  1.00  0.00     0.047 A 
ATOM     10  N   UNL     1      -1.869  -2.512  -2.329  1.00  0.00    -0.241 NA
ATOM     11  C   UNL     1      -4.472   0.231  -2.148  1.00  0.00     0.052 C 
ATOM     12  C   UNL     1      -3.488  -1.851  -4.058  1.00  0.00     0.067 C 
ENDBRANCH   4   5
ENDBRANCH   1   4
BRANCH   1  13
ATOM     13  C   UNL     1      -1.069   1.142   1.383  1.00  0.00     0.003 A 
ATOM     14  C   UNL     1       0.057   0.564   2.007  1.00  0.00     0.017 A 
ATOM     15  C   UNL     1      -0.853   2.245   0.544  1.00  0.00    -0.006 A 
ATOM     16  C   UNL     1       1.360   1.076   1.782  1.00  0.00    -0.016 A 
ATOM     17  C   UNL     1       0.404   2.745   0.329  1.00  0.00     0.071 A 
ATOM     18  C   UNL     1      -1.816   3.064  -0.245  1.00  0.00     0.135 C 
ATOM     19  C   UNL     1       1.529   2.187   0.929  1.00  0.00     0.037 A 
ATOM     20  N   UNL     1       0.387   3.854  -0.552  1.00  0.00    -0.218 NA
ATOM     21  C   UNL     1      -0.856   4.035  -0.875  1.00  0.00     0.190 C 
BRANCH  16  22
ATOM     22  C   UNL     1       2.536   0.446   2.434  1.00  0.00    -0.022 A 
ATOM     23  C   UNL     1       3.584   1.256   2.966  1.00  0.00    -0.014 A 
ATOM     24  C   UNL     1       2.624  -0.964   2.529  1.00  0.00     0.016 A 
ATOM     25  N   UNL     1       4.679   0.701   3.569  1.00  0.00    -0.442 NA
ATOM     26  C   UNL     1       3.745  -1.493   3.145  1.00  0.00    -0.026 A 
ATOM     27  C   UNL     1       4.764  -0.645   3.659  1.00  0.00    -0.052 A 
ATOM     28  C   UNL     1       4.159  -2.775   3.402  1.00  0.00     0.003 A 
ATOM     29  N   UNL     1       5.764  -1.348   4.212  1.00  0.00    -0.442 NA
ATOM     30  C   UNL     1       5.389  -2.644   4.051  1.00  0.00    -0.022 A 
ENDBRANCH  16  22
BRANCH  21  31
ATOM     31  O   UNL     1      -1.258   5.050  -1.737  1.00  0.00    -0.496 OA
ATOM     32  H   UNL     1      -0.581   5.685  -2.142  1.00  0.00     0.294 HD
ENDBRANCH  21  31
ENDBRANCH   1  13
TORSDOF 6


