REMARK SMILES Cc1c(F)cc(Nc2cccc(N)c2O)c2cc(-c3[nH+]cncc3F)[nH]c12
REMARK SMILES IDX 7 1 6 3 2 4 3 5 27 6 5 7 26 8 16 9 18 10 17 11 1 12 4 13
REMARK SMILES IDX 19 15 20 16 24 17 21 18 23 19 22 20 25 22 8 23 9 24 14 25
REMARK SMILES IDX 10 26 12 27 11 28 15 29 13 31
REMARK H PARENT 7 2 26 14 20 21 15 30 13 32 13 33
ROOT
ATOM      1  N   UNL     1       2.713   2.209  -0.387  1.00  0.00    -0.352 N 
ATOM      2  H   UNL     1       3.246   2.916  -0.943  1.00  0.00     0.167 HD
ENDROOT
BRANCH   1   3
ATOM      3  C   UNL     1       2.732   0.849  -0.850  1.00  0.00     0.051 A 
ATOM      4  C   UNL     1       2.797  -1.843  -1.788  1.00  0.00     0.009 A 
ATOM      5  C   UNL     1       3.944  -1.021  -1.872  1.00  0.00     0.130 A 
ATOM      6  C   UNL     1       1.631  -1.273  -1.257  1.00  0.00     0.054 A 
ATOM      7  C   UNL     1       3.905   0.312  -1.413  1.00  0.00     0.066 A 
ATOM      8  N   UNL     1       0.423  -1.852  -1.130  1.00  0.00    -0.351 N 
ATOM      9  C   UNL     1       1.599   0.025  -0.808  1.00  0.00     0.024 A 
ATOM     10  C   UNL     1      -0.392  -0.905  -0.605  1.00  0.00     0.090 A 
ATOM     11  C   UNL     1       0.307   0.280  -0.393  1.00  0.00     0.043 A 
ATOM     12  C   UNL     1       2.804  -3.262  -2.285  1.00  0.00     0.050 C 
ATOM     13  F   UNL     1       5.099  -1.500  -2.399  1.00  0.00    -0.207 F 
ATOM     14  H   UNL     1       0.176  -2.838  -1.366  1.00  0.00     0.167 HD
BRANCH  10  15
ATOM     15  C   UNL     1      -1.822  -1.115  -0.280  1.00  0.00     0.188 A 
ATOM     16  N   UNL     1      -2.386  -0.444   0.768  1.00  0.00    -0.239 N 
ATOM     17  C   UNL     1      -2.619  -1.987  -1.040  1.00  0.00     0.215 A 
ATOM     18  C   UNL     1      -3.695  -0.619   1.090  1.00  0.00     0.449 A 
ATOM     19  C   UNL     1      -3.959  -2.147  -0.689  1.00  0.00     0.297 A 
ATOM     20  N   UNL     1      -4.471  -1.464   0.365  1.00  0.00    -0.054 NA
ATOM     21  H   UNL     1      -1.813   0.203   1.355  1.00  0.00     0.312 HD
ATOM     22  F   UNL     1      -2.134  -2.636  -2.128  1.00  0.00    -0.198 F 
ENDBRANCH  10  15
ENDBRANCH   1   3
BRANCH   1  23
ATOM     23  C   UNL     1       2.115   2.625   0.855  1.00  0.00     0.083 A 
ATOM     24  C   UNL     1       2.049   1.742   1.946  1.00  0.00     0.030 A 
ATOM     25  C   UNL     1       1.632   3.942   0.993  1.00  0.00     0.162 A 
ATOM     26  C   UNL     1       1.484   2.151   3.152  1.00  0.00     0.005 A 
ATOM     27  C   UNL     1       1.046   4.352   2.218  1.00  0.00     0.076 A 
ATOM     28  C   UNL     1       0.985   3.445   3.287  1.00  0.00     0.029 A 
BRANCH  25  29
ATOM     29  O   UNL     1       1.750   4.805  -0.101  1.00  0.00    -0.504 OA
ATOM     30  H   UNL     1       1.496   5.782  -0.085  1.00  0.00     0.293 HD
ENDBRANCH  25  29
BRANCH  27  31
ATOM     31  N   UNL     1       0.497   5.664   2.402  1.00  0.00    -0.396 N 
ATOM     32  H   UNL     1       0.131   5.954   3.337  1.00  0.00     0.156 HD
ATOM     33  H   UNL     1       0.378   6.347   1.625  1.00  0.00     0.156 HD
ENDBRANCH  27  31
ENDBRANCH   1  23
TORSDOF 5


