REMARK SMILES Cc1ccc(-c2cc(N)c(Nc3ccc(C)nc3F)cc2F)cc1
REMARK SMILES IDX 6 1 7 2 8 3 10 4 20 5 21 6 22 7 5 8 2 9 3 10 24 11 4 12
REMARK SMILES IDX 23 13 1 14 9 15 11 18 12 20 13 21 18 22 14 23 17 24 15 25
REMARK SMILES IDX 19 26 16 27
REMARK H PARENT 9 16 9 17 11 19
ROOT
ATOM      1  C   UNL     1      -0.364   1.639   0.828  1.00  0.00     0.020 A 
ATOM      2  C   UNL     1      -1.447   0.910   0.308  1.00  0.00     0.039 A 
ATOM      3  C   UNL     1      -1.475  -0.491   0.382  1.00  0.00     0.056 A 
ATOM      4  C   UNL     1      -0.388  -1.178   0.965  1.00  0.00     0.065 A 
ATOM      5  C   UNL     1       0.674  -0.449   1.513  1.00  0.00     0.068 A 
ATOM      6  C   UNL     1       0.694   0.946   1.444  1.00  0.00     0.133 A 
ATOM      7  F   UNL     1       1.732   1.617   2.005  1.00  0.00    -0.206 F 
ENDROOT
BRANCH   1   8
ATOM      8  C   UNL     1      -0.354   3.119   0.736  1.00  0.00    -0.015 A 
ATOM      9  C   UNL     1      -0.342   5.932   0.557  1.00  0.00    -0.051 A 
ATOM     10  C   UNL     1      -1.493   5.256   0.986  1.00  0.00     0.004 A 
ATOM     11  C   UNL     1       0.793   5.195   0.191  1.00  0.00     0.004 A 
ATOM     12  C   UNL     1      -1.498   3.861   1.079  1.00  0.00     0.009 A 
ATOM     13  C   UNL     1       0.789   3.800   0.284  1.00  0.00     0.009 A 
ATOM     14  C   UNL     1      -0.350   7.426   0.419  1.00  0.00     0.044 C 
ENDBRANCH   1   8
BRANCH   3  15
ATOM     15  N   UNL     1      -2.626  -1.194  -0.104  1.00  0.00    -0.397 N 
ATOM     16  H   UNL     1      -2.755  -2.216   0.057  1.00  0.00     0.156 HD
ATOM     17  H   UNL     1      -3.400  -0.679  -0.580  1.00  0.00     0.156 HD
ENDBRANCH   3  15
BRANCH   4  18
ATOM     18  N   UNL     1      -0.352  -2.611   1.034  1.00  0.00    -0.350 N 
ATOM     19  H   UNL     1      -0.156  -3.040   1.967  1.00  0.00     0.167 HD
BRANCH  18  20
ATOM     20  C   UNL     1      -0.373  -3.467  -0.124  1.00  0.00     0.095 A 
ATOM     21  C   UNL     1      -0.167  -2.961  -1.420  1.00  0.00     0.033 A 
ATOM     22  C   UNL     1      -0.578  -4.848   0.028  1.00  0.00     0.236 A 
ATOM     23  C   UNL     1      -0.186  -3.819  -2.519  1.00  0.00     0.026 A 
ATOM     24  N   UNL     1      -0.593  -5.663  -1.060  1.00  0.00    -0.223 NA
ATOM     25  C   UNL     1      -0.410  -5.186  -2.321  1.00  0.00     0.041 A 
ATOM     26  F   UNL     1      -0.775  -5.383   1.259  1.00  0.00    -0.183 F 
ATOM     27  C   UNL     1      -0.421  -6.127  -3.483  1.00  0.00     0.067 C 
ENDBRANCH  18  20
ENDBRANCH   4  18
TORSDOF 4


