REMARK SMILES O=C([N-]CCc1ccc(-c2cnc3ccnn3c2)cc1)[C@H]1CCCSC1
REMARK SMILES IDX 4 1 3 2 2 3 1 4 21 5 22 6 26 7 23 8 25 9 24 10 5 11 6 12
REMARK SMILES IDX 7 13 20 14 8 15 19 16 9 17 10 18 11 19 18 20 12 21 17 22
REMARK SMILES IDX 13 23 16 24 14 25 15 26
REMARK H PARENT
ROOT
ATOM      1  C   UNL     1      -2.848  -2.855   1.044  1.00  0.00    -0.113 C 
ENDROOT
BRANCH   1   2
ATOM      2  N   UNL     1      -1.594  -3.391   0.516  1.00  0.00    -0.653 NA
BRANCH   2   3
ATOM      3  C   UNL     1      -0.293  -2.788   0.589  1.00  0.00     0.055 C 
ATOM      4  O   UNL     1       0.675  -3.398   0.061  1.00  0.00    -0.320 OA
BRANCH   3   5
ATOM      5  C   UNL     1      -0.034  -1.503   1.348  1.00  0.00     0.047 C 
ATOM      6  C   UNL     1       0.330  -1.824   2.808  1.00  0.00     0.011 C 
ATOM      7  C   UNL     1       1.075  -0.675   0.675  1.00  0.00     0.079 C 
ATOM      8  C   UNL     1       0.503  -0.551   3.645  1.00  0.00     0.012 C 
ATOM      9  S   UNL     1       1.205   0.976   1.443  1.00  0.00    -0.161 SA
ATOM     10  C   UNL     1       1.624   0.338   3.101  1.00  0.00     0.069 C 
ENDBRANCH   3   5
ENDBRANCH   2   3
ENDBRANCH   1   2
BRANCH   1  11
ATOM     11  C   UNL     1      -3.640  -2.125  -0.048  1.00  0.00     0.016 C 
BRANCH  11  12
ATOM     12  C   UNL     1      -2.983  -0.833  -0.455  1.00  0.00    -0.049 A 
ATOM     13  C   UNL     1      -3.184   0.330   0.304  1.00  0.00     0.004 A 
ATOM     14  C   UNL     1      -2.108  -0.796  -1.550  1.00  0.00     0.004 A 
ATOM     15  C   UNL     1      -2.506   1.509  -0.018  1.00  0.00     0.009 A 
ATOM     16  C   UNL     1      -1.436   0.384  -1.877  1.00  0.00     0.009 A 
ATOM     17  C   UNL     1      -1.617   1.546  -1.107  1.00  0.00    -0.015 A 
BRANCH  17  18
ATOM     18  C   UNL     1      -0.863   2.785  -1.421  1.00  0.00     0.018 A 
ATOM     19  C   UNL     1      -1.471   4.061  -1.313  1.00  0.00     0.124 A 
ATOM     20  C   UNL     1       0.487   2.729  -1.823  1.00  0.00     0.125 A 
ATOM     21  N   UNL     1      -0.766   5.197  -1.592  1.00  0.00    -0.236 NA
ATOM     22  N   UNL     1       1.125   3.894  -2.082  1.00  0.00    -0.222 N 
ATOM     23  C   UNL     1       0.527   5.082  -1.972  1.00  0.00     0.154 A 
ATOM     24  N   UNL     1       2.381   4.050  -2.460  1.00  0.00    -0.175 NA
ATOM     25  C   UNL     1       1.412   6.083  -2.290  1.00  0.00     0.071 A 
ATOM     26  C   UNL     1       2.579   5.385  -2.594  1.00  0.00     0.138 A 
ENDBRANCH  17  18
ENDBRANCH  11  12
ENDBRANCH   1  11
TORSDOF 6


