REMARK SMILES CC[C@H](O)C(=O)[N@H+]1C[C@H](c2ccc3cc[nH]c3c2)[C@H](C)C[C@H]1F
REMARK SMILES IDX 5 1 6 2 3 3 2 4 1 5 4 6 7 8 8 9 22 10 9 11 21 12 19 13 23 15
REMARK SMILES IDX 20 16 10 17 11 18 18 19 12 20 17 21 13 22 16 23 14 24 15 25
REMARK H PARENT 4 7 7 14 16 26
ROOT
ATOM      1  C   UNL     1      -0.933  -1.076  -0.528  1.00  0.00     0.343 C 
ATOM      2  O   UNL     1      -1.214  -0.506  -1.573  1.00  0.00    -0.228 OA
ENDROOT
BRANCH   1   3
ATOM      3  C   UNL     1      -0.260  -2.435  -0.593  1.00  0.00     0.243 C 
BRANCH   3   4
ATOM      4  C   UNL     1       1.256  -2.319  -0.353  1.00  0.00     0.043 C 
ATOM      5  C   UNL     1       1.976  -1.514  -1.437  1.00  0.00     0.007 C 
ENDBRANCH   3   4
BRANCH   3   6
ATOM      6  O   UNL     1      -0.499  -3.053  -1.833  1.00  0.00    -0.379 OA
ATOM      7  H   UNL     1      -1.459  -3.308  -1.846  1.00  0.00     0.211 HD
ENDBRANCH   3   6
ENDBRANCH   1   3
BRANCH   1   8
ATOM      8  N   UNL     1      -1.222  -0.458   0.759  1.00  0.00    -0.240 N 
ATOM      9  C   UNL     1      -0.408   0.758   1.004  1.00  0.00     0.281 C 
ATOM     10  C   UNL     1      -2.672  -0.230   0.977  1.00  0.00     0.374 C 
ATOM     11  C   UNL     1      -0.914   2.001   0.230  1.00  0.00     0.078 C 
ATOM     12  C   UNL     1      -3.225   0.986   0.209  1.00  0.00     0.107 C 
ATOM     13  C   UNL     1      -2.417   2.268   0.485  1.00  0.00     0.008 C 
ATOM     14  H   UNL     1      -0.931  -1.143   1.497  1.00  0.00     0.359 HD
ATOM     15  F   UNL     1      -3.395  -1.361   0.625  1.00  0.00    -0.185 F 
ATOM     16  C   UNL     1      -2.720   2.832   1.887  1.00  0.00     0.009 C 
BRANCH  11  17
ATOM     17  C   UNL     1      -0.059   3.245   0.441  1.00  0.00    -0.037 A 
ATOM     18  C   UNL     1       0.150   4.127  -0.655  1.00  0.00     0.005 A 
ATOM     19  C   UNL     1       0.479   3.587   1.710  1.00  0.00     0.031 A 
ATOM     20  C   UNL     1       0.896   5.309  -0.505  1.00  0.00     0.010 A 
ATOM     21  C   UNL     1       1.214   4.765   1.821  1.00  0.00     0.046 A 
ATOM     22  C   UNL     1       1.415   5.593   0.752  1.00  0.00    -0.001 A 
ATOM     23  N   UNL     1       1.799   5.260   2.924  1.00  0.00    -0.361 N 
ATOM     24  C   UNL     1       2.162   6.664   1.192  1.00  0.00     0.028 A 
ATOM     25  C   UNL     1       2.381   6.421   2.545  1.00  0.00     0.083 A 
ATOM     26  H   UNL     1       1.806   4.840   3.880  1.00  0.00     0.166 HD
ENDBRANCH  11  17
ENDBRANCH   1   8
TORSDOF 5


