REMARK SMILES C=Cc1ccc(-c2c[nH+]c3oc[nH+]c3c2C)c(Cl)c1F
REMARK SMILES IDX 3 1 4 2 5 3 6 4 17 5 18 6 19 7 20 8 2 9 1 10 7 11 8 12 15 13
REMARK SMILES IDX 9 14 14 15 10 16 13 17 11 18 12 19 16 20
REMARK H PARENT 9 21 13 22
ROOT
ATOM      1  C   UNL     1       2.088   0.051  -3.685  1.00  0.00     0.011 A 
ATOM      2  C   UNL     1       0.782   0.554  -3.598  1.00  0.00     0.012 A 
ATOM      3  C   UNL     1       0.020   0.358  -2.446  1.00  0.00     0.011 A 
ATOM      4  C   UNL     1       0.543  -0.357  -1.361  1.00  0.00     0.010 A 
ATOM      5  C   UNL     1       1.844  -0.890  -1.445  1.00  0.00     0.085 A 
ATOM      6  Cl  UNL     1       2.548  -1.789  -0.103  1.00  0.00    -0.080 Cl
ATOM      7  C   UNL     1       2.610  -0.692  -2.605  1.00  0.00     0.149 A 
ATOM      8  F   UNL     1       3.837  -1.267  -2.687  1.00  0.00    -0.205 F 
ENDROOT
BRANCH   1   9
ATOM      9  C   UNL     1       2.850   0.288  -4.933  1.00  0.00     0.003 C 
ATOM     10  C   UNL     1       4.168   0.482  -4.963  1.00  0.00     0.009 C 
ENDBRANCH   1   9
BRANCH   4  11
ATOM     11  C   UNL     1      -0.294  -0.555  -0.158  1.00  0.00     0.057 A 
ATOM     12  C   UNL     1      -0.774  -1.860   0.137  1.00  0.00     0.319 A 
ATOM     13  C   UNL     1      -0.652   0.531   0.691  1.00  0.00     0.046 A 
ATOM     14  N   UNL     1      -1.585  -2.082   1.215  1.00  0.00    -0.173 N 
ATOM     15  C   UNL     1      -1.502   0.233   1.761  1.00  0.00     0.323 A 
ATOM     16  C   UNL     1      -1.934  -1.032   1.995  1.00  0.00     0.450 A 
ATOM     17  N   UNL     1      -2.028   1.043   2.694  1.00  0.00    -0.170 N 
ATOM     18  O   UNL     1      -2.712  -1.048   3.047  1.00  0.00    -0.349 OA
ATOM     19  C   UNL     1      -2.766   0.207   3.467  1.00  0.00     0.526 A 
ATOM     20  C   UNL     1      -0.189   1.942   0.438  1.00  0.00     0.053 C 
ATOM     21  H   UNL     1      -1.940  -3.041   1.425  1.00  0.00     0.457 HD
ATOM     22  H   UNL     1      -1.912   2.074   2.808  1.00  0.00     0.457 HD
ENDBRANCH   4  11
TORSDOF 2


