REMARK SMILES C=C[C@H]1CN[C@H](c2ccc3nc[nH+]n3c2)/[N+](=C(\O)C[C@H]2C[C@@H](C)C2)C1
REMARK SMILES IDX 17 1 18 2 16 4 25 5 6 6 3 7 5 8 4 9 7 11 8 12 15 13 9 14
REMARK SMILES IDX 14 15 10 16 13 17 11 18 12 19 2 21 1 22 19 23 20 24 24 25
REMARK SMILES IDX 21 26 22 27 23 28
REMARK H PARENT 18 3 5 10 13 20
ROOT
ATOM      1  C   UNL     1       0.403  -1.072  -0.979  1.00  0.00     0.335 C 
ENDROOT
BRANCH   1   2
ATOM      2  O   UNL     1       0.189  -2.276  -0.294  1.00  0.00    -0.463 OA
ATOM      3  H   UNL     1      -0.673  -2.537   0.164  1.00  0.00     0.299 HD
ENDBRANCH   1   2
BRANCH   1   4
ATOM      4  N   UNL     1      -0.502  -0.105  -0.985  1.00  0.00    -0.181 N 
ATOM      5  C   UNL     1      -0.351   1.139  -1.772  1.00  0.00     0.365 C 
ATOM      6  C   UNL     1      -1.725  -0.194  -0.144  1.00  0.00     0.370 C 
ATOM      7  C   UNL     1      -1.608   1.386  -2.627  1.00  0.00     0.091 C 
ATOM      8  N   UNL     1      -2.628   0.943  -0.402  1.00  0.00    -0.254 NA
ATOM      9  C   UNL     1      -2.900   1.054  -1.839  1.00  0.00     0.102 C 
ATOM     10  H   UNL     1      -3.540   0.753   0.079  1.00  0.00     0.129 HD
BRANCH   6  11
ATOM     11  C   UNL     1      -1.369  -0.200   1.330  1.00  0.00     0.056 A 
ATOM     12  C   UNL     1      -2.097  -1.013   2.233  1.00  0.00     0.020 A 
ATOM     13  C   UNL     1      -0.347   0.631   1.840  1.00  0.00     0.150 A 
ATOM     14  C   UNL     1      -1.787  -1.020   3.603  1.00  0.00     0.080 A 
ATOM     15  N   UNL     1      -0.088   0.581   3.169  1.00  0.00    -0.151 N 
ATOM     16  C   UNL     1      -0.753  -0.194   4.031  1.00  0.00     0.282 A 
ATOM     17  N   UNL     1       0.823   1.250   3.843  1.00  0.00    -0.166 N 
ATOM     18  N   UNL     1      -0.300  -0.055   5.294  1.00  0.00    -0.025 NA
ATOM     19  C   UNL     1       0.692   0.862   5.130  1.00  0.00     0.472 A 
ATOM     20  H   UNL     1       1.503   1.937   3.446  1.00  0.00     0.340 HD
ENDBRANCH   6  11
BRANCH   7  21
ATOM     21  C   UNL     1      -1.544   0.592  -3.914  1.00  0.00    -0.024 C 
ATOM     22  C   UNL     1      -2.394   0.824  -4.918  1.00  0.00     0.004 C 
ENDBRANCH   7  21
ENDBRANCH   1   4
BRANCH   1  23
ATOM     23  C   UNL     1       1.751  -0.954  -1.652  1.00  0.00     0.156 C 
BRANCH  23  24
ATOM     24  C   UNL     1       2.672   0.011  -0.878  1.00  0.00     0.003 C 
ATOM     25  C   UNL     1       3.138  -0.523   0.479  1.00  0.00     0.007 C 
ATOM     26  C   UNL     1       4.117   0.004  -1.379  1.00  0.00     0.007 C 
ATOM     27  C   UNL     1       4.582  -0.520  -0.020  1.00  0.00    -0.014 C 
ATOM     28  C   UNL     1       5.212  -1.914  -0.083  1.00  0.00     0.007 C 
ENDBRANCH  23  24
ENDBRANCH   1  23
TORSDOF 6


