REMARK SMILES CC(=O)c1cc(N)c([NH2+]c2ccc(C)nc2F)cc1F
REMARK SMILES IDX 4 1 5 2 6 3 8 4 18 5 19 6 20 7 2 8 1 9 3 10 7 11 9 14 10 17
REMARK SMILES IDX 11 18 16 19 12 20 15 21 13 22 17 23 14 24
REMARK H PARENT 7 12 7 13 9 15 9 16
ROOT
ATOM      1  C   UNL     1      -3.355  -0.146   1.046  1.00  0.00     0.055 A 
ATOM      2  C   UNL     1      -2.358   0.021   2.023  1.00  0.00     0.046 A 
ATOM      3  C   UNL     1      -1.143  -0.677   1.957  1.00  0.00     0.095 A 
ATOM      4  C   UNL     1      -0.909  -1.575   0.885  1.00  0.00     0.160 A 
ATOM      5  C   UNL     1      -1.913  -1.747  -0.084  1.00  0.00     0.110 A 
ATOM      6  C   UNL     1      -3.120  -1.049  -0.009  1.00  0.00     0.140 A 
ATOM      7  F   UNL     1      -4.057  -1.289  -0.960  1.00  0.00    -0.206 F 
ENDROOT
BRANCH   1   8
ATOM      8  C   UNL     1      -4.622   0.627   1.164  1.00  0.00     0.162 C 
ATOM      9  C   UNL     1      -5.527   0.874  -0.006  1.00  0.00     0.093 C 
ATOM     10  O   UNL     1      -4.963   1.092   2.286  1.00  0.00    -0.294 OA
ENDBRANCH   1   8
BRANCH   3  11
ATOM     11  N   UNL     1      -0.168  -0.456   2.986  1.00  0.00    -0.394 N 
ATOM     12  H   UNL     1       0.738  -0.967   3.020  1.00  0.00     0.156 HD
ATOM     13  H   UNL     1      -0.355   0.226   3.754  1.00  0.00     0.156 HD
ENDBRANCH   3  11
BRANCH   4  14
ATOM     14  N   UNL     1       0.336  -2.303   0.752  1.00  0.00    -0.276 N 
ATOM     15  H   UNL     1       0.232  -3.088   0.068  1.00  0.00     0.358 HD
ATOM     16  H   UNL     1       0.570  -2.749   1.667  1.00  0.00     0.358 HD
BRANCH  14  17
ATOM     17  C   UNL     1       1.400  -1.443   0.279  1.00  0.00     0.190 A 
ATOM     18  C   UNL     1       1.262  -0.724  -0.923  1.00  0.00     0.075 A 
ATOM     19  C   UNL     1       2.636  -1.375   0.953  1.00  0.00     0.274 A 
ATOM     20  C   UNL     1       2.304   0.077  -1.390  1.00  0.00     0.030 A 
ATOM     21  N   UNL     1       3.635  -0.589   0.473  1.00  0.00    -0.220 NA
ATOM     22  C   UNL     1       3.496   0.147  -0.663  1.00  0.00     0.041 A 
ATOM     23  F   UNL     1       2.856  -2.102   2.077  1.00  0.00    -0.178 F 
ATOM     24  C   UNL     1       4.636   0.979  -1.155  1.00  0.00     0.067 C 
ENDBRANCH  14  17
ENDBRANCH   4  14
TORSDOF 4


