REMARK SMILES C=Cc1cccc(-c2ccc3ccnc([O-])c3c2)c1
REMARK SMILES IDX 3 1 4 2 5 3 6 4 7 5 19 6 2 7 1 8 8 9 9 10 18 11 10 12 17 13
REMARK SMILES IDX 11 14 15 15 12 16 14 17 13 18 16 19
REMARK H PARENT
ROOT
ATOM      1  C   UNL     1       2.022   1.516  -1.514  1.00  0.00    -0.026 A 
ATOM      2  C   UNL     1       1.641   2.858  -1.364  1.00  0.00     0.008 A 
ATOM      3  C   UNL     1       0.436   3.189  -0.742  1.00  0.00     0.001 A 
ATOM      4  C   UNL     1      -0.401   2.186  -0.254  1.00  0.00     0.009 A 
ATOM      5  C   UNL     1      -0.038   0.834  -0.377  1.00  0.00    -0.018 A 
ATOM      6  C   UNL     1       1.180   0.507  -1.004  1.00  0.00     0.016 A 
ENDROOT
BRANCH   1   7
ATOM      7  C   UNL     1       3.318   1.217  -2.173  1.00  0.00     0.000 C 
ATOM      8  C   UNL     1       3.638   0.030  -2.691  1.00  0.00     0.009 C 
ENDBRANCH   1   7
BRANCH   5   9
ATOM      9  C   UNL     1      -0.923  -0.235   0.153  1.00  0.00    -0.018 A 
ATOM     10  C   UNL     1      -1.559  -0.080   1.398  1.00  0.00     0.009 A 
ATOM     11  C   UNL     1      -1.136  -1.415  -0.583  1.00  0.00     0.018 A 
ATOM     12  C   UNL     1      -2.391  -1.082   1.902  1.00  0.00     0.009 A 
ATOM     13  C   UNL     1      -1.972  -2.428  -0.083  1.00  0.00    -0.007 A 
ATOM     14  C   UNL     1      -2.604  -2.257   1.170  1.00  0.00    -0.016 A 
ATOM     15  C   UNL     1      -2.203  -3.616  -0.802  1.00  0.00    -0.005 A 
ATOM     16  C   UNL     1      -3.437  -3.267   1.668  1.00  0.00     0.029 A 
ATOM     17  N   UNL     1      -3.019  -4.574  -0.286  1.00  0.00    -0.272 NA
ATOM     18  C   UNL     1      -3.632  -4.427   0.917  1.00  0.00     0.111 A 
ATOM     19  O   UNL     1      -1.605  -3.831  -2.039  1.00  0.00    -0.858 OA
ENDBRANCH   5   9
TORSDOF 2


