REMARK SMILES C=Cc1cccc(-c2ccc3c(c2)[C@H](N=C=O)CC3)c1
REMARK SMILES IDX 8 1 9 2 10 3 11 4 12 5 13 6 14 7 18 8 19 9 7 10 3 11 4 12
REMARK SMILES IDX 20 13 5 14 6 15 2 16 1 17 15 18 16 19 17 20
REMARK H PARENT
ROOT
ATOM      1  C   UNL     1       0.968  -0.093  -0.449  1.00  0.00    -0.018 A 
ATOM      2  C   UNL     1       2.257   0.352  -0.825  1.00  0.00     0.009 A 
ATOM      3  C   UNL     1       2.416   1.286  -1.860  1.00  0.00     0.005 A 
ATOM      4  C   UNL     1       1.281   1.770  -2.511  1.00  0.00    -0.042 A 
ATOM      5  C   UNL     1       0.027   1.343  -2.159  1.00  0.00    -0.019 A 
ATOM      6  C   UNL     1      -0.159   0.414  -1.132  1.00  0.00     0.015 A 
ATOM      7  C   UNL     1      -1.027   1.970  -2.998  1.00  0.00     0.149 C 
ATOM      8  C   UNL     1      -0.253   2.990  -3.869  1.00  0.00     0.038 C 
ATOM      9  C   UNL     1       1.250   2.743  -3.629  1.00  0.00     0.038 C 
ENDROOT
BRANCH   1  10
ATOM     10  C   UNL     1       0.801  -1.083   0.645  1.00  0.00    -0.018 A 
ATOM     11  C   UNL     1      -0.410  -1.885   2.618  1.00  0.00    -0.026 A 
ATOM     12  C   UNL     1       0.497  -2.950   2.723  1.00  0.00     0.008 A 
ATOM     13  C   UNL     1      -0.243  -0.945   1.580  1.00  0.00     0.016 A 
ATOM     14  C   UNL     1       1.534  -3.093   1.799  1.00  0.00     0.001 A 
ATOM     15  C   UNL     1       1.685  -2.169   0.765  1.00  0.00     0.009 A 
BRANCH  11  16
ATOM     16  C   UNL     1      -1.490  -1.772   3.630  1.00  0.00     0.000 C 
ATOM     17  C   UNL     1      -2.599  -1.051   3.464  1.00  0.00     0.009 C 
ENDBRANCH  11  16
ENDBRANCH   1  10
BRANCH   7  18
ATOM     18  N   UNL     1      -1.729   0.972  -3.811  1.00  0.00    -0.198 NA
BRANCH  18  19
ATOM     19  C   UNL     1      -1.135   0.189  -4.624  1.00  0.00     0.235 C 
ATOM     20  O   UNL     1      -0.557  -0.571  -5.411  1.00  0.00    -0.211 OA
ENDBRANCH  18  19
ENDBRANCH   7  18
TORSDOF 4


