REMARK SMILES Cc1ccc(-c2cc(N)c(NC3CC(=O)C3)c(Nc3ccc(C)c(F)c3)c2)cc1
REMARK SMILES IDX 6 1 7 2 8 3 10 4 17 5 27 6 5 7 2 8 3 9 29 10 4 11 28 12 1 13
REMARK SMILES IDX 9 14 18 17 19 19 20 20 26 21 21 22 24 23 22 24 25 25 23 26
REMARK SMILES IDX 11 27 12 29 13 30 16 31 14 32 15 33
REMARK H PARENT 9 15 9 16 18 18 11 28
ROOT
ATOM      1  C   UNL     1       1.434   1.553   1.703  1.00  0.00    -0.014 A 
ATOM      2  C   UNL     1       2.752   1.377   1.253  1.00  0.00     0.036 A 
ATOM      3  C   UNL     1       3.019   0.733   0.037  1.00  0.00     0.058 A 
ATOM      4  C   UNL     1       1.951   0.251  -0.749  1.00  0.00     0.082 A 
ATOM      5  C   UNL     1       0.623   0.425  -0.304  1.00  0.00     0.065 A 
ATOM      6  C   UNL     1       0.377   1.078   0.913  1.00  0.00     0.037 A 
ENDROOT
BRANCH   1   7
ATOM      7  C   UNL     1       1.163   2.237   2.993  1.00  0.00    -0.018 A 
ATOM      8  C   UNL     1       0.654   3.539   5.442  1.00  0.00    -0.051 A 
ATOM      9  C   UNL     1      -0.145   3.803   4.321  1.00  0.00     0.004 A 
ATOM     10  C   UNL     1       1.694   2.604   5.341  1.00  0.00     0.004 A 
ATOM     11  C   UNL     1       0.110   3.163   3.105  1.00  0.00     0.009 A 
ATOM     12  C   UNL     1       1.952   1.963   4.125  1.00  0.00     0.009 A 
ATOM     13  C   UNL     1       0.352   4.196   6.756  1.00  0.00     0.044 C 
ENDBRANCH   1   7
BRANCH   3  14
ATOM     14  N   UNL     1       4.382   0.547  -0.368  1.00  0.00    -0.397 N 
ATOM     15  H   UNL     1       5.164   0.929   0.209  1.00  0.00     0.156 HD
ATOM     16  H   UNL     1       4.637  -0.003  -1.217  1.00  0.00     0.156 HD
ENDBRANCH   3  14
BRANCH   5  17
ATOM     17  N   UNL     1      -0.478   0.018  -1.133  1.00  0.00    -0.354 N 
ATOM     18  H   UNL     1      -0.425   0.236  -2.154  1.00  0.00     0.167 HD
BRANCH  17  19
ATOM     19  C   UNL     1      -1.638  -0.678  -0.645  1.00  0.00     0.041 A 
ATOM     20  C   UNL     1      -1.596  -1.431   0.542  1.00  0.00     0.026 A 
ATOM     21  C   UNL     1      -2.821  -0.656  -1.397  1.00  0.00     0.065 A 
ATOM     22  C   UNL     1      -2.729  -2.119   0.983  1.00  0.00     0.008 A 
ATOM     23  C   UNL     1      -3.957  -1.343  -0.957  1.00  0.00     0.128 A 
ATOM     24  C   UNL     1      -3.922  -2.067   0.246  1.00  0.00    -0.015 A 
ATOM     25  F   UNL     1      -5.088  -1.306  -1.706  1.00  0.00    -0.207 F 
ATOM     26  C   UNL     1      -5.130  -2.831   0.706  1.00  0.00     0.047 C 
ENDBRANCH  17  19
ENDBRANCH   5  17
BRANCH   4  27
ATOM     27  N   UNL     1       2.213  -0.414  -1.993  1.00  0.00    -0.378 N 
ATOM     28  H   UNL     1       2.854   0.042  -2.682  1.00  0.00     0.161 HD
BRANCH  27  29
ATOM     29  C   UNL     1       1.737  -1.777  -2.245  1.00  0.00     0.094 C 
ATOM     30  C   UNL     1       2.823  -2.684  -2.741  1.00  0.00     0.100 C 
ATOM     31  C   UNL     1       1.104  -1.923  -3.595  1.00  0.00     0.100 C 
ATOM     32  C   UNL     1       2.195  -2.843  -4.114  1.00  0.00     0.137 C 
ATOM     33  O   UNL     1       2.447  -3.436  -5.150  1.00  0.00    -0.300 OA
ENDBRANCH  27  29
ENDBRANCH   4  27
TORSDOF 6


