REMARK SMILES Cc1ccc(-c2ccc([O-])cc2)c2cn(C(=O)NC3(C(F)(F)F)CC3)nc12
REMARK SMILES IDX 16 1 17 2 18 3 15 5 2 6 3 7 27 8 4 9 26 10 13 11 5 12 14 13
REMARK SMILES IDX 1 14 6 15 7 16 12 17 8 18 11 19 9 20 10 21 19 22 24 23 25 24
REMARK SMILES IDX 20 25 21 26 22 27 23 28
REMARK H PARENT 18 4
ROOT
ATOM      1  C   UNL     1      -2.233  -0.474   0.563  1.00  0.00     0.342 C 
ATOM      2  O   UNL     1      -3.103  -0.481   1.476  1.00  0.00    -0.246 OA
ATOM      3  N   UNL     1      -2.617  -0.773  -0.789  1.00  0.00    -0.322 N 
ATOM      4  H   UNL     1      -1.937  -0.638  -1.569  1.00  0.00     0.166 HD
ENDROOT
BRANCH   1   5
ATOM      5  N   UNL     1      -0.872  -0.159   0.895  1.00  0.00    -0.189 N 
ATOM      6  C   UNL     1       1.668   0.850   3.098  1.00  0.00    -0.023 A 
ATOM      7  C   UNL     1       3.053   0.889   2.833  1.00  0.00     0.006 A 
ATOM      8  C   UNL     1       0.829   0.441   2.058  1.00  0.00     0.096 A 
ATOM      9  C   UNL     1       3.554   0.552   1.557  1.00  0.00     0.010 A 
ATOM     10  N   UNL     1      -0.505   0.270   2.098  1.00  0.00    -0.164 NA
ATOM     11  C   UNL     1       1.314   0.116   0.818  1.00  0.00     0.029 A 
ATOM     12  C   UNL     1       2.682   0.162   0.515  1.00  0.00    -0.007 A 
ATOM     13  C   UNL     1       0.211  -0.276   0.089  1.00  0.00     0.129 A 
ATOM     14  C   UNL     1       1.129   1.157   4.463  1.00  0.00     0.047 C 
BRANCH  12  15
ATOM     15  C   UNL     1       3.208  -0.185  -0.825  1.00  0.00    -0.018 A 
ATOM     16  C   UNL     1       2.633   0.365  -1.985  1.00  0.00     0.008 A 
ATOM     17  C   UNL     1       4.309  -1.051  -0.952  1.00  0.00     0.008 A 
ATOM     18  C   UNL     1       3.139   0.040  -3.247  1.00  0.00    -0.008 A 
ATOM     19  C   UNL     1       4.812  -1.374  -2.216  1.00  0.00    -0.008 A 
ATOM     20  C   UNL     1       4.227  -0.830  -3.364  1.00  0.00    -0.109 A 
ATOM     21  O   UNL     1       4.728  -1.152  -4.619  1.00  0.00    -0.872 OA
ENDBRANCH  12  15
ENDBRANCH   1   5
BRANCH   3  22
ATOM     22  C   UNL     1      -3.991  -1.124  -1.146  1.00  0.00     0.137 C 
ATOM     23  C   UNL     1      -4.093  -2.346  -2.048  1.00  0.00     0.041 C 
ATOM     24  C   UNL     1      -4.498  -2.441  -0.579  1.00  0.00     0.041 C 
BRANCH  22  25
ATOM     25  C   UNL     1      -4.973   0.029  -1.401  1.00  0.00     0.411 C 
ATOM     26  F   UNL     1      -4.496   0.813  -2.435  1.00  0.00    -0.168 F 
ATOM     27  F   UNL     1      -5.080   0.805  -0.263  1.00  0.00    -0.168 F 
ATOM     28  F   UNL     1      -6.233  -0.436  -1.740  1.00  0.00    -0.168 F 
ENDBRANCH  22  25
ENDBRANCH   3  22
TORSDOF 4


