REMARK SMILES C[C@@H](CC(=O)[O-])NC(=O)N(N)c1ccc2cc3ccccc3cc2c1
REMARK SMILES IDX 7 1 8 2 9 3 2 5 1 6 3 7 4 8 5 9 6 10 10 11 11 12 12 15 13 16
REMARK SMILES IDX 25 17 14 18 24 19 15 20 23 21 16 22 22 23 17 24 21 25 18 26
REMARK SMILES IDX 20 27 19 28
REMARK H PARENT 7 4 11 13 11 14
ROOT
ATOM      1  N   UNL     1      -0.658   2.562   0.247  1.00  0.00    -0.334 N 
ATOM      2  C   UNL     1       0.759   2.789   0.314  1.00  0.00     0.336 C 
ATOM      3  O   UNL     1       1.221   3.946   0.114  1.00  0.00    -0.247 OA
ATOM      4  H   UNL     1      -1.045   1.679   0.651  1.00  0.00     0.165 HD
ENDROOT
BRANCH   1   5
ATOM      5  C   UNL     1      -1.602   3.546  -0.290  1.00  0.00     0.086 C 
ATOM      6  C   UNL     1      -2.465   2.882  -1.366  1.00  0.00     0.031 C 
BRANCH   5   7
ATOM      7  C   UNL     1      -2.482   4.108   0.839  1.00  0.00     0.077 C 
BRANCH   7   8
ATOM      8  C   UNL     1      -1.661   4.868   1.835  1.00  0.00     0.043 C 
ATOM      9  O   UNL     1      -1.264   4.306   2.889  1.00  0.00    -0.550 OA
ATOM     10  O   UNL     1      -1.297   6.183   1.577  1.00  0.00    -0.550 OA
ENDBRANCH   7   8
ENDBRANCH   5   7
ENDBRANCH   1   5
BRANCH   2  11
ATOM     11  N   UNL     1       1.658   1.714   0.652  1.00  0.00    -0.230 N 
BRANCH  11  12
ATOM     12  N   UNL     1       2.925   2.007   1.190  1.00  0.00    -0.239 NA
ATOM     13  H   UNL     1       3.472   2.515   0.458  1.00  0.00     0.144 HD
ATOM     14  H   UNL     1       2.790   2.653   2.000  1.00  0.00     0.144 HD
ENDBRANCH  11  12
BRANCH  11  15
ATOM     15  C   UNL     1       1.319   0.338   0.401  1.00  0.00     0.063 A 
ATOM     16  C   UNL     1       1.688  -0.655   1.321  1.00  0.00     0.028 A 
ATOM     17  C   UNL     1       0.647  -0.033  -0.777  1.00  0.00     0.036 A 
ATOM     18  C   UNL     1       1.368  -1.995   1.089  1.00  0.00     0.011 A 
ATOM     19  C   UNL     1       0.318  -1.376  -1.018  1.00  0.00    -0.016 A 
ATOM     20  C   UNL     1       0.680  -2.366  -0.075  1.00  0.00    -0.018 A 
ATOM     21  C   UNL     1      -0.366  -1.742  -2.187  1.00  0.00     0.017 A 
ATOM     22  C   UNL     1       0.352  -3.709  -0.311  1.00  0.00     0.017 A 
ATOM     23  C   UNL     1      -0.695  -3.085  -2.423  1.00  0.00    -0.018 A 
ATOM     24  C   UNL     1      -0.334  -4.076  -1.478  1.00  0.00    -0.018 A 
ATOM     25  C   UNL     1      -1.382  -3.456  -3.590  1.00  0.00     0.009 A 
ATOM     26  C   UNL     1      -0.666  -5.418  -1.720  1.00  0.00     0.009 A 
ATOM     27  C   UNL     1      -1.706  -4.796  -3.818  1.00  0.00     0.001 A 
ATOM     28  C   UNL     1      -1.349  -5.774  -2.886  1.00  0.00     0.001 A 
ENDBRANCH  11  15
ENDBRANCH   2  11
TORSDOF 6


