MODEL 1
REMARK VINA RESULT:      -8.1      0.000      0.000
REMARK SMILES Cc1ccc2ccc([C@H]3CCCN(c4ccc(F)c(F)n4)[C@H]3F)nc2c1F
REMARK SMILES IDX 9 1 10 2 11 3 12 4 13 5 22 6 23 7 8 8 2 9 3 10 26 11 4 12
REMARK SMILES IDX 25 13 5 14 24 15 6 16 7 17 1 18 27 19 14 20 15 21 21 22
REMARK SMILES IDX 16 23 19 24 17 25 20 26 18 27
REMARK H PARENT
ROOT
ATOM      1  C   UNL     1      44.371 131.369  23.123  1.00  0.00     0.093 C 
ATOM      2  C   UNL     1      43.472 132.193  24.065  1.00  0.00     0.017 C 
ATOM      3  C   UNL     1      42.069 131.587  24.202  1.00  0.00     0.022 C 
ATOM      4  C   UNL     1      42.137 130.117  24.624  1.00  0.00     0.121 C 
ATOM      5  N   UNL     1      43.038 129.367  23.740  1.00  0.00    -0.326 N 
ATOM      6  C   UNL     1      44.403 129.890  23.561  1.00  0.00     0.273 C 
ATOM      7  F   UNL     1      45.123 129.144  22.640  1.00  0.00    -0.223 F 
ENDROOT
BRANCH   1   8
ATOM      8  C   UNL     1      43.948 131.538  21.677  1.00  0.00     0.049 A 
ATOM      9  C   UNL     1      45.015 131.074  17.003  1.00  0.00    -0.013 A 
ATOM     10  C   UNL     1      43.730 131.529  16.661  1.00  0.00     0.007 A 
ATOM     11  C   UNL     1      45.370 130.953  18.358  1.00  0.00     0.152 A 
ATOM     12  C   UNL     1      42.814 131.879  17.657  1.00  0.00     0.011 A 
ATOM     13  C   UNL     1      44.454 131.307  19.358  1.00  0.00     0.106 A 
ATOM     14  C   UNL     1      43.169 131.772  19.008  1.00  0.00     0.003 A 
ATOM     15  N   UNL     1      44.800 131.200  20.668  1.00  0.00    -0.249 NA
ATOM     16  C   UNL     1      42.271 132.111  20.026  1.00  0.00     0.012 A 
ATOM     17  C   UNL     1      42.657 131.989  21.363  1.00  0.00     0.025 A 
ATOM     18  C   UNL     1      45.987 130.673  15.931  1.00  0.00     0.047 C 
ATOM     19  F   UNL     1      46.599 130.490  18.704  1.00  0.00    -0.204 F 
ENDBRANCH   1   8
BRANCH   5  20
ATOM     20  C   UNL     1      42.748 127.980  23.483  1.00  0.00     0.134 A 
ATOM     21  C   UNL     1      41.462 127.461  23.705  1.00  0.00     0.050 A 
ATOM     22  N   UNL     1      43.742 127.146  23.066  1.00  0.00    -0.200 NA
ATOM     23  C   UNL     1      41.219 126.105  23.475  1.00  0.00     0.048 A 
ATOM     24  C   UNL     1      43.525 125.823  22.835  1.00  0.00     0.250 A 
ATOM     25  C   UNL     1      42.254 125.279  23.035  1.00  0.00     0.178 A 
ATOM     26  F   UNL     1      44.546 125.037  22.417  1.00  0.00    -0.182 F 
ATOM     27  F   UNL     1      42.028 123.961  22.811  1.00  0.00    -0.202 F 
ENDBRANCH   5  20
TORSDOF 2
ENDMDL
MODEL 2
REMARK VINA RESULT:      -8.0      1.165      1.654
REMARK SMILES Cc1ccc2ccc([C@H]3CCCN(c4ccc(F)c(F)n4)[C@H]3F)nc2c1F
REMARK SMILES IDX 9 1 10 2 11 3 12 4 13 5 22 6 23 7 8 8 2 9 3 10 26 11 4 12
REMARK SMILES IDX 25 13 5 14 24 15 6 16 7 17 1 18 27 19 14 20 15 21 21 22
REMARK SMILES IDX 16 23 19 24 17 25 20 26 18 27
REMARK H PARENT
ROOT
ATOM      1  C   UNL     1      44.699 131.262  22.860  1.00  0.00     0.093 C 
ATOM      2  C   UNL     1      44.137 132.350  23.796  1.00  0.00     0.017 C 
ATOM      3  C   UNL     1      42.645 132.147  24.088  1.00  0.00     0.022 C 
ATOM      4  C   UNL     1      42.369 130.739  24.623  1.00  0.00     0.121 C 
ATOM      5  N   UNL     1      42.956 129.726  23.739  1.00  0.00    -0.326 N 
ATOM      6  C   UNL     1      44.388 129.856  23.414  1.00  0.00     0.273 C 
ATOM      7  F   UNL     1      44.799 128.892  22.507  1.00  0.00    -0.223 F 
ENDROOT
BRANCH   1   8
ATOM      8  C   UNL     1      44.199 131.450  21.441  1.00  0.00     0.049 A 
ATOM      9  C   UNL     1      45.034 131.099  16.710  1.00  0.00    -0.013 A 
ATOM     10  C   UNL     1      43.724 131.534  16.443  1.00  0.00     0.007 A 
ATOM     11  C   UNL     1      45.460 130.959  18.043  1.00  0.00     0.152 A 
ATOM     12  C   UNL     1      42.854 131.846  17.491  1.00  0.00     0.011 A 
ATOM     13  C   UNL     1      44.590 131.275  19.095  1.00  0.00     0.106 A 
ATOM     14  C   UNL     1      43.280 131.720  18.820  1.00  0.00     0.003 A 
ATOM     15  N   UNL     1      45.005 131.150  20.383  1.00  0.00    -0.249 NA
ATOM     16  C   UNL     1      42.429 132.020  19.889  1.00  0.00     0.012 A 
ATOM     17  C   UNL     1      42.885 131.880  21.202  1.00  0.00     0.025 A 
ATOM     18  C   UNL     1      45.958 130.740  15.583  1.00  0.00     0.047 C 
ATOM     19  F   UNL     1      46.715 130.516  18.316  1.00  0.00    -0.204 F 
ENDBRANCH   1   8
BRANCH   5  20
ATOM     20  C   UNL     1      42.294 128.453  23.620  1.00  0.00     0.134 A 
ATOM     21  C   UNL     1      43.034 127.263  23.526  1.00  0.00     0.050 A 
ATOM     22  N   UNL     1      40.934 128.402  23.548  1.00  0.00    -0.200 NA
ATOM     23  C   UNL     1      42.363 126.047  23.382  1.00  0.00     0.048 A 
ATOM     24  C   UNL     1      40.262 127.227  23.409  1.00  0.00     0.250 A 
ATOM     25  C   UNL     1      40.969 126.024  23.324  1.00  0.00     0.178 A 
ATOM     26  F   UNL     1      38.909 127.229  23.346  1.00  0.00    -0.182 F 
ATOM     27  F   UNL     1      40.310 124.849  23.182  1.00  0.00    -0.202 F 
ENDBRANCH   5  20
TORSDOF 2
ENDMDL
MODEL 3
REMARK VINA RESULT:      -7.1      0.884      1.109
REMARK SMILES Cc1ccc2ccc([C@H]3CCCN(c4ccc(F)c(F)n4)[C@H]3F)nc2c1F
REMARK SMILES IDX 9 1 10 2 11 3 12 4 13 5 22 6 23 7 8 8 2 9 3 10 26 11 4 12
REMARK SMILES IDX 25 13 5 14 24 15 6 16 7 17 1 18 27 19 14 20 15 21 21 22
REMARK SMILES IDX 16 23 19 24 17 25 20 26 18 27
REMARK H PARENT
ROOT
ATOM      1  C   UNL     1      44.956 130.663  22.677  1.00  0.00     0.093 C 
ATOM      2  C   UNL     1      44.656 131.780  23.695  1.00  0.00     0.017 C 
ATOM      3  C   UNL     1      43.175 131.814  24.097  1.00  0.00     0.022 C 
ATOM      4  C   UNL     1      42.704 130.446  24.599  1.00  0.00     0.121 C 
ATOM      5  N   UNL     1      43.046 129.395  23.633  1.00  0.00    -0.326 N 
ATOM      6  C   UNL     1      44.452 129.302  23.200  1.00  0.00     0.273 C 
ATOM      7  F   UNL     1      44.628 128.331  22.227  1.00  0.00    -0.223 F 
ENDROOT
BRANCH   1   8
ATOM      8  C   UNL     1      44.394 131.004  21.310  1.00  0.00     0.049 A 
ATOM      9  C   UNL     1      44.994 131.112  16.532  1.00  0.00    -0.013 A 
ATOM     10  C   UNL     1      43.685 131.599  16.376  1.00  0.00     0.007 A 
ATOM     11  C   UNL     1      45.479 130.829  17.821  1.00  0.00     0.152 A 
ATOM     12  C   UNL     1      42.874 131.823  17.492  1.00  0.00     0.011 A 
ATOM     13  C   UNL     1      44.669 131.057  18.942  1.00  0.00     0.106 A 
ATOM     14  C   UNL     1      43.359 131.555  18.778  1.00  0.00     0.003 A 
ATOM     15  N   UNL     1      45.141 130.794  20.189  1.00  0.00    -0.249 NA
ATOM     16  C   UNL     1      42.568 131.764  19.913  1.00  0.00     0.012 A 
ATOM     17  C   UNL     1      43.082 131.484  21.181  1.00  0.00     0.025 A 
ATOM     18  C   UNL     1      45.853 130.848  15.330  1.00  0.00     0.047 C 
ATOM     19  F   UNL     1      46.733 130.334  17.986  1.00  0.00    -0.204 F 
ENDBRANCH   1   8
BRANCH   5  20
ATOM     20  C   UNL     1      42.171 128.258  23.519  1.00  0.00     0.134 A 
ATOM     21  C   UNL     1      40.783 128.399  23.682  1.00  0.00     0.050 A 
ATOM     22  N   UNL     1      42.695 127.019  23.298  1.00  0.00    -0.200 NA
ATOM     23  C   UNL     1      39.964 127.272  23.596  1.00  0.00     0.048 A 
ATOM     24  C   UNL     1      41.913 125.910  23.209  1.00  0.00     0.250 A 
ATOM     25  C   UNL     1      40.528 126.018  23.355  1.00  0.00     0.178 A 
ATOM     26  F   UNL     1      42.483 124.701  22.983  1.00  0.00    -0.182 F 
ATOM     27  F   UNL     1      39.740 124.919  23.271  1.00  0.00    -0.202 F 
ENDBRANCH   5  20
TORSDOF 2
ENDMDL
MODEL 4
REMARK VINA RESULT:      -6.8      2.086      6.316
REMARK SMILES Cc1ccc2ccc([C@H]3CCCN(c4ccc(F)c(F)n4)[C@H]3F)nc2c1F
REMARK SMILES IDX 9 1 10 2 11 3 12 4 13 5 22 6 23 7 8 8 2 9 3 10 26 11 4 12
REMARK SMILES IDX 25 13 5 14 24 15 6 16 7 17 1 18 27 19 14 20 15 21 21 22
REMARK SMILES IDX 16 23 19 24 17 25 20 26 18 27
REMARK H PARENT
ROOT
ATOM      1  C   UNL     1      43.026 131.541  22.461  1.00  0.00     0.093 C 
ATOM      2  C   UNL     1      44.103 132.349  23.211  1.00  0.00     0.017 C 
ATOM      3  C   UNL     1      45.502 132.140  22.617  1.00  0.00     0.022 C 
ATOM      4  C   UNL     1      45.517 132.433  21.114  1.00  0.00     0.121 C 
ATOM      5  N   UNL     1      44.451 131.689  20.431  1.00  0.00    -0.326 N 
ATOM      6  C   UNL     1      43.079 131.841  20.948  1.00  0.00     0.273 C 
ATOM      7  F   UNL     1      42.183 131.025  20.276  1.00  0.00    -0.223 F 
ENDROOT
BRANCH   1   8
ATOM      8  C   UNL     1      43.144 130.060  22.763  1.00  0.00     0.049 A 
ATOM      9  C   UNL     1      45.700 125.991  22.440  1.00  0.00    -0.013 A 
ATOM     10  C   UNL     1      44.724 125.314  23.191  1.00  0.00     0.007 A 
ATOM     11  C   UNL     1      45.539 127.360  22.167  1.00  0.00     0.152 A 
ATOM     12  C   UNL     1      43.588 125.988  23.649  1.00  0.00     0.011 A 
ATOM     13  C   UNL     1      44.399 128.037  22.621  1.00  0.00     0.106 A 
ATOM     14  C   UNL     1      43.418 127.350  23.366  1.00  0.00     0.003 A 
ATOM     15  N   UNL     1      44.237 129.359  22.348  1.00  0.00    -0.249 NA
ATOM     16  C   UNL     1      42.294 128.051  23.816  1.00  0.00     0.012 A 
ATOM     17  C   UNL     1      42.157 129.410  23.520  1.00  0.00     0.025 A 
ATOM     18  C   UNL     1      46.931 125.270  21.973  1.00  0.00     0.047 C 
ATOM     19  F   UNL     1      46.486 128.033  21.464  1.00  0.00    -0.204 F 
ENDBRANCH   1   8
BRANCH   5  20
ATOM     20  C   UNL     1      44.677 131.255  19.078  1.00  0.00     0.134 A 
ATOM     21  C   UNL     1      45.733 130.382  18.769  1.00  0.00     0.050 A 
ATOM     22  N   UNL     1      43.889 131.732  18.073  1.00  0.00    -0.200 NA
ATOM     23  C   UNL     1      45.945 130.003  17.442  1.00  0.00     0.048 A 
ATOM     24  C   UNL     1      44.079 131.373  16.774  1.00  0.00     0.250 A 
ATOM     25  C   UNL     1      45.114 130.497  16.436  1.00  0.00     0.178 A 
ATOM     26  F   UNL     1      43.266 131.872  15.812  1.00  0.00    -0.182 F 
ATOM     27  F   UNL     1      45.313 130.135  15.146  1.00  0.00    -0.202 F 
ENDBRANCH   5  20
TORSDOF 2
ENDMDL
MODEL 5
REMARK VINA RESULT:      -6.2      1.926      6.910
REMARK SMILES Cc1ccc2ccc([C@H]3CCCN(c4ccc(F)c(F)n4)[C@H]3F)nc2c1F
REMARK SMILES IDX 9 1 10 2 11 3 12 4 13 5 22 6 23 7 8 8 2 9 3 10 26 11 4 12
REMARK SMILES IDX 25 13 5 14 24 15 6 16 7 17 1 18 27 19 14 20 15 21 21 22
REMARK SMILES IDX 16 23 19 24 17 25 20 26 18 27
REMARK H PARENT
ROOT
ATOM      1  C   UNL     1      43.596 131.367  22.368  1.00  0.00     0.093 C 
ATOM      2  C   UNL     1      44.727 132.176  23.033  1.00  0.00     0.017 C 
ATOM      3  C   UNL     1      46.028 132.125  22.222  1.00  0.00     0.022 C 
ATOM      4  C   UNL     1      45.797 132.559  20.772  1.00  0.00     0.121 C 
ATOM      5  N   UNL     1      44.683 131.808  20.179  1.00  0.00    -0.326 N 
ATOM      6  C   UNL     1      43.400 131.812  20.904  1.00  0.00     0.273 C 
ATOM      7  F   UNL     1      42.459 131.001  20.289  1.00  0.00    -0.223 F 
ENDROOT
BRANCH   1   8
ATOM      8  C   UNL     1      43.842 129.876  22.494  1.00  0.00     0.049 A 
ATOM      9  C   UNL     1      42.274 125.562  23.954  1.00  0.00    -0.013 A 
ATOM     10  C   UNL     1      43.426 124.960  23.420  1.00  0.00     0.007 A 
ATOM     11  C   UNL     1      42.099 126.952  23.831  1.00  0.00     0.152 A 
ATOM     12  C   UNL     1      44.404 125.734  22.789  1.00  0.00     0.011 A 
ATOM     13  C   UNL     1      43.079 127.731  23.202  1.00  0.00     0.106 A 
ATOM     14  C   UNL     1      44.237 127.120  22.677  1.00  0.00     0.003 A 
ATOM     15  N   UNL     1      42.915 129.075  23.092  1.00  0.00    -0.249 NA
ATOM     16  C   UNL     1      45.196 127.920  22.045  1.00  0.00     0.012 A 
ATOM     17  C   UNL     1      44.998 129.299  21.948  1.00  0.00     0.025 A 
ATOM     18  C   UNL     1      41.214 124.724  24.608  1.00  0.00     0.047 C 
ATOM     19  F   UNL     1      40.978 127.545  24.320  1.00  0.00    -0.204 F 
ENDBRANCH   1   8
BRANCH   5  20
ATOM     20  C   UNL     1      44.724 131.521  18.769  1.00  0.00     0.134 A 
ATOM     21  C   UNL     1      43.649 131.867  17.933  1.00  0.00     0.050 A 
ATOM     22  N   UNL     1      45.795 130.862  18.243  1.00  0.00    -0.200 NA
ATOM     23  C   UNL     1      43.706 131.548  16.575  1.00  0.00     0.048 A 
ATOM     24  C   UNL     1      45.869 130.544  16.922  1.00  0.00     0.250 A 
ATOM     25  C   UNL     1      44.822 130.884  16.062  1.00  0.00     0.178 A 
ATOM     26  F   UNL     1      46.958 129.892  16.447  1.00  0.00    -0.182 F 
ATOM     27  F   UNL     1      44.884 130.570  14.745  1.00  0.00    -0.202 F 
ENDBRANCH   5  20
TORSDOF 2
ENDMDL
MODEL 6
REMARK VINA RESULT:      -6.1      1.913      7.051
REMARK SMILES Cc1ccc2ccc([C@H]3CCCN(c4ccc(F)c(F)n4)[C@H]3F)nc2c1F
REMARK SMILES IDX 9 1 10 2 11 3 12 4 13 5 22 6 23 7 8 8 2 9 3 10 26 11 4 12
REMARK SMILES IDX 25 13 5 14 24 15 6 16 7 17 1 18 27 19 14 20 15 21 21 22
REMARK SMILES IDX 16 23 19 24 17 25 20 26 18 27
REMARK H PARENT
ROOT
ATOM      1  C   UNL     1      42.491 130.700  23.638  1.00  0.00     0.093 C 
ATOM      2  C   UNL     1      43.217 131.649  24.611  1.00  0.00     0.017 C 
ATOM      3  C   UNL     1      44.682 131.874  24.214  1.00  0.00     0.022 C 
ATOM      4  C   UNL     1      44.798 132.351  22.764  1.00  0.00     0.121 C 
ATOM      5  N   UNL     1      44.056 131.458  21.865  1.00  0.00    -0.326 N 
ATOM      6  C   UNL     1      42.642 131.195  22.184  1.00  0.00     0.273 C 
ATOM      7  F   UNL     1      42.081 130.273  21.314  1.00  0.00    -0.223 F 
ENDROOT
BRANCH   1   8
ATOM      8  C   UNL     1      42.959 129.270  23.816  1.00  0.00     0.049 A 
ATOM      9  C   UNL     1      41.840 124.626  24.434  1.00  0.00    -0.013 A 
ATOM     10  C   UNL     1      43.203 124.288  24.387  1.00  0.00     0.007 A 
ATOM     11  C   UNL     1      41.453 125.969  24.284  1.00  0.00     0.152 A 
ATOM     12  C   UNL     1      44.174 125.278  24.213  1.00  0.00     0.011 A 
ATOM     13  C   UNL     1      42.425 126.965  24.113  1.00  0.00     0.106 A 
ATOM     14  C   UNL     1      43.792 126.619  24.077  1.00  0.00     0.003 A 
ATOM     15  N   UNL     1      42.052 128.265  23.979  1.00  0.00    -0.249 NA
ATOM     16  C   UNL     1      44.741 127.631  23.896  1.00  0.00     0.012 A 
ATOM     17  C   UNL     1      44.326 128.958  23.760  1.00  0.00     0.025 A 
ATOM     18  C   UNL     1      40.799 123.556  24.594  1.00  0.00     0.047 C 
ATOM     19  F   UNL     1      40.138 126.308  24.302  1.00  0.00    -0.204 F 
ENDBRANCH   1   8
BRANCH   5  20
ATOM     20  C   UNL     1      44.549 131.270  20.525  1.00  0.00     0.134 A 
ATOM     21  C   UNL     1      45.797 130.668  20.296  1.00  0.00     0.050 A 
ATOM     22  N   UNL     1      43.822 131.725  19.466  1.00  0.00    -0.200 NA
ATOM     23  C   UNL     1      46.261 130.528  18.987  1.00  0.00     0.048 A 
ATOM     24  C   UNL     1      44.257 131.596  18.184  1.00  0.00     0.250 A 
ATOM     25  C   UNL     1      45.488 130.991  17.921  1.00  0.00     0.178 A 
ATOM     26  F   UNL     1      43.494 132.061  17.165  1.00  0.00    -0.182 F 
ATOM     27  F   UNL     1      45.932 130.860  16.647  1.00  0.00    -0.202 F 
ENDBRANCH   5  20
TORSDOF 2
ENDMDL
MODEL 7
REMARK VINA RESULT:      -6.0      2.372      3.886
REMARK SMILES Cc1ccc2ccc([C@H]3CCCN(c4ccc(F)c(F)n4)[C@H]3F)nc2c1F
REMARK SMILES IDX 9 1 10 2 11 3 12 4 13 5 22 6 23 7 8 8 2 9 3 10 26 11 4 12
REMARK SMILES IDX 25 13 5 14 24 15 6 16 7 17 1 18 27 19 14 20 15 21 21 22
REMARK SMILES IDX 16 23 19 24 17 25 20 26 18 27
REMARK H PARENT
ROOT
ATOM      1  C   UNL     1      44.806 132.486  19.488  1.00  0.00     0.093 C 
ATOM      2  C   UNL     1      43.337 132.916  19.314  1.00  0.00     0.017 C 
ATOM      3  C   UNL     1      42.358 131.793  19.681  1.00  0.00     0.022 C 
ATOM      4  C   UNL     1      42.630 131.257  21.090  1.00  0.00     0.121 C 
ATOM      5  N   UNL     1      44.046 130.902  21.244  1.00  0.00    -0.326 N 
ATOM      6  C   UNL     1      45.045 131.932  20.908  1.00  0.00     0.273 C 
ATOM      7  F   UNL     1      46.339 131.448  21.012  1.00  0.00    -0.223 F 
ENDROOT
BRANCH   1   8
ATOM      8  C   UNL     1      45.222 131.508  18.406  1.00  0.00     0.049 A 
ATOM      9  C   UNL     1      46.904 130.778  13.953  1.00  0.00    -0.013 A 
ATOM     10  C   UNL     1      46.907 129.391  14.178  1.00  0.00     0.007 A 
ATOM     11  C   UNL     1      46.491 131.646  14.978  1.00  0.00     0.152 A 
ATOM     12  C   UNL     1      46.484 128.871  15.404  1.00  0.00     0.011 A 
ATOM     13  C   UNL     1      46.063 131.127  16.208  1.00  0.00     0.106 A 
ATOM     14  C   UNL     1      46.059 129.733  16.423  1.00  0.00     0.003 A 
ATOM     15  N   UNL     1      45.653 131.965  17.196  1.00  0.00    -0.249 NA
ATOM     16  C   UNL     1      45.636 129.241  17.663  1.00  0.00     0.012 A 
ATOM     17  C   UNL     1      45.221 130.128  18.659  1.00  0.00     0.025 A 
ATOM     18  C   UNL     1      47.384 131.335  12.643  1.00  0.00     0.047 C 
ATOM     19  F   UNL     1      46.506 132.990  14.784  1.00  0.00    -0.204 F 
ENDBRANCH   1   8
BRANCH   5  20
ATOM     20  C   UNL     1      44.388 129.812  22.120  1.00  0.00     0.134 A 
ATOM     21  C   UNL     1      44.023 129.838  23.476  1.00  0.00     0.050 A 
ATOM     22  N   UNL     1      45.117 128.763  21.644  1.00  0.00    -0.200 NA
ATOM     23  C   UNL     1      44.396 128.779  24.307  1.00  0.00     0.048 A 
ATOM     24  C   UNL     1      45.488 127.723  22.438  1.00  0.00     0.250 A 
ATOM     25  C   UNL     1      45.131 127.712  23.788  1.00  0.00     0.178 A 
ATOM     26  F   UNL     1      46.209 126.702  21.915  1.00  0.00    -0.182 F 
ATOM     27  F   UNL     1      45.497 126.682  24.588  1.00  0.00    -0.202 F 
ENDBRANCH   5  20
TORSDOF 2
ENDMDL
MODEL 8
REMARK VINA RESULT:      -6.0      1.911      6.124
REMARK SMILES Cc1ccc2ccc([C@H]3CCCN(c4ccc(F)c(F)n4)[C@H]3F)nc2c1F
REMARK SMILES IDX 9 1 10 2 11 3 12 4 13 5 22 6 23 7 8 8 2 9 3 10 26 11 4 12
REMARK SMILES IDX 25 13 5 14 24 15 6 16 7 17 1 18 27 19 14 20 15 21 21 22
REMARK SMILES IDX 16 23 19 24 17 25 20 26 18 27
REMARK H PARENT
ROOT
ATOM      1  C   UNL     1      43.105 131.566  22.590  1.00  0.00     0.093 C 
ATOM      2  C   UNL     1      44.255 132.299  23.307  1.00  0.00     0.017 C 
ATOM      3  C   UNL     1      45.604 132.082  22.609  1.00  0.00     0.022 C 
ATOM      4  C   UNL     1      45.528 132.458  21.126  1.00  0.00     0.121 C 
ATOM      5  N   UNL     1      44.395 131.785  20.479  1.00  0.00    -0.326 N 
ATOM      6  C   UNL     1      43.067 131.948  21.096  1.00  0.00     0.273 C 
ATOM      7  F   UNL     1      42.100 131.198  20.444  1.00  0.00    -0.223 F 
ENDROOT
BRANCH   1   8
ATOM      8  C   UNL     1      43.193 130.068  22.805  1.00  0.00     0.049 A 
ATOM      9  C   UNL     1      45.718 125.993  22.342  1.00  0.00    -0.013 A 
ATOM     10  C   UNL     1      44.701 125.284  23.005  1.00  0.00     0.007 A 
ATOM     11  C   UNL     1      45.583 127.378  22.148  1.00  0.00     0.152 A 
ATOM     12  C   UNL     1      43.553 125.943  23.452  1.00  0.00     0.011 A 
ATOM     13  C   UNL     1      44.431 128.041  22.592  1.00  0.00     0.106 A 
ATOM     14  C   UNL     1      43.411 127.322  23.249  1.00  0.00     0.003 A 
ATOM     15  N   UNL     1      44.296 129.379  22.396  1.00  0.00    -0.249 NA
ATOM     16  C   UNL     1      42.275 128.009  23.691  1.00  0.00     0.012 A 
ATOM     17  C   UNL     1      42.166 129.385  23.474  1.00  0.00     0.025 A 
ATOM     18  C   UNL     1      46.961 125.285  21.886  1.00  0.00     0.047 C 
ATOM     19  F   UNL     1      46.569 128.081  21.531  1.00  0.00    -0.204 F 
ENDBRANCH   1   8
BRANCH   5  20
ATOM     20  C   UNL     1      44.515 131.420  19.092  1.00  0.00     0.134 A 
ATOM     21  C   UNL     1      43.531 131.793  18.162  1.00  0.00     0.050 A 
ATOM     22  N   UNL     1      45.570 130.661  18.680  1.00  0.00    -0.200 NA
ATOM     23  C   UNL     1      43.662 131.398  16.829  1.00  0.00     0.048 A 
ATOM     24  C   UNL     1      45.715 130.268  17.386  1.00  0.00     0.250 A 
ATOM     25  C   UNL     1      44.760 130.633  16.434  1.00  0.00     0.178 A 
ATOM     26  F   UNL     1      46.784 129.517  17.027  1.00  0.00    -0.182 F 
ATOM     27  F   UNL     1      44.893 130.244  15.143  1.00  0.00    -0.202 F 
ENDBRANCH   5  20
TORSDOF 2
ENDMDL


