MODEL 1
REMARK VINA RESULT:      -1.5      0.000      0.000
REMARK SMILES C[C@@]1(C(=O)N(c2ccc3[nH]ccc3c2)c2cccc3c2CCC3)CC[C@H]([NH3+])C1
REMARK SMILES IDX 3 1 4 2 2 3 24 4 28 5 25 6 26 7 1 8 27 9 5 13 6 14 7 15
REMARK SMILES IDX 14 16 8 17 13 18 9 19 12 20 10 21 11 22 15 24 16 25 20 26
REMARK SMILES IDX 17 27 19 28 21 29 18 30 23 31 22 32
REMARK H PARENT 27 10 27 11 27 12 10 23
ROOT
ATOM      1  C   UNL     1      45.082 129.685  21.525  1.00  0.00     0.237 C 
ATOM      2  O   UNL     1      45.953 129.052  20.866  1.00  0.00    -0.273 OA
ENDROOT
BRANCH   1   3
ATOM      3  C   UNL     1      44.244 128.943  22.557  1.00  0.00     0.053 C 
ATOM      4  C   UNL     1      44.961 128.898  23.917  1.00  0.00     0.023 C 
ATOM      5  C   UNL     1      44.069 127.457  22.211  1.00  0.00     0.081 C 
ATOM      6  C   UNL     1      44.481 127.631  24.622  1.00  0.00     0.066 C 
ATOM      7  C   UNL     1      43.845 126.741  23.546  1.00  0.00     0.181 C 
ATOM      8  C   UNL     1      42.871 129.635  22.703  1.00  0.00     0.022 C 
BRANCH   7   9
ATOM      9  N   UNL     1      44.421 125.391  23.540  1.00  0.00    -0.355 N 
ATOM     10  H   UNL     1      45.354 125.382  24.015  1.00  0.00     0.344 HD
ATOM     11  H   UNL     1      43.776 124.734  24.037  1.00  0.00     0.344 HD
ATOM     12  H   UNL     1      44.533 125.063  22.553  1.00  0.00     0.344 HD
ENDBRANCH   7   9
ENDBRANCH   1   3
BRANCH   1  13
ATOM     13  N   UNL     1      44.918 131.095  21.284  1.00  0.00    -0.280 N 
BRANCH  13  14
ATOM     14  C   UNL     1      45.601 132.038  22.136  1.00  0.00     0.050 A 
ATOM     15  C   UNL     1      45.081 132.340  23.424  1.00  0.00     0.029 A 
ATOM     16  C   UNL     1      46.794 132.665  21.704  1.00  0.00     0.037 A 
ATOM     17  C   UNL     1      45.740 133.245  24.274  1.00  0.00     0.029 A 
ATOM     18  C   UNL     1      47.420 133.555  22.573  1.00  0.00     0.001 A 
ATOM     19  C   UNL     1      46.914 133.836  23.812  1.00  0.00     0.045 A 
ATOM     20  C   UNL     1      48.574 134.292  22.423  1.00  0.00     0.028 A 
ATOM     21  N   UNL     1      47.693 134.718  24.458  1.00  0.00    -0.361 N 
ATOM     22  C   UNL     1      48.710 135.000  23.613  1.00  0.00     0.083 A 
ATOM     23  H   UNL     1      47.547 135.108  25.416  1.00  0.00     0.166 HD
ENDBRANCH  13  14
BRANCH  13  24
ATOM     24  C   UNL     1      43.937 131.549  20.331  1.00  0.00     0.052 A 
ATOM     25  C   UNL     1      42.734 132.133  20.773  1.00  0.00     0.027 A 
ATOM     26  C   UNL     1      44.160 131.453  18.944  1.00  0.00    -0.021 A 
ATOM     27  C   UNL     1      41.778 132.584  19.848  1.00  0.00     0.002 A 
ATOM     28  C   UNL     1      43.217 131.891  18.045  1.00  0.00    -0.043 A 
ATOM     29  C   UNL     1      45.350 130.895  18.250  1.00  0.00     0.038 C 
ATOM     30  C   UNL     1      42.017 132.462  18.473  1.00  0.00     0.004 A 
ATOM     31  C   UNL     1      43.637 131.685  16.641  1.00  0.00     0.036 C 
ATOM     32  C   UNL     1      44.966 130.921  16.760  1.00  0.00     0.010 C 
ENDBRANCH  13  24
ENDBRANCH   1  13
TORSDOF 5
ENDMDL
MODEL 2
REMARK VINA RESULT:      -1.4      1.215      5.311
REMARK SMILES C[C@@]1(C(=O)N(c2ccc3[nH]ccc3c2)c2cccc3c2CCC3)CC[C@H]([NH3+])C1
REMARK SMILES IDX 3 1 4 2 2 3 24 4 28 5 25 6 26 7 1 8 27 9 5 13 6 14 7 15
REMARK SMILES IDX 14 16 8 17 13 18 9 19 12 20 10 21 11 22 15 24 16 25 20 26
REMARK SMILES IDX 17 27 19 28 21 29 18 30 23 31 22 32
REMARK H PARENT 27 10 27 11 27 12 10 23
ROOT
ATOM      1  C   UNL     1      46.342 131.969  21.125  1.00  0.00     0.237 C 
ATOM      2  O   UNL     1      47.169 131.495  20.297  1.00  0.00    -0.273 OA
ENDROOT
BRANCH   1   3
ATOM      3  C   UNL     1      46.734 133.181  21.957  1.00  0.00     0.053 C 
ATOM      4  C   UNL     1      46.840 134.439  21.077  1.00  0.00     0.023 C 
ATOM      5  C   UNL     1      48.145 133.056  22.549  1.00  0.00     0.081 C 
ATOM      6  C   UNL     1      47.861 135.356  21.748  1.00  0.00     0.066 C 
ATOM      7  C   UNL     1      48.647 134.489  22.742  1.00  0.00     0.181 C 
ATOM      8  C   UNL     1      45.690 133.401  23.074  1.00  0.00     0.022 C 
BRANCH   7   9
ATOM      9  N   UNL     1      50.096 134.589  22.530  1.00  0.00    -0.355 N 
ATOM     10  H   UNL     1      50.572 133.693  22.786  1.00  0.00     0.344 HD
ATOM     11  H   UNL     1      50.287 134.804  21.525  1.00  0.00     0.344 HD
ATOM     12  H   UNL     1      50.482 135.365  23.115  1.00  0.00     0.344 HD
ENDBRANCH   7   9
ENDBRANCH   1   3
BRANCH   1  13
ATOM     13  N   UNL     1      45.048 131.348  21.246  1.00  0.00    -0.280 N 
BRANCH  13  14
ATOM     14  C   UNL     1      44.883 130.241  22.157  1.00  0.00     0.050 A 
ATOM     15  C   UNL     1      44.425 130.471  23.483  1.00  0.00     0.029 A 
ATOM     16  C   UNL     1      45.169 128.918  21.741  1.00  0.00     0.037 A 
ATOM     17  C   UNL     1      44.246 129.403  24.380  1.00  0.00     0.029 A 
ATOM     18  C   UNL     1      44.978 127.886  22.655  1.00  0.00     0.001 A 
ATOM     19  C   UNL     1      44.533 128.118  23.928  1.00  0.00     0.045 A 
ATOM     20  C   UNL     1      45.166 126.527  22.525  1.00  0.00     0.028 A 
ATOM     21  N   UNL     1      44.429 126.969  24.615  1.00  0.00    -0.361 N 
ATOM     22  C   UNL     1      44.815 125.993  23.762  1.00  0.00     0.083 A 
ATOM     23  H   UNL     1      44.115 126.849  25.604  1.00  0.00     0.166 HD
ENDBRANCH  13  14
BRANCH  13  24
ATOM     24  C   UNL     1      43.994 131.705  20.332  1.00  0.00     0.052 A 
ATOM     25  C   UNL     1      42.798 132.274  20.814  1.00  0.00     0.027 A 
ATOM     26  C   UNL     1      44.133 131.528  18.943  1.00  0.00    -0.021 A 
ATOM     27  C   UNL     1      41.771 132.631  19.926  1.00  0.00     0.002 A 
ATOM     28  C   UNL     1      43.120 131.874  18.081  1.00  0.00    -0.043 A 
ATOM     29  C   UNL     1      45.300 130.969  18.209  1.00  0.00     0.038 C 
ATOM     30  C   UNL     1      41.928 132.430  18.548  1.00  0.00     0.004 A 
ATOM     31  C   UNL     1      43.461 131.594  16.668  1.00  0.00     0.036 C 
ATOM     32  C   UNL     1      44.823 130.885  16.749  1.00  0.00     0.010 C 
ENDBRANCH  13  24
ENDBRANCH   1  13
TORSDOF 5
ENDMDL
MODEL 3
REMARK VINA RESULT:      -1.1      1.824      6.436
REMARK SMILES C[C@@]1(C(=O)N(c2ccc3[nH]ccc3c2)c2cccc3c2CCC3)CC[C@H]([NH3+])C1
REMARK SMILES IDX 3 1 4 2 2 3 24 4 28 5 25 6 26 7 1 8 27 9 5 13 6 14 7 15
REMARK SMILES IDX 14 16 8 17 13 18 9 19 12 20 10 21 11 22 15 24 16 25 20 26
REMARK SMILES IDX 17 27 19 28 21 29 18 30 23 31 22 32
REMARK H PARENT 27 10 27 11 27 12 10 23
ROOT
ATOM      1  C   UNL     1      46.409 131.791  20.928  1.00  0.00     0.237 C 
ATOM      2  O   UNL     1      47.387 131.122  20.492  1.00  0.00    -0.273 OA
ENDROOT
BRANCH   1   3
ATOM      3  C   UNL     1      46.671 133.021  21.785  1.00  0.00     0.053 C 
ATOM      4  C   UNL     1      46.283 134.307  21.034  1.00  0.00     0.023 C 
ATOM      5  C   UNL     1      48.165 133.229  22.072  1.00  0.00     0.081 C 
ATOM      6  C   UNL     1      47.177 135.418  21.580  1.00  0.00     0.066 C 
ATOM      7  C   UNL     1      48.341 134.731  22.307  1.00  0.00     0.181 C 
ATOM      8  C   UNL     1      45.872 132.913  23.103  1.00  0.00     0.022 C 
BRANCH   7   9
ATOM      9  N   UNL     1      49.644 135.206  21.826  1.00  0.00    -0.355 N 
ATOM     10  H   UNL     1      49.942 134.676  20.974  1.00  0.00     0.344 HD
ATOM     11  H   UNL     1      49.580 136.223  21.593  1.00  0.00     0.344 HD
ATOM     12  H   UNL     1      50.361 135.082  22.577  1.00  0.00     0.344 HD
ENDBRANCH   7   9
ENDBRANCH   1   3
BRANCH   1  13
ATOM     13  N   UNL     1      45.074 131.370  20.589  1.00  0.00    -0.280 N 
BRANCH  13  14
ATOM     14  C   UNL     1      44.638 131.456  19.216  1.00  0.00     0.050 A 
ATOM     15  C   UNL     1      43.272 131.711  18.917  1.00  0.00     0.029 A 
ATOM     16  C   UNL     1      45.563 131.295  18.156  1.00  0.00     0.037 A 
ATOM     17  C   UNL     1      42.832 131.811  17.585  1.00  0.00     0.029 A 
ATOM     18  C   UNL     1      45.091 131.402  16.850  1.00  0.00     0.001 A 
ATOM     19  C   UNL     1      43.775 131.651  16.574  1.00  0.00     0.045 A 
ATOM     20  C   UNL     1      45.753 131.298  15.647  1.00  0.00     0.028 A 
ATOM     21  N   UNL     1      43.568 131.710  15.248  1.00  0.00    -0.361 N 
ATOM     22  C   UNL     1      44.775 131.495  14.676  1.00  0.00     0.083 A 
ATOM     23  H   UNL     1      42.664 131.886  14.755  1.00  0.00     0.166 HD
ENDBRANCH  13  14
BRANCH  13  24
ATOM     24  C   UNL     1      44.136 131.054  21.635  1.00  0.00     0.052 A 
ATOM     25  C   UNL     1      43.152 131.989  22.014  1.00  0.00     0.027 A 
ATOM     26  C   UNL     1      44.150 129.805  22.284  1.00  0.00    -0.021 A 
ATOM     27  C   UNL     1      42.230 131.683  23.027  1.00  0.00     0.002 A 
ATOM     28  C   UNL     1      43.248 129.516  23.279  1.00  0.00    -0.043 A 
ATOM     29  C   UNL     1      45.074 128.665  22.043  1.00  0.00     0.038 C 
ATOM     30  C   UNL     1      42.276 130.439  23.669  1.00  0.00     0.004 A 
ATOM     31  C   UNL     1      43.443 128.160  23.841  1.00  0.00     0.036 C 
ATOM     32  C   UNL     1      44.709 127.645  23.136  1.00  0.00     0.010 C 
ENDBRANCH  13  24
ENDBRANCH   1  13
TORSDOF 5
ENDMDL
MODEL 4
REMARK VINA RESULT:      -1.1      4.400      7.040
REMARK SMILES C[C@@]1(C(=O)N(c2ccc3[nH]ccc3c2)c2cccc3c2CCC3)CC[C@H]([NH3+])C1
REMARK SMILES IDX 3 1 4 2 2 3 24 4 28 5 25 6 26 7 1 8 27 9 5 13 6 14 7 15
REMARK SMILES IDX 14 16 8 17 13 18 9 19 12 20 10 21 11 22 15 24 16 25 20 26
REMARK SMILES IDX 17 27 19 28 21 29 18 30 23 31 22 32
REMARK H PARENT 27 10 27 11 27 12 10 23
ROOT
ATOM      1  C   UNL     1      43.313 124.089  23.501  1.00  0.00     0.237 C 
ATOM      2  O   UNL     1      43.872 123.121  24.088  1.00  0.00    -0.273 OA
ENDROOT
BRANCH   1   3
ATOM      3  C   UNL     1      41.870 123.948  23.039  1.00  0.00     0.053 C 
ATOM      4  C   UNL     1      41.436 125.170  22.212  1.00  0.00     0.023 C 
ATOM      5  C   UNL     1      40.877 123.954  24.209  1.00  0.00     0.081 C 
ATOM      6  C   UNL     1      39.927 125.313  22.402  1.00  0.00     0.066 C 
ATOM      7  C   UNL     1      39.557 124.476  23.635  1.00  0.00     0.181 C 
ATOM      8  C   UNL     1      41.719 122.659  22.201  1.00  0.00     0.022 C 
BRANCH   7   9
ATOM      9  N   UNL     1      38.808 125.260  24.624  1.00  0.00    -0.355 N 
ATOM     10  H   UNL     1      38.027 124.696  25.033  1.00  0.00     0.344 HD
ATOM     11  H   UNL     1      39.453 125.561  25.391  1.00  0.00     0.344 HD
ATOM     12  H   UNL     1      38.414 126.115  24.168  1.00  0.00     0.344 HD
ENDBRANCH   7   9
ENDBRANCH   1   3
BRANCH   1  13
ATOM     13  N   UNL     1      44.062 125.303  23.297  1.00  0.00    -0.280 N 
BRANCH  13  14
ATOM     14  C   UNL     1      45.490 125.223  23.102  1.00  0.00     0.050 A 
ATOM     15  C   UNL     1      46.366 125.971  23.935  1.00  0.00     0.029 A 
ATOM     16  C   UNL     1      46.032 124.397  22.087  1.00  0.00     0.037 A 
ATOM     17  C   UNL     1      47.759 125.895  23.768  1.00  0.00     0.029 A 
ATOM     18  C   UNL     1      47.417 124.346  21.953  1.00  0.00     0.001 A 
ATOM     19  C   UNL     1      48.251 125.067  22.762  1.00  0.00     0.045 A 
ATOM     20  C   UNL     1      48.206 123.637  21.074  1.00  0.00     0.028 A 
ATOM     21  N   UNL     1      49.536 124.851  22.438  1.00  0.00    -0.361 N 
ATOM     22  C   UNL     1      49.514 123.976  21.406  1.00  0.00     0.083 A 
ATOM     23  H   UNL     1      50.381 125.268  22.888  1.00  0.00     0.166 HD
ENDBRANCH  13  14
BRANCH  13  24
ATOM     24  C   UNL     1      43.420 126.579  23.479  1.00  0.00     0.052 A 
ATOM     25  C   UNL     1      42.278 126.691  24.296  1.00  0.00     0.027 A 
ATOM     26  C   UNL     1      43.924 127.749  22.878  1.00  0.00    -0.021 A 
ATOM     27  C   UNL     1      41.653 127.934  24.483  1.00  0.00     0.002 A 
ATOM     28  C   UNL     1      43.302 128.961  23.060  1.00  0.00    -0.043 A 
ATOM     29  C   UNL     1      45.115 127.879  21.998  1.00  0.00     0.038 C 
ATOM     30  C   UNL     1      42.164 129.080  23.860  1.00  0.00     0.004 A 
ATOM     31  C   UNL     1      43.979 130.058  22.332  1.00  0.00     0.036 C 
ATOM     32  C   UNL     1      45.083 129.345  21.532  1.00  0.00     0.010 C 
ENDBRANCH  13  24
ENDBRANCH   1  13
TORSDOF 5
ENDMDL
MODEL 5
REMARK VINA RESULT:      -1.1      1.907      6.372
REMARK SMILES C[C@@]1(C(=O)N(c2ccc3[nH]ccc3c2)c2cccc3c2CCC3)CC[C@H]([NH3+])C1
REMARK SMILES IDX 3 1 4 2 2 3 24 4 28 5 25 6 26 7 1 8 27 9 5 13 6 14 7 15
REMARK SMILES IDX 14 16 8 17 13 18 9 19 12 20 10 21 11 22 15 24 16 25 20 26
REMARK SMILES IDX 17 27 19 28 21 29 18 30 23 31 22 32
REMARK H PARENT 27 10 27 11 27 12 10 23
ROOT
ATOM      1  C   UNL     1      45.355 132.506  22.564  1.00  0.00     0.237 C 
ATOM      2  O   UNL     1      44.951 133.041  23.633  1.00  0.00    -0.273 OA
ENDROOT
BRANCH   1   3
ATOM      3  C   UNL     1      46.662 132.978  21.942  1.00  0.00     0.053 C 
ATOM      4  C   UNL     1      47.678 133.367  23.030  1.00  0.00     0.023 C 
ATOM      5  C   UNL     1      46.496 134.279  21.146  1.00  0.00     0.081 C 
ATOM      6  C   UNL     1      48.586 134.432  22.419  1.00  0.00     0.066 C 
ATOM      7  C   UNL     1      47.865 134.964  21.173  1.00  0.00     0.181 C 
ATOM      8  C   UNL     1      47.243 131.860  21.048  1.00  0.00     0.022 C 
BRANCH   7   9
ATOM      9  N   UNL     1      47.739 136.426  21.195  1.00  0.00    -0.355 N 
ATOM     10  H   UNL     1      48.569 136.864  21.658  1.00  0.00     0.344 HD
ATOM     11  H   UNL     1      47.664 136.785  20.216  1.00  0.00     0.344 HD
ATOM     12  H   UNL     1      46.873 136.695  21.714  1.00  0.00     0.344 HD
ENDBRANCH   7   9
ENDBRANCH   1   3
BRANCH   1  13
ATOM     13  N   UNL     1      44.566 131.456  21.971  1.00  0.00    -0.280 N 
BRANCH  13  14
ATOM     14  C   UNL     1      44.190 131.559  20.582  1.00  0.00     0.050 A 
ATOM     15  C   UNL     1      42.879 131.979  20.229  1.00  0.00     0.029 A 
ATOM     16  C   UNL     1      45.120 131.251  19.560  1.00  0.00     0.037 A 
ATOM     17  C   UNL     1      42.498 132.099  18.880  1.00  0.00     0.029 A 
ATOM     18  C   UNL     1      44.708 131.382  18.236  1.00  0.00     0.001 A 
ATOM     19  C   UNL     1      43.445 131.790  17.907  1.00  0.00     0.045 A 
ATOM     20  C   UNL     1      45.390 131.160  17.060  1.00  0.00     0.028 A 
ATOM     21  N   UNL     1      43.291 131.839  16.574  1.00  0.00    -0.361 N 
ATOM     22  C   UNL     1      44.478 131.454  16.051  1.00  0.00     0.083 A 
ATOM     23  H   UNL     1      42.434 132.117  16.046  1.00  0.00     0.166 HD
ENDBRANCH  13  14
BRANCH  13  24
ATOM     24  C   UNL     1      44.006 130.424  22.805  1.00  0.00     0.052 A 
ATOM     25  C   UNL     1      42.993 130.733  23.735  1.00  0.00     0.027 A 
ATOM     26  C   UNL     1      44.424 129.084  22.700  1.00  0.00    -0.021 A 
ATOM     27  C   UNL     1      42.437 129.729  24.545  1.00  0.00     0.002 A 
ATOM     28  C   UNL     1      43.881 128.109  23.501  1.00  0.00    -0.043 A 
ATOM     29  C   UNL     1      45.455 128.522  21.788  1.00  0.00     0.038 C 
ATOM     30  C   UNL     1      42.883 128.406  24.431  1.00  0.00     0.004 A 
ATOM     31  C   UNL     1      44.468 126.774  23.243  1.00  0.00     0.036 C 
ATOM     32  C   UNL     1      45.585 127.052  22.223  1.00  0.00     0.010 C 
ENDBRANCH  13  24
ENDBRANCH   1  13
TORSDOF 5
ENDMDL
MODEL 6
REMARK VINA RESULT:      -0.9      1.431      1.840
REMARK SMILES C[C@@]1(C(=O)N(c2ccc3[nH]ccc3c2)c2cccc3c2CCC3)CC[C@H]([NH3+])C1
REMARK SMILES IDX 3 1 4 2 2 3 24 4 28 5 25 6 26 7 1 8 27 9 5 13 6 14 7 15
REMARK SMILES IDX 14 16 8 17 13 18 9 19 12 20 10 21 11 22 15 24 16 25 20 26
REMARK SMILES IDX 17 27 19 28 21 29 18 30 23 31 22 32
REMARK H PARENT 27 10 27 11 27 12 10 23
ROOT
ATOM      1  C   UNL     1      44.134 131.245  23.132  1.00  0.00     0.237 C 
ATOM      2  O   UNL     1      43.857 131.894  24.179  1.00  0.00    -0.273 OA
ENDROOT
BRANCH   1   3
ATOM      3  C   UNL     1      43.891 129.743  23.101  1.00  0.00     0.053 C 
ATOM      4  C   UNL     1      44.274 129.097  24.444  1.00  0.00     0.023 C 
ATOM      5  C   UNL     1      44.803 129.021  22.100  1.00  0.00     0.081 C 
ATOM      6  C   UNL     1      44.685 127.659  24.135  1.00  0.00     0.066 C 
ATOM      7  C   UNL     1      44.953 127.591  22.625  1.00  0.00     0.181 C 
ATOM      8  C   UNL     1      42.404 129.466  22.783  1.00  0.00     0.022 C 
BRANCH   7   9
ATOM      9  N   UNL     1      46.281 127.041  22.328  1.00  0.00    -0.355 N 
ATOM     10  H   UNL     1      46.372 126.066  22.698  1.00  0.00     0.344 HD
ATOM     11  H   UNL     1      46.431 127.031  21.293  1.00  0.00     0.344 HD
ATOM     12  H   UNL     1      47.015 127.645  22.764  1.00  0.00     0.344 HD
ENDBRANCH   7   9
ENDBRANCH   1   3
BRANCH   1  13
ATOM     13  N   UNL     1      44.665 131.953  21.996  1.00  0.00    -0.280 N 
BRANCH  13  14
ATOM     14  C   UNL     1      45.836 132.780  22.169  1.00  0.00     0.050 A 
ATOM     15  C   UNL     1      46.347 133.528  21.074  1.00  0.00     0.029 A 
ATOM     16  C   UNL     1      46.482 132.859  23.426  1.00  0.00     0.037 A 
ATOM     17  C   UNL     1      47.479 134.348  21.226  1.00  0.00     0.029 A 
ATOM     18  C   UNL     1      47.599 133.683  23.540  1.00  0.00     0.001 A 
ATOM     19  C   UNL     1      48.080 134.401  22.481  1.00  0.00     0.045 A 
ATOM     20  C   UNL     1      48.406 133.952  24.623  1.00  0.00     0.028 A 
ATOM     21  N   UNL     1      49.159 135.116  22.840  1.00  0.00    -0.361 N 
ATOM     22  C   UNL     1      49.362 134.845  24.149  1.00  0.00     0.083 A 
ATOM     23  H   UNL     1      49.726 135.753  22.236  1.00  0.00     0.166 HD
ENDBRANCH  13  14
BRANCH  13  24
ATOM     24  C   UNL     1      43.924 131.985  20.761  1.00  0.00     0.052 A 
ATOM     25  C   UNL     1      42.635 132.551  20.721  1.00  0.00     0.027 A 
ATOM     26  C   UNL     1      44.469 131.486  19.563  1.00  0.00    -0.021 A 
ATOM     27  C   UNL     1      41.911 132.592  19.518  1.00  0.00     0.002 A 
ATOM     28  C   UNL     1      43.752 131.523  18.392  1.00  0.00    -0.043 A 
ATOM     29  C   UNL     1      45.805 130.865  19.360  1.00  0.00     0.038 C 
ATOM     30  C   UNL     1      42.470 132.073  18.342  1.00  0.00     0.004 A 
ATOM     31  C   UNL     1      44.497 130.935  17.255  1.00  0.00     0.036 C 
ATOM     32  C   UNL     1      45.781 130.386  17.898  1.00  0.00     0.010 C 
ENDBRANCH  13  24
ENDBRANCH   1  13
TORSDOF 5
ENDMDL
MODEL 7
REMARK VINA RESULT:      -0.9      1.499      2.429
REMARK SMILES C[C@@]1(C(=O)N(c2ccc3[nH]ccc3c2)c2cccc3c2CCC3)CC[C@H]([NH3+])C1
REMARK SMILES IDX 3 1 4 2 2 3 24 4 28 5 25 6 26 7 1 8 27 9 5 13 6 14 7 15
REMARK SMILES IDX 14 16 8 17 13 18 9 19 12 20 10 21 11 22 15 24 16 25 20 26
REMARK SMILES IDX 17 27 19 28 21 29 18 30 23 31 22 32
REMARK H PARENT 27 10 27 11 27 12 10 23
ROOT
ATOM      1  C   UNL     1      44.315 131.587  23.146  1.00  0.00     0.237 C 
ATOM      2  O   UNL     1      43.911 132.416  24.008  1.00  0.00    -0.273 OA
ENDROOT
BRANCH   1   3
ATOM      3  C   UNL     1      43.760 130.170  23.158  1.00  0.00     0.053 C 
ATOM      4  C   UNL     1      43.445 129.716  24.594  1.00  0.00     0.023 C 
ATOM      5  C   UNL     1      44.789 129.133  22.688  1.00  0.00     0.081 C 
ATOM      6  C   UNL     1      43.597 128.196  24.615  1.00  0.00     0.066 C 
ATOM      7  C   UNL     1      44.393 127.815  23.359  1.00  0.00     0.181 C 
ATOM      8  C   UNL     1      42.485 130.107  22.289  1.00  0.00     0.022 C 
BRANCH   7   9
ATOM      9  N   UNL     1      45.567 126.996  23.682  1.00  0.00    -0.355 N 
ATOM     10  H   UNL     1      46.351 127.592  24.034  1.00  0.00     0.344 HD
ATOM     11  H   UNL     1      45.312 126.295  24.415  1.00  0.00     0.344 HD
ATOM     12  H   UNL     1      45.881 126.483  22.827  1.00  0.00     0.344 HD
ENDBRANCH   7   9
ENDBRANCH   1   3
BRANCH   1  13
ATOM     13  N   UNL     1      45.286 132.016  22.172  1.00  0.00    -0.280 N 
BRANCH  13  14
ATOM     14  C   UNL     1      46.337 132.918  22.578  1.00  0.00     0.050 A 
ATOM     15  C   UNL     1      46.644 133.080  23.956  1.00  0.00     0.029 A 
ATOM     16  C   UNL     1      47.075 133.644  21.612  1.00  0.00     0.037 A 
ATOM     17  C   UNL     1      47.673 133.944  24.369  1.00  0.00     0.029 A 
ATOM     18  C   UNL     1      48.088 134.489  22.058  1.00  0.00     0.001 A 
ATOM     19  C   UNL     1      48.377 134.635  23.386  1.00  0.00     0.045 A 
ATOM     20  C   UNL     1      48.954 135.297  21.355  1.00  0.00     0.028 A 
ATOM     21  N   UNL     1      49.389 135.500  23.563  1.00  0.00    -0.361 N 
ATOM     22  C   UNL     1      49.746 135.908  22.323  1.00  0.00     0.083 A 
ATOM     23  H   UNL     1      49.816 135.798  24.468  1.00  0.00     0.166 HD
ENDBRANCH  13  14
BRANCH  13  24
ATOM     24  C   UNL     1      45.092 131.700  20.780  1.00  0.00     0.052 A 
ATOM     25  C   UNL     1      46.089 131.012  20.062  1.00  0.00     0.027 A 
ATOM     26  C   UNL     1      43.901 132.035  20.109  1.00  0.00    -0.021 A 
ATOM     27  C   UNL     1      45.902 130.694  18.707  1.00  0.00     0.002 A 
ATOM     28  C   UNL     1      43.728 131.727  18.781  1.00  0.00    -0.043 A 
ATOM     29  C   UNL     1      42.714 132.740  20.660  1.00  0.00     0.038 C 
ATOM     30  C   UNL     1      44.714 131.054  18.057  1.00  0.00     0.004 A 
ATOM     31  C   UNL     1      42.418 132.180  18.262  1.00  0.00     0.036 C 
ATOM     32  C   UNL     1      41.801 132.955  19.439  1.00  0.00     0.010 C 
ENDBRANCH  13  24
ENDBRANCH   1  13
TORSDOF 5
ENDMDL
MODEL 8
REMARK VINA RESULT:      -0.2      1.659      2.048
REMARK SMILES C[C@@]1(C(=O)N(c2ccc3[nH]ccc3c2)c2cccc3c2CCC3)CC[C@H]([NH3+])C1
REMARK SMILES IDX 3 1 4 2 2 3 24 4 28 5 25 6 26 7 1 8 27 9 5 13 6 14 7 15
REMARK SMILES IDX 14 16 8 17 13 18 9 19 12 20 10 21 11 22 15 24 16 25 20 26
REMARK SMILES IDX 17 27 19 28 21 29 18 30 23 31 22 32
REMARK H PARENT 27 10 27 11 27 12 10 23
ROOT
ATOM      1  C   UNL     1      44.531 131.548  22.829  1.00  0.00     0.237 C 
ATOM      2  O   UNL     1      44.461 132.262  23.867  1.00  0.00    -0.273 OA
ENDROOT
BRANCH   1   3
ATOM      3  C   UNL     1      44.119 130.084  22.903  1.00  0.00     0.053 C 
ATOM      4  C   UNL     1      44.467 129.485  24.277  1.00  0.00     0.023 C 
ATOM      5  C   UNL     1      44.914 129.201  21.932  1.00  0.00     0.081 C 
ATOM      6  C   UNL     1      44.704 127.993  24.055  1.00  0.00     0.066 C 
ATOM      7  C   UNL     1      44.918 127.799  22.547  1.00  0.00     0.181 C 
ATOM      8  C   UNL     1      42.602 129.960  22.638  1.00  0.00     0.022 C 
BRANCH   7   9
ATOM      9  N   UNL     1      46.165 127.083  22.257  1.00  0.00    -0.355 N 
ATOM     10  H   UNL     1      46.260 126.899  21.232  1.00  0.00     0.344 HD
ATOM     11  H   UNL     1      46.979 127.656  22.579  1.00  0.00     0.344 HD
ATOM     12  H   UNL     1      46.174 126.174  22.774  1.00  0.00     0.344 HD
ENDBRANCH   7   9
ENDBRANCH   1   3
BRANCH   1  13
ATOM     13  N   UNL     1      44.993 132.147  21.604  1.00  0.00    -0.280 N 
BRANCH  13  14
ATOM     14  C   UNL     1      46.184 132.962  21.625  1.00  0.00     0.050 A 
ATOM     15  C   UNL     1      47.408 132.420  22.103  1.00  0.00     0.029 A 
ATOM     16  C   UNL     1      46.149 134.301  21.167  1.00  0.00     0.037 A 
ATOM     17  C   UNL     1      48.582 133.194  22.119  1.00  0.00     0.029 A 
ATOM     18  C   UNL     1      47.330 135.036  21.196  1.00  0.00     0.001 A 
ATOM     19  C   UNL     1      48.504 134.505  21.655  1.00  0.00     0.045 A 
ATOM     20  C   UNL     1      47.587 136.335  20.814  1.00  0.00     0.028 A 
ATOM     21  N   UNL     1      49.497 135.406  21.582  1.00  0.00    -0.361 N 
ATOM     22  C   UNL     1      48.942 136.527  21.068  1.00  0.00     0.083 A 
ATOM     23  H   UNL     1      50.494 135.272  21.863  1.00  0.00     0.166 HD
ENDBRANCH  13  14
BRANCH  13  24
ATOM     24  C   UNL     1      44.169 132.089  20.424  1.00  0.00     0.052 A 
ATOM     25  C   UNL     1      42.855 132.596  20.448  1.00  0.00     0.027 A 
ATOM     26  C   UNL     1      44.654 131.559  19.213  1.00  0.00    -0.021 A 
ATOM     27  C   UNL     1      42.051 132.549  19.299  1.00  0.00     0.002 A 
ATOM     28  C   UNL     1      43.858 131.510  18.094  1.00  0.00    -0.043 A 
ATOM     29  C   UNL     1      46.000 130.987  18.945  1.00  0.00     0.038 C 
ATOM     30  C   UNL     1      42.551 132.001  18.110  1.00  0.00     0.004 A 
ATOM     31  C   UNL     1      44.550 130.902  16.935  1.00  0.00     0.036 C 
ATOM     32  C   UNL     1      45.899 130.440  17.510  1.00  0.00     0.010 C 
ENDBRANCH  13  24
ENDBRANCH   1  13
TORSDOF 5
ENDMDL
MODEL 9
REMARK VINA RESULT:      -0.2      1.977      5.014
REMARK SMILES C[C@@]1(C(=O)N(c2ccc3[nH]ccc3c2)c2cccc3c2CCC3)CC[C@H]([NH3+])C1
REMARK SMILES IDX 3 1 4 2 2 3 24 4 28 5 25 6 26 7 1 8 27 9 5 13 6 14 7 15
REMARK SMILES IDX 14 16 8 17 13 18 9 19 12 20 10 21 11 22 15 24 16 25 20 26
REMARK SMILES IDX 17 27 19 28 21 29 18 30 23 31 22 32
REMARK H PARENT 27 10 27 11 27 12 10 23
ROOT
ATOM      1  C   UNL     1      45.640 130.972  19.707  1.00  0.00     0.237 C 
ATOM      2  O   UNL     1      46.470 130.022  19.711  1.00  0.00    -0.273 OA
ENDROOT
BRANCH   1   3
ATOM      3  C   UNL     1      44.856 131.272  18.438  1.00  0.00     0.053 C 
ATOM      4  C   UNL     1      44.841 130.052  17.501  1.00  0.00     0.023 C 
ATOM      5  C   UNL     1      45.523 132.356  17.579  1.00  0.00     0.081 C 
ATOM      6  C   UNL     1      44.711 130.594  16.079  1.00  0.00     0.066 C 
ATOM      7  C   UNL     1      45.077 132.084  16.140  1.00  0.00     0.181 C 
ATOM      8  C   UNL     1      43.412 131.679  18.805  1.00  0.00     0.022 C 
BRANCH   7   9
ATOM      9  N   UNL     1      46.123 132.431  15.172  1.00  0.00    -0.355 N 
ATOM     10  H   UNL     1      47.023 132.650  15.659  1.00  0.00     0.344 HD
ATOM     11  H   UNL     1      46.273 131.629  14.518  1.00  0.00     0.344 HD
ATOM     12  H   UNL     1      45.823 133.263  14.615  1.00  0.00     0.344 HD
ENDBRANCH   7   9
ENDBRANCH   1   3
BRANCH   1  13
ATOM     13  N   UNL     1      45.456 131.738  20.914  1.00  0.00    -0.280 N 
BRANCH  13  14
ATOM     14  C   UNL     1      46.390 132.793  21.226  1.00  0.00     0.050 A 
ATOM     15  C   UNL     1      46.218 134.086  20.663  1.00  0.00     0.029 A 
ATOM     16  C   UNL     1      47.480 132.554  22.098  1.00  0.00     0.037 A 
ATOM     17  C   UNL     1      47.110 135.129  20.966  1.00  0.00     0.029 A 
ATOM     18  C   UNL     1      48.342 133.611  22.376  1.00  0.00     0.001 A 
ATOM     19  C   UNL     1      48.165 134.853  21.832  1.00  0.00     0.045 A 
ATOM     20  C   UNL     1      49.460 133.668  23.178  1.00  0.00     0.028 A 
ATOM     21  N   UNL     1      49.121 135.699  22.250  1.00  0.00    -0.361 N 
ATOM     22  C   UNL     1      49.916 134.979  23.074  1.00  0.00     0.083 A 
ATOM     23  H   UNL     1      49.230 136.706  21.995  1.00  0.00     0.166 HD
ENDBRANCH  13  14
BRANCH  13  24
ATOM     24  C   UNL     1      44.471 131.325  21.880  1.00  0.00     0.052 A 
ATOM     25  C   UNL     1      43.526 132.248  22.371  1.00  0.00     0.027 A 
ATOM     26  C   UNL     1      44.400 129.995  22.337  1.00  0.00    -0.021 A 
ATOM     27  C   UNL     1      42.559 131.849  23.307  1.00  0.00     0.002 A 
ATOM     28  C   UNL     1      43.455 129.614  23.259  1.00  0.00    -0.043 A 
ATOM     29  C   UNL     1      45.271 128.853  21.952  1.00  0.00     0.038 C 
ATOM     30  C   UNL     1      42.520 130.523  23.759  1.00  0.00     0.004 A 
ATOM     31  C   UNL     1      43.562 128.182  23.618  1.00  0.00     0.036 C 
ATOM     32  C   UNL     1      44.820 127.706  22.873  1.00  0.00     0.010 C 
ENDBRANCH  13  24
ENDBRANCH   1  13
TORSDOF 5
ENDMDL


