REMARK SMILES C=Cc1cc([C@@H]2O[C@H]2c2ccccc2)c(N)c([O-])c1[NH2+]c1ccc(C)c(F)c1
REMARK SMILES IDX 3 1 4 2 5 3 15 4 17 5 18 6 19 7 2 8 1 9 20 10 21 13 22 14
REMARK SMILES IDX 28 15 23 16 26 17 24 18 27 19 25 20 6 21 7 22 8 23 9 24
REMARK SMILES IDX 10 25 14 26 11 27 13 28 12 29 16 30
REMARK H PARENT 20 11 20 12 16 31 16 32
ROOT
ATOM      1  C   UNL     1       0.767   0.067  -1.200  1.00  0.00     0.035 A 
ATOM      2  C   UNL     1       0.009  -1.109  -1.321  1.00  0.00     0.023 A 
ATOM      3  C   UNL     1      -1.107  -1.344  -0.509  1.00  0.00     0.007 A 
ATOM      4  C   UNL     1      -1.510  -0.365   0.422  1.00  0.00     0.035 A 
ATOM      5  C   UNL     1      -0.750   0.810   0.565  1.00  0.00    -0.020 A 
ATOM      6  O   UNL     1      -1.133   1.753   1.517  1.00  0.00    -0.867 OA
ATOM      7  C   UNL     1       0.389   1.045  -0.243  1.00  0.00     0.136 A 
ENDROOT
BRANCH   1   8
ATOM      8  C   UNL     1       1.924   0.277  -2.106  1.00  0.00     0.006 C 
ATOM      9  C   UNL     1       2.781  -0.698  -2.408  1.00  0.00     0.009 C 
ENDBRANCH   1   8
BRANCH   7  10
ATOM     10  N   UNL     1       1.176   2.249  -0.051  1.00  0.00    -0.281 N 
ATOM     11  H   UNL     1       1.353   2.704  -0.976  1.00  0.00     0.358 HD
ATOM     12  H   UNL     1       0.656   2.963   0.508  1.00  0.00     0.358 HD
BRANCH  10  13
ATOM     13  C   UNL     1       2.412   1.949   0.633  1.00  0.00     0.137 A 
ATOM     14  C   UNL     1       3.647   2.103  -0.019  1.00  0.00     0.068 A 
ATOM     15  C   UNL     1       2.400   1.502   1.966  1.00  0.00     0.107 A 
ATOM     16  C   UNL     1       4.840   1.795   0.637  1.00  0.00     0.012 A 
ATOM     17  C   UNL     1       3.594   1.194   2.625  1.00  0.00     0.132 A 
ATOM     18  C   UNL     1       4.823   1.343   1.965  1.00  0.00    -0.015 A 
ATOM     19  F   UNL     1       3.551   0.749   3.904  1.00  0.00    -0.206 F 
ATOM     20  C   UNL     1       6.104   0.982   2.658  1.00  0.00     0.047 C 
ENDBRANCH  10  13
ENDBRANCH   7  10
BRANCH   3  21
ATOM     21  C   UNL     1      -1.888  -2.613  -0.717  1.00  0.00     0.185 C 
ATOM     22  O   UNL     1      -1.963  -3.389   0.458  1.00  0.00    -0.359 OA
ATOM     23  C   UNL     1      -1.121  -3.878  -0.560  1.00  0.00     0.183 C 
BRANCH  23  24
ATOM     24  C   UNL     1      -1.708  -5.068  -1.259  1.00  0.00    -0.016 A 
ATOM     25  C   UNL     1      -1.672  -5.138  -2.659  1.00  0.00     0.006 A 
ATOM     26  C   UNL     1      -2.249  -6.137  -0.526  1.00  0.00     0.006 A 
ATOM     27  C   UNL     1      -2.195  -6.253  -3.321  1.00  0.00     0.000 A 
ATOM     28  C   UNL     1      -2.766  -7.254  -1.190  1.00  0.00     0.000 A 
ATOM     29  C   UNL     1      -2.742  -7.311  -2.586  1.00  0.00     0.000 A 
ENDBRANCH  23  24
ENDBRANCH   3  21
BRANCH   4  30
ATOM     30  N   UNL     1      -2.695  -0.543   1.209  1.00  0.00    -0.399 N 
ATOM     31  H   UNL     1      -2.996   0.177   1.905  1.00  0.00     0.156 HD
ATOM     32  H   UNL     1      -3.350  -1.339   1.053  1.00  0.00     0.156 HD
ENDBRANCH   4  30
TORSDOF 6


