MODEL 1
REMARK VINA RESULT:      -9.1      0.000      0.000
REMARK SMILES Cc1ccc(N[C@H]2CC[C@H]3[N+](C)=NN[C@@]3(N)[C@@H]2O)cc1
REMARK SMILES IDX 7 1 8 2 9 3 10 4 11 5 12 6 13 7 14 8 15 9 17 10 6 12 5 14
REMARK SMILES IDX 2 15 3 16 20 17 4 18 19 19 1 20 18 21 16 23
REMARK H PARENT 14 11 6 13 18 22 16 24 16 25
ROOT
ATOM      1  C   UNL     1      44.320 131.740  18.693  1.00  0.00     0.114 C 
ATOM      2  C   UNL     1      43.068 132.352  19.385  1.00  0.00     0.032 C 
ATOM      3  C   UNL     1      42.643 131.609  20.655  1.00  0.00     0.061 C 
ATOM      4  C   UNL     1      43.808 131.539  21.657  1.00  0.00     0.266 C 
ATOM      5  N   UNL     1      43.525 130.572  22.718  1.00  0.00    -0.163 N 
ATOM      6  C   UNL     1      42.416 130.654  23.663  1.00  0.00     0.319 C 
ATOM      7  N   UNL     1      44.397 129.657  22.786  1.00  0.00     0.079 NA
ATOM      8  N   UNL     1      45.389 129.813  21.824  1.00  0.00    -0.156 N 
ATOM      9  C   UNL     1      45.134 131.004  21.025  1.00  0.00     0.244 C 
ATOM     10  C   UNL     1      44.977 130.608  19.525  1.00  0.00     0.206 C 
ATOM     11  H   UNL     1      46.214 129.180  21.737  1.00  0.00     0.337 HD
ENDROOT
BRANCH   1  12
ATOM     12  N   UNL     1      43.969 131.242  17.353  1.00  0.00    -0.379 N 
ATOM     13  H   UNL     1      42.972 130.987  17.164  1.00  0.00     0.160 HD
BRANCH  12  14
ATOM     14  C   UNL     1      44.917 131.047  16.283  1.00  0.00     0.034 A 
ATOM     15  C   UNL     1      46.798 130.738  14.203  1.00  0.00    -0.051 A 
ATOM     16  C   UNL     1      46.052 129.639  14.650  1.00  0.00     0.005 A 
ATOM     17  C   UNL     1      46.583 131.997  14.781  1.00  0.00     0.005 A 
ATOM     18  C   UNL     1      45.123 129.788  15.684  1.00  0.00     0.026 A 
ATOM     19  C   UNL     1      45.656 132.147  15.816  1.00  0.00     0.026 A 
ATOM     20  C   UNL     1      47.765 130.584  13.066  1.00  0.00     0.044 C 
ENDBRANCH  12  14
ENDBRANCH   1  12
BRANCH  10  21
ATOM     21  O   UNL     1      46.221 130.283  18.959  1.00  0.00    -0.384 OA
ATOM     22  H   UNL     1      46.464 131.025  18.346  1.00  0.00     0.211 HD
ENDBRANCH  10  21
BRANCH   9  23
ATOM     23  N   UNL     1      46.218 131.970  21.239  1.00  0.00    -0.283 NA
ATOM     24  H   UNL     1      45.982 132.593  22.045  1.00  0.00     0.123 HD
ATOM     25  H   UNL     1      46.327 132.572  20.391  1.00  0.00     0.123 HD
ENDBRANCH   9  23
TORSDOF 4
ENDMDL
MODEL 2
REMARK VINA RESULT:      -9.1      0.170      1.093
REMARK SMILES Cc1ccc(N[C@H]2CC[C@H]3[N+](C)=NN[C@@]3(N)[C@@H]2O)cc1
REMARK SMILES IDX 7 1 8 2 9 3 10 4 11 5 12 6 13 7 14 8 15 9 17 10 6 12 5 14
REMARK SMILES IDX 2 15 3 16 20 17 4 18 19 19 1 20 18 21 16 23
REMARK H PARENT 14 11 6 13 18 22 16 24 16 25
ROOT
ATOM      1  C   UNL     1      44.334 131.804  18.662  1.00  0.00     0.114 C 
ATOM      2  C   UNL     1      43.063 132.350  19.375  1.00  0.00     0.032 C 
ATOM      3  C   UNL     1      42.652 131.537  20.606  1.00  0.00     0.061 C 
ATOM      4  C   UNL     1      43.814 131.452  21.610  1.00  0.00     0.266 C 
ATOM      5  N   UNL     1      43.552 130.429  22.623  1.00  0.00    -0.163 N 
ATOM      6  C   UNL     1      42.437 130.437  23.565  1.00  0.00     0.319 C 
ATOM      7  N   UNL     1      44.448 129.535  22.654  1.00  0.00     0.079 NA
ATOM      8  N   UNL     1      45.440 129.762  21.706  1.00  0.00    -0.156 N 
ATOM      9  C   UNL     1      45.156 130.982  20.962  1.00  0.00     0.244 C 
ATOM     10  C   UNL     1      45.017 130.653  19.445  1.00  0.00     0.206 C 
ATOM     11  H   UNL     1      46.282 129.156  21.595  1.00  0.00     0.337 HD
ENDROOT
BRANCH   1  12
ATOM     12  N   UNL     1      44.003 131.361  17.299  1.00  0.00    -0.379 N 
ATOM     13  H   UNL     1      42.997 131.195  17.062  1.00  0.00     0.160 HD
BRANCH  12  14
ATOM     14  C   UNL     1      44.978 131.104  16.266  1.00  0.00     0.034 A 
ATOM     15  C   UNL     1      46.856 130.527  14.242  1.00  0.00    -0.051 A 
ATOM     16  C   UNL     1      46.697 131.841  14.706  1.00  0.00     0.005 A 
ATOM     17  C   UNL     1      46.091 129.500  14.811  1.00  0.00     0.005 A 
ATOM     18  C   UNL     1      45.763 132.130  15.705  1.00  0.00     0.026 A 
ATOM     19  C   UNL     1      45.157 129.788  15.809  1.00  0.00     0.026 A 
ATOM     20  C   UNL     1      47.886 130.213  13.198  1.00  0.00     0.044 C 
ENDBRANCH  12  14
ENDBRANCH   1  12
BRANCH  10  21
ATOM     21  O   UNL     1      46.273 130.388  18.871  1.00  0.00    -0.384 OA
ATOM     22  H   UNL     1      46.607 129.547  19.280  1.00  0.00     0.211 HD
ENDBRANCH  10  21
BRANCH   9  23
ATOM     23  N   UNL     1      46.214 131.965  21.227  1.00  0.00    -0.283 NA
ATOM     24  H   UNL     1      45.996 132.489  22.105  1.00  0.00     0.123 HD
ATOM     25  H   UNL     1      46.256 132.658  20.445  1.00  0.00     0.123 HD
ENDBRANCH   9  23
TORSDOF 4
ENDMDL
MODEL 3
REMARK VINA RESULT:      -8.4      2.283      6.978
REMARK SMILES Cc1ccc(N[C@H]2CC[C@H]3[N+](C)=NN[C@@]3(N)[C@@H]2O)cc1
REMARK SMILES IDX 7 1 8 2 9 3 10 4 11 5 12 6 13 7 14 8 15 9 17 10 6 12 5 14
REMARK SMILES IDX 2 15 3 16 20 17 4 18 19 19 1 20 18 21 16 23
REMARK H PARENT 14 11 6 13 18 22 16 24 16 25
ROOT
ATOM      1  C   UNL     1      44.789 131.225  16.936  1.00  0.00     0.114 C 
ATOM      2  C   UNL     1      44.481 131.988  15.617  1.00  0.00     0.032 C 
ATOM      3  C   UNL     1      45.621 131.934  14.595  1.00  0.00     0.061 C 
ATOM      4  C   UNL     1      45.992 130.475  14.277  1.00  0.00     0.266 C 
ATOM      5  N   UNL     1      47.268 130.407  13.564  1.00  0.00    -0.163 N 
ATOM      6  C   UNL     1      47.541 131.001  12.259  1.00  0.00     0.319 C 
ATOM      7  N   UNL     1      48.128 129.706  14.173  1.00  0.00     0.079 NA
ATOM      8  N   UNL     1      47.629 129.194  15.366  1.00  0.00    -0.156 N 
ATOM      9  C   UNL     1      46.246 129.610  15.553  1.00  0.00     0.244 C 
ATOM     10  C   UNL     1      46.116 130.426  16.876  1.00  0.00     0.206 C 
ATOM     11  H   UNL     1      48.172 128.564  15.997  1.00  0.00     0.337 HD
ENDROOT
BRANCH   1  12
ATOM     12  N   UNL     1      44.814 132.160  18.072  1.00  0.00    -0.379 N 
ATOM     13  H   UNL     1      45.220 133.113  17.921  1.00  0.00     0.160 HD
BRANCH  12  14
ATOM     14  C   UNL     1      44.347 131.842  19.400  1.00  0.00     0.034 A 
ATOM     15  C   UNL     1      43.361 131.235  21.973  1.00  0.00    -0.051 A 
ATOM     16  C   UNL     1      44.698 130.968  21.647  1.00  0.00     0.005 A 
ATOM     17  C   UNL     1      42.526 131.829  21.017  1.00  0.00     0.005 A 
ATOM     18  C   UNL     1      45.188 131.263  20.371  1.00  0.00     0.026 A 
ATOM     19  C   UNL     1      43.014 132.123  19.741  1.00  0.00     0.026 A 
ATOM     20  C   UNL     1      42.849 130.955  23.354  1.00  0.00     0.044 C 
ENDBRANCH  12  14
ENDBRANCH   1  12
BRANCH  10  21
ATOM     21  O   UNL     1      46.197 129.580  17.997  1.00  0.00    -0.384 OA
ATOM     22  H   UNL     1      46.747 128.798  17.731  1.00  0.00     0.211 HD
ENDBRANCH  10  21
BRANCH   9  23
ATOM     23  N   UNL     1      45.379 128.426  15.539  1.00  0.00    -0.283 NA
ATOM     24  H   UNL     1      45.436 127.935  16.460  1.00  0.00     0.123 HD
ATOM     25  H   UNL     1      45.704 127.759  14.801  1.00  0.00     0.123 HD
ENDBRANCH   9  23
TORSDOF 4
ENDMDL
MODEL 4
REMARK VINA RESULT:      -8.4      2.285      6.989
REMARK SMILES Cc1ccc(N[C@H]2CC[C@H]3[N+](C)=NN[C@@]3(N)[C@@H]2O)cc1
REMARK SMILES IDX 7 1 8 2 9 3 10 4 11 5 12 6 13 7 14 8 15 9 17 10 6 12 5 14
REMARK SMILES IDX 2 15 3 16 20 17 4 18 19 19 1 20 18 21 16 23
REMARK H PARENT 14 11 6 13 18 22 16 24 16 25
ROOT
ATOM      1  C   UNL     1      44.783 131.223  16.918  1.00  0.00     0.114 C 
ATOM      2  C   UNL     1      44.481 131.988  15.598  1.00  0.00     0.032 C 
ATOM      3  C   UNL     1      45.627 131.936  14.582  1.00  0.00     0.061 C 
ATOM      4  C   UNL     1      46.001 130.478  14.264  1.00  0.00     0.266 C 
ATOM      5  N   UNL     1      47.281 130.411  13.558  1.00  0.00    -0.163 N 
ATOM      6  C   UNL     1      47.560 131.008  12.256  1.00  0.00     0.319 C 
ATOM      7  N   UNL     1      48.138 129.710  14.171  1.00  0.00     0.079 NA
ATOM      8  N   UNL     1      47.633 129.196  15.361  1.00  0.00    -0.156 N 
ATOM      9  C   UNL     1      46.248 129.611  15.541  1.00  0.00     0.244 C 
ATOM     10  C   UNL     1      46.111 130.425  16.864  1.00  0.00     0.206 C 
ATOM     11  H   UNL     1      48.173 128.566  15.994  1.00  0.00     0.337 HD
ENDROOT
BRANCH   1  12
ATOM     12  N   UNL     1      44.801 132.157  18.055  1.00  0.00    -0.379 N 
ATOM     13  H   UNL     1      45.230 133.101  17.915  1.00  0.00     0.160 HD
BRANCH  12  14
ATOM     14  C   UNL     1      44.296 131.848  19.372  1.00  0.00     0.034 A 
ATOM     15  C   UNL     1      43.383 131.227  21.968  1.00  0.00    -0.051 A 
ATOM     16  C   UNL     1      42.517 131.816  21.036  1.00  0.00     0.005 A 
ATOM     17  C   UNL     1      44.699 130.925  21.590  1.00  0.00     0.005 A 
ATOM     18  C   UNL     1      42.969 132.130  19.751  1.00  0.00     0.026 A 
ATOM     19  C   UNL     1      45.151 131.240  20.306  1.00  0.00     0.026 A 
ATOM     20  C   UNL     1      42.885 130.855  23.333  1.00  0.00     0.044 C 
ENDBRANCH  12  14
ENDBRANCH   1  12
BRANCH  10  21
ATOM     21  O   UNL     1      46.185 129.578  17.984  1.00  0.00    -0.384 OA
ATOM     22  H   UNL     1      47.146 129.495  18.222  1.00  0.00     0.211 HD
ENDBRANCH  10  21
BRANCH   9  23
ATOM     23  N   UNL     1      45.382 128.426  15.520  1.00  0.00    -0.283 NA
ATOM     24  H   UNL     1      44.644 128.516  16.254  1.00  0.00     0.123 HD
ATOM     25  H   UNL     1      45.946 127.573  15.737  1.00  0.00     0.123 HD
ENDBRANCH   9  23
TORSDOF 4
ENDMDL
MODEL 5
REMARK VINA RESULT:      -7.1      1.415      1.763
REMARK SMILES Cc1ccc(N[C@H]2CC[C@H]3[N+](C)=NN[C@@]3(N)[C@@H]2O)cc1
REMARK SMILES IDX 7 1 8 2 9 3 10 4 11 5 12 6 13 7 14 8 15 9 17 10 6 12 5 14
REMARK SMILES IDX 2 15 3 16 20 17 4 18 19 19 1 20 18 21 16 23
REMARK H PARENT 14 11 6 13 18 22 16 24 16 25
ROOT
ATOM      1  C   UNL     1      45.702 130.952  18.416  1.00  0.00     0.114 C 
ATOM      2  C   UNL     1      44.700 132.041  17.940  1.00  0.00     0.032 C 
ATOM      3  C   UNL     1      43.431 132.125  18.795  1.00  0.00     0.061 C 
ATOM      4  C   UNL     1      43.789 132.359  20.272  1.00  0.00     0.266 C 
ATOM      5  N   UNL     1      42.630 132.122  21.133  1.00  0.00    -0.163 N 
ATOM      6  C   UNL     1      41.374 132.864  21.082  1.00  0.00     0.319 C 
ATOM      7  N   UNL     1      42.843 131.225  22.000  1.00  0.00     0.079 NA
ATOM      8  N   UNL     1      44.126 130.697  21.895  1.00  0.00    -0.156 N 
ATOM      9  C   UNL     1      44.853 131.351  20.817  1.00  0.00     0.244 C 
ATOM     10  C   UNL     1      45.287 130.293  19.757  1.00  0.00     0.206 C 
ATOM     11  H   UNL     1      44.506 129.970  22.541  1.00  0.00     0.337 HD
ENDROOT
BRANCH   1  12
ATOM     12  N   UNL     1      45.867 129.922  17.378  1.00  0.00    -0.379 N 
ATOM     13  H   UNL     1      45.611 128.935  17.612  1.00  0.00     0.160 HD
BRANCH  12  14
ATOM     14  C   UNL     1      46.396 130.174  16.058  1.00  0.00     0.034 A 
ATOM     15  C   UNL     1      47.414 130.741  13.489  1.00  0.00    -0.051 A 
ATOM     16  C   UNL     1      47.569 129.463  14.044  1.00  0.00     0.005 A 
ATOM     17  C   UNL     1      46.727 131.726  14.211  1.00  0.00     0.005 A 
ATOM     18  C   UNL     1      47.071 129.181  15.320  1.00  0.00     0.026 A 
ATOM     19  C   UNL     1      46.229 131.445  15.486  1.00  0.00     0.026 A 
ATOM     20  C   UNL     1      47.915 131.030  12.105  1.00  0.00     0.044 C 
ENDBRANCH  12  14
ENDBRANCH   1  12
BRANCH  10  21
ATOM     21  O   UNL     1      46.352 129.510  20.236  1.00  0.00    -0.384 OA
ATOM     22  H   UNL     1      46.796 129.109  19.444  1.00  0.00     0.211 HD
ENDBRANCH  10  21
BRANCH   9  23
ATOM     23  N   UNL     1      45.996 132.082  21.378  1.00  0.00    -0.283 NA
ATOM     24  H   UNL     1      46.510 132.574  20.613  1.00  0.00     0.123 HD
ATOM     25  H   UNL     1      46.659 131.409  21.827  1.00  0.00     0.123 HD
ENDBRANCH   9  23
TORSDOF 4
ENDMDL
MODEL 6
REMARK VINA RESULT:      -7.0      1.406      2.003
REMARK SMILES Cc1ccc(N[C@H]2CC[C@H]3[N+](C)=NN[C@@]3(N)[C@@H]2O)cc1
REMARK SMILES IDX 7 1 8 2 9 3 10 4 11 5 12 6 13 7 14 8 15 9 17 10 6 12 5 14
REMARK SMILES IDX 2 15 3 16 20 17 4 18 19 19 1 20 18 21 16 23
REMARK H PARENT 14 11 6 13 18 22 16 24 16 25
ROOT
ATOM      1  C   UNL     1      45.726 130.986  18.420  1.00  0.00     0.114 C 
ATOM      2  C   UNL     1      44.704 132.064  17.959  1.00  0.00     0.032 C 
ATOM      3  C   UNL     1      43.439 132.121  18.822  1.00  0.00     0.061 C 
ATOM      4  C   UNL     1      43.803 132.349  20.299  1.00  0.00     0.266 C 
ATOM      5  N   UNL     1      42.653 132.089  21.165  1.00  0.00    -0.163 N 
ATOM      6  C   UNL     1      41.386 132.811  21.128  1.00  0.00     0.319 C 
ATOM      7  N   UNL     1      42.885 131.188  22.023  1.00  0.00     0.079 NA
ATOM      8  N   UNL     1      44.175 130.681  21.907  1.00  0.00    -0.156 N 
ATOM      9  C   UNL     1      44.886 131.354  20.829  1.00  0.00     0.244 C 
ATOM     10  C   UNL     1      45.329 130.311  19.758  1.00  0.00     0.206 C 
ATOM     11  H   UNL     1      44.570 129.955  22.544  1.00  0.00     0.337 HD
ENDROOT
BRANCH   1  12
ATOM     12  N   UNL     1      45.900 129.968  17.373  1.00  0.00    -0.379 N 
ATOM     13  H   UNL     1      45.679 128.972  17.607  1.00  0.00     0.160 HD
BRANCH  12  14
ATOM     14  C   UNL     1      46.392 130.242  16.043  1.00  0.00     0.034 A 
ATOM     15  C   UNL     1      47.369 130.700  13.437  1.00  0.00    -0.051 A 
ATOM     16  C   UNL     1      46.721 131.725  14.140  1.00  0.00     0.005 A 
ATOM     17  C   UNL     1      47.550 129.453  14.051  1.00  0.00     0.005 A 
ATOM     18  C   UNL     1      46.231 131.499  15.429  1.00  0.00     0.026 A 
ATOM     19  C   UNL     1      47.060 129.226  15.340  1.00  0.00     0.026 A 
ATOM     20  C   UNL     1      47.929 130.957  12.069  1.00  0.00     0.044 C 
ENDBRANCH  12  14
ENDBRANCH   1  12
BRANCH  10  21
ATOM     21  O   UNL     1      46.409 129.541  20.224  1.00  0.00    -0.384 OA
ATOM     22  H   UNL     1      47.090 130.176  20.570  1.00  0.00     0.211 HD
ENDBRANCH  10  21
BRANCH   9  23
ATOM     23  N   UNL     1      46.021 132.098  21.389  1.00  0.00    -0.283 NA
ATOM     24  H   UNL     1      46.394 132.764  20.675  1.00  0.00     0.123 HD
ATOM     25  H   UNL     1      46.789 131.434  21.639  1.00  0.00     0.123 HD
ENDBRANCH   9  23
TORSDOF 4
ENDMDL
MODEL 7
REMARK VINA RESULT:      -7.0      1.817      2.603
REMARK SMILES Cc1ccc(N[C@H]2CC[C@H]3[N+](C)=NN[C@@]3(N)[C@@H]2O)cc1
REMARK SMILES IDX 7 1 8 2 9 3 10 4 11 5 12 6 13 7 14 8 15 9 17 10 6 12 5 14
REMARK SMILES IDX 2 15 3 16 20 17 4 18 19 19 1 20 18 21 16 23
REMARK H PARENT 14 11 6 13 18 22 16 24 16 25
ROOT
ATOM      1  C   UNL     1      44.404 131.223  19.306  1.00  0.00     0.114 C 
ATOM      2  C   UNL     1      45.661 131.037  20.202  1.00  0.00     0.032 C 
ATOM      3  C   UNL     1      45.537 131.696  21.580  1.00  0.00     0.061 C 
ATOM      4  C   UNL     1      44.292 131.177  22.318  1.00  0.00     0.266 C 
ATOM      5  N   UNL     1      43.985 132.016  23.476  1.00  0.00    -0.163 N 
ATOM      6  C   UNL     1      44.860 132.225  24.624  1.00  0.00     0.319 C 
ATOM      7  N   UNL     1      42.823 132.515  23.420  1.00  0.00     0.079 NA
ATOM      8  N   UNL     1      42.150 132.135  22.264  1.00  0.00    -0.156 N 
ATOM      9  C   UNL     1      42.988 131.256  21.460  1.00  0.00     0.244 C 
ATOM     10  C   UNL     1      43.222 131.891  20.055  1.00  0.00     0.206 C 
ATOM     11  H   UNL     1      41.168 132.414  22.048  1.00  0.00     0.337 HD
ENDROOT
BRANCH   1  12
ATOM     12  N   UNL     1      44.745 132.002  18.105  1.00  0.00    -0.379 N 
ATOM     13  H   UNL     1      44.423 132.997  18.050  1.00  0.00     0.160 HD
BRANCH  12  14
ATOM     14  C   UNL     1      45.468 131.477  16.971  1.00  0.00     0.034 A 
ATOM     15  C   UNL     1      46.873 130.378  14.786  1.00  0.00    -0.051 A 
ATOM     16  C   UNL     1      46.470 131.720  14.764  1.00  0.00     0.005 A 
ATOM     17  C   UNL     1      46.593 129.594  15.914  1.00  0.00     0.005 A 
ATOM     18  C   UNL     1      45.768 132.266  15.843  1.00  0.00     0.026 A 
ATOM     19  C   UNL     1      45.892 130.138  16.993  1.00  0.00     0.026 A 
ATOM     20  C   UNL     1      47.660 129.806  13.644  1.00  0.00     0.044 C 
ENDBRANCH  12  14
ENDBRANCH   1  12
BRANCH  10  21
ATOM     21  O   UNL     1      42.063 131.800  19.263  1.00  0.00    -0.384 OA
ATOM     22  H   UNL     1      42.307 131.281  18.452  1.00  0.00     0.211 HD
ENDBRANCH  10  21
BRANCH   9  23
ATOM     23  N   UNL     1      42.359 129.931  21.377  1.00  0.00    -0.283 NA
ATOM     24  H   UNL     1      43.041 129.241  20.988  1.00  0.00     0.123 HD
ATOM     25  H   UNL     1      41.539 129.970  20.730  1.00  0.00     0.123 HD
ENDBRANCH   9  23
TORSDOF 4
ENDMDL
MODEL 8
REMARK VINA RESULT:      -7.0      1.793      2.420
REMARK SMILES Cc1ccc(N[C@H]2CC[C@H]3[N+](C)=NN[C@@]3(N)[C@@H]2O)cc1
REMARK SMILES IDX 7 1 8 2 9 3 10 4 11 5 12 6 13 7 14 8 15 9 17 10 6 12 5 14
REMARK SMILES IDX 2 15 3 16 20 17 4 18 19 19 1 20 18 21 16 23
REMARK H PARENT 14 11 6 13 18 22 16 24 16 25
ROOT
ATOM      1  C   UNL     1      44.329 131.176  19.362  1.00  0.00     0.114 C 
ATOM      2  C   UNL     1      45.628 131.050  20.208  1.00  0.00     0.032 C 
ATOM      3  C   UNL     1      45.544 131.747  21.570  1.00  0.00     0.061 C 
ATOM      4  C   UNL     1      44.346 131.217  22.376  1.00  0.00     0.266 C 
ATOM      5  N   UNL     1      44.065 132.083  23.521  1.00  0.00    -0.163 N 
ATOM      6  C   UNL     1      44.982 132.350  24.624  1.00  0.00     0.319 C 
ATOM      7  N   UNL     1      42.888 132.548  23.501  1.00  0.00     0.079 NA
ATOM      8  N   UNL     1      42.178 132.116  22.386  1.00  0.00    -0.156 N 
ATOM      9  C   UNL     1      43.005 131.235  21.573  1.00  0.00     0.244 C 
ATOM     10  C   UNL     1      43.161 131.834  20.141  1.00  0.00     0.206 C 
ATOM     11  H   UNL     1      41.180 132.362  22.205  1.00  0.00     0.337 HD
ENDROOT
BRANCH   1  12
ATOM     12  N   UNL     1      44.597 131.926  18.125  1.00  0.00    -0.379 N 
ATOM     13  H   UNL     1      44.186 132.884  18.027  1.00  0.00     0.160 HD
BRANCH  12  14
ATOM     14  C   UNL     1      45.364 131.418  17.013  1.00  0.00     0.034 A 
ATOM     15  C   UNL     1      46.870 130.497  14.813  1.00  0.00    -0.051 A 
ATOM     16  C   UNL     1      46.545 129.625  15.861  1.00  0.00     0.005 A 
ATOM     17  C   UNL     1      46.419 131.823  14.856  1.00  0.00     0.005 A 
ATOM     18  C   UNL     1      45.804 130.080  16.956  1.00  0.00     0.026 A 
ATOM     19  C   UNL     1      45.678 132.279  15.949  1.00  0.00     0.026 A 
ATOM     20  C   UNL     1      47.632 129.996  13.622  1.00  0.00     0.044 C 
ENDBRANCH  12  14
ENDBRANCH   1  12
BRANCH  10  21
ATOM     21  O   UNL     1      41.974 131.688  19.404  1.00  0.00    -0.384 OA
ATOM     22  H   UNL     1      42.076 132.229  18.578  1.00  0.00     0.211 HD
ENDBRANCH  10  21
BRANCH   9  23
ATOM     23  N   UNL     1      42.411 129.893  21.556  1.00  0.00    -0.283 NA
ATOM     24  H   UNL     1      41.419 129.951  21.233  1.00  0.00     0.123 HD
ATOM     25  H   UNL     1      42.409 129.496  22.523  1.00  0.00     0.123 HD
ENDBRANCH   9  23
TORSDOF 4
ENDMDL
MODEL 9
REMARK VINA RESULT:      -6.3      2.036      2.942
REMARK SMILES Cc1ccc(N[C@H]2CC[C@H]3[N+](C)=NN[C@@]3(N)[C@@H]2O)cc1
REMARK SMILES IDX 7 1 8 2 9 3 10 4 11 5 12 6 13 7 14 8 15 9 17 10 6 12 5 14
REMARK SMILES IDX 2 15 3 16 20 17 4 18 19 19 1 20 18 21 16 23
REMARK H PARENT 14 11 6 13 18 22 16 24 16 25
ROOT
ATOM      1  C   UNL     1      43.959 131.423  17.814  1.00  0.00     0.114 C 
ATOM      2  C   UNL     1      44.858 130.847  18.944  1.00  0.00     0.032 C 
ATOM      3  C   UNL     1      44.580 131.457  20.322  1.00  0.00     0.061 C 
ATOM      4  C   UNL     1      43.099 131.287  20.699  1.00  0.00     0.266 C 
ATOM      5  N   UNL     1      42.753 132.131  21.843  1.00  0.00    -0.163 N 
ATOM      6  C   UNL     1      43.341 132.032  23.175  1.00  0.00     0.319 C 
ATOM      7  N   UNL     1      41.819 132.944  21.582  1.00  0.00     0.079 NA
ATOM      8  N   UNL     1      41.376 132.821  20.270  1.00  0.00    -0.156 N 
ATOM      9  C   UNL     1      42.118 131.772  19.584  1.00  0.00     0.244 C 
ATOM     10  C   UNL     1      42.853 132.371  18.346  1.00  0.00     0.206 C 
ATOM     11  H   UNL     1      40.590 133.380  19.870  1.00  0.00     0.337 HD
ENDROOT
BRANCH   1  12
ATOM     12  N   UNL     1      44.782 132.120  16.813  1.00  0.00    -0.379 N 
ATOM     13  H   UNL     1      44.689 133.159  16.730  1.00  0.00     0.160 HD
BRANCH  12  14
ATOM     14  C   UNL     1      45.691 131.462  15.904  1.00  0.00     0.034 A 
ATOM     15  C   UNL     1      47.444 130.107  14.159  1.00  0.00    -0.051 A 
ATOM     16  C   UNL     1      47.210 131.479  14.000  1.00  0.00     0.005 A 
ATOM     17  C   UNL     1      46.819 129.419  15.208  1.00  0.00     0.005 A 
ATOM     18  C   UNL     1      46.337 132.152  14.860  1.00  0.00     0.026 A 
ATOM     19  C   UNL     1      45.946 130.091  16.068  1.00  0.00     0.026 A 
ATOM     20  C   UNL     1      48.412 129.395  13.260  1.00  0.00     0.044 C 
ENDBRANCH  12  14
ENDBRANCH   1  12
BRANCH  10  21
ATOM     21  O   UNL     1      41.945 132.649  17.309  1.00  0.00    -0.384 OA
ATOM     22  H   UNL     1      42.201 133.529  16.927  1.00  0.00     0.211 HD
ENDBRANCH  10  21
BRANCH   9  23
ATOM     23  N   UNL     1      41.197 130.689  19.218  1.00  0.00    -0.283 NA
ATOM     24  H   UNL     1      40.343 131.090  18.767  1.00  0.00     0.123 HD
ATOM     25  H   UNL     1      40.894 130.178  20.078  1.00  0.00     0.123 HD
ENDBRANCH   9  23
TORSDOF 4
ENDMDL


