REMARK SMILES c1cc2cc(-c3ncc4c(n3)CCCC4)ccc2[nH]1
REMARK SMILES IDX 1 1 2 2 3 3 4 4 5 5 16 6 17 7 18 8 19 9 6 11 7 12 11 13 8 14
REMARK SMILES IDX 10 15 9 16 12 17 15 18 13 19 14 20
REMARK H PARENT 19 10
ROOT
ATOM      1  C   UNL     1       0.111  -6.033   1.029  1.00  0.00     0.083 A 
ATOM      2  C   UNL     1       1.013  -5.011   0.753  1.00  0.00     0.028 A 
ATOM      3  C   UNL     1       0.262  -3.856   0.760  1.00  0.00     0.000 A 
ATOM      4  C   UNL     1       0.634  -2.531   0.546  1.00  0.00     0.022 A 
ATOM      5  C   UNL     1      -0.368  -1.533   0.616  1.00  0.00     0.020 A 
ATOM      6  C   UNL     1      -1.710  -1.914   0.899  1.00  0.00     0.014 A 
ATOM      7  C   UNL     1      -2.048  -3.263   1.109  1.00  0.00     0.027 A 
ATOM      8  C   UNL     1      -1.031  -4.210   1.031  1.00  0.00     0.045 A 
ATOM      9  N   UNL     1      -1.137  -5.538   1.198  1.00  0.00    -0.361 N 
ATOM     10  H   UNL     1      -2.003  -6.082   1.413  1.00  0.00     0.166 HD
ENDROOT
BRANCH   5  11
ATOM     11  C   UNL     1      -0.023  -0.107   0.396  1.00  0.00     0.159 A 
ATOM     12  N   UNL     1       1.260   0.256   0.126  1.00  0.00    -0.236 NA
ATOM     13  N   UNL     1      -0.987   0.852   0.464  1.00  0.00    -0.233 NA
ATOM     14  C   UNL     1       1.600   1.555  -0.072  1.00  0.00     0.119 A 
ATOM     15  C   UNL     1      -0.704   2.165   0.260  1.00  0.00     0.048 A 
ATOM     16  C   UNL     1       0.626   2.556   0.006  1.00  0.00    -0.008 A 
ATOM     17  C   UNL     1      -1.808   3.177   0.415  1.00  0.00     0.056 C 
ATOM     18  C   UNL     1       0.995   3.989  -0.290  1.00  0.00     0.039 C 
ATOM     19  C   UNL     1      -1.464   4.524  -0.229  1.00  0.00     0.007 C 
ATOM     20  C   UNL     1      -0.067   4.980   0.199  1.00  0.00     0.005 C 
ENDBRANCH   5  11
TORSDOF 1


