REMARK SMILES CCC[C@@H](N)/C=C(\O)N1CC[C@@H](C)[C@@H](c2cc3cc(F)ccc3[nH]2)[C@H]1F
REMARK SMILES IDX 6 1 7 2 8 3 9 5 10 6 25 7 11 8 14 9 12 10 26 11 13 12 15 13
REMARK SMILES IDX 16 14 24 15 17 16 23 17 18 18 22 19 19 20 21 21 20 23 4 24
REMARK SMILES IDX 5 25 3 28 2 29 1 30
REMARK H PARENT 8 4 24 22 5 26 5 27
ROOT
ATOM      1  C   UNL     1      -0.865  -1.170  -0.029  1.00  0.00     0.057 C 
ENDROOT
BRANCH   1   2
ATOM      2  C   UNL     1      -1.009  -0.411   1.069  1.00  0.00     0.186 C 
BRANCH   2   3
ATOM      3  O   UNL     1      -1.763  -0.871   2.149  1.00  0.00    -0.495 OA
ATOM      4  H   UNL     1      -1.905  -0.303   2.975  1.00  0.00     0.295 HD
ENDBRANCH   2   3
BRANCH   2   5
ATOM      5  N   UNL     1      -0.356   0.871   1.154  1.00  0.00    -0.313 N 
ATOM      6  C   UNL     1       0.313   1.233   2.409  1.00  0.00     0.123 C 
ATOM      7  C   UNL     1      -0.730   1.964   0.241  1.00  0.00     0.274 C 
ATOM      8  C   UNL     1       1.537   2.117   2.144  1.00  0.00     0.026 C 
ATOM      9  C   UNL     1       0.487   2.856  -0.074  1.00  0.00     0.094 C 
ATOM     10  C   UNL     1       1.182   3.309   1.237  1.00  0.00     0.001 C 
ATOM     11  F   UNL     1      -1.282   1.484  -0.938  1.00  0.00    -0.223 F 
ATOM     12  C   UNL     1       2.418   4.181   0.971  1.00  0.00     0.008 C 
BRANCH   9  13
ATOM     13  C   UNL     1       1.434   2.199  -1.062  1.00  0.00     0.024 A 
ATOM     14  C   UNL     1       1.905   2.815  -2.221  1.00  0.00     0.032 A 
ATOM     15  N   UNL     1       1.959   0.955  -0.932  1.00  0.00    -0.358 N 
ATOM     16  C   UNL     1       2.741   1.890  -2.805  1.00  0.00     0.003 A 
ATOM     17  C   UNL     1       2.750   0.780  -2.003  1.00  0.00     0.046 A 
ATOM     18  C   UNL     1       3.487   1.955  -3.979  1.00  0.00     0.049 A 
ATOM     19  C   UNL     1       3.506  -0.347  -2.320  1.00  0.00     0.029 A 
ATOM     20  C   UNL     1       4.262   0.832  -4.327  1.00  0.00     0.123 A 
ATOM     21  C   UNL     1       4.271  -0.314  -3.501  1.00  0.00     0.041 A 
ATOM     22  H   UNL     1       1.799   0.263  -0.169  1.00  0.00     0.166 HD
ATOM     23  F   UNL     1       5.004   0.851  -5.462  1.00  0.00    -0.207 F 
ENDBRANCH   9  13
ENDBRANCH   2   5
ENDBRANCH   1   2
BRANCH   1  24
ATOM     24  C   UNL     1      -1.460  -2.549  -0.206  1.00  0.00     0.079 C 
BRANCH  24  25
ATOM     25  N   UNL     1      -2.922  -2.490  -0.127  1.00  0.00    -0.324 NA
ATOM     26  H   UNL     1      -3.226  -2.453   0.873  1.00  0.00     0.119 HD
ATOM     27  H   UNL     1      -3.310  -3.378  -0.523  1.00  0.00     0.119 HD
ENDBRANCH  24  25
BRANCH  24  28
ATOM     28  C   UNL     1      -0.878  -3.585   0.784  1.00  0.00     0.023 C 
BRANCH  28  29
ATOM     29  C   UNL     1       0.637  -3.766   0.607  1.00  0.00    -0.002 C 
ATOM     30  C   UNL     1       1.178  -4.835   1.551  1.00  0.00     0.004 C 
ENDBRANCH  28  29
ENDBRANCH  24  28
ENDBRANCH   1  24
TORSDOF 8


