REMARK SMILES O=Cc1c(NC2CC(=O)C2)ccc2cc3ccccc3cc12
REMARK SMILES IDX 3 1 4 2 11 3 12 4 13 5 14 6 15 7 16 8 17 9 18 10 19 11 20 12
REMARK SMILES IDX 21 13 22 14 2 15 1 16 5 17 6 19 7 20 10 21 8 22 9 23
REMARK H PARENT 5 18
ROOT
ATOM      1  C   UNL     1       0.063  -0.173   0.066  1.00  0.00     0.045 A 
ATOM      2  C   UNL     1       0.257   0.493   1.304  1.00  0.00     0.046 A 
ATOM      3  C   UNL     1       1.455   0.334   2.006  1.00  0.00     0.027 A 
ATOM      4  C   UNL     1       2.451  -0.510   1.530  1.00  0.00     0.011 A 
ATOM      5  C   UNL     1       2.279  -1.203   0.327  1.00  0.00    -0.017 A 
ATOM      6  C   UNL     1       3.299  -2.049  -0.134  1.00  0.00     0.017 A 
ATOM      7  C   UNL     1       3.163  -2.729  -1.349  1.00  0.00    -0.018 A 
ATOM      8  C   UNL     1       4.184  -3.576  -1.811  1.00  0.00     0.009 A 
ATOM      9  C   UNL     1       4.043  -4.244  -3.030  1.00  0.00     0.001 A 
ATOM     10  C   UNL     1       2.888  -4.073  -3.796  1.00  0.00     0.001 A 
ATOM     11  C   UNL     1       1.865  -3.232  -3.346  1.00  0.00     0.009 A 
ATOM     12  C   UNL     1       1.993  -2.556  -2.121  1.00  0.00    -0.018 A 
ATOM     13  C   UNL     1       0.971  -1.712  -1.663  1.00  0.00     0.018 A 
ATOM     14  C   UNL     1       1.086  -1.035  -0.427  1.00  0.00    -0.005 A 
ENDROOT
BRANCH   1  15
ATOM     15  C   UNL     1      -1.185   0.055  -0.704  1.00  0.00     0.262 C 
ATOM     16  O   UNL     1      -1.736   1.188  -0.723  1.00  0.00    -0.298 OA
ENDBRANCH   1  15
BRANCH   2  17
ATOM     17  N   UNL     1      -0.764   1.315   1.885  1.00  0.00    -0.381 N 
ATOM     18  H   UNL     1      -0.466   2.228   2.301  1.00  0.00     0.160 HD
BRANCH  17  19
ATOM     19  C   UNL     1      -2.022   0.722   2.350  1.00  0.00     0.094 C 
ATOM     20  C   UNL     1      -3.127   1.728   2.470  1.00  0.00     0.100 C 
ATOM     21  C   UNL     1      -2.077   0.597   3.843  1.00  0.00     0.100 C 
ATOM     22  C   UNL     1      -3.196   1.615   3.983  1.00  0.00     0.137 C 
ATOM     23  O   UNL     1      -3.847   2.109   4.888  1.00  0.00    -0.300 OA
ENDBRANCH  17  19
ENDBRANCH   2  17
TORSDOF 3


