REMARK SMILES Cc1c(F)c(F)c(CCC(O)=C2CCC2)c(N)c1Nc1ccc(F)cc1
REMARK SMILES IDX 8 1 7 2 2 3 3 4 18 5 5 6 16 7 1 8 4 9 6 10 19 11 20 13 21 14
REMARK SMILES IDX 26 15 22 16 25 17 23 18 24 19 17 20 9 23 10 24 11 25 12 27
REMARK SMILES IDX 13 28 15 29 14 30
REMARK H PARENT 19 12 17 21 17 22 11 26
ROOT
ATOM      1  C   UNL     1       2.745   0.330   1.866  1.00  0.00     0.049 C 
ENDROOT
BRANCH   1   2
ATOM      2  C   UNL     1       1.624  -0.587   1.413  1.00  0.00     0.016 A 
ATOM      3  C   UNL     1      -0.394  -2.353   0.516  1.00  0.00     0.013 A 
ATOM      4  C   UNL     1       0.934  -2.518   0.100  1.00  0.00     0.164 A 
ATOM      5  C   UNL     1      -0.731  -1.257   1.341  1.00  0.00     0.068 A 
ATOM      6  C   UNL     1       1.930  -1.652   0.547  1.00  0.00     0.164 A 
ATOM      7  C   UNL     1       0.274  -0.373   1.799  1.00  0.00     0.062 A 
ATOM      8  C   UNL     1      -1.445  -3.322   0.037  1.00  0.00     0.050 C 
ATOM      9  F   UNL     1       1.271  -3.530  -0.740  1.00  0.00    -0.203 F 
ATOM     10  F   UNL     1       3.205  -1.855   0.124  1.00  0.00    -0.203 F 
BRANCH   5  11
ATOM     11  N   UNL     1      -2.094  -1.057   1.750  1.00  0.00    -0.354 N 
ATOM     12  H   UNL     1      -2.312  -1.176   2.766  1.00  0.00     0.167 HD
BRANCH  11  13
ATOM     13  C   UNL     1      -3.138  -0.613   0.864  1.00  0.00     0.039 A 
ATOM     14  C   UNL     1      -2.866  -0.222  -0.462  1.00  0.00     0.029 A 
ATOM     15  C   UNL     1      -4.459  -0.549   1.335  1.00  0.00     0.029 A 
ATOM     16  C   UNL     1      -3.900   0.213  -1.296  1.00  0.00     0.041 A 
ATOM     17  C   UNL     1      -5.490  -0.113   0.497  1.00  0.00     0.041 A 
ATOM     18  C   UNL     1      -5.211   0.268  -0.818  1.00  0.00     0.123 A 
ATOM     19  F   UNL     1      -6.213   0.690  -1.628  1.00  0.00    -0.207 F 
ENDBRANCH  11  13
ENDBRANCH   5  11
BRANCH   7  20
ATOM     20  N   UNL     1      -0.095   0.748   2.624  1.00  0.00    -0.397 N 
ATOM     21  H   UNL     1      -1.088   0.924   2.892  1.00  0.00     0.156 HD
ATOM     22  H   UNL     1       0.593   1.456   2.955  1.00  0.00     0.156 HD
ENDBRANCH   7  20
ENDBRANCH   1   2
BRANCH   1  23
ATOM     23  C   UNL     1       2.826   1.608   1.019  1.00  0.00     0.079 C 
BRANCH  23  24
ATOM     24  C   UNL     1       3.284   1.313  -0.382  1.00  0.00     0.092 C 
BRANCH  24  25
ATOM     25  O   UNL     1       4.642   1.105  -0.618  1.00  0.00    -0.512 OA
ATOM     26  H   UNL     1       4.997   0.889  -1.542  1.00  0.00     0.293 HD
ENDBRANCH  24  25
BRANCH  24  27
ATOM     27  C   UNL     1       2.407   1.217  -1.382  1.00  0.00    -0.033 C 
ATOM     28  C   UNL     1       2.441   0.909  -2.866  1.00  0.00     0.035 C 
ATOM     29  C   UNL     1       0.907   1.345  -1.573  1.00  0.00     0.035 C 
ATOM     30  C   UNL     1       0.961   1.036  -3.033  1.00  0.00     0.009 C 
ENDBRANCH  24  27
ENDBRANCH  23  24
ENDBRANCH   1  23
TORSDOF 8


