REMARK SMILES Cc1cc2ccc([C@H]3O[C@@H](C)NN3C(O)=C3C[NH2+]C3)cc2[nH]1
REMARK SMILES IDX 8 1 9 2 10 3 11 4 12 5 13 6 7 8 2 9 3 10 22 11 4 12 21 13
REMARK SMILES IDX 5 14 20 15 6 16 1 17 14 19 15 20 16 22 17 23 19 24 18 25
REMARK H PARENT 12 7 22 18 15 21 18 26 18 27
ROOT
ATOM      1  C   UNL     1       1.926  -0.427  -1.225  1.00  0.00     0.267 C 
ATOM      2  O   UNL     1       2.448   0.750  -1.787  1.00  0.00    -0.333 OA
ATOM      3  C   UNL     1       3.298   1.333  -0.812  1.00  0.00     0.204 C 
ATOM      4  C   UNL     1       2.930   2.800  -0.625  1.00  0.00     0.058 C 
ATOM      5  N   UNL     1       3.172   0.627   0.466  1.00  0.00    -0.201 NA
ATOM      6  N   UNL     1       2.352  -0.452   0.152  1.00  0.00    -0.243 N 
ATOM      7  H   UNL     1       4.111   0.238   0.719  1.00  0.00     0.151 HD
ENDROOT
BRANCH   1   8
ATOM      8  C   UNL     1       0.420  -0.414  -1.332  1.00  0.00     0.005 A 
ATOM      9  C   UNL     1      -3.835   0.871  -0.554  1.00  0.00     0.013 A 
ATOM     10  C   UNL     1      -3.709  -0.168  -1.473  1.00  0.00     0.031 A 
ATOM     11  N   UNL     1      -2.625   1.262  -0.089  1.00  0.00    -0.359 N 
ATOM     12  C   UNL     1      -2.352  -0.391  -1.568  1.00  0.00    -0.000 A 
ATOM     13  C   UNL     1      -1.729   0.487  -0.722  1.00  0.00     0.046 A 
ATOM     14  C   UNL     1      -1.637  -1.309  -2.332  1.00  0.00     0.011 A 
ATOM     15  C   UNL     1      -0.343   0.508  -0.578  1.00  0.00     0.035 A 
ATOM     16  C   UNL     1      -0.236  -1.313  -2.212  1.00  0.00     0.009 A 
ATOM     17  C   UNL     1      -5.130   1.429  -0.063  1.00  0.00     0.064 C 
ATOM     18  H   UNL     1      -2.430   2.003   0.621  1.00  0.00     0.166 HD
ENDBRANCH   1   8
BRANCH   6  19
ATOM     19  C   UNL     1       2.014  -1.494   1.083  1.00  0.00     0.214 C 
BRANCH  19  20
ATOM     20  O   UNL     1       1.414  -2.663   0.612  1.00  0.00    -0.493 OA
ATOM     21  H   UNL     1       1.151  -3.419   1.233  1.00  0.00     0.295 HD
ENDBRANCH  19  20
BRANCH  19  22
ATOM     22  C   UNL     1       2.247  -1.354   2.390  1.00  0.00     0.099 C 
ATOM     23  C   UNL     1       2.041  -2.146   3.660  1.00  0.00     0.304 C 
ATOM     24  C   UNL     1       2.811  -0.341   3.360  1.00  0.00     0.304 C 
ATOM     25  N   UNL     1       2.588  -1.141   4.544  1.00  0.00    -0.339 N 
ATOM     26  H   UNL     1       1.865  -0.727   5.178  1.00  0.00     0.346 HD
ATOM     27  H   UNL     1       3.480  -1.447   4.998  1.00  0.00     0.346 HD
ENDBRANCH  19  22
ENDBRANCH   6  19
TORSDOF 4


