MODEL 1
REMARK VINA RESULT:      -4.9      0.000      0.000
REMARK SMILES O=C(C(=O)[C@@H]1CCc2nc(-c3ccc4[nH]ccc4c3)ncc2[C@H]1F)c1ccccc1
REMARK SMILES IDX 5 1 6 2 7 3 8 4 9 5 10 6 20 7 21 8 22 9 23 10 24 11 3 12
REMARK SMILES IDX 4 13 2 14 1 15 25 16 26 17 30 18 27 19 29 20 28 21 11 22
REMARK SMILES IDX 12 23 19 24 13 25 18 26 14 27 17 28 15 29 16 30
REMARK H PARENT 15 31
ROOT
ATOM      1  C   UNL     1      43.207 131.326  21.080  1.00  0.00     0.104 C 
ATOM      2  C   UNL     1      44.709 131.608  21.225  1.00  0.00     0.022 C 
ATOM      3  C   UNL     1      45.491 130.918  20.104  1.00  0.00     0.057 C 
ATOM      4  C   UNL     1      44.901 131.179  18.743  1.00  0.00     0.051 A 
ATOM      5  N   UNL     1      45.665 130.940  17.645  1.00  0.00    -0.233 NA
ATOM      6  C   UNL     1      45.182 131.108  16.384  1.00  0.00     0.159 A 
ATOM      7  N   UNL     1      43.898 131.522  16.214  1.00  0.00    -0.236 NA
ATOM      8  C   UNL     1      43.086 131.763  17.275  1.00  0.00     0.122 A 
ATOM      9  C   UNL     1      43.557 131.575  18.580  1.00  0.00     0.027 A 
ATOM     10  C   UNL     1      42.678 131.924  19.761  1.00  0.00     0.211 C 
ATOM     11  F   UNL     1      41.390 131.462  19.540  1.00  0.00    -0.241 F 
ENDROOT
BRANCH   1  12
ATOM     12  C   UNL     1      42.454 131.877  22.271  1.00  0.00     0.209 C 
ATOM     13  O   UNL     1      41.839 132.973  22.160  1.00  0.00    -0.290 OA
BRANCH  12  14
ATOM     14  C   UNL     1      42.499 131.193  23.584  1.00  0.00     0.228 C 
ATOM     15  O   UNL     1      42.206 131.843  24.624  1.00  0.00    -0.285 OA
BRANCH  14  16
ATOM     16  C   UNL     1      42.851 129.757  23.712  1.00  0.00     0.026 A 
ATOM     17  C   UNL     1      44.153 129.299  23.439  1.00  0.00     0.012 A 
ATOM     18  C   UNL     1      41.883 128.835  24.152  1.00  0.00     0.012 A 
ATOM     19  C   UNL     1      44.472 127.944  23.580  1.00  0.00     0.001 A 
ATOM     20  C   UNL     1      42.206 127.482  24.290  1.00  0.00     0.001 A 
ATOM     21  C   UNL     1      43.498 127.036  24.002  1.00  0.00     0.000 A 
ENDBRANCH  14  16
ENDBRANCH  12  14
ENDBRANCH   1  12
BRANCH   6  22
ATOM     22  C   UNL     1      46.046 130.844  15.209  1.00  0.00     0.020 A 
ATOM     23  C   UNL     1      45.805 131.507  13.973  1.00  0.00     0.014 A 
ATOM     24  C   UNL     1      47.124 129.931  15.304  1.00  0.00     0.022 A 
ATOM     25  C   UNL     1      46.619 131.264  12.852  1.00  0.00     0.027 A 
ATOM     26  C   UNL     1      47.909 129.717  14.173  1.00  0.00     0.000 A 
ATOM     27  C   UNL     1      47.667 130.359  12.991  1.00  0.00     0.045 A 
ATOM     28  C   UNL     1      49.000 128.898  13.982  1.00  0.00     0.028 A 
ATOM     29  N   UNL     1      48.555 129.987  12.055  1.00  0.00    -0.361 N 
ATOM     30  C   UNL     1      49.374 129.094  12.656  1.00  0.00     0.083 A 
ATOM     31  H   UNL     1      48.607 130.318  11.066  1.00  0.00     0.166 HD
ENDBRANCH   6  22
TORSDOF 4
ENDMDL
MODEL 2
REMARK VINA RESULT:      -4.3      7.611     11.286
REMARK SMILES O=C(C(=O)[C@@H]1CCc2nc(-c3ccc4[nH]ccc4c3)ncc2[C@H]1F)c1ccccc1
REMARK SMILES IDX 5 1 6 2 7 3 8 4 9 5 10 6 20 7 21 8 22 9 23 10 24 11 3 12
REMARK SMILES IDX 4 13 2 14 1 15 25 16 26 17 30 18 27 19 29 20 28 21 11 22
REMARK SMILES IDX 12 23 19 24 13 25 18 26 14 27 17 28 15 29 16 30
REMARK H PARENT 15 31
ROOT
ATOM      1  C   UNL     1      48.708 124.704  22.531  1.00  0.00     0.104 C 
ATOM      2  C   UNL     1      47.991 124.455  21.197  1.00  0.00     0.022 C 
ATOM      3  C   UNL     1      46.581 123.911  21.444  1.00  0.00     0.057 C 
ATOM      4  C   UNL     1      45.819 124.720  22.460  1.00  0.00     0.051 A 
ATOM      5  N   UNL     1      44.468 124.583  22.521  1.00  0.00    -0.233 NA
ATOM      6  C   UNL     1      43.721 125.246  23.445  1.00  0.00     0.159 A 
ATOM      7  N   UNL     1      44.340 126.066  24.336  1.00  0.00    -0.236 NA
ATOM      8  C   UNL     1      45.688 126.230  24.328  1.00  0.00     0.122 A 
ATOM      9  C   UNL     1      46.477 125.540  23.401  1.00  0.00     0.027 A 
ATOM     10  C   UNL     1      47.968 125.788  23.340  1.00  0.00     0.211 C 
ATOM     11  F   UNL     1      48.489 125.829  24.624  1.00  0.00    -0.241 F 
ENDROOT
BRANCH   1  12
ATOM     12  C   UNL     1      50.149 125.093  22.286  1.00  0.00     0.209 C 
ATOM     13  O   UNL     1      50.505 126.290  22.463  1.00  0.00    -0.290 OA
BRANCH  12  14
ATOM     14  C   UNL     1      51.125 124.110  21.761  1.00  0.00     0.228 C 
ATOM     15  O   UNL     1      51.777 123.401  22.574  1.00  0.00    -0.285 OA
BRANCH  14  16
ATOM     16  C   UNL     1      51.340 123.913  20.306  1.00  0.00     0.026 A 
ATOM     17  C   UNL     1      51.351 125.004  19.417  1.00  0.00     0.012 A 
ATOM     18  C   UNL     1      51.577 122.621  19.802  1.00  0.00     0.012 A 
ATOM     19  C   UNL     1      51.569 124.802  18.050  1.00  0.00     0.001 A 
ATOM     20  C   UNL     1      51.794 122.424  18.435  1.00  0.00     0.001 A 
ATOM     21  C   UNL     1      51.788 123.512  17.559  1.00  0.00     0.000 A 
ENDBRANCH  14  16
ENDBRANCH  12  14
ENDBRANCH   1  12
BRANCH   6  22
ATOM     22  C   UNL     1      42.248 125.079  23.478  1.00  0.00     0.020 A 
ATOM     23  C   UNL     1      41.641 123.926  22.905  1.00  0.00     0.014 A 
ATOM     24  C   UNL     1      41.429 126.063  24.083  1.00  0.00     0.022 A 
ATOM     25  C   UNL     1      40.245 123.758  22.931  1.00  0.00     0.027 A 
ATOM     26  C   UNL     1      40.051 125.860  24.090  1.00  0.00     0.000 A 
ATOM     27  C   UNL     1      39.479 124.750  23.535  1.00  0.00     0.045 A 
ATOM     28  C   UNL     1      39.034 126.638  24.598  1.00  0.00     0.028 A 
ATOM     29  N   UNL     1      38.143 124.784  23.667  1.00  0.00    -0.361 N 
ATOM     30  C   UNL     1      37.865 125.938  24.318  1.00  0.00     0.083 A 
ATOM     31  H   UNL     1      37.457 124.070  23.338  1.00  0.00     0.166 HD
ENDBRANCH   6  22
TORSDOF 4
ENDMDL
MODEL 3
REMARK VINA RESULT:      -2.2      7.634     10.801
REMARK SMILES O=C(C(=O)[C@@H]1CCc2nc(-c3ccc4[nH]ccc4c3)ncc2[C@H]1F)c1ccccc1
REMARK SMILES IDX 5 1 6 2 7 3 8 4 9 5 10 6 20 7 21 8 22 9 23 10 24 11 3 12
REMARK SMILES IDX 4 13 2 14 1 15 25 16 26 17 30 18 27 19 29 20 28 21 11 22
REMARK SMILES IDX 12 23 19 24 13 25 18 26 14 27 17 28 15 29 16 30
REMARK H PARENT 15 31
ROOT
ATOM      1  C   UNL     1      48.644 123.918  23.081  1.00  0.00     0.104 C 
ATOM      2  C   UNL     1      47.535 122.920  22.718  1.00  0.00     0.022 C 
ATOM      3  C   UNL     1      46.217 123.324  23.384  1.00  0.00     0.057 C 
ATOM      4  C   UNL     1      45.886 124.779  23.177  1.00  0.00     0.051 A 
ATOM      5  N   UNL     1      44.611 125.194  23.394  1.00  0.00    -0.233 NA
ATOM      6  C   UNL     1      44.252 126.501  23.273  1.00  0.00     0.159 A 
ATOM      7  N   UNL     1      45.194 127.420  22.930  1.00  0.00    -0.236 NA
ATOM      8  C   UNL     1      46.485 127.062  22.715  1.00  0.00     0.122 A 
ATOM      9  C   UNL     1      46.880 125.727  22.855  1.00  0.00     0.027 A 
ATOM     10  C   UNL     1      48.300 125.318  22.533  1.00  0.00     0.211 C 
ATOM     11  F   UNL     1      49.187 126.241  23.066  1.00  0.00    -0.241 F 
ENDROOT
BRANCH   1  12
ATOM     12  C   UNL     1      49.976 123.435  22.550  1.00  0.00     0.209 C 
ATOM     13  O   UNL     1      50.009 122.767  21.480  1.00  0.00    -0.290 OA
BRANCH  12  14
ATOM     14  C   UNL     1      51.226 123.661  23.310  1.00  0.00     0.228 C 
ATOM     15  O   UNL     1      51.763 122.690  23.909  1.00  0.00    -0.285 OA
BRANCH  14  16
ATOM     16  C   UNL     1      51.884 124.990  23.366  1.00  0.00     0.026 A 
ATOM     17  C   UNL     1      52.051 125.669  24.588  1.00  0.00     0.012 A 
ATOM     18  C   UNL     1      52.389 125.572  22.190  1.00  0.00     0.012 A 
ATOM     19  C   UNL     1      52.686 126.914  24.625  1.00  0.00     0.001 A 
ATOM     20  C   UNL     1      53.023 126.817  22.231  1.00  0.00     0.001 A 
ATOM     21  C   UNL     1      53.170 127.489  23.447  1.00  0.00     0.000 A 
ENDBRANCH  14  16
ENDBRANCH  12  14
ENDBRANCH   1  12
BRANCH   6  22
ATOM     22  C   UNL     1      42.849 126.918  23.511  1.00  0.00     0.020 A 
ATOM     23  C   UNL     1      42.557 128.004  24.383  1.00  0.00     0.014 A 
ATOM     24  C   UNL     1      41.783 126.241  22.870  1.00  0.00     0.022 A 
ATOM     25  C   UNL     1      41.230 128.407  24.615  1.00  0.00     0.027 A 
ATOM     26  C   UNL     1      40.482 126.669  23.123  1.00  0.00     0.000 A 
ATOM     27  C   UNL     1      40.214 127.713  23.964  1.00  0.00     0.045 A 
ATOM     28  C   UNL     1      39.277 126.203  22.647  1.00  0.00     0.028 A 
ATOM     29  N   UNL     1      38.892 127.934  24.046  1.00  0.00    -0.361 N 
ATOM     30  C   UNL     1      38.313 127.013  23.241  1.00  0.00     0.083 A 
ATOM     31  H   UNL     1      38.407 128.665  24.611  1.00  0.00     0.166 HD
ENDBRANCH   6  22
TORSDOF 4
ENDMDL
MODEL 4
REMARK VINA RESULT:      -2.0      0.797      1.188
REMARK SMILES O=C(C(=O)[C@@H]1CCc2nc(-c3ccc4[nH]ccc4c3)ncc2[C@H]1F)c1ccccc1
REMARK SMILES IDX 5 1 6 2 7 3 8 4 9 5 10 6 20 7 21 8 22 9 23 10 24 11 3 12
REMARK SMILES IDX 4 13 2 14 1 15 25 16 26 17 30 18 27 19 29 20 28 21 11 22
REMARK SMILES IDX 12 23 19 24 13 25 18 26 14 27 17 28 15 29 16 30
REMARK H PARENT 15 31
ROOT
ATOM      1  C   UNL     1      43.666 130.907  20.972  1.00  0.00     0.104 C 
ATOM      2  C   UNL     1      45.150 130.544  21.119  1.00  0.00     0.022 C 
ATOM      3  C   UNL     1      45.673 129.908  19.828  1.00  0.00     0.057 C 
ATOM      4  C   UNL     1      45.309 130.703  18.603  1.00  0.00     0.051 A 
ATOM      5  N   UNL     1      45.987 130.468  17.449  1.00  0.00    -0.233 NA
ATOM      6  C   UNL     1      45.679 131.115  16.292  1.00  0.00     0.159 A 
ATOM      7  N   UNL     1      44.664 132.020  16.286  1.00  0.00    -0.236 NA
ATOM      8  C   UNL     1      43.945 132.283  17.407  1.00  0.00     0.122 A 
ATOM      9  C   UNL     1      44.231 131.613  18.602  1.00  0.00     0.027 A 
ATOM     10  C   UNL     1      43.484 131.969  19.868  1.00  0.00     0.211 C 
ATOM     11  F   UNL     1      42.133 132.108  19.593  1.00  0.00    -0.241 F 
ENDROOT
BRANCH   1  12
ATOM     12  C   UNL     1      43.113 131.392  22.294  1.00  0.00     0.209 C 
ATOM     13  O   UNL     1      42.330 132.381  22.311  1.00  0.00    -0.290 OA
BRANCH  12  14
ATOM     14  C   UNL     1      43.541 130.777  23.571  1.00  0.00     0.228 C 
ATOM     15  O   UNL     1      44.237 131.455  24.374  1.00  0.00    -0.285 OA
BRANCH  14  16
ATOM     16  C   UNL     1      43.153 129.396  23.949  1.00  0.00     0.026 A 
ATOM     17  C   UNL     1      41.823 129.079  24.284  1.00  0.00     0.012 A 
ATOM     18  C   UNL     1      44.115 128.369  23.936  1.00  0.00     0.012 A 
ATOM     19  C   UNL     1      41.472 127.768  24.624  1.00  0.00     0.001 A 
ATOM     20  C   UNL     1      43.759 127.061  24.277  1.00  0.00     0.001 A 
ATOM     21  C   UNL     1      42.440 126.760  24.623  1.00  0.00     0.000 A 
ENDBRANCH  14  16
ENDBRANCH  12  14
ENDBRANCH   1  12
BRANCH   6  22
ATOM     22  C   UNL     1      46.445 130.839  15.053  1.00  0.00     0.020 A 
ATOM     23  C   UNL     1      46.041 131.410  13.813  1.00  0.00     0.014 A 
ATOM     24  C   UNL     1      47.589 130.004  15.089  1.00  0.00     0.022 A 
ATOM     25  C   UNL     1      46.760 131.154  12.632  1.00  0.00     0.027 A 
ATOM     26  C   UNL     1      48.276 129.775  13.899  1.00  0.00     0.000 A 
ATOM     27  C   UNL     1      47.877 130.329  12.714  1.00  0.00     0.045 A 
ATOM     28  C   UNL     1      49.399 129.019  13.645  1.00  0.00     0.028 A 
ATOM     29  N   UNL     1      48.696 129.960  11.716  1.00  0.00    -0.361 N 
ATOM     30  C   UNL     1      49.630 129.159  12.280  1.00  0.00     0.083 A 
ATOM     31  H   UNL     1      48.631 130.234  10.710  1.00  0.00     0.166 HD
ENDBRANCH   6  22
TORSDOF 4
ENDMDL


