MODEL 1
REMARK VINA RESULT:      -8.4      0.000      0.000
REMARK SMILES CN/C=C(\O)N1CCC[C@H](Cc2cc3ccccc3[nH]2)C1
REMARK SMILES IDX 6 1 7 2 8 3 9 4 10 5 21 6 4 7 5 8 3 10 2 11 1 13 11 14 12 15
REMARK SMILES IDX 13 16 20 17 14 18 19 19 15 20 18 21 16 22 17 23
REMARK H PARENT 5 9 2 12 20 24
ROOT
ATOM      1  N   UNL     1      43.603 131.748  20.846  1.00  0.00    -0.342 N 
ATOM      2  C   UNL     1      44.824 130.981  21.146  1.00  0.00     0.119 C 
ATOM      3  C   UNL     1      45.931 131.316  20.144  1.00  0.00     0.022 C 
ATOM      4  C   UNL     1      45.497 131.081  18.685  1.00  0.00     0.007 C 
ATOM      5  C   UNL     1      43.964 131.173  18.465  1.00  0.00     0.014 C 
ATOM      6  C   UNL     1      43.316 132.152  19.461  1.00  0.00     0.123 C 
ENDROOT
BRANCH   1   7
ATOM      7  C   UNL     1      42.686 132.125  21.898  1.00  0.00     0.203 C 
BRANCH   7   8
ATOM      8  O   UNL     1      41.475 132.741  21.576  1.00  0.00    -0.494 OA
ATOM      9  H   UNL     1      41.167 132.849  20.619  1.00  0.00     0.295 HD
ENDBRANCH   7   8
BRANCH   7  10
ATOM     10  C   UNL     1      42.977 131.880  23.184  1.00  0.00     0.144 C 
BRANCH  10  11
ATOM     11  N   UNL     1      42.371 130.794  23.898  1.00  0.00    -0.390 N 
ATOM     12  H   UNL     1      41.493 130.934  24.448  1.00  0.00     0.159 HD
ATOM     13  C   UNL     1      42.974 129.469  23.874  1.00  0.00     0.139 C 
ENDBRANCH  10  11
ENDBRANCH   7  10
ENDBRANCH   1   7
BRANCH   5  14
ATOM     14  C   UNL     1      43.615 131.566  17.016  1.00  0.00     0.059 C 
BRANCH  14  15
ATOM     15  C   UNL     1      44.693 131.152  16.059  1.00  0.00     0.016 A 
ATOM     16  C   UNL     1      45.239 131.961  15.064  1.00  0.00     0.031 A 
ATOM     17  N   UNL     1      45.315 129.949  16.105  1.00  0.00    -0.358 N 
ATOM     18  C   UNL     1      46.227 131.194  14.488  1.00  0.00    -0.000 A 
ATOM     19  C   UNL     1      46.247 129.988  15.139  1.00  0.00     0.046 A 
ATOM     20  C   UNL     1      47.110 131.483  13.450  1.00  0.00     0.010 A 
ATOM     21  C   UNL     1      47.153 128.984  14.796  1.00  0.00     0.026 A 
ATOM     22  C   UNL     1      48.034 130.489  13.079  1.00  0.00     0.001 A 
ATOM     23  C   UNL     1      48.055 129.245  13.749  1.00  0.00     0.002 A 
ATOM     24  H   UNL     1      45.120 129.163  16.765  1.00  0.00     0.166 HD
ENDBRANCH  14  15
ENDBRANCH   5  14
TORSDOF 6
ENDMDL
MODEL 2
REMARK VINA RESULT:      -8.0      0.659      1.311
REMARK SMILES CN/C=C(\O)N1CCC[C@H](Cc2cc3ccccc3[nH]2)C1
REMARK SMILES IDX 6 1 7 2 8 3 9 4 10 5 21 6 4 7 5 8 3 10 2 11 1 13 11 14 12 15
REMARK SMILES IDX 13 16 20 17 14 18 19 19 15 20 18 21 16 22 17 23
REMARK H PARENT 5 9 2 12 20 24
ROOT
ATOM      1  N   UNL     1      43.451 131.816  20.848  1.00  0.00    -0.342 N 
ATOM      2  C   UNL     1      44.683 131.109  21.234  1.00  0.00     0.119 C 
ATOM      3  C   UNL     1      45.837 131.490  20.304  1.00  0.00     0.022 C 
ATOM      4  C   UNL     1      45.511 131.229  18.821  1.00  0.00     0.007 C 
ATOM      5  C   UNL     1      43.993 131.248  18.500  1.00  0.00     0.014 C 
ATOM      6  C   UNL     1      43.237 132.200  19.445  1.00  0.00     0.123 C 
ENDROOT
BRANCH   1   7
ATOM      7  C   UNL     1      42.450 132.154  21.835  1.00  0.00     0.203 C 
BRANCH   7   8
ATOM      8  O   UNL     1      41.314 132.871  21.455  1.00  0.00    -0.494 OA
ATOM      9  H   UNL     1      40.886 132.754  20.546  1.00  0.00     0.295 HD
ENDBRANCH   7   8
BRANCH   7  10
ATOM     10  C   UNL     1      42.590 131.776  23.114  1.00  0.00     0.144 C 
BRANCH  10  11
ATOM     11  N   UNL     1      43.298 130.583  23.473  1.00  0.00    -0.390 N 
ATOM     12  H   UNL     1      44.333 130.510  23.344  1.00  0.00     0.159 HD
ATOM     13  C   UNL     1      42.584 129.441  24.026  1.00  0.00     0.139 C 
ENDBRANCH  10  11
ENDBRANCH   7  10
ENDBRANCH   1   7
BRANCH   5  14
ATOM     14  C   UNL     1      43.723 131.618  17.029  1.00  0.00     0.059 C 
BRANCH  14  15
ATOM     15  C   UNL     1      44.862 131.211  16.141  1.00  0.00     0.016 A 
ATOM     16  C   UNL     1      45.408 129.931  16.072  1.00  0.00     0.031 A 
ATOM     17  N   UNL     1      45.444 132.039  15.242  1.00  0.00    -0.358 N 
ATOM     18  C   UNL     1      46.369 130.010  15.089  1.00  0.00    -0.000 A 
ATOM     19  C   UNL     1      46.364 131.294  14.609  1.00  0.00     0.046 A 
ATOM     20  C   UNL     1      47.230 129.039  14.582  1.00  0.00     0.010 A 
ATOM     21  C   UNL     1      47.223 131.697  13.586  1.00  0.00     0.026 A 
ATOM     22  C   UNL     1      48.111 129.417  13.552  1.00  0.00     0.001 A 
ATOM     23  C   UNL     1      48.108 130.740  13.056  1.00  0.00     0.002 A 
ATOM     24  H   UNL     1      45.215 133.043  15.068  1.00  0.00     0.166 HD
ENDBRANCH  14  15
ENDBRANCH   5  14
TORSDOF 6
ENDMDL
MODEL 3
REMARK VINA RESULT:      -7.5      1.306      1.818
REMARK SMILES CN/C=C(\O)N1CCC[C@H](Cc2cc3ccccc3[nH]2)C1
REMARK SMILES IDX 6 1 7 2 8 3 9 4 10 5 21 6 4 7 5 8 3 10 2 11 1 13 11 14 12 15
REMARK SMILES IDX 13 16 20 17 14 18 19 19 15 20 18 21 16 22 17 23
REMARK H PARENT 5 9 2 12 20 24
ROOT
ATOM      1  N   UNL     1      43.805 131.288  21.732  1.00  0.00    -0.342 N 
ATOM      2  C   UNL     1      45.250 131.337  22.007  1.00  0.00     0.119 C 
ATOM      3  C   UNL     1      45.939 132.354  21.094  1.00  0.00     0.022 C 
ATOM      4  C   UNL     1      45.687 132.072  19.601  1.00  0.00     0.007 C 
ATOM      5  C   UNL     1      44.378 131.287  19.323  1.00  0.00     0.014 C 
ATOM      6  C   UNL     1      43.306 131.600  20.384  1.00  0.00     0.123 C 
ENDROOT
BRANCH   1   7
ATOM      7  C   UNL     1      42.862 130.952  22.775  1.00  0.00     0.203 C 
BRANCH   7   8
ATOM      8  O   UNL     1      42.520 131.905  23.736  1.00  0.00    -0.494 OA
ATOM      9  H   UNL     1      42.542 132.897  23.538  1.00  0.00     0.295 HD
ENDBRANCH   7   8
BRANCH   7  10
ATOM     10  C   UNL     1      42.298 129.737  22.826  1.00  0.00     0.144 C 
BRANCH  10  11
ATOM     11  N   UNL     1      42.934 128.639  23.494  1.00  0.00    -0.390 N 
ATOM     12  H   UNL     1      43.973 128.605  23.607  1.00  0.00     0.159 HD
ATOM     13  C   UNL     1      42.140 127.543  24.029  1.00  0.00     0.139 C 
ENDBRANCH  10  11
ENDBRANCH   7  10
ENDBRANCH   1   7
BRANCH   5  14
ATOM     14  C   UNL     1      43.834 131.562  17.907  1.00  0.00     0.059 C 
BRANCH  14  15
ATOM     15  C   UNL     1      44.845 131.217  16.854  1.00  0.00     0.016 A 
ATOM     16  C   UNL     1      45.349 129.940  16.613  1.00  0.00     0.031 A 
ATOM     17  N   UNL     1      45.329 132.111  15.960  1.00  0.00    -0.358 N 
ATOM     18  C   UNL     1      46.182 130.090  15.526  1.00  0.00    -0.000 A 
ATOM     19  C   UNL     1      46.147 131.410  15.157  1.00  0.00     0.046 A 
ATOM     20  C   UNL     1      46.952 129.154  14.838  1.00  0.00     0.010 A 
ATOM     21  C   UNL     1      46.882 131.887  14.071  1.00  0.00     0.026 A 
ATOM     22  C   UNL     1      47.706 129.607  13.740  1.00  0.00     0.001 A 
ATOM     23  C   UNL     1      47.671 130.967  13.358  1.00  0.00     0.002 A 
ATOM     24  H   UNL     1      45.103 133.128  15.898  1.00  0.00     0.166 HD
ENDBRANCH  14  15
ENDBRANCH   5  14
TORSDOF 6
ENDMDL
MODEL 4
REMARK VINA RESULT:      -7.3      0.995      1.758
REMARK SMILES CN/C=C(\O)N1CCC[C@H](Cc2cc3ccccc3[nH]2)C1
REMARK SMILES IDX 6 1 7 2 8 3 9 4 10 5 21 6 4 7 5 8 3 10 2 11 1 13 11 14 12 15
REMARK SMILES IDX 13 16 20 17 14 18 19 19 15 20 18 21 16 22 17 23
REMARK H PARENT 5 9 2 12 20 24
ROOT
ATOM      1  N   UNL     1      43.149 131.943  20.957  1.00  0.00    -0.342 N 
ATOM      2  C   UNL     1      42.503 132.826  19.972  1.00  0.00     0.119 C 
ATOM      3  C   UNL     1      42.336 132.107  18.631  1.00  0.00     0.022 C 
ATOM      4  C   UNL     1      43.670 131.572  18.078  1.00  0.00     0.007 C 
ATOM      5  C   UNL     1      44.737 131.297  19.170  1.00  0.00     0.014 C 
ATOM      6  C   UNL     1      44.078 130.897  20.504  1.00  0.00     0.123 C 
ENDROOT
BRANCH   1   7
ATOM      7  C   UNL     1      42.871 132.079  22.369  1.00  0.00     0.203 C 
BRANCH   7   8
ATOM      8  O   UNL     1      41.592 132.445  22.793  1.00  0.00    -0.494 OA
ATOM      9  H   UNL     1      41.446 133.133  23.521  1.00  0.00     0.295 HD
ENDBRANCH   7   8
BRANCH   7  10
ATOM     10  C   UNL     1      43.824 131.844  23.283  1.00  0.00     0.144 C 
BRANCH  10  11
ATOM     11  N   UNL     1      43.627 130.909  24.352  1.00  0.00    -0.390 N 
ATOM     12  H   UNL     1      43.748 131.198  25.349  1.00  0.00     0.159 HD
ATOM     13  C   UNL     1      43.257 129.531  24.066  1.00  0.00     0.139 C 
ENDBRANCH  10  11
ENDBRANCH   7  10
ENDBRANCH   1   7
BRANCH   5  14
ATOM     14  C   UNL     1      45.751 130.226  18.725  1.00  0.00     0.059 C 
BRANCH  14  15
ATOM     15  C   UNL     1      46.079 130.352  17.267  1.00  0.00     0.016 A 
ATOM     16  C   UNL     1      45.574 131.329  16.411  1.00  0.00     0.031 A 
ATOM     17  N   UNL     1      46.974 129.560  16.629  1.00  0.00    -0.358 N 
ATOM     18  C   UNL     1      46.195 131.097  15.204  1.00  0.00    -0.000 A 
ATOM     19  C   UNL     1      47.033 130.024  15.370  1.00  0.00     0.046 A 
ATOM     20  C   UNL     1      46.087 131.763  13.985  1.00  0.00     0.010 A 
ATOM     21  C   UNL     1      47.822 129.542  14.326  1.00  0.00     0.026 A 
ATOM     22  C   UNL     1      46.868 131.297  12.912  1.00  0.00     0.001 A 
ATOM     23  C   UNL     1      47.732 130.192  13.081  1.00  0.00     0.002 A 
ATOM     24  H   UNL     1      47.516 128.765  17.035  1.00  0.00     0.166 HD
ENDBRANCH  14  15
ENDBRANCH   5  14
TORSDOF 6
ENDMDL
MODEL 5
REMARK VINA RESULT:      -6.7      1.873      2.616
REMARK SMILES CN/C=C(\O)N1CCC[C@H](Cc2cc3ccccc3[nH]2)C1
REMARK SMILES IDX 6 1 7 2 8 3 9 4 10 5 21 6 4 7 5 8 3 10 2 11 1 13 11 14 12 15
REMARK SMILES IDX 13 16 20 17 14 18 19 19 15 20 18 21 16 22 17 23
REMARK H PARENT 5 9 2 12 20 24
ROOT
ATOM      1  N   UNL     1      44.200 131.341  19.927  1.00  0.00    -0.342 N 
ATOM      2  C   UNL     1      43.384 132.421  20.505  1.00  0.00     0.119 C 
ATOM      3  C   UNL     1      41.988 132.437  19.878  1.00  0.00     0.022 C 
ATOM      4  C   UNL     1      42.032 132.561  18.343  1.00  0.00     0.007 C 
ATOM      5  C   UNL     1      43.346 132.035  17.709  1.00  0.00     0.014 C 
ATOM      6  C   UNL     1      43.952 130.894  18.548  1.00  0.00     0.123 C 
ENDROOT
BRANCH   1   7
ATOM      7  C   UNL     1      45.237 130.698  20.702  1.00  0.00     0.203 C 
BRANCH   7   8
ATOM      8  O   UNL     1      46.519 130.556  20.167  1.00  0.00    -0.494 OA
ATOM      9  H   UNL     1      47.189 131.313  20.175  1.00  0.00     0.295 HD
ENDBRANCH   7   8
BRANCH   7  10
ATOM     10  C   UNL     1      44.989 130.246  21.940  1.00  0.00     0.144 C 
BRANCH  10  11
ATOM     11  N   UNL     1      44.923 128.843  22.229  1.00  0.00    -0.390 N 
ATOM     12  H   UNL     1      45.386 128.142  21.608  1.00  0.00     0.159 HD
ATOM     13  C   UNL     1      44.202 128.366  23.401  1.00  0.00     0.139 C 
ENDBRANCH  10  11
ENDBRANCH   7  10
ENDBRANCH   1   7
BRANCH   5  14
ATOM     14  C   UNL     1      43.138 131.583  16.250  1.00  0.00     0.059 C 
BRANCH  14  15
ATOM     15  C   UNL     1      44.430 131.160  15.616  1.00  0.00     0.016 A 
ATOM     16  C   UNL     1      45.006 129.896  15.733  1.00  0.00     0.031 A 
ATOM     17  N   UNL     1      45.152 131.951  14.787  1.00  0.00    -0.358 N 
ATOM     18  C   UNL     1      46.131 129.947  14.939  1.00  0.00    -0.000 A 
ATOM     19  C   UNL     1      46.189 131.199  14.384  1.00  0.00     0.046 A 
ATOM     20  C   UNL     1      47.091 128.975  14.664  1.00  0.00     0.010 A 
ATOM     21  C   UNL     1      47.214 131.568  13.512  1.00  0.00     0.026 A 
ATOM     22  C   UNL     1      48.139 129.319  13.791  1.00  0.00     0.001 A 
ATOM     23  C   UNL     1      48.201 130.609  13.218  1.00  0.00     0.002 A 
ATOM     24  H   UNL     1      44.938 132.935  14.508  1.00  0.00     0.166 HD
ENDBRANCH  14  15
ENDBRANCH   5  14
TORSDOF 6
ENDMDL
MODEL 6
REMARK VINA RESULT:      -6.7      2.461      4.054
REMARK SMILES CN/C=C(\O)N1CCC[C@H](Cc2cc3ccccc3[nH]2)C1
REMARK SMILES IDX 6 1 7 2 8 3 9 4 10 5 21 6 4 7 5 8 3 10 2 11 1 13 11 14 12 15
REMARK SMILES IDX 13 16 20 17 14 18 19 19 15 20 18 21 16 22 17 23
REMARK H PARENT 5 9 2 12 20 24
ROOT
ATOM      1  N   UNL     1      43.904 129.648  22.914  1.00  0.00    -0.342 N 
ATOM      2  C   UNL     1      44.163 130.574  24.029  1.00  0.00     0.119 C 
ATOM      3  C   UNL     1      43.054 131.625  24.126  1.00  0.00     0.022 C 
ATOM      4  C   UNL     1      42.865 132.407  22.812  1.00  0.00     0.007 C 
ATOM      5  C   UNL     1      43.324 131.631  21.549  1.00  0.00     0.014 C 
ATOM      6  C   UNL     1      43.153 130.112  21.737  1.00  0.00     0.123 C 
ENDROOT
BRANCH   1   7
ATOM      7  C   UNL     1      44.364 128.279  22.965  1.00  0.00     0.203 C 
BRANCH   7   8
ATOM      8  O   UNL     1      45.408 127.865  22.135  1.00  0.00    -0.494 OA
ATOM      9  H   UNL     1      45.244 127.542  21.190  1.00  0.00     0.295 HD
ENDBRANCH   7   8
BRANCH   7  10
ATOM     10  C   UNL     1      43.809 127.399  23.810  1.00  0.00     0.144 C 
BRANCH  10  11
ATOM     11  N   UNL     1      44.061 125.991  23.704  1.00  0.00    -0.390 N 
ATOM     12  H   UNL     1      44.802 125.531  24.280  1.00  0.00     0.159 HD
ATOM     13  C   UNL     1      43.286 125.172  22.784  1.00  0.00     0.139 C 
ENDBRANCH  10  11
ENDBRANCH   7  10
ENDBRANCH   1   7
BRANCH   5  14
ATOM     14  C   UNL     1      42.582 132.107  20.284  1.00  0.00     0.059 C 
BRANCH  14  15
ATOM     15  C   UNL     1      43.380 131.833  19.044  1.00  0.00     0.016 A 
ATOM     16  C   UNL     1      44.668 131.301  19.019  1.00  0.00     0.031 A 
ATOM     17  N   UNL     1      42.899 132.007  17.790  1.00  0.00    -0.358 N 
ATOM     18  C   UNL     1      44.966 131.163  17.681  1.00  0.00    -0.000 A 
ATOM     19  C   UNL     1      43.879 131.597  16.968  1.00  0.00     0.046 A 
ATOM     20  C   UNL     1      46.111 130.676  17.053  1.00  0.00     0.010 A 
ATOM     21  C   UNL     1      43.860 131.575  15.573  1.00  0.00     0.026 A 
ATOM     22  C   UNL     1      46.123 130.645  15.646  1.00  0.00     0.001 A 
ATOM     23  C   UNL     1      45.003 131.091  14.910  1.00  0.00     0.002 A 
ATOM     24  H   UNL     1      41.958 132.370  17.520  1.00  0.00     0.166 HD
ENDBRANCH  14  15
ENDBRANCH   5  14
TORSDOF 6
ENDMDL
MODEL 7
REMARK VINA RESULT:      -6.6      2.336      8.196
REMARK SMILES CN/C=C(\O)N1CCC[C@H](Cc2cc3ccccc3[nH]2)C1
REMARK SMILES IDX 6 1 7 2 8 3 9 4 10 5 21 6 4 7 5 8 3 10 2 11 1 13 11 14 12 15
REMARK SMILES IDX 13 16 20 17 14 18 19 19 15 20 18 21 16 22 17 23
REMARK H PARENT 5 9 2 12 20 24
ROOT
ATOM      1  N   UNL     1      45.504 130.608  16.317  1.00  0.00    -0.342 N 
ATOM      2  C   UNL     1      44.119 130.545  15.822  1.00  0.00     0.119 C 
ATOM      3  C   UNL     1      43.317 131.754  16.308  1.00  0.00     0.022 C 
ATOM      4  C   UNL     1      43.331 131.894  17.842  1.00  0.00     0.007 C 
ATOM      5  C   UNL     1      44.568 131.247  18.519  1.00  0.00     0.014 C 
ATOM      6  C   UNL     1      45.796 131.287  17.589  1.00  0.00     0.123 C 
ENDROOT
BRANCH   1   7
ATOM      7  C   UNL     1      46.590 130.025  15.562  1.00  0.00     0.203 C 
BRANCH   7   8
ATOM      8  O   UNL     1      47.654 129.416  16.231  1.00  0.00    -0.494 OA
ATOM      9  H   UNL     1      48.398 128.944  15.735  1.00  0.00     0.295 HD
ENDBRANCH   7   8
BRANCH   7  10
ATOM     10  C   UNL     1      46.584 130.047  14.221  1.00  0.00     0.144 C 
BRANCH  10  11
ATOM     11  N   UNL     1      47.798 130.149  13.465  1.00  0.00    -0.390 N 
ATOM     12  H   UNL     1      48.598 129.499  13.640  1.00  0.00     0.159 HD
ATOM     13  C   UNL     1      47.941 131.168  12.436  1.00  0.00     0.139 C 
ENDBRANCH  10  11
ENDBRANCH   7  10
ENDBRANCH   1   7
BRANCH   5  14
ATOM     14  C   UNL     1      44.893 131.909  19.872  1.00  0.00     0.059 C 
BRANCH  14  15
ATOM     15  C   UNL     1      44.405 131.079  21.022  1.00  0.00     0.016 A 
ATOM     16  C   UNL     1      45.066 129.972  21.550  1.00  0.00     0.031 A 
ATOM     17  N   UNL     1      43.286 131.363  21.730  1.00  0.00    -0.358 N 
ATOM     18  C   UNL     1      44.293 129.576  22.620  1.00  0.00    -0.000 A 
ATOM     19  C   UNL     1      43.229 130.436  22.700  1.00  0.00     0.046 A 
ATOM     20  C   UNL     1      44.465 128.532  23.526  1.00  0.00     0.010 A 
ATOM     21  C   UNL     1      42.259 130.311  23.695  1.00  0.00     0.026 A 
ATOM     22  C   UNL     1      43.501 128.378  24.539  1.00  0.00     0.001 A 
ATOM     23  C   UNL     1      42.403 129.263  24.623  1.00  0.00     0.002 A 
ATOM     24  H   UNL     1      42.617 132.148  21.565  1.00  0.00     0.166 HD
ENDBRANCH  14  15
ENDBRANCH   5  14
TORSDOF 6
ENDMDL
MODEL 8
REMARK VINA RESULT:      -6.5      1.846      2.400
REMARK SMILES CN/C=C(\O)N1CCC[C@H](Cc2cc3ccccc3[nH]2)C1
REMARK SMILES IDX 6 1 7 2 8 3 9 4 10 5 21 6 4 7 5 8 3 10 2 11 1 13 11 14 12 15
REMARK SMILES IDX 13 16 20 17 14 18 19 19 15 20 18 21 16 22 17 23
REMARK H PARENT 5 9 2 12 20 24
ROOT
ATOM      1  N   UNL     1      44.659 131.276  19.890  1.00  0.00    -0.342 N 
ATOM      2  C   UNL     1      43.821 132.244  20.617  1.00  0.00     0.119 C 
ATOM      3  C   UNL     1      42.365 132.151  20.156  1.00  0.00     0.022 C 
ATOM      4  C   UNL     1      42.214 132.347  18.635  1.00  0.00     0.007 C 
ATOM      5  C   UNL     1      43.487 131.982  17.827  1.00  0.00     0.014 C 
ATOM      6  C   UNL     1      44.290 130.869  18.526  1.00  0.00     0.123 C 
ENDROOT
BRANCH   1   7
ATOM      7  C   UNL     1      45.835 130.704  20.505  1.00  0.00     0.203 C 
BRANCH   7   8
ATOM      8  O   UNL     1      47.048 131.396  20.464  1.00  0.00    -0.494 OA
ATOM      9  H   UNL     1      47.582 131.489  19.610  1.00  0.00     0.295 HD
ENDBRANCH   7   8
BRANCH   7  10
ATOM     10  C   UNL     1      45.777 129.519  21.130  1.00  0.00     0.144 C 
BRANCH  10  11
ATOM     11  N   UNL     1      44.904 129.298  22.246  1.00  0.00    -0.390 N 
ATOM     12  H   UNL     1      44.312 130.070  22.628  1.00  0.00     0.159 HD
ATOM     13  C   UNL     1      44.829 127.987  22.873  1.00  0.00     0.139 C 
ENDBRANCH  10  11
ENDBRANCH   7  10
ENDBRANCH   1   7
BRANCH   5  14
ATOM     14  C   UNL     1      43.149 131.576  16.378  1.00  0.00     0.059 C 
BRANCH  14  15
ATOM     15  C   UNL     1      44.377 131.165  15.622  1.00  0.00     0.016 A 
ATOM     16  C   UNL     1      45.155 132.010  14.833  1.00  0.00     0.031 A 
ATOM     17  N   UNL     1      44.913 129.923  15.682  1.00  0.00    -0.358 N 
ATOM     18  C   UNL     1      46.199 131.224  14.398  1.00  0.00    -0.000 A 
ATOM     19  C   UNL     1      46.023 129.972  14.928  1.00  0.00     0.046 A 
ATOM     20  C   UNL     1      47.290 131.533  13.587  1.00  0.00     0.010 A 
ATOM     21  C   UNL     1      46.928 128.939  14.683  1.00  0.00     0.026 A 
ATOM     22  C   UNL     1      48.217 130.509  13.319  1.00  0.00     0.001 A 
ATOM     23  C   UNL     1      48.037 129.218  13.864  1.00  0.00     0.002 A 
ATOM     24  H   UNL     1      44.547 129.102  16.215  1.00  0.00     0.166 HD
ENDBRANCH  14  15
ENDBRANCH   5  14
TORSDOF 6
ENDMDL
MODEL 9
REMARK VINA RESULT:      -6.5      2.405      4.000
REMARK SMILES CN/C=C(\O)N1CCC[C@H](Cc2cc3ccccc3[nH]2)C1
REMARK SMILES IDX 6 1 7 2 8 3 9 4 10 5 21 6 4 7 5 8 3 10 2 11 1 13 11 14 12 15
REMARK SMILES IDX 13 16 20 17 14 18 19 19 15 20 18 21 16 22 17 23
REMARK H PARENT 5 9 2 12 20 24
ROOT
ATOM      1  N   UNL     1      42.951 129.413  23.477  1.00  0.00    -0.342 N 
ATOM      2  C   UNL     1      44.140 129.817  24.245  1.00  0.00     0.119 C 
ATOM      3  C   UNL     1      44.233 131.342  24.334  1.00  0.00     0.022 C 
ATOM      4  C   UNL     1      44.236 132.015  22.948  1.00  0.00     0.007 C 
ATOM      5  C   UNL     1      43.548 131.174  21.841  1.00  0.00     0.014 C 
ATOM      6  C   UNL     1      42.425 130.297  22.425  1.00  0.00     0.123 C 
ENDROOT
BRANCH   1   7
ATOM      7  C   UNL     1      42.278 128.164  23.752  1.00  0.00     0.203 C 
BRANCH   7   8
ATOM      8  O   UNL     1      43.027 127.008  23.982  1.00  0.00    -0.494 OA
ATOM      9  H   UNL     1      43.414 126.793  24.891  1.00  0.00     0.295 HD
ENDBRANCH   7   8
BRANCH   7  10
ATOM     10  C   UNL     1      40.940 128.100  23.803  1.00  0.00     0.144 C 
BRANCH  10  11
ATOM     11  N   UNL     1      40.252 126.854  23.970  1.00  0.00    -0.390 N 
ATOM     12  H   UNL     1      40.777 125.966  24.141  1.00  0.00     0.159 HD
ATOM     13  C   UNL     1      38.798 126.800  23.904  1.00  0.00     0.139 C 
ENDBRANCH  10  11
ENDBRANCH   7  10
ENDBRANCH   1   7
BRANCH   5  14
ATOM     14  C   UNL     1      43.007 132.059  20.701  1.00  0.00     0.059 C 
BRANCH  14  15
ATOM     15  C   UNL     1      43.621 131.694  19.382  1.00  0.00     0.016 A 
ATOM     16  C   UNL     1      43.087 132.008  18.134  1.00  0.00     0.031 A 
ATOM     17  N   UNL     1      44.818 131.073  19.259  1.00  0.00    -0.358 N 
ATOM     18  C   UNL     1      44.012 131.540  17.227  1.00  0.00    -0.000 A 
ATOM     19  C   UNL     1      45.043 130.982  17.938  1.00  0.00     0.046 A 
ATOM     20  C   UNL     1      44.017 131.580  15.834  1.00  0.00     0.010 A 
ATOM     21  C   UNL     1      46.153 130.424  17.304  1.00  0.00     0.026 A 
ATOM     22  C   UNL     1      45.122 131.021  15.166  1.00  0.00     0.001 A 
ATOM     23  C   UNL     1      46.185 130.446  15.898  1.00  0.00     0.002 A 
ATOM     24  H   UNL     1      45.442 130.746  20.030  1.00  0.00     0.166 HD
ENDBRANCH  14  15
ENDBRANCH   5  14
TORSDOF 6
ENDMDL


