REMARK SMILES C=C[C@H](OCC)/C(O)=N/c1cc(F)c[n-]/c1=N\c1c[nH]c2nccc-2c1
REMARK SMILES IDX 7 1 8 2 9 4 10 5 11 6 16 7 12 8 15 9 14 10 13 11 17 12 18 13
REMARK SMILES IDX 26 14 19 15 25 16 20 17 24 18 21 19 23 20 22 21 3 23 4 24
REMARK SMILES IDX 5 25 6 26 2 27 1 28
REMARK H PARENT 8 3 20 22
ROOT
ATOM      1  C   UNL     1      -0.253  -1.610  -2.066  1.00  0.00     0.220 C 
ENDROOT
BRANCH   1   2
ATOM      2  O   UNL     1      -1.321  -1.305  -1.216  1.00  0.00    -0.494 OA
ATOM      3  H   UNL     1      -1.339  -1.566  -0.238  1.00  0.00     0.295 HD
ENDBRANCH   1   2
BRANCH   1   4
ATOM      4  N   UNL     1       0.851  -2.142  -1.621  1.00  0.00    -0.216 NA
BRANCH   4   5
ATOM      5  C   UNL     1       1.162  -2.385  -0.242  1.00  0.00     0.069 A 
ATOM      6  C   UNL     1       1.509  -3.678   0.161  1.00  0.00     0.067 A 
ATOM      7  C   UNL     1       1.206  -1.338   0.703  1.00  0.00    -0.032 A 
ATOM      8  C   UNL     1       1.844  -3.930   1.492  1.00  0.00     0.121 A 
ATOM      9  N   UNL     1       1.549  -1.617   1.994  1.00  0.00    -0.438 NA
ATOM     10  C   UNL     1       1.853  -2.876   2.406  1.00  0.00     0.018 A 
ATOM     11  F   UNL     1       2.164  -5.186   1.892  1.00  0.00    -0.207 F 
BRANCH   7  12
ATOM     12  N   UNL     1       0.981  -0.113   0.320  1.00  0.00    -0.433 NA
BRANCH  12  13
ATOM     13  C   UNL     1       0.937   1.062   1.147  1.00  0.00    -0.024 A 
ATOM     14  C   UNL     1       0.365   1.039   2.443  1.00  0.00     0.017 A 
ATOM     15  C   UNL     1       1.396   2.289   0.599  1.00  0.00     0.088 A 
ATOM     16  C   UNL     1       0.328   2.234   3.142  1.00  0.00     0.019 A 
ATOM     17  N   UNL     1       1.345   3.456   1.313  1.00  0.00    -0.346 N 
ATOM     18  C   UNL     1      -0.150   2.584   4.378  1.00  0.00     0.032 A 
ATOM     19  C   UNL     1       0.828   3.434   2.563  1.00  0.00     0.137 A 
ATOM     20  C   UNL     1       0.082   3.957   4.492  1.00  0.00     0.114 A 
ATOM     21  N   UNL     1       0.674   4.483   3.387  1.00  0.00    -0.239 NA
ATOM     22  H   UNL     1       1.693   4.348   0.896  1.00  0.00     0.167 HD
ENDBRANCH  12  13
ENDBRANCH   7  12
ENDBRANCH   4   5
ENDBRANCH   1   4
BRANCH   1  23
ATOM     23  C   UNL     1      -0.382  -1.302  -3.526  1.00  0.00     0.226 C 
BRANCH  23  24
ATOM     24  O   UNL     1      -1.689  -1.650  -3.947  1.00  0.00    -0.365 OA
BRANCH  24  25
ATOM     25  C   UNL     1      -1.711  -1.904  -5.338  1.00  0.00     0.158 C 
ATOM     26  C   UNL     1      -3.149  -2.131  -5.780  1.00  0.00     0.035 C 
ENDBRANCH  24  25
ENDBRANCH  23  24
BRANCH  23  27
ATOM     27  C   UNL     1      -0.163   0.179  -3.714  1.00  0.00     0.006 C 
ATOM     28  C   UNL     1       0.930   0.662  -4.311  1.00  0.00     0.007 C 
ENDBRANCH  23  27
ENDBRANCH   1  23
TORSDOF 9


