MODEL 1
REMARK VINA RESULT:      -7.1      0.000      0.000
REMARK SMILES C#C[C@@H]1CNC(=[NH2+])[C@@H](Nc2cc(C)c3c(n[nH+]n3C)c2O)C1
REMARK SMILES IDX 9 1 8 3 3 4 4 5 22 6 5 7 6 8 2 10 1 11 7 12 10 15 11 16
REMARK SMILES IDX 20 17 12 18 15 19 14 20 16 21 18 22 17 23 13 24 19 25 21 27
REMARK H PARENT 9 2 5 9 7 13 7 14 17 26 21 28
ROOT
ATOM      1  N   UNL     1      45.336 131.008  17.925  1.00  0.00    -0.368 N 
ATOM      2  H   UNL     1      46.007 130.212  17.828  1.00  0.00     0.161 HD
ENDROOT
BRANCH   1   3
ATOM      3  C   UNL     1      45.186 131.903  16.767  1.00  0.00     0.195 C 
ATOM      4  C   UNL     1      46.175 130.364  15.005  1.00  0.00     0.108 C 
ATOM      5  C   UNL     1      44.885 130.393  14.176  1.00  0.00     0.250 C 
ATOM      6  C   UNL     1      46.338 131.687  15.768  1.00  0.00     0.058 C 
ATOM      7  N   UNL     1      43.734 130.757  14.999  1.00  0.00    -0.276 N 
ATOM      8  C   UNL     1      43.844 131.665  16.109  1.00  0.00     0.263 C 
ATOM      9  H   UNL     1      42.785 130.511  14.638  1.00  0.00     0.304 HD
BRANCH   4  10
ATOM     10  C   UNL     1      47.333 130.139  14.127  1.00  0.00    -0.099 C 
ATOM     11  C   UNL     1      48.282 129.954  13.408  1.00  0.00     0.004 C 
ENDBRANCH   4  10
BRANCH   8  12
ATOM     12  N   UNL     1      42.770 132.188  16.622  1.00  0.00    -0.289 N 
ATOM     13  H   UNL     1      41.958 131.590  16.893  1.00  0.00     0.301 HD
ATOM     14  H   UNL     1      42.694 133.218  16.779  1.00  0.00     0.301 HD
ENDBRANCH   8  12
ENDBRANCH   1   3
BRANCH   1  15
ATOM     15  C   UNL     1      44.667 131.180  19.194  1.00  0.00     0.080 A 
ATOM     16  C   UNL     1      43.518 132.013  19.326  1.00  0.00     0.035 A 
ATOM     17  C   UNL     1      45.164 130.504  20.334  1.00  0.00     0.173 A 
ATOM     18  C   UNL     1      42.865 132.181  20.570  1.00  0.00    -0.017 A 
ATOM     19  C   UNL     1      44.500 130.686  21.545  1.00  0.00     0.206 A 
ATOM     20  C   UNL     1      43.399 131.488  21.670  1.00  0.00     0.140 A 
ATOM     21  N   UNL     1      44.797 130.147  22.743  1.00  0.00     0.029 NA
ATOM     22  N   UNL     1      43.021 131.432  22.966  1.00  0.00    -0.132 N 
ATOM     23  N   UNL     1      43.880 130.622  23.577  1.00  0.00    -0.016 N 
ATOM     24  C   UNL     1      41.658 133.072  20.668  1.00  0.00     0.047 C 
ATOM     25  C   UNL     1      41.910 132.095  23.640  1.00  0.00     0.226 C 
ATOM     26  H   UNL     1      43.846 130.381  24.594  1.00  0.00     0.526 HD
BRANCH  17  27
ATOM     27  O   UNL     1      46.285 129.679  20.249  1.00  0.00    -0.504 OA
ATOM     28  H   UNL     1      46.383 128.985  19.517  1.00  0.00     0.293 HD
ENDBRANCH  17  27
ENDBRANCH   1  15
TORSDOF 5
ENDMDL
MODEL 2
REMARK VINA RESULT:      -6.4      1.633      2.384
REMARK SMILES C#C[C@@H]1CNC(=[NH2+])[C@@H](Nc2cc(C)c3c(n[nH+]n3C)c2O)C1
REMARK SMILES IDX 9 1 8 3 3 4 4 5 22 6 5 7 6 8 2 10 1 11 7 12 10 15 11 16
REMARK SMILES IDX 20 17 12 18 15 19 14 20 16 21 18 22 17 23 13 24 19 25 21 27
REMARK H PARENT 9 2 5 9 7 13 7 14 17 26 21 28
ROOT
ATOM      1  N   UNL     1      45.794 130.687  18.157  1.00  0.00    -0.368 N 
ATOM      2  H   UNL     1      46.475 130.028  17.717  1.00  0.00     0.161 HD
ENDROOT
BRANCH   1   3
ATOM      3  C   UNL     1      45.310 131.803  17.330  1.00  0.00     0.195 C 
ATOM      4  C   UNL     1      45.983 130.874  15.063  1.00  0.00     0.108 C 
ATOM      5  C   UNL     1      44.538 130.926  14.551  1.00  0.00     0.250 C 
ATOM      6  C   UNL     1      46.214 131.988  16.096  1.00  0.00     0.058 C 
ATOM      7  N   UNL     1      43.584 130.925  15.657  1.00  0.00    -0.276 N 
ATOM      8  C   UNL     1      43.875 131.549  16.919  1.00  0.00     0.263 C 
ATOM      9  H   UNL     1      42.600 130.646  15.444  1.00  0.00     0.304 HD
BRANCH   4  10
ATOM     10  C   UNL     1      46.922 131.022  13.940  1.00  0.00    -0.099 C 
ATOM     11  C   UNL     1      47.690 131.144  13.020  1.00  0.00     0.004 C 
ENDBRANCH   4  10
BRANCH   8  12
ATOM     12  N   UNL     1      42.912 131.786  17.759  1.00  0.00    -0.289 N 
ATOM     13  H   UNL     1      42.989 131.500  18.760  1.00  0.00     0.301 HD
ATOM     14  H   UNL     1      42.037 132.269  17.453  1.00  0.00     0.301 HD
ENDBRANCH   8  12
ENDBRANCH   1   3
BRANCH   1  15
ATOM     15  C   UNL     1      45.437 130.471  19.540  1.00  0.00     0.080 A 
ATOM     16  C   UNL     1      45.567 129.192  20.155  1.00  0.00     0.035 A 
ATOM     17  C   UNL     1      44.948 131.557  20.306  1.00  0.00     0.173 A 
ATOM     18  C   UNL     1      45.218 128.982  21.510  1.00  0.00    -0.017 A 
ATOM     19  C   UNL     1      44.612 131.322  21.637  1.00  0.00     0.206 A 
ATOM     20  C   UNL     1      44.737 130.093  22.224  1.00  0.00     0.140 A 
ATOM     21  N   UNL     1      44.132 132.200  22.538  1.00  0.00     0.029 NA
ATOM     22  N   UNL     1      44.326 130.230  23.504  1.00  0.00    -0.132 N 
ATOM     23  N   UNL     1      43.972 131.502  23.656  1.00  0.00    -0.016 N 
ATOM     24  C   UNL     1      45.366 127.616  22.120  1.00  0.00     0.047 C 
ATOM     25  C   UNL     1      44.253 129.233  24.568  1.00  0.00     0.226 C 
ATOM     26  H   UNL     1      43.608 131.913  24.545  1.00  0.00     0.526 HD
BRANCH  17  27
ATOM     27  O   UNL     1      44.805 132.826  19.744  1.00  0.00    -0.504 OA
ATOM     28  H   UNL     1      44.170 133.513  20.134  1.00  0.00     0.293 HD
ENDBRANCH  17  27
ENDBRANCH   1  15
TORSDOF 5
ENDMDL
MODEL 3
REMARK VINA RESULT:      -6.4      1.621      2.175
REMARK SMILES C#C[C@@H]1CNC(=[NH2+])[C@@H](Nc2cc(C)c3c(n[nH+]n3C)c2O)C1
REMARK SMILES IDX 9 1 8 3 3 4 4 5 22 6 5 7 6 8 2 10 1 11 7 12 10 15 11 16
REMARK SMILES IDX 20 17 12 18 15 19 14 20 16 21 18 22 17 23 13 24 19 25 21 27
REMARK H PARENT 9 2 5 9 7 13 7 14 17 26 21 28
ROOT
ATOM      1  N   UNL     1      44.853 131.763  16.040  1.00  0.00    -0.368 N 
ATOM      2  H   UNL     1      45.207 132.679  15.682  1.00  0.00     0.161 HD
ENDROOT
BRANCH   1   3
ATOM      3  C   UNL     1      44.668 130.684  15.057  1.00  0.00     0.195 C 
ATOM      4  C   UNL     1      46.976 130.773  14.001  1.00  0.00     0.108 C 
ATOM      5  C   UNL     1      47.256 129.308  14.355  1.00  0.00     0.250 C 
ATOM      6  C   UNL     1      45.470 130.981  13.776  1.00  0.00     0.058 C 
ATOM      7  N   UNL     1      46.417 128.861  15.465  1.00  0.00    -0.276 N 
ATOM      8  C   UNL     1      45.084 129.362  15.665  1.00  0.00     0.263 C 
ATOM      9  H   UNL     1      46.724 128.013  15.991  1.00  0.00     0.304 HD
BRANCH   4  10
ATOM     10  C   UNL     1      47.725 131.152  12.792  1.00  0.00    -0.099 C 
ATOM     11  C   UNL     1      48.338 131.462  11.802  1.00  0.00     0.004 C 
ENDBRANCH   4  10
BRANCH   8  12
ATOM     12  N   UNL     1      44.275 128.737  16.468  1.00  0.00    -0.289 N 
ATOM     13  H   UNL     1      44.013 127.741  16.298  1.00  0.00     0.301 HD
ATOM     14  H   UNL     1      43.867 129.216  17.303  1.00  0.00     0.301 HD
ENDBRANCH   8  12
ENDBRANCH   1   3
BRANCH   1  15
ATOM     15  C   UNL     1      44.535 131.662  17.445  1.00  0.00     0.080 A 
ATOM     16  C   UNL     1      43.321 132.188  17.977  1.00  0.00     0.035 A 
ATOM     17  C   UNL     1      45.448 131.022  18.317  1.00  0.00     0.173 A 
ATOM     18  C   UNL     1      43.011 132.088  19.353  1.00  0.00    -0.017 A 
ATOM     19  C   UNL     1      45.117 130.937  19.668  1.00  0.00     0.206 A 
ATOM     20  C   UNL     1      43.953 131.445  20.175  1.00  0.00     0.140 A 
ATOM     21  N   UNL     1      45.832 130.379  20.663  1.00  0.00     0.029 NA
ATOM     22  N   UNL     1      43.962 131.188  21.502  1.00  0.00    -0.132 N 
ATOM     23  N   UNL     1      45.100 130.550  21.757  1.00  0.00    -0.016 N 
ATOM     24  C   UNL     1      41.723 132.660  19.875  1.00  0.00     0.047 C 
ATOM     25  C   UNL     1      42.966 131.512  22.518  1.00  0.00     0.226 C 
ATOM     26  H   UNL     1      45.393 130.220  22.705  1.00  0.00     0.526 HD
BRANCH  17  27
ATOM     27  O   UNL     1      46.647 130.493  17.839  1.00  0.00    -0.504 OA
ATOM     28  H   UNL     1      46.835 129.497  17.857  1.00  0.00     0.293 HD
ENDBRANCH  17  27
ENDBRANCH   1  15
TORSDOF 5
ENDMDL
MODEL 4
REMARK VINA RESULT:      -6.3      2.079      3.027
REMARK SMILES C#C[C@@H]1CNC(=[NH2+])[C@@H](Nc2cc(C)c3c(n[nH+]n3C)c2O)C1
REMARK SMILES IDX 9 1 8 3 3 4 4 5 22 6 5 7 6 8 2 10 1 11 7 12 10 15 11 16
REMARK SMILES IDX 20 17 12 18 15 19 14 20 16 21 18 22 17 23 13 24 19 25 21 27
REMARK H PARENT 9 2 5 9 7 13 7 14 17 26 21 28
ROOT
ATOM      1  N   UNL     1      44.775 131.799  16.062  1.00  0.00    -0.368 N 
ATOM      2  H   UNL     1      45.043 132.725  15.659  1.00  0.00     0.161 HD
ENDROOT
BRANCH   1   3
ATOM      3  C   UNL     1      44.642 130.673  15.126  1.00  0.00     0.195 C 
ATOM      4  C   UNL     1      46.949 130.821  14.073  1.00  0.00     0.108 C 
ATOM      5  C   UNL     1      47.292 129.385  14.490  1.00  0.00     0.250 C 
ATOM      6  C   UNL     1      45.437 130.950  13.836  1.00  0.00     0.058 C 
ATOM      7  N   UNL     1      46.469 128.949  15.616  1.00  0.00    -0.276 N 
ATOM      8  C   UNL     1      45.115 129.397  15.791  1.00  0.00     0.263 C 
ATOM      9  H   UNL     1      46.812 128.139  16.179  1.00  0.00     0.304 HD
BRANCH   4  10
ATOM     10  C   UNL     1      47.686 131.181  12.851  1.00  0.00    -0.099 C 
ATOM     11  C   UNL     1      48.289 131.474  11.851  1.00  0.00     0.004 C 
ENDBRANCH   4  10
BRANCH   8  12
ATOM     12  N   UNL     1      44.331 128.771  16.618  1.00  0.00    -0.289 N 
ATOM     13  H   UNL     1      43.905 127.852  16.363  1.00  0.00     0.301 HD
ATOM     14  H   UNL     1      44.107 129.171  17.557  1.00  0.00     0.301 HD
ENDBRANCH   8  12
ENDBRANCH   1   3
BRANCH   1  15
ATOM     15  C   UNL     1      44.511 131.728  17.481  1.00  0.00     0.080 A 
ATOM     16  C   UNL     1      45.514 131.326  18.410  1.00  0.00     0.035 A 
ATOM     17  C   UNL     1      43.223 132.068  17.962  1.00  0.00     0.173 A 
ATOM     18  C   UNL     1      45.254 131.257  19.798  1.00  0.00    -0.017 A 
ATOM     19  C   UNL     1      42.994 131.992  19.334  1.00  0.00     0.206 A 
ATOM     20  C   UNL     1      43.959 131.604  20.222  1.00  0.00     0.140 A 
ATOM     21  N   UNL     1      41.857 132.264  20.001  1.00  0.00     0.029 NA
ATOM     22  N   UNL     1      43.396 131.644  21.450  1.00  0.00    -0.132 N 
ATOM     23  N   UNL     1      42.140 132.043  21.280  1.00  0.00    -0.016 N 
ATOM     24  C   UNL     1      46.339 130.825  20.744  1.00  0.00     0.047 C 
ATOM     25  C   UNL     1      43.979 131.329  22.751  1.00  0.00     0.226 C 
ATOM     26  H   UNL     1      41.449 132.169  22.053  1.00  0.00     0.526 HD
BRANCH  17  27
ATOM     27  O   UNL     1      42.211 132.466  17.088  1.00  0.00    -0.504 OA
ATOM     28  H   UNL     1      42.374 133.154  16.362  1.00  0.00     0.293 HD
ENDBRANCH  17  27
ENDBRANCH   1  15
TORSDOF 5
ENDMDL
MODEL 5
REMARK VINA RESULT:      -5.9      2.078      7.195
REMARK SMILES C#C[C@@H]1CNC(=[NH2+])[C@@H](Nc2cc(C)c3c(n[nH+]n3C)c2O)C1
REMARK SMILES IDX 9 1 8 3 3 4 4 5 22 6 5 7 6 8 2 10 1 11 7 12 10 15 11 16
REMARK SMILES IDX 20 17 12 18 15 19 14 20 16 21 18 22 17 23 13 24 19 25 21 27
REMARK H PARENT 9 2 5 9 7 13 7 14 17 26 21 28
ROOT
ATOM      1  N   UNL     1      44.048 131.622  20.232  1.00  0.00    -0.368 N 
ATOM      2  H   UNL     1      44.730 132.162  20.810  1.00  0.00     0.161 HD
ENDROOT
BRANCH   1   3
ATOM      3  C   UNL     1      42.860 131.091  20.917  1.00  0.00     0.195 C 
ATOM      4  C   UNL     1      43.976 130.455  23.108  1.00  0.00     0.108 C 
ATOM      5  C   UNL     1      43.041 131.366  23.913  1.00  0.00     0.250 C 
ATOM      6  C   UNL     1      43.253 129.936  21.856  1.00  0.00     0.058 C 
ATOM      7  N   UNL     1      42.469 132.415  23.072  1.00  0.00    -0.276 N 
ATOM      8  C   UNL     1      42.173 132.203  21.682  1.00  0.00     0.263 C 
ATOM      9  H   UNL     1      42.082 133.259  23.551  1.00  0.00     0.304 HD
BRANCH   4  10
ATOM     10  C   UNL     1      44.422 129.327  23.941  1.00  0.00    -0.099 C 
ATOM     11  C   UNL     1      44.787 128.403  24.623  1.00  0.00     0.004 C 
ENDBRANCH   4  10
BRANCH   8  12
ATOM     12  N   UNL     1      41.405 133.041  21.052  1.00  0.00    -0.289 N 
ATOM     13  H   UNL     1      41.808 133.774  20.427  1.00  0.00     0.301 HD
ATOM     14  H   UNL     1      40.365 133.002  21.154  1.00  0.00     0.301 HD
ENDBRANCH   8  12
ENDBRANCH   1   3
BRANCH   1  15
ATOM     15  C   UNL     1      44.361 131.407  18.838  1.00  0.00     0.080 A 
ATOM     16  C   UNL     1      45.556 130.743  18.434  1.00  0.00     0.035 A 
ATOM     17  C   UNL     1      43.459 131.864  17.848  1.00  0.00     0.173 A 
ATOM     18  C   UNL     1      45.862 130.533  17.068  1.00  0.00    -0.017 A 
ATOM     19  C   UNL     1      43.784 131.643  16.511  1.00  0.00     0.206 A 
ATOM     20  C   UNL     1      44.932 131.007  16.127  1.00  0.00     0.140 A 
ATOM     21  N   UNL     1      43.079 131.991  15.418  1.00  0.00     0.029 NA
ATOM     22  N   UNL     1      44.921 130.968  14.776  1.00  0.00    -0.132 N 
ATOM     23  N   UNL     1      43.799 131.565  14.387  1.00  0.00    -0.016 N 
ATOM     24  C   UNL     1      47.134 129.832  16.684  1.00  0.00     0.047 C 
ATOM     25  C   UNL     1      45.904 130.405  13.855  1.00  0.00     0.226 C 
ATOM     26  H   UNL     1      43.510 131.690  13.391  1.00  0.00     0.526 HD
BRANCH  17  27
ATOM     27  O   UNL     1      42.278 132.518  18.199  1.00  0.00    -0.504 OA
ATOM     28  H   UNL     1      42.174 133.521  18.099  1.00  0.00     0.293 HD
ENDBRANCH  17  27
ENDBRANCH   1  15
TORSDOF 5
ENDMDL
MODEL 6
REMARK VINA RESULT:      -5.6      1.884      6.743
REMARK SMILES C#C[C@@H]1CNC(=[NH2+])[C@@H](Nc2cc(C)c3c(n[nH+]n3C)c2O)C1
REMARK SMILES IDX 9 1 8 3 3 4 4 5 22 6 5 7 6 8 2 10 1 11 7 12 10 15 11 16
REMARK SMILES IDX 20 17 12 18 15 19 14 20 16 21 18 22 17 23 13 24 19 25 21 27
REMARK H PARENT 9 2 5 9 7 13 7 14 17 26 21 28
ROOT
ATOM      1  N   UNL     1      43.737 132.050  19.887  1.00  0.00    -0.368 N 
ATOM      2  H   UNL     1      44.208 132.834  20.391  1.00  0.00     0.161 HD
ENDROOT
BRANCH   1   3
ATOM      3  C   UNL     1      42.573 131.433  20.541  1.00  0.00     0.195 C 
ATOM      4  C   UNL     1      43.713 130.746  22.704  1.00  0.00     0.108 C 
ATOM      5  C   UNL     1      42.736 131.574  23.548  1.00  0.00     0.250 C 
ATOM      6  C   UNL     1      43.017 130.254  21.427  1.00  0.00     0.058 C 
ATOM      7  N   UNL     1      42.118 132.634  22.755  1.00  0.00    -0.276 N 
ATOM      8  C   UNL     1      41.834 132.475  21.355  1.00  0.00     0.263 C 
ATOM      9  H   UNL     1      41.691 133.436  23.271  1.00  0.00     0.304 HD
BRANCH   4  10
ATOM     10  C   UNL     1      44.208 129.601  23.485  1.00  0.00    -0.099 C 
ATOM     11  C   UNL     1      44.613 128.663  24.124  1.00  0.00     0.004 C 
ENDBRANCH   4  10
BRANCH   8  12
ATOM     12  N   UNL     1      41.030 133.306  20.762  1.00  0.00    -0.289 N 
ATOM     13  H   UNL     1      40.178 133.668  21.246  1.00  0.00     0.301 HD
ATOM     14  H   UNL     1      41.216 133.635  19.787  1.00  0.00     0.301 HD
ENDBRANCH   8  12
ENDBRANCH   1   3
BRANCH   1  15
ATOM     15  C   UNL     1      44.302 131.615  18.630  1.00  0.00     0.080 A 
ATOM     16  C   UNL     1      43.686 131.930  17.384  1.00  0.00     0.035 A 
ATOM     17  C   UNL     1      45.500 130.861  18.636  1.00  0.00     0.173 A 
ATOM     18  C   UNL     1      44.242 131.504  16.154  1.00  0.00    -0.017 A 
ATOM     19  C   UNL     1      46.025 130.455  17.411  1.00  0.00     0.206 A 
ATOM     20  C   UNL     1      45.431 130.756  16.217  1.00  0.00     0.140 A 
ATOM     21  N   UNL     1      47.141 129.736  17.185  1.00  0.00     0.029 NA
ATOM     22  N   UNL     1      46.201 130.211  15.250  1.00  0.00    -0.132 N 
ATOM     23  N   UNL     1      47.214 129.609  15.865  1.00  0.00    -0.016 N 
ATOM     24  C   UNL     1      43.559 131.853  14.862  1.00  0.00     0.047 C 
ATOM     25  C   UNL     1      46.027 130.232  13.800  1.00  0.00     0.226 C 
ATOM     26  H   UNL     1      47.981 129.094  15.376  1.00  0.00     0.526 HD
BRANCH  17  27
ATOM     27  O   UNL     1      46.136 130.530  19.832  1.00  0.00    -0.504 OA
ATOM     28  H   UNL     1      46.705 131.201  20.336  1.00  0.00     0.293 HD
ENDBRANCH  17  27
ENDBRANCH   1  15
TORSDOF 5
ENDMDL
MODEL 7
REMARK VINA RESULT:      -5.5      2.058      3.338
REMARK SMILES C#C[C@@H]1CNC(=[NH2+])[C@@H](Nc2cc(C)c3c(n[nH+]n3C)c2O)C1
REMARK SMILES IDX 9 1 8 3 3 4 4 5 22 6 5 7 6 8 2 10 1 11 7 12 10 15 11 16
REMARK SMILES IDX 20 17 12 18 15 19 14 20 16 21 18 22 17 23 13 24 19 25 21 27
REMARK H PARENT 9 2 5 9 7 13 7 14 17 26 21 28
ROOT
ATOM      1  N   UNL     1      46.161 130.767  17.558  1.00  0.00    -0.368 N 
ATOM      2  H   UNL     1      46.906 131.484  17.409  1.00  0.00     0.161 HD
ENDROOT
BRANCH   1   3
ATOM      3  C   UNL     1      45.962 129.773  16.493  1.00  0.00     0.195 C 
ATOM      4  C   UNL     1      44.848 131.299  14.795  1.00  0.00     0.108 C 
ATOM      5  C   UNL     1      45.933 131.018  13.747  1.00  0.00     0.250 C 
ATOM      6  C   UNL     1      44.672 130.076  15.708  1.00  0.00     0.058 C 
ATOM      7  N   UNL     1      47.169 130.555  14.375  1.00  0.00    -0.276 N 
ATOM      8  C   UNL     1      47.166 129.762  15.575  1.00  0.00     0.263 C 
ATOM      9  H   UNL     1      48.050 130.632  13.820  1.00  0.00     0.304 HD
BRANCH   4  10
ATOM     10  C   UNL     1      43.577 131.621  14.129  1.00  0.00    -0.099 C 
ATOM     11  C   UNL     1      42.535 131.885  13.583  1.00  0.00     0.004 C 
ENDBRANCH   4  10
BRANCH   8  12
ATOM     12  N   UNL     1      48.245 129.130  15.931  1.00  0.00    -0.289 N 
ATOM     13  H   UNL     1      49.132 129.646  16.121  1.00  0.00     0.301 HD
ATOM     14  H   UNL     1      48.250 128.090  16.037  1.00  0.00     0.301 HD
ENDBRANCH   8  12
ENDBRANCH   1   3
BRANCH   1  15
ATOM     15  C   UNL     1      45.368 130.855  18.763  1.00  0.00     0.080 A 
ATOM     16  C   UNL     1      45.674 130.076  19.917  1.00  0.00     0.035 A 
ATOM     17  C   UNL     1      44.262 131.737  18.800  1.00  0.00     0.173 A 
ATOM     18  C   UNL     1      44.897 130.163  21.096  1.00  0.00    -0.017 A 
ATOM     19  C   UNL     1      43.514 131.803  19.974  1.00  0.00     0.206 A 
ATOM     20  C   UNL     1      43.809 131.053  21.079  1.00  0.00     0.140 A 
ATOM     21  N   UNL     1      42.433 132.564  20.226  1.00  0.00     0.029 NA
ATOM     22  N   UNL     1      42.890 131.367  22.019  1.00  0.00    -0.132 N 
ATOM     23  N   UNL     1      42.083 132.272  21.474  1.00  0.00    -0.016 N 
ATOM     24  C   UNL     1      45.250 129.322  22.291  1.00  0.00     0.047 C 
ATOM     25  C   UNL     1      42.741 130.860  23.379  1.00  0.00     0.226 C 
ATOM     26  H   UNL     1      41.268 132.708  21.961  1.00  0.00     0.526 HD
BRANCH  17  27
ATOM     27  O   UNL     1      43.927 132.517  17.693  1.00  0.00    -0.504 OA
ATOM     28  H   UNL     1      44.633 132.874  17.059  1.00  0.00     0.293 HD
ENDBRANCH  17  27
ENDBRANCH   1  15
TORSDOF 5
ENDMDL
MODEL 8
REMARK VINA RESULT:      -5.5      1.467      2.427
REMARK SMILES C#C[C@@H]1CNC(=[NH2+])[C@@H](Nc2cc(C)c3c(n[nH+]n3C)c2O)C1
REMARK SMILES IDX 9 1 8 3 3 4 4 5 22 6 5 7 6 8 2 10 1 11 7 12 10 15 11 16
REMARK SMILES IDX 20 17 12 18 15 19 14 20 16 21 18 22 17 23 13 24 19 25 21 27
REMARK H PARENT 9 2 5 9 7 13 7 14 17 26 21 28
ROOT
ATOM      1  N   UNL     1      45.707 131.158  17.694  1.00  0.00    -0.368 N 
ATOM      2  H   UNL     1      46.404 131.905  17.473  1.00  0.00     0.161 HD
ENDROOT
BRANCH   1   3
ATOM      3  C   UNL     1      45.555 130.071  16.714  1.00  0.00     0.195 C 
ATOM      4  C   UNL     1      44.612 131.453  14.803  1.00  0.00     0.108 C 
ATOM      5  C   UNL     1      45.760 131.048  13.870  1.00  0.00     0.250 C 
ATOM      6  C   UNL     1      44.334 130.329  15.812  1.00  0.00     0.058 C 
ATOM      7  N   UNL     1      46.933 130.618  14.628  1.00  0.00    -0.276 N 
ATOM      8  C   UNL     1      46.820 129.944  15.893  1.00  0.00     0.263 C 
ATOM      9  H   UNL     1      47.854 130.621  14.135  1.00  0.00     0.304 HD
BRANCH   4  10
ATOM     10  C   UNL     1      43.402 131.741  14.017  1.00  0.00    -0.099 C 
ATOM     11  C   UNL     1      42.410 131.975  13.374  1.00  0.00     0.004 C 
ENDBRANCH   4  10
BRANCH   8  12
ATOM     12  N   UNL     1      47.850 129.323  16.386  1.00  0.00    -0.289 N 
ATOM     13  H   UNL     1      48.594 129.843  16.903  1.00  0.00     0.301 HD
ATOM     14  H   UNL     1      47.960 128.289  16.278  1.00  0.00     0.301 HD
ENDBRANCH   8  12
ENDBRANCH   1   3
BRANCH   1  15
ATOM     15  C   UNL     1      44.929 131.293  18.903  1.00  0.00     0.080 A 
ATOM     16  C   UNL     1      43.738 132.075  18.944  1.00  0.00     0.035 A 
ATOM     17  C   UNL     1      45.359 130.631  20.079  1.00  0.00     0.173 A 
ATOM     18  C   UNL     1      42.977 132.206  20.129  1.00  0.00    -0.017 A 
ATOM     19  C   UNL     1      44.590 130.777  21.232  1.00  0.00     0.206 A 
ATOM     20  C   UNL     1      43.449 131.529  21.268  1.00  0.00     0.140 A 
ATOM     21  N   UNL     1      44.812 130.243  22.448  1.00  0.00     0.029 NA
ATOM     22  N   UNL     1      42.969 131.448  22.528  1.00  0.00    -0.132 N 
ATOM     23  N   UNL     1      43.809 130.672  23.206  1.00  0.00    -0.016 N 
ATOM     24  C   UNL     1      41.729 133.043  20.131  1.00  0.00     0.047 C 
ATOM     25  C   UNL     1      41.778 132.059  23.110  1.00  0.00     0.226 C 
ATOM     26  H   UNL     1      43.702 130.424  24.215  1.00  0.00     0.526 HD
BRANCH  17  27
ATOM     27  O   UNL     1      46.519 129.856  20.084  1.00  0.00    -0.504 OA
ATOM     28  H   UNL     1      46.705 129.171  19.361  1.00  0.00     0.293 HD
ENDBRANCH  17  27
ENDBRANCH   1  15
TORSDOF 5
ENDMDL
MODEL 9
REMARK VINA RESULT:      -5.3      1.541      2.323
REMARK SMILES C#C[C@@H]1CNC(=[NH2+])[C@@H](Nc2cc(C)c3c(n[nH+]n3C)c2O)C1
REMARK SMILES IDX 9 1 8 3 3 4 4 5 22 6 5 7 6 8 2 10 1 11 7 12 10 15 11 16
REMARK SMILES IDX 20 17 12 18 15 19 14 20 16 21 18 22 17 23 13 24 19 25 21 27
REMARK H PARENT 9 2 5 9 7 13 7 14 17 26 21 28
ROOT
ATOM      1  N   UNL     1      45.818 131.861  18.295  1.00  0.00    -0.368 N 
ATOM      2  H   UNL     1      46.827 132.125  18.343  1.00  0.00     0.161 HD
ENDROOT
BRANCH   1   3
ATOM      3  C   UNL     1      45.128 132.076  17.013  1.00  0.00     0.195 C 
ATOM      4  C   UNL     1      46.313 130.274  15.672  1.00  0.00     0.108 C 
ATOM      5  C   UNL     1      44.990 129.570  15.345  1.00  0.00     0.250 C 
ATOM      6  C   UNL     1      46.077 131.783  15.837  1.00  0.00     0.058 C 
ATOM      7  N   UNL     1      43.953 129.912  16.316  1.00  0.00    -0.276 N 
ATOM      8  C   UNL     1      43.893 131.203  16.946  1.00  0.00     0.263 C 
ATOM      9  H   UNL     1      43.129 129.274  16.386  1.00  0.00     0.304 HD
BRANCH   4  10
ATOM     10  C   UNL     1      47.293 130.028  14.603  1.00  0.00    -0.099 C 
ATOM     11  C   UNL     1      48.097 129.826  13.728  1.00  0.00     0.004 C 
ENDBRANCH   4  10
BRANCH   8  12
ATOM     12  N   UNL     1      42.809 131.568  17.564  1.00  0.00    -0.289 N 
ATOM     13  H   UNL     1      42.008 131.986  17.041  1.00  0.00     0.301 HD
ATOM     14  H   UNL     1      42.712 131.452  18.598  1.00  0.00     0.301 HD
ENDBRANCH   8  12
ENDBRANCH   1   3
BRANCH   1  15
ATOM     15  C   UNL     1      45.189 131.364  19.497  1.00  0.00     0.080 A 
ATOM     16  C   UNL     1      45.597 130.140  20.103  1.00  0.00     0.035 A 
ATOM     17  C   UNL     1      44.144 132.112  20.090  1.00  0.00     0.173 A 
ATOM     18  C   UNL     1      44.980 129.655  21.280  1.00  0.00    -0.017 A 
ATOM     19  C   UNL     1      43.555 131.611  21.249  1.00  0.00     0.206 A 
ATOM     20  C   UNL     1      43.947 130.436  21.827  1.00  0.00     0.140 A 
ATOM     21  N   UNL     1      42.554 132.151  21.970  1.00  0.00     0.029 NA
ATOM     22  N   UNL     1      43.171 130.261  22.920  1.00  0.00    -0.132 N 
ATOM     23  N   UNL     1      42.350 131.306  22.974  1.00  0.00    -0.016 N 
ATOM     24  C   UNL     1      45.437 128.357  21.886  1.00  0.00     0.047 C 
ATOM     25  C   UNL     1      43.169 129.175  23.894  1.00  0.00     0.226 C 
ATOM     26  H   UNL     1      41.627 131.452  23.713  1.00  0.00     0.526 HD
BRANCH  17  27
ATOM     27  O   UNL     1      43.713 133.315  19.530  1.00  0.00    -0.504 OA
ATOM     28  H   UNL     1      42.764 133.438  19.195  1.00  0.00     0.293 HD
ENDBRANCH  17  27
ENDBRANCH   1  15
TORSDOF 5
ENDMDL


