REMARK SMILES Cc1cc([NH2+]N)c([O-])c(-n2nc3ccc(-c4ccc([O-])cc4)cc3n2)c1
REMARK SMILES IDX 1 1 2 2 3 3 4 4 7 5 8 6 9 7 26 8 5 9 6 12 10 15 11 16 25 17
REMARK SMILES IDX 12 18 24 19 13 20 23 21 14 22 15 23 16 24 17 25 22 26 18 27
REMARK SMILES IDX 21 28 19 29 20 30
REMARK H PARENT 5 10 5 11 6 13 6 14
ROOT
ATOM      1  C   UNL     1       4.627   2.701  -3.805  1.00  0.00     0.044 C 
ATOM      2  C   UNL     1       3.410   2.685  -2.927  1.00  0.00    -0.043 A 
ATOM      3  C   UNL     1       2.636   3.841  -2.778  1.00  0.00     0.072 A 
ATOM      4  C   UNL     1       1.471   3.827  -1.995  1.00  0.00     0.143 A 
ATOM      5  C   UNL     1       1.090   2.637  -1.340  1.00  0.00    -0.015 A 
ATOM      6  O   UNL     1      -0.042   2.642  -0.530  1.00  0.00    -0.867 OA
ATOM      7  C   UNL     1       1.851   1.456  -1.501  1.00  0.00     0.084 A 
ATOM      8  C   UNL     1       3.005   1.497  -2.306  1.00  0.00     0.033 A 
ENDROOT
BRANCH   4   9
ATOM      9  N   UNL     1       0.712   5.041  -1.822  1.00  0.00    -0.240 N 
ATOM     10  H   UNL     1       0.800   5.644  -2.674  1.00  0.00     0.376 HD
ATOM     11  H   UNL     1      -0.305   4.839  -1.667  1.00  0.00     0.376 HD
BRANCH   9  12
ATOM     12  N   UNL     1       1.232   5.743  -0.716  1.00  0.00    -0.178 NA
ATOM     13  H   UNL     1       0.775   6.684  -0.688  1.00  0.00     0.183 HD
ATOM     14  H   UNL     1       0.938   5.249   0.160  1.00  0.00     0.183 HD
ENDBRANCH   9  12
ENDBRANCH   4   9
BRANCH   7  15
ATOM     15  N   UNL     1       1.473   0.218  -0.861  1.00  0.00    -0.151 N 
ATOM     16  N   UNL     1       2.205  -0.895  -0.929  1.00  0.00    -0.148 NA
ATOM     17  N   UNL     1       0.361   0.053  -0.145  1.00  0.00    -0.148 NA
ATOM     18  C   UNL     1       1.521  -1.805  -0.221  1.00  0.00     0.113 A 
ATOM     19  C   UNL     1       0.392  -1.225   0.259  1.00  0.00     0.114 A 
ATOM     20  C   UNL     1       1.838  -3.133   0.033  1.00  0.00     0.033 A 
ATOM     21  C   UNL     1      -0.528  -1.918   1.038  1.00  0.00     0.041 A 
ATOM     22  C   UNL     1       0.935  -3.876   0.819  1.00  0.00     0.011 A 
ATOM     23  C   UNL     1      -0.254  -3.278   1.329  1.00  0.00    -0.016 A 
BRANCH  23  24
ATOM     24  C   UNL     1      -1.197  -4.071   2.157  1.00  0.00    -0.018 A 
ATOM     25  C   UNL     1      -2.588  -3.925   1.995  1.00  0.00     0.008 A 
ATOM     26  C   UNL     1      -0.716  -4.981   3.118  1.00  0.00     0.008 A 
ATOM     27  C   UNL     1      -3.475  -4.673   2.776  1.00  0.00    -0.008 A 
ATOM     28  C   UNL     1      -1.607  -5.726   3.897  1.00  0.00    -0.008 A 
ATOM     29  C   UNL     1      -2.985  -5.573   3.727  1.00  0.00    -0.109 A 
ATOM     30  O   UNL     1      -3.868  -6.314   4.502  1.00  0.00    -0.872 OA
ENDBRANCH  23  24
ENDBRANCH   7  15
TORSDOF 4


