REMARK SMILES N/[NH+]=c1\cccc2cc(-c3ccc(O)cc3)c3c[nH][nH]c3c12
REMARK SMILES IDX 9 1 8 2 7 3 6 4 5 5 4 6 3 7 22 8 21 9 17 10 18 11 19 12
REMARK SMILES IDX 20 14 10 16 13 17 12 18 15 19 11 20 16 21 14 22 2 24 1 26
REMARK H PARENT 19 13 20 15 14 23 2 25 1 27 1 28
ROOT
ATOM      1  C   UNL     1      -1.283   0.922   0.488  1.00  0.00    -0.007 A 
ATOM      2  C   UNL     1      -2.118  -0.198   0.668  1.00  0.00     0.018 A 
ATOM      3  C   UNL     1      -1.617  -1.404   1.214  1.00  0.00    -0.009 A 
ATOM      4  C   UNL     1      -2.456  -2.520   1.295  1.00  0.00     0.009 A 
ATOM      5  C   UNL     1      -1.980  -3.721   1.806  1.00  0.00     0.008 A 
ATOM      6  C   UNL     1      -0.690  -3.807   2.326  1.00  0.00     0.082 A 
ATOM      7  C   UNL     1       0.171  -2.685   2.333  1.00  0.00     0.236 A 
ATOM      8  C   UNL     1      -0.262  -1.500   1.659  1.00  0.00     0.081 A 
ATOM      9  C   UNL     1       0.570  -0.395   1.358  1.00  0.00     0.078 A 
ATOM     10  C   UNL     1       0.065   0.769   0.822  1.00  0.00     0.026 A 
ATOM     11  C   UNL     1       1.160   1.566   0.545  1.00  0.00     0.112 A 
ATOM     12  N   UNL     1       2.266   0.871   0.878  1.00  0.00    -0.307 N 
ATOM     13  H   UNL     1       3.251   1.179   0.723  1.00  0.00     0.187 HD
ATOM     14  N   UNL     1       1.919  -0.318   1.349  1.00  0.00    -0.300 N 
ATOM     15  H   UNL     1       2.609  -1.077   1.540  1.00  0.00     0.188 HD
ENDROOT
BRANCH   1  16
ATOM     16  C   UNL     1      -1.811   2.177  -0.100  1.00  0.00    -0.017 A 
ATOM     17  C   UNL     1      -2.828   4.558  -1.201  1.00  0.00     0.115 A 
ATOM     18  C   UNL     1      -3.138   3.324  -1.787  1.00  0.00     0.047 A 
ATOM     19  C   UNL     1      -2.015   4.601  -0.064  1.00  0.00     0.047 A 
ATOM     20  C   UNL     1      -2.635   2.140  -1.239  1.00  0.00     0.012 A 
ATOM     21  C   UNL     1      -1.510   3.419   0.486  1.00  0.00     0.012 A 
BRANCH  17  22
ATOM     22  O   UNL     1      -3.323   5.744  -1.738  1.00  0.00    -0.508 OA
ATOM     23  H   UNL     1      -3.915   5.746  -2.561  1.00  0.00     0.293 HD
ENDBRANCH  17  22
ENDBRANCH   1  16
BRANCH   7  24
ATOM     24  N   UNL     1       1.263  -2.691   3.062  1.00  0.00    -0.132 N 
ATOM     25  H   UNL     1       1.706  -1.791   3.346  1.00  0.00     0.488 HD
BRANCH  24  26
ATOM     26  N   UNL     1       1.831  -3.856   3.608  1.00  0.00    -0.212 NA
ATOM     27  H   UNL     1       1.708  -4.792   3.163  1.00  0.00     0.228 HD
ATOM     28  H   UNL     1       2.566  -3.770   4.345  1.00  0.00     0.228 HD
ENDBRANCH  24  26
ENDBRANCH   7  24
TORSDOF 4


