REMARK SMILES Cc1ccoc1NC(=O)N1CCC[C@@H](c2ccc3ccc(C)c(F)c3[nH+]2)[C@@H]1F
REMARK SMILES IDX 10 1 11 2 12 3 13 4 14 5 27 6 28 7 8 8 7 9 9 11 6 12 2 13
REMARK SMILES IDX 3 14 4 15 5 16 1 17 15 18 16 19 26 20 17 21 25 22 18 23
REMARK SMILES IDX 23 24 19 25 21 26 20 27 24 29 22 30
REMARK H PARENT 7 10 26 28
ROOT
ATOM      1  N   UNL     1      -1.589  -1.285   1.126  1.00  0.00    -0.293 N 
ATOM      2  C   UNL     1      -0.616  -2.345   1.415  1.00  0.00     0.124 C 
ATOM      3  C   UNL     1       0.629  -1.728   2.065  1.00  0.00     0.023 C 
ATOM      4  C   UNL     1       1.190  -0.583   1.207  1.00  0.00     0.021 C 
ATOM      5  C   UNL     1       0.105   0.473   0.904  1.00  0.00     0.140 C 
ATOM      6  C   UNL     1      -1.124  -0.194   0.258  1.00  0.00     0.280 C 
ATOM      7  F   UNL     1      -2.125   0.741   0.041  1.00  0.00    -0.223 F 
ENDROOT
BRANCH   1   8
ATOM      8  C   UNL     1      -2.760  -1.144   1.953  1.00  0.00     0.326 C 
ATOM      9  N   UNL     1      -3.554  -2.296   2.278  1.00  0.00    -0.278 N 
ATOM     10  H   UNL     1      -3.352  -3.194   1.786  1.00  0.00     0.175 HD
ATOM     11  O   UNL     1      -3.090  -0.006   2.384  1.00  0.00    -0.248 OA
BRANCH   9  12
ATOM     12  C   UNL     1      -4.631  -2.263   3.225  1.00  0.00     0.203 A 
ATOM     13  C   UNL     1      -5.447  -3.328   3.550  1.00  0.00     0.013 A 
ATOM     14  C   UNL     1      -6.331  -2.852   4.496  1.00  0.00     0.047 A 
ATOM     15  C   UNL     1      -5.997  -1.524   4.686  1.00  0.00     0.198 A 
ATOM     16  O   UNL     1      -4.981  -1.202   3.916  1.00  0.00    -0.448 OA
ATOM     17  C   UNL     1      -5.389  -4.717   3.000  1.00  0.00     0.050 C 
ENDBRANCH   9  12
ENDBRANCH   1   8
BRANCH   5  18
ATOM     18  C   UNL     1       0.654   1.587   0.034  1.00  0.00     0.188 A 
ATOM     19  C   UNL     1       0.685   2.902   0.524  1.00  0.00     0.075 A 
ATOM     20  N   UNL     1       1.122   1.327  -1.226  1.00  0.00    -0.205 N 
ATOM     21  C   UNL     1       1.189   3.928  -0.272  1.00  0.00     0.021 A 
ATOM     22  C   UNL     1       1.621   2.315  -2.028  1.00  0.00     0.247 A 
ATOM     23  C   UNL     1       1.663   3.646  -1.557  1.00  0.00     0.049 A 
ATOM     24  C   UNL     1       2.096   2.023  -3.321  1.00  0.00     0.197 A 
ATOM     25  C   UNL     1       2.175   4.663  -2.373  1.00  0.00     0.015 A 
ATOM     26  C   UNL     1       2.602   3.049  -4.138  1.00  0.00    -0.008 A 
ATOM     27  C   UNL     1       2.644   4.365  -3.654  1.00  0.00     0.007 A 
ATOM     28  H   UNL     1       1.096   0.346  -1.583  1.00  0.00     0.454 HD
ATOM     29  F   UNL     1       2.068   0.746  -3.785  1.00  0.00    -0.199 F 
ATOM     30  C   UNL     1       3.122   2.729  -5.510  1.00  0.00     0.048 C 
ENDBRANCH   5  18
TORSDOF 3


