MODEL 1
REMARK VINA RESULT:      -9.7      0.000      0.000
REMARK SMILES C=Cc1cccc(-c2ccc3c(c2)[C@H](N)CC3)c1
REMARK SMILES IDX 8 1 9 2 10 3 11 4 12 5 13 6 14 7 16 8 17 9 7 10 3 11 4 12
REMARK SMILES IDX 18 13 5 14 6 15 2 16 1 17 15 18
REMARK H PARENT 15 19 15 20
ROOT
ATOM      1  C   UNL     1      44.888 131.151  18.184  1.00  0.00    -0.018 A 
ATOM      2  C   UNL     1      45.891 130.845  19.135  1.00  0.00     0.009 A 
ATOM      3  C   UNL     1      45.636 130.977  20.507  1.00  0.00     0.005 A 
ATOM      4  C   UNL     1      44.378 131.415  20.920  1.00  0.00    -0.043 A 
ATOM      5  C   UNL     1      43.400 131.724  20.010  1.00  0.00    -0.027 A 
ATOM      6  C   UNL     1      43.627 131.595  18.637  1.00  0.00     0.014 A 
ATOM      7  C   UNL     1      42.145 132.173  20.669  1.00  0.00     0.081 C 
ATOM      8  C   UNL     1      42.435 131.971  22.176  1.00  0.00     0.028 C 
ATOM      9  C   UNL     1      43.926 131.611  22.315  1.00  0.00     0.038 C 
ENDROOT
BRANCH   1  10
ATOM     10  C   UNL     1      45.158 131.010  16.731  1.00  0.00    -0.018 A 
ATOM     11  C   UNL     1      46.540 130.148  14.900  1.00  0.00    -0.026 A 
ATOM     12  C   UNL     1      45.658 130.733  13.979  1.00  0.00     0.008 A 
ATOM     13  C   UNL     1      46.275 130.281  16.279  1.00  0.00     0.016 A 
ATOM     14  C   UNL     1      44.548 131.456  14.421  1.00  0.00     0.001 A 
ATOM     15  C   UNL     1      44.299 131.598  15.786  1.00  0.00     0.009 A 
BRANCH  11  16
ATOM     16  C   UNL     1      47.700 129.382  14.381  1.00  0.00     0.000 C 
ATOM     17  C   UNL     1      48.384 129.712  13.284  1.00  0.00     0.009 C 
ENDBRANCH  11  16
ENDBRANCH   1  10
BRANCH   7  18
ATOM     18  N   UNL     1      41.891 133.582  20.371  1.00  0.00    -0.324 NA
ATOM     19  H   UNL     1      42.205 133.772  19.391  1.00  0.00     0.119 HD
ATOM     20  H   UNL     1      40.856 133.730  20.371  1.00  0.00     0.119 HD
ENDBRANCH   7  18
TORSDOF 3
ENDMDL
MODEL 2
REMARK VINA RESULT:      -9.6      1.432      2.071
REMARK SMILES C=Cc1cccc(-c2ccc3c(c2)[C@H](N)CC3)c1
REMARK SMILES IDX 8 1 9 2 10 3 11 4 12 5 13 6 14 7 16 8 17 9 7 10 3 11 4 12
REMARK SMILES IDX 18 13 5 14 6 15 2 16 1 17 15 18
REMARK H PARENT 15 19 15 20
ROOT
ATOM      1  C   UNL     1      44.143 131.417  17.874  1.00  0.00    -0.018 A 
ATOM      2  C   UNL     1      42.839 131.930  18.069  1.00  0.00     0.009 A 
ATOM      3  C   UNL     1      42.335 132.125  19.363  1.00  0.00     0.005 A 
ATOM      4  C   UNL     1      43.141 131.803  20.454  1.00  0.00    -0.043 A 
ATOM      5  C   UNL     1      44.402 131.296  20.281  1.00  0.00    -0.027 A 
ATOM      6  C   UNL     1      44.930 131.098  19.002  1.00  0.00     0.014 A 
ATOM      7  C   UNL     1      45.078 131.020  21.577  1.00  0.00     0.081 C 
ATOM      8  C   UNL     1      44.082 131.568  22.627  1.00  0.00     0.028 C 
ATOM      9  C   UNL     1      42.786 131.942  21.885  1.00  0.00     0.038 C 
ENDROOT
BRANCH   1  10
ATOM     10  C   UNL     1      44.676 131.212  16.503  1.00  0.00    -0.018 A 
ATOM     11  C   UNL     1      46.405 130.334  15.005  1.00  0.00    -0.026 A 
ATOM     12  C   UNL     1      45.676 130.814  13.907  1.00  0.00     0.008 A 
ATOM     13  C   UNL     1      45.890 130.527  16.303  1.00  0.00     0.016 A 
ATOM     14  C   UNL     1      44.470 131.494  14.098  1.00  0.00     0.001 A 
ATOM     15  C   UNL     1      43.974 131.695  15.386  1.00  0.00     0.009 A 
BRANCH  11  16
ATOM     16  C   UNL     1      47.675 129.612  14.749  1.00  0.00     0.000 C 
ATOM     17  C   UNL     1      48.293 129.580  13.567  1.00  0.00     0.009 C 
ENDBRANCH  11  16
ENDBRANCH   1  10
BRANCH   7  18
ATOM     18  N   UNL     1      45.280 129.583  21.749  1.00  0.00    -0.324 NA
ATOM     19  H   UNL     1      45.913 129.246  20.986  1.00  0.00     0.119 HD
ATOM     20  H   UNL     1      45.806 129.435  22.640  1.00  0.00     0.119 HD
ENDBRANCH   7  18
TORSDOF 3
ENDMDL
MODEL 3
REMARK VINA RESULT:      -8.3      1.874      6.606
REMARK SMILES C=Cc1cccc(-c2ccc3c(c2)[C@H](N)CC3)c1
REMARK SMILES IDX 8 1 9 2 10 3 11 4 12 5 13 6 14 7 16 8 17 9 7 10 3 11 4 12
REMARK SMILES IDX 18 13 5 14 6 15 2 16 1 17 15 18
REMARK H PARENT 15 19 15 20
ROOT
ATOM      1  C   UNL     1      44.635 131.184  18.306  1.00  0.00    -0.018 A 
ATOM      2  C   UNL     1      45.727 130.293  18.432  1.00  0.00     0.009 A 
ATOM      3  C   UNL     1      46.471 129.914  17.305  1.00  0.00     0.005 A 
ATOM      4  C   UNL     1      46.116 130.430  16.059  1.00  0.00    -0.043 A 
ATOM      5  C   UNL     1      45.055 131.288  15.922  1.00  0.00    -0.027 A 
ATOM      6  C   UNL     1      44.301 131.685  17.029  1.00  0.00     0.014 A 
ATOM      7  C   UNL     1      44.855 131.708  14.509  1.00  0.00     0.081 C 
ATOM      8  C   UNL     1      46.061 131.079  13.771  1.00  0.00     0.028 C 
ATOM      9  C   UNL     1      46.780 130.150  14.766  1.00  0.00     0.038 C 
ENDROOT
BRANCH   1  10
ATOM     10  C   UNL     1      43.848 131.586  19.500  1.00  0.00    -0.018 A 
ATOM     11  C   UNL     1      43.527 131.593  21.930  1.00  0.00    -0.026 A 
ATOM     12  C   UNL     1      42.365 132.360  21.758  1.00  0.00     0.008 A 
ATOM     13  C   UNL     1      44.272 131.220  20.792  1.00  0.00     0.016 A 
ATOM     14  C   UNL     1      41.939 132.728  20.480  1.00  0.00     0.001 A 
ATOM     15  C   UNL     1      42.672 132.342  19.357  1.00  0.00     0.009 A 
BRANCH  11  16
ATOM     16  C   UNL     1      43.942 131.236  23.309  1.00  0.00     0.000 C 
ATOM     17  C   UNL     1      43.934 132.086  24.336  1.00  0.00     0.009 C 
ENDBRANCH  11  16
ENDBRANCH   1  10
BRANCH   7  18
ATOM     18  N   UNL     1      43.594 131.177  13.995  1.00  0.00    -0.324 NA
ATOM     19  H   UNL     1      43.094 131.947  13.493  1.00  0.00     0.119 HD
ATOM     20  H   UNL     1      43.818 130.462  13.266  1.00  0.00     0.119 HD
ENDBRANCH   7  18
TORSDOF 3
ENDMDL
MODEL 4
REMARK VINA RESULT:      -8.1      2.516      7.002
REMARK SMILES C=Cc1cccc(-c2ccc3c(c2)[C@H](N)CC3)c1
REMARK SMILES IDX 8 1 9 2 10 3 11 4 12 5 13 6 14 7 16 8 17 9 7 10 3 11 4 12
REMARK SMILES IDX 18 13 5 14 6 15 2 16 1 17 15 18
REMARK H PARENT 15 19 15 20
ROOT
ATOM      1  C   UNL     1      45.698 131.126  17.164  1.00  0.00    -0.018 A 
ATOM      2  C   UNL     1      45.390 132.280  16.404  1.00  0.00     0.009 A 
ATOM      3  C   UNL     1      45.797 132.382  15.066  1.00  0.00     0.005 A 
ATOM      4  C   UNL     1      46.510 131.327  14.497  1.00  0.00    -0.043 A 
ATOM      5  C   UNL     1      46.823 130.208  15.223  1.00  0.00    -0.027 A 
ATOM      6  C   UNL     1      46.424 130.079  16.557  1.00  0.00     0.014 A 
ATOM      7  C   UNL     1      47.588 129.216  14.422  1.00  0.00     0.081 C 
ATOM      8  C   UNL     1      47.600 129.832  13.001  1.00  0.00     0.028 C 
ATOM      9  C   UNL     1      47.017 131.253  13.108  1.00  0.00     0.038 C 
ENDROOT
BRANCH   1  10
ATOM     10  C   UNL     1      45.265 131.018  18.580  1.00  0.00    -0.018 A 
ATOM     11  C   UNL     1      43.675 131.561  20.364  1.00  0.00    -0.026 A 
ATOM     12  C   UNL     1      44.442 130.800  21.259  1.00  0.00     0.008 A 
ATOM     13  C   UNL     1      44.088 131.654  19.019  1.00  0.00     0.016 A 
ATOM     14  C   UNL     1      45.611 130.165  20.830  1.00  0.00     0.001 A 
ATOM     15  C   UNL     1      46.023 130.274  19.502  1.00  0.00     0.009 A 
BRANCH  11  16
ATOM     16  C   UNL     1      42.438 132.208  20.866  1.00  0.00     0.000 C 
ATOM     17  C   UNL     1      41.731 133.106  20.178  1.00  0.00     0.009 C 
ENDBRANCH  11  16
ENDBRANCH   1  10
BRANCH   7  18
ATOM     18  N   UNL     1      48.947 129.082  14.943  1.00  0.00    -0.324 NA
ATOM     19  H   UNL     1      49.527 128.587  14.226  1.00  0.00     0.119 HD
ATOM     20  H   UNL     1      49.358 130.041  15.025  1.00  0.00     0.119 HD
ENDBRANCH   7  18
TORSDOF 3
ENDMDL
MODEL 5
REMARK VINA RESULT:      -7.5      1.619      2.363
REMARK SMILES C=Cc1cccc(-c2ccc3c(c2)[C@H](N)CC3)c1
REMARK SMILES IDX 8 1 9 2 10 3 11 4 12 5 13 6 14 7 16 8 17 9 7 10 3 11 4 12
REMARK SMILES IDX 18 13 5 14 6 15 2 16 1 17 15 18
REMARK H PARENT 15 19 15 20
ROOT
ATOM      1  C   UNL     1      44.485 131.010  17.854  1.00  0.00    -0.018 A 
ATOM      2  C   UNL     1      43.226 131.644  17.729  1.00  0.00     0.009 A 
ATOM      3  C   UNL     1      42.556 132.126  18.863  1.00  0.00     0.005 A 
ATOM      4  C   UNL     1      43.151 131.969  20.114  1.00  0.00    -0.043 A 
ATOM      5  C   UNL     1      44.365 131.349  20.250  1.00  0.00    -0.027 A 
ATOM      6  C   UNL     1      45.057 130.865  19.136  1.00  0.00     0.014 A 
ATOM      7  C   UNL     1      44.806 131.288  21.669  1.00  0.00     0.081 C 
ATOM      8  C   UNL     1      43.725 132.102  22.420  1.00  0.00     0.028 C 
ATOM      9  C   UNL     1      42.600 132.413  21.415  1.00  0.00     0.038 C 
ENDROOT
BRANCH   1  10
ATOM     10  C   UNL     1      45.195 130.502  16.653  1.00  0.00    -0.018 A 
ATOM     11  C   UNL     1      46.606 130.902  14.690  1.00  0.00    -0.026 A 
ATOM     12  C   UNL     1      46.550 129.533  14.389  1.00  0.00     0.008 A 
ATOM     13  C   UNL     1      45.934 131.378  15.834  1.00  0.00     0.016 A 
ATOM     14  C   UNL     1      45.819 128.659  15.196  1.00  0.00     0.001 A 
ATOM     15  C   UNL     1      45.143 129.137  16.319  1.00  0.00     0.009 A 
BRANCH  11  16
ATOM     16  C   UNL     1      47.403 131.789  13.806  1.00  0.00     0.000 C 
ATOM     17  C   UNL     1      47.988 131.389  12.675  1.00  0.00     0.009 C 
ENDBRANCH  11  16
ENDBRANCH   1  10
BRANCH   7  18
ATOM     18  N   UNL     1      44.832 129.902  22.134  1.00  0.00    -0.324 NA
ATOM     19  H   UNL     1      44.341 129.856  23.057  1.00  0.00     0.119 HD
ATOM     20  H   UNL     1      44.253 129.330  21.476  1.00  0.00     0.119 HD
ENDBRANCH   7  18
TORSDOF 3
ENDMDL
MODEL 6
REMARK VINA RESULT:      -7.4      1.791      3.063
REMARK SMILES C=Cc1cccc(-c2ccc3c(c2)[C@H](N)CC3)c1
REMARK SMILES IDX 8 1 9 2 10 3 11 4 12 5 13 6 14 7 16 8 17 9 7 10 3 11 4 12
REMARK SMILES IDX 18 13 5 14 6 15 2 16 1 17 15 18
REMARK H PARENT 15 19 15 20
ROOT
ATOM      1  C   UNL     1      44.108 131.390  19.129  1.00  0.00    -0.018 A 
ATOM      2  C   UNL     1      42.861 132.058  19.142  1.00  0.00     0.009 A 
ATOM      3  C   UNL     1      42.231 132.370  20.355  1.00  0.00     0.005 A 
ATOM      4  C   UNL     1      42.855 132.010  21.549  1.00  0.00    -0.043 A 
ATOM      5  C   UNL     1      44.058 131.354  21.552  1.00  0.00    -0.027 A 
ATOM      6  C   UNL     1      44.709 131.036  20.356  1.00  0.00     0.014 A 
ATOM      7  C   UNL     1      44.535 131.064  22.931  1.00  0.00     0.081 C 
ATOM      8  C   UNL     1      43.492 131.771  23.829  1.00  0.00     0.028 C 
ATOM      9  C   UNL     1      42.349 132.255  22.918  1.00  0.00     0.038 C 
ENDROOT
BRANCH   1  10
ATOM     10  C   UNL     1      44.775 131.061  17.843  1.00  0.00    -0.018 A 
ATOM     11  C   UNL     1      44.849 131.180  15.397  1.00  0.00    -0.026 A 
ATOM     12  C   UNL     1      46.046 130.449  15.413  1.00  0.00     0.008 A 
ATOM     13  C   UNL     1      44.224 131.493  16.621  1.00  0.00     0.016 A 
ATOM     14  C   UNL     1      46.598 130.018  16.622  1.00  0.00     0.001 A 
ATOM     15  C   UNL     1      45.968 130.317  17.829  1.00  0.00     0.009 A 
BRANCH  11  16
ATOM     16  C   UNL     1      44.308 131.623  14.088  1.00  0.00     0.000 C 
ATOM     17  C   UNL     1      43.009 131.644  13.783  1.00  0.00     0.009 C 
ENDBRANCH  11  16
ENDBRANCH   1  10
BRANCH   7  18
ATOM     18  N   UNL     1      44.541 129.623  23.174  1.00  0.00    -0.324 NA
ATOM     19  H   UNL     1      44.580 129.464  24.208  1.00  0.00     0.119 HD
ATOM     20  H   UNL     1      43.618 129.239  22.863  1.00  0.00     0.119 HD
ENDBRANCH   7  18
TORSDOF 3
ENDMDL
MODEL 7
REMARK VINA RESULT:      -7.2      1.022      1.263
REMARK SMILES C=Cc1cccc(-c2ccc3c(c2)[C@H](N)CC3)c1
REMARK SMILES IDX 8 1 9 2 10 3 11 4 12 5 13 6 14 7 16 8 17 9 7 10 3 11 4 12
REMARK SMILES IDX 18 13 5 14 6 15 2 16 1 17 15 18
REMARK H PARENT 15 19 15 20
ROOT
ATOM      1  C   UNL     1      45.119 130.818  18.304  1.00  0.00    -0.018 A 
ATOM      2  C   UNL     1      46.074 130.720  19.344  1.00  0.00     0.009 A 
ATOM      3  C   UNL     1      45.745 131.104  20.652  1.00  0.00     0.005 A 
ATOM      4  C   UNL     1      44.461 131.583  20.911  1.00  0.00    -0.043 A 
ATOM      5  C   UNL     1      43.529 131.691  19.911  1.00  0.00    -0.027 A 
ATOM      6  C   UNL     1      43.830 131.311  18.600  1.00  0.00     0.014 A 
ATOM      7  C   UNL     1      42.235 132.229  20.409  1.00  0.00     0.081 C 
ATOM      8  C   UNL     1      42.447 132.322  21.940  1.00  0.00     0.028 C 
ATOM      9  C   UNL     1      43.933 132.029  22.219  1.00  0.00     0.038 C 
ENDROOT
BRANCH   1  10
ATOM     10  C   UNL     1      45.467 130.410  16.919  1.00  0.00    -0.018 A 
ATOM     11  C   UNL     1      46.571 130.876  14.781  1.00  0.00    -0.026 A 
ATOM     12  C   UNL     1      46.137 129.630  14.304  1.00  0.00     0.008 A 
ATOM     13  C   UNL     1      46.241 131.254  16.099  1.00  0.00     0.016 A 
ATOM     14  C   UNL     1      45.369 128.788  15.112  1.00  0.00     0.001 A 
ATOM     15  C   UNL     1      45.033 129.174  16.409  1.00  0.00     0.009 A 
BRANCH  11  16
ATOM     16  C   UNL     1      47.391 131.730  13.887  1.00  0.00     0.000 C 
ATOM     17  C   UNL     1      47.965 131.300  12.762  1.00  0.00     0.009 C 
ENDBRANCH  11  16
ENDBRANCH   1  10
BRANCH   7  18
ATOM     18  N   UNL     1      41.979 133.549  19.837  1.00  0.00    -0.324 NA
ATOM     19  H   UNL     1      42.463 133.605  18.911  1.00  0.00     0.119 HD
ATOM     20  H   UNL     1      40.957 133.617  19.627  1.00  0.00     0.119 HD
ENDBRANCH   7  18
TORSDOF 3
ENDMDL
MODEL 8
REMARK VINA RESULT:      -6.8      0.812      2.127
REMARK SMILES C=Cc1cccc(-c2ccc3c(c2)[C@H](N)CC3)c1
REMARK SMILES IDX 8 1 9 2 10 3 11 4 12 5 13 6 14 7 16 8 17 9 7 10 3 11 4 12
REMARK SMILES IDX 18 13 5 14 6 15 2 16 1 17 15 18
REMARK H PARENT 15 19 15 20
ROOT
ATOM      1  C   UNL     1      45.035 130.981  18.513  1.00  0.00    -0.018 A 
ATOM      2  C   UNL     1      45.983 130.750  19.538  1.00  0.00     0.009 A 
ATOM      3  C   UNL     1      45.652 130.981  20.881  1.00  0.00     0.005 A 
ATOM      4  C   UNL     1      44.372 131.442  21.189  1.00  0.00    -0.043 A 
ATOM      5  C   UNL     1      43.447 131.679  20.205  1.00  0.00    -0.027 A 
ATOM      6  C   UNL     1      43.750 131.452  18.860  1.00  0.00     0.014 A 
ATOM      7  C   UNL     1      42.156 132.169  20.758  1.00  0.00     0.081 C 
ATOM      8  C   UNL     1      42.361 132.078  22.289  1.00  0.00     0.028 C 
ATOM      9  C   UNL     1      43.841 131.737  22.539  1.00  0.00     0.038 C 
ENDROOT
BRANCH   1  10
ATOM     10  C   UNL     1      45.387 130.736  17.091  1.00  0.00    -0.018 A 
ATOM     11  C   UNL     1      44.862 130.941  14.706  1.00  0.00    -0.026 A 
ATOM     12  C   UNL     1      46.063 130.282  14.401  1.00  0.00     0.008 A 
ATOM     13  C   UNL     1      44.537 131.175  16.058  1.00  0.00     0.016 A 
ATOM     14  C   UNL     1      46.911 129.845  15.421  1.00  0.00     0.001 A 
ATOM     15  C   UNL     1      46.577 130.066  16.757  1.00  0.00     0.009 A 
BRANCH  11  16
ATOM     16  C   UNL     1      43.999 131.394  13.587  1.00  0.00     0.000 C 
ATOM     17  C   UNL     1      42.752 131.843  13.738  1.00  0.00     0.009 C 
ENDBRANCH  11  16
ENDBRANCH   1  10
BRANCH   7  18
ATOM     18  N   UNL     1      41.919 133.551  20.344  1.00  0.00    -0.324 NA
ATOM     19  H   UNL     1      40.911 133.645  20.077  1.00  0.00     0.119 HD
ATOM     20  H   UNL     1      42.048 134.165  21.181  1.00  0.00     0.119 HD
ENDBRANCH   7  18
TORSDOF 3
ENDMDL
MODEL 9
REMARK VINA RESULT:      -6.7      2.492      7.030
REMARK SMILES C=Cc1cccc(-c2ccc3c(c2)[C@H](N)CC3)c1
REMARK SMILES IDX 8 1 9 2 10 3 11 4 12 5 13 6 14 7 16 8 17 9 7 10 3 11 4 12
REMARK SMILES IDX 18 13 5 14 6 15 2 16 1 17 15 18
REMARK H PARENT 15 19 15 20
ROOT
ATOM      1  C   UNL     1      45.464 130.971  17.926  1.00  0.00    -0.018 A 
ATOM      2  C   UNL     1      45.088 132.199  17.333  1.00  0.00     0.009 A 
ATOM      3  C   UNL     1      45.383 132.461  15.987  1.00  0.00     0.005 A 
ATOM      4  C   UNL     1      46.052 131.489  15.243  1.00  0.00    -0.043 A 
ATOM      5  C   UNL     1      46.430 130.299  15.808  1.00  0.00    -0.027 A 
ATOM      6  C   UNL     1      46.144 130.011  17.145  1.00  0.00     0.014 A 
ATOM      7  C   UNL     1      47.133 129.418  14.837  1.00  0.00     0.081 C 
ATOM      8  C   UNL     1      47.023 130.192  13.501  1.00  0.00     0.028 C 
ATOM      9  C   UNL     1      46.443 131.582  13.819  1.00  0.00     0.038 C 
ENDROOT
BRANCH   1  10
ATOM     10  C   UNL     1      45.151 130.695  19.351  1.00  0.00    -0.018 A 
ATOM     11  C   UNL     1      43.843 131.165  21.369  1.00  0.00    -0.026 A 
ATOM     12  C   UNL     1      44.551 130.159  22.044  1.00  0.00     0.008 A 
ATOM     13  C   UNL     1      44.142 131.418  20.015  1.00  0.00     0.016 A 
ATOM     14  C   UNL     1      45.553 129.437  21.392  1.00  0.00     0.001 A 
ATOM     15  C   UNL     1      45.855 129.703  20.056  1.00  0.00     0.009 A 
BRANCH  11  16
ATOM     16  C   UNL     1      42.782 131.898  22.104  1.00  0.00     0.000 C 
ATOM     17  C   UNL     1      42.718 131.988  23.433  1.00  0.00     0.009 C 
ENDBRANCH  11  16
ENDBRANCH   1  10
BRANCH   7  18
ATOM     18  N   UNL     1      48.531 129.246  15.227  1.00  0.00    -0.324 NA
ATOM     19  H   UNL     1      49.113 129.909  14.665  1.00  0.00     0.119 HD
ATOM     20  H   UNL     1      48.630 129.555  16.221  1.00  0.00     0.119 HD
ENDBRANCH   7  18
TORSDOF 3
ENDMDL


