MODEL 1
REMARK VINA RESULT:      -4.4      0.000      0.000
REMARK SMILES CCC[C@H](C)NC(=O)N(c1ccc(C)cc1)c1ccc2cc[nH]c2c1[O-]
REMARK SMILES IDX 6 1 7 2 8 3 4 5 5 6 3 7 2 8 1 9 9 10 10 11 11 12 16 13 12 14
REMARK SMILES IDX 15 15 13 16 14 17 17 18 18 19 25 20 19 21 24 22 20 23 23 24
REMARK SMILES IDX 21 25 22 26 26 27
REMARK H PARENT 6 4 23 28
ROOT
ATOM      1  N   UNL     1      46.574 133.435  21.577  1.00  0.00    -0.335 N 
ATOM      2  C   UNL     1      46.526 132.137  20.963  1.00  0.00     0.326 C 
ATOM      3  O   UNL     1      47.593 131.489  20.773  1.00  0.00    -0.248 OA
ATOM      4  H   UNL     1      45.682 133.864  21.912  1.00  0.00     0.165 HD
ENDROOT
BRANCH   1   5
ATOM      5  C   UNL     1      47.829 134.122  21.893  1.00  0.00     0.080 C 
ATOM      6  C   UNL     1      47.719 135.586  21.449  1.00  0.00     0.031 C 
BRANCH   5   7
ATOM      7  C   UNL     1      48.104 133.987  23.407  1.00  0.00     0.024 C 
BRANCH   7   8
ATOM      8  C   UNL     1      49.575 133.717  23.773  1.00  0.00    -0.001 C 
ATOM      9  C   UNL     1      50.425 134.987  23.805  1.00  0.00     0.004 C 
ENDBRANCH   7   8
ENDBRANCH   5   7
ENDBRANCH   1   5
BRANCH   2  10
ATOM     10  N   UNL     1      45.262 131.556  20.576  1.00  0.00    -0.264 N 
BRANCH  10  11
ATOM     11  C   UNL     1      44.894 131.450  19.185  1.00  0.00     0.051 A 
ATOM     12  C   UNL     1      43.624 131.863  18.746  1.00  0.00     0.027 A 
ATOM     13  C   UNL     1      45.811 130.949  18.246  1.00  0.00     0.027 A 
ATOM     14  C   UNL     1      43.273 131.759  17.396  1.00  0.00     0.005 A 
ATOM     15  C   UNL     1      45.461 130.848  16.897  1.00  0.00     0.005 A 
ATOM     16  C   UNL     1      44.186 131.242  16.465  1.00  0.00    -0.051 A 
ATOM     17  C   UNL     1      43.828 131.144  15.012  1.00  0.00     0.044 C 
ENDBRANCH  10  11
BRANCH  10  18
ATOM     18  C   UNL     1      44.393 131.003  21.584  1.00  0.00     0.045 A 
ATOM     19  C   UNL     1      43.383 131.814  22.168  1.00  0.00     0.027 A 
ATOM     20  C   UNL     1      44.539 129.659  22.006  1.00  0.00    -0.059 A 
ATOM     21  C   UNL     1      42.518 131.293  23.147  1.00  0.00     0.012 A 
ATOM     22  C   UNL     1      43.661 129.174  22.977  1.00  0.00     0.039 A 
ATOM     23  C   UNL     1      42.689 129.965  23.526  1.00  0.00    -0.001 A 
ATOM     24  N   UNL     1      43.621 127.938  23.503  1.00  0.00    -0.362 N 
ATOM     25  C   UNL     1      41.999 129.199  24.439  1.00  0.00     0.028 A 
ATOM     26  C   UNL     1      42.605 127.948  24.396  1.00  0.00     0.083 A 
ATOM     27  O   UNL     1      45.535 128.840  21.484  1.00  0.00    -0.870 OA
ATOM     28  H   UNL     1      44.239 127.130  23.267  1.00  0.00     0.166 HD
ENDBRANCH  10  18
ENDBRANCH   2  10
TORSDOF 6
ENDMDL
MODEL 2
REMARK VINA RESULT:      -4.0      1.515      2.158
REMARK SMILES CCC[C@H](C)NC(=O)N(c1ccc(C)cc1)c1ccc2cc[nH]c2c1[O-]
REMARK SMILES IDX 6 1 7 2 8 3 4 5 5 6 3 7 2 8 1 9 9 10 10 11 11 12 16 13 12 14
REMARK SMILES IDX 15 15 13 16 14 17 17 18 18 19 25 20 19 21 24 22 20 23 23 24
REMARK SMILES IDX 21 25 22 26 26 27
REMARK H PARENT 6 4 23 28
ROOT
ATOM      1  N   UNL     1      46.744 132.844  21.785  1.00  0.00    -0.335 N 
ATOM      2  C   UNL     1      45.741 132.873  20.757  1.00  0.00     0.326 C 
ATOM      3  O   UNL     1      45.430 133.969  20.212  1.00  0.00    -0.248 OA
ATOM      4  H   UNL     1      47.135 131.919  22.078  1.00  0.00     0.165 HD
ENDROOT
BRANCH   1   5
ATOM      5  C   UNL     1      47.355 134.055  22.340  1.00  0.00     0.080 C 
ATOM      6  C   UNL     1      47.354 133.956  23.870  1.00  0.00     0.031 C 
BRANCH   5   7
ATOM      7  C   UNL     1      48.779 134.204  21.763  1.00  0.00     0.024 C 
BRANCH   7   8
ATOM      8  C   UNL     1      49.385 135.614  21.896  1.00  0.00    -0.001 C 
ATOM      9  C   UNL     1      50.460 135.701  22.979  1.00  0.00     0.004 C 
ENDBRANCH   7   8
ENDBRANCH   5   7
ENDBRANCH   1   5
BRANCH   2  10
ATOM     10  N   UNL     1      45.098 131.655  20.326  1.00  0.00    -0.264 N 
BRANCH  10  11
ATOM     11  C   UNL     1      45.041 131.305  18.928  1.00  0.00     0.051 A 
ATOM     12  C   UNL     1      46.051 130.521  18.343  1.00  0.00     0.027 A 
ATOM     13  C   UNL     1      43.962 131.730  18.135  1.00  0.00     0.027 A 
ATOM     14  C   UNL     1      45.990 130.184  16.987  1.00  0.00     0.005 A 
ATOM     15  C   UNL     1      43.900 131.390  16.781  1.00  0.00     0.005 A 
ATOM     16  C   UNL     1      44.918 130.625  16.196  1.00  0.00    -0.051 A 
ATOM     17  C   UNL     1      44.832 130.253  14.745  1.00  0.00     0.044 C 
ENDBRANCH  10  11
BRANCH  10  18
ATOM     18  C   UNL     1      44.577 130.738  21.309  1.00  0.00     0.045 A 
ATOM     19  C   UNL     1      45.289 129.546  21.610  1.00  0.00     0.027 A 
ATOM     20  C   UNL     1      43.357 131.009  21.976  1.00  0.00    -0.059 A 
ATOM     21  C   UNL     1      44.805 128.642  22.571  1.00  0.00     0.012 A 
ATOM     22  C   UNL     1      42.908 130.091  22.926  1.00  0.00     0.039 A 
ATOM     23  C   UNL     1      43.608 128.951  23.210  1.00  0.00    -0.001 A 
ATOM     24  N   UNL     1      41.793 130.163  23.673  1.00  0.00    -0.362 N 
ATOM     25  C   UNL     1      42.909 128.266  24.181  1.00  0.00     0.028 A 
ATOM     26  C   UNL     1      41.790 129.050  24.443  1.00  0.00     0.083 A 
ATOM     27  O   UNL     1      42.612 132.148  21.688  1.00  0.00    -0.870 OA
ATOM     28  H   UNL     1      41.077 130.923  23.670  1.00  0.00     0.166 HD
ENDBRANCH  10  18
ENDBRANCH   2  10
TORSDOF 6
ENDMDL
MODEL 3
REMARK VINA RESULT:      -3.4      1.841      5.561
REMARK SMILES CCC[C@H](C)NC(=O)N(c1ccc(C)cc1)c1ccc2cc[nH]c2c1[O-]
REMARK SMILES IDX 6 1 7 2 8 3 4 5 5 6 3 7 2 8 1 9 9 10 10 11 11 12 16 13 12 14
REMARK SMILES IDX 15 15 13 16 14 17 17 18 18 19 25 20 19 21 24 22 20 23 23 24
REMARK SMILES IDX 21 25 22 26 26 27
REMARK H PARENT 6 4 23 28
ROOT
ATOM      1  N   UNL     1      46.883 132.769  21.953  1.00  0.00    -0.335 N 
ATOM      2  C   UNL     1      45.909 132.706  20.899  1.00  0.00     0.326 C 
ATOM      3  O   UNL     1      45.492 133.770  20.362  1.00  0.00    -0.248 OA
ATOM      4  H   UNL     1      47.366 131.888  22.242  1.00  0.00     0.165 HD
ENDROOT
BRANCH   1   5
ATOM      5  C   UNL     1      47.344 134.030  22.541  1.00  0.00     0.080 C 
ATOM      6  C   UNL     1      46.886 134.093  24.003  1.00  0.00     0.031 C 
BRANCH   5   7
ATOM      7  C   UNL     1      48.880 134.114  22.403  1.00  0.00     0.024 C 
BRANCH   7   8
ATOM      8  C   UNL     1      49.401 135.421  21.778  1.00  0.00    -0.001 C 
ATOM      9  C   UNL     1      48.299 136.249  21.118  1.00  0.00     0.004 C 
ENDBRANCH   7   8
ENDBRANCH   5   7
ENDBRANCH   1   5
BRANCH   2  10
ATOM     10  N   UNL     1      45.414 131.433  20.435  1.00  0.00    -0.264 N 
BRANCH  10  11
ATOM     11  C   UNL     1      44.937 130.441  21.369  1.00  0.00     0.051 A 
ATOM     12  C   UNL     1      43.913 130.749  22.282  1.00  0.00     0.027 A 
ATOM     13  C   UNL     1      45.480 129.145  21.364  1.00  0.00     0.027 A 
ATOM     14  C   UNL     1      43.455 129.785  23.184  1.00  0.00     0.005 A 
ATOM     15  C   UNL     1      45.019 128.180  22.264  1.00  0.00     0.005 A 
ATOM     16  C   UNL     1      44.012 128.497  23.187  1.00  0.00    -0.051 A 
ATOM     17  C   UNL     1      43.515 127.447  24.136  1.00  0.00     0.044 C 
ENDBRANCH  10  11
BRANCH  10  18
ATOM     18  C   UNL     1      45.318 131.178  19.019  1.00  0.00     0.045 A 
ATOM     19  C   UNL     1      46.321 130.408  18.371  1.00  0.00     0.027 A 
ATOM     20  C   UNL     1      44.237 131.693  18.263  1.00  0.00    -0.059 A 
ATOM     21  C   UNL     1      46.244 130.139  16.994  1.00  0.00     0.012 A 
ATOM     22  C   UNL     1      44.191 131.404  16.899  1.00  0.00     0.039 A 
ATOM     23  C   UNL     1      45.160 130.656  16.290  1.00  0.00    -0.001 A 
ATOM     24  N   UNL     1      43.254 131.782  16.012  1.00  0.00    -0.362 N 
ATOM     25  C   UNL     1      44.827 130.551  14.957  1.00  0.00     0.028 A 
ATOM     26  C   UNL     1      43.639 131.262  14.824  1.00  0.00     0.083 A 
ATOM     27  O   UNL     1      43.251 132.479  18.852  1.00  0.00    -0.870 OA
ATOM     28  H   UNL     1      42.400 132.353  16.197  1.00  0.00     0.166 HD
ENDBRANCH  10  18
ENDBRANCH   2  10
TORSDOF 6
ENDMDL
MODEL 4
REMARK VINA RESULT:      -3.4      1.280      2.045
REMARK SMILES CCC[C@H](C)NC(=O)N(c1ccc(C)cc1)c1ccc2cc[nH]c2c1[O-]
REMARK SMILES IDX 6 1 7 2 8 3 4 5 5 6 3 7 2 8 1 9 9 10 10 11 11 12 16 13 12 14
REMARK SMILES IDX 15 15 13 16 14 17 17 18 18 19 25 20 19 21 24 22 20 23 23 24
REMARK SMILES IDX 21 25 22 26 26 27
REMARK H PARENT 6 4 23 28
ROOT
ATOM      1  N   UNL     1      46.286 133.271  21.900  1.00  0.00    -0.335 N 
ATOM      2  C   UNL     1      46.608 132.138  21.077  1.00  0.00     0.326 C 
ATOM      3  O   UNL     1      47.811 131.896  20.782  1.00  0.00    -0.248 OA
ATOM      4  H   UNL     1      45.324 133.340  22.303  1.00  0.00     0.165 HD
ENDROOT
BRANCH   1   5
ATOM      5  C   UNL     1      47.282 134.256  22.327  1.00  0.00     0.080 C 
ATOM      6  C   UNL     1      48.311 133.564  23.230  1.00  0.00     0.031 C 
BRANCH   5   7
ATOM      7  C   UNL     1      47.930 134.886  21.075  1.00  0.00     0.024 C 
BRANCH   7   8
ATOM      8  C   UNL     1      48.505 136.299  21.287  1.00  0.00    -0.001 C 
ATOM      9  C   UNL     1      49.527 136.694  20.222  1.00  0.00     0.004 C 
ENDBRANCH   7   8
ENDBRANCH   5   7
ENDBRANCH   1   5
BRANCH   2  10
ATOM     10  N   UNL     1      45.567 131.261  20.599  1.00  0.00    -0.264 N 
BRANCH  10  11
ATOM     11  C   UNL     1      45.286 131.150  19.187  1.00  0.00     0.051 A 
ATOM     12  C   UNL     1      44.219 131.860  18.610  1.00  0.00     0.027 A 
ATOM     13  C   UNL     1      46.091 130.342  18.367  1.00  0.00     0.027 A 
ATOM     14  C   UNL     1      43.953 131.750  17.242  1.00  0.00     0.005 A 
ATOM     15  C   UNL     1      45.826 130.235  16.999  1.00  0.00     0.005 A 
ATOM     16  C   UNL     1      44.749 130.929  16.430  1.00  0.00    -0.051 A 
ATOM     17  C   UNL     1      44.485 130.818  14.958  1.00  0.00     0.044 C 
ENDBRANCH  10  11
BRANCH  10  18
ATOM     18  C   UNL     1      44.853 130.426  21.532  1.00  0.00     0.045 A 
ATOM     19  C   UNL     1      45.342 129.127  21.834  1.00  0.00     0.027 A 
ATOM     20  C   UNL     1      43.663 130.883  22.148  1.00  0.00    -0.059 A 
ATOM     21  C   UNL     1      44.668 128.298  22.748  1.00  0.00     0.012 A 
ATOM     22  C   UNL     1      43.021 130.036  23.052  1.00  0.00     0.039 A 
ATOM     23  C   UNL     1      43.508 128.790  23.339  1.00  0.00    -0.001 A 
ATOM     24  N   UNL     1      41.897 130.279  23.748  1.00  0.00    -0.362 N 
ATOM     25  C   UNL     1      42.658 128.214  24.258  1.00  0.00     0.028 A 
ATOM     26  C   UNL     1      41.672 129.169  24.487  1.00  0.00     0.083 A 
ATOM     27  O   UNL     1      43.131 132.135  21.855  1.00  0.00    -0.870 OA
ATOM     28  H   UNL     1      41.317 131.147  23.731  1.00  0.00     0.166 HD
ENDBRANCH  10  18
ENDBRANCH   2  10
TORSDOF 6
ENDMDL
MODEL 5
REMARK VINA RESULT:      -3.3      1.769      5.583
REMARK SMILES CCC[C@H](C)NC(=O)N(c1ccc(C)cc1)c1ccc2cc[nH]c2c1[O-]
REMARK SMILES IDX 6 1 7 2 8 3 4 5 5 6 3 7 2 8 1 9 9 10 10 11 11 12 16 13 12 14
REMARK SMILES IDX 15 15 13 16 14 17 17 18 18 19 25 20 19 21 24 22 20 23 23 24
REMARK SMILES IDX 21 25 22 26 26 27
REMARK H PARENT 6 4 23 28
ROOT
ATOM      1  N   UNL     1      47.130 132.637  21.728  1.00  0.00    -0.335 N 
ATOM      2  C   UNL     1      45.984 132.661  20.863  1.00  0.00     0.326 C 
ATOM      3  O   UNL     1      45.502 133.765  20.485  1.00  0.00    -0.248 OA
ATOM      4  H   UNL     1      47.638 131.733  21.863  1.00  0.00     0.165 HD
ENDROOT
BRANCH   1   5
ATOM      5  C   UNL     1      47.714 133.847  22.313  1.00  0.00     0.080 C 
ATOM      6  C   UNL     1      46.897 134.246  23.548  1.00  0.00     0.031 C 
BRANCH   5   7
ATOM      7  C   UNL     1      49.195 133.572  22.653  1.00  0.00     0.024 C 
BRANCH   7   8
ATOM      8  C   UNL     1      50.010 134.820  23.043  1.00  0.00    -0.001 C 
ATOM      9  C   UNL     1      49.904 135.947  22.016  1.00  0.00     0.004 C 
ENDBRANCH   7   8
ENDBRANCH   5   7
ENDBRANCH   1   5
BRANCH   2  10
ATOM     10  N   UNL     1      45.387 131.429  20.404  1.00  0.00    -0.264 N 
BRANCH  10  11
ATOM     11  C   UNL     1      44.784 130.509  21.338  1.00  0.00     0.051 A 
ATOM     12  C   UNL     1      45.367 129.254  21.586  1.00  0.00     0.027 A 
ATOM     13  C   UNL     1      43.613 130.865  22.027  1.00  0.00     0.027 A 
ATOM     14  C   UNL     1      44.780 128.367  22.493  1.00  0.00     0.005 A 
ATOM     15  C   UNL     1      43.028 129.980  22.936  1.00  0.00     0.005 A 
ATOM     16  C   UNL     1      43.600 128.720  23.166  1.00  0.00    -0.051 A 
ATOM     17  C   UNL     1      42.972 127.785  24.156  1.00  0.00     0.044 C 
ENDBRANCH  10  11
BRANCH  10  18
ATOM     18  C   UNL     1      45.320 131.152  18.991  1.00  0.00     0.045 A 
ATOM     19  C   UNL     1      46.311 130.334  18.384  1.00  0.00     0.027 A 
ATOM     20  C   UNL     1      44.279 131.692  18.197  1.00  0.00    -0.059 A 
ATOM     21  C   UNL     1      46.261 130.043  17.010  1.00  0.00     0.012 A 
ATOM     22  C   UNL     1      44.259 131.380  16.837  1.00  0.00     0.039 A 
ATOM     23  C   UNL     1      45.216 130.585  16.268  1.00  0.00    -0.001 A 
ATOM     24  N   UNL     1      43.361 131.775  15.918  1.00  0.00    -0.362 N 
ATOM     25  C   UNL     1      44.915 130.469  14.928  1.00  0.00     0.028 A 
ATOM     26  C   UNL     1      43.758 131.219  14.750  1.00  0.00     0.083 A 
ATOM     27  O   UNL     1      43.307 132.523  18.744  1.00  0.00    -0.870 OA
ATOM     28  H   UNL     1      42.524 132.380  16.070  1.00  0.00     0.166 HD
ENDBRANCH  10  18
ENDBRANCH   2  10
TORSDOF 6
ENDMDL
MODEL 6
REMARK VINA RESULT:      -3.2      1.372      5.337
REMARK SMILES CCC[C@H](C)NC(=O)N(c1ccc(C)cc1)c1ccc2cc[nH]c2c1[O-]
REMARK SMILES IDX 6 1 7 2 8 3 4 5 5 6 3 7 2 8 1 9 9 10 10 11 11 12 16 13 12 14
REMARK SMILES IDX 15 15 13 16 14 17 17 18 18 19 25 20 19 21 24 22 20 23 23 24
REMARK SMILES IDX 21 25 22 26 26 27
REMARK H PARENT 6 4 23 28
ROOT
ATOM      1  N   UNL     1      46.744 133.337  21.655  1.00  0.00    -0.335 N 
ATOM      2  C   UNL     1      46.919 132.082  20.977  1.00  0.00     0.326 C 
ATOM      3  O   UNL     1      48.081 131.641  20.758  1.00  0.00    -0.248 OA
ATOM      4  H   UNL     1      45.793 133.587  22.009  1.00  0.00     0.165 HD
ENDROOT
BRANCH   1   5
ATOM      5  C   UNL     1      47.862 134.216  22.009  1.00  0.00     0.080 C 
ATOM      6  C   UNL     1      47.590 135.616  21.445  1.00  0.00     0.031 C 
BRANCH   5   7
ATOM      7  C   UNL     1      48.025 134.223  23.544  1.00  0.00     0.024 C 
BRANCH   7   8
ATOM      8  C   UNL     1      49.411 133.780  24.048  1.00  0.00    -0.001 C 
ATOM      9  C   UNL     1      50.480 134.859  23.881  1.00  0.00     0.004 C 
ENDBRANCH   7   8
ENDBRANCH   5   7
ENDBRANCH   1   5
BRANCH   2  10
ATOM     10  N   UNL     1      45.773 131.310  20.558  1.00  0.00    -0.264 N 
BRANCH  10  11
ATOM     11  C   UNL     1      44.821 130.820  21.525  1.00  0.00     0.051 A 
ATOM     12  C   UNL     1      43.803 131.656  22.017  1.00  0.00     0.027 A 
ATOM     13  C   UNL     1      44.887 129.490  21.973  1.00  0.00     0.027 A 
ATOM     14  C   UNL     1      42.882 131.176  22.952  1.00  0.00     0.005 A 
ATOM     15  C   UNL     1      43.965 129.010  22.906  1.00  0.00     0.005 A 
ATOM     16  C   UNL     1      42.964 129.852  23.410  1.00  0.00    -0.051 A 
ATOM     17  C   UNL     1      41.970 129.319  24.399  1.00  0.00     0.044 C 
ENDBRANCH  10  11
BRANCH  10  18
ATOM     18  C   UNL     1      45.534 131.095  19.153  1.00  0.00     0.045 A 
ATOM     19  C   UNL     1      46.349 130.183  18.429  1.00  0.00     0.027 A 
ATOM     20  C   UNL     1      44.496 131.787  18.482  1.00  0.00    -0.059 A 
ATOM     21  C   UNL     1      46.128 129.950  17.061  1.00  0.00     0.012 A 
ATOM     22  C   UNL     1      44.304 131.529  17.124  1.00  0.00     0.039 A 
ATOM     23  C   UNL     1      45.092 130.644  16.442  1.00  0.00    -0.001 A 
ATOM     24  N   UNL     1      43.377 132.065  16.311  1.00  0.00    -0.362 N 
ATOM     25  C   UNL     1      44.649 130.613  15.138  1.00  0.00     0.028 A 
ATOM     26  C   UNL     1      43.584 131.507  15.096  1.00  0.00     0.083 A 
ATOM     27  O   UNL     1      43.696 132.712  19.145  1.00  0.00    -0.870 OA
ATOM     28  H   UNL     1      42.642 132.763  16.562  1.00  0.00     0.166 HD
ENDBRANCH  10  18
ENDBRANCH   2  10
TORSDOF 6
ENDMDL
MODEL 7
REMARK VINA RESULT:      -3.1      1.207      2.032
REMARK SMILES CCC[C@H](C)NC(=O)N(c1ccc(C)cc1)c1ccc2cc[nH]c2c1[O-]
REMARK SMILES IDX 6 1 7 2 8 3 4 5 5 6 3 7 2 8 1 9 9 10 10 11 11 12 16 13 12 14
REMARK SMILES IDX 15 15 13 16 14 17 17 18 18 19 25 20 19 21 24 22 20 23 23 24
REMARK SMILES IDX 21 25 22 26 26 27
REMARK H PARENT 6 4 23 28
ROOT
ATOM      1  N   UNL     1      46.692 133.232  21.363  1.00  0.00    -0.335 N 
ATOM      2  C   UNL     1      46.782 131.939  20.741  1.00  0.00     0.326 C 
ATOM      3  O   UNL     1      47.912 131.413  20.544  1.00  0.00    -0.248 OA
ATOM      4  H   UNL     1      45.759 133.560  21.704  1.00  0.00     0.165 HD
ENDROOT
BRANCH   1   5
ATOM      5  C   UNL     1      47.865 134.049  21.679  1.00  0.00     0.080 C 
ATOM      6  C   UNL     1      47.489 135.531  21.549  1.00  0.00     0.031 C 
BRANCH   5   7
ATOM      7  C   UNL     1      48.357 133.691  23.098  1.00  0.00     0.024 C 
BRANCH   7   8
ATOM      8  C   UNL     1      47.782 134.573  24.222  1.00  0.00    -0.001 C 
ATOM      9  C   UNL     1      46.353 134.193  24.607  1.00  0.00     0.004 C 
ENDBRANCH   7   8
ENDBRANCH   5   7
ENDBRANCH   1   5
BRANCH   2  10
ATOM     10  N   UNL     1      45.587 131.227  20.356  1.00  0.00    -0.264 N 
BRANCH  10  11
ATOM     11  C   UNL     1      45.131 131.238  18.987  1.00  0.00     0.051 A 
ATOM     12  C   UNL     1      45.899 130.644  17.970  1.00  0.00     0.027 A 
ATOM     13  C   UNL     1      43.900 131.828  18.655  1.00  0.00     0.027 A 
ATOM     14  C   UNL     1      45.452 130.656  16.646  1.00  0.00     0.005 A 
ATOM     15  C   UNL     1      43.452 131.837  17.332  1.00  0.00     0.005 A 
ATOM     16  C   UNL     1      44.230 131.262  16.317  1.00  0.00    -0.051 A 
ATOM     17  C   UNL     1      43.730 131.264  14.903  1.00  0.00     0.044 C 
ENDBRANCH  10  11
BRANCH  10  18
ATOM     18  C   UNL     1      44.886 130.431  21.331  1.00  0.00     0.045 A 
ATOM     19  C   UNL     1      45.375 129.141  21.673  1.00  0.00     0.027 A 
ATOM     20  C   UNL     1      43.708 130.916  21.950  1.00  0.00    -0.059 A 
ATOM     21  C   UNL     1      44.713 128.350  22.628  1.00  0.00     0.012 A 
ATOM     22  C   UNL     1      43.078 130.105  22.895  1.00  0.00     0.039 A 
ATOM     23  C   UNL     1      43.565 128.869  23.219  1.00  0.00    -0.001 A 
ATOM     24  N   UNL     1      41.967 130.379  23.600  1.00  0.00    -0.362 N 
ATOM     25  C   UNL     1      42.728 128.332  24.173  1.00  0.00     0.028 A 
ATOM     26  C   UNL     1      41.750 129.298  24.384  1.00  0.00     0.083 A 
ATOM     27  O   UNL     1      43.176 132.159  21.620  1.00  0.00    -0.870 OA
ATOM     28  H   UNL     1      41.391 131.249  23.561  1.00  0.00     0.166 HD
ENDBRANCH  10  18
ENDBRANCH   2  10
TORSDOF 6
ENDMDL
MODEL 8
REMARK VINA RESULT:      -2.7      1.369      1.927
REMARK SMILES CCC[C@H](C)NC(=O)N(c1ccc(C)cc1)c1ccc2cc[nH]c2c1[O-]
REMARK SMILES IDX 6 1 7 2 8 3 4 5 5 6 3 7 2 8 1 9 9 10 10 11 11 12 16 13 12 14
REMARK SMILES IDX 15 15 13 16 14 17 17 18 18 19 25 20 19 21 24 22 20 23 23 24
REMARK SMILES IDX 21 25 22 26 26 27
REMARK H PARENT 6 4 23 28
ROOT
ATOM      1  N   UNL     1      46.745 132.940  21.634  1.00  0.00    -0.335 N 
ATOM      2  C   UNL     1      45.509 132.471  22.196  1.00  0.00     0.326 C 
ATOM      3  O   UNL     1      45.040 133.020  23.232  1.00  0.00    -0.248 OA
ATOM      4  H   UNL     1      47.013 132.621  20.675  1.00  0.00     0.165 HD
ENDROOT
BRANCH   1   5
ATOM      5  C   UNL     1      47.577 133.962  22.275  1.00  0.00     0.080 C 
ATOM      6  C   UNL     1      48.864 133.305  22.789  1.00  0.00     0.031 C 
BRANCH   5   7
ATOM      7  C   UNL     1      47.860 135.087  21.255  1.00  0.00     0.024 C 
BRANCH   7   8
ATOM      8  C   UNL     1      48.796 136.199  21.764  1.00  0.00    -0.001 C 
ATOM      9  C   UNL     1      49.418 137.019  20.634  1.00  0.00     0.004 C 
ENDBRANCH   7   8
ENDBRANCH   5   7
ENDBRANCH   1   5
BRANCH   2  10
ATOM     10  N   UNL     1      44.787 131.386  21.576  1.00  0.00    -0.264 N 
BRANCH  10  11
ATOM     11  C   UNL     1      44.593 131.351  20.146  1.00  0.00     0.051 A 
ATOM     12  C   UNL     1      43.409 131.846  19.571  1.00  0.00     0.027 A 
ATOM     13  C   UNL     1      45.597 130.839  19.307  1.00  0.00     0.027 A 
ATOM     14  C   UNL     1      43.227 131.811  18.186  1.00  0.00     0.005 A 
ATOM     15  C   UNL     1      45.416 130.808  17.922  1.00  0.00     0.005 A 
ATOM     16  C   UNL     1      44.226 131.283  17.353  1.00  0.00    -0.051 A 
ATOM     17  C   UNL     1      44.050 131.258  15.864  1.00  0.00     0.044 C 
ENDBRANCH  10  11
BRANCH  10  18
ATOM     18  C   UNL     1      44.325 130.284  22.382  1.00  0.00     0.045 A 
ATOM     19  C   UNL     1      43.253 130.477  23.294  1.00  0.00     0.027 A 
ATOM     20  C   UNL     1      44.933 129.008  22.279  1.00  0.00    -0.059 A 
ATOM     21  C   UNL     1      42.780 129.414  24.083  1.00  0.00     0.012 A 
ATOM     22  C   UNL     1      44.436 127.976  23.076  1.00  0.00     0.039 A 
ATOM     23  C   UNL     1      43.399 128.175  23.945  1.00  0.00    -0.001 A 
ATOM     24  N   UNL     1      44.858 126.701  23.124  1.00  0.00    -0.362 N 
ATOM     25  C   UNL     1      43.148 126.974  24.573  1.00  0.00     0.028 A 
ATOM     26  C   UNL     1      44.073 126.085  24.036  1.00  0.00     0.083 A 
ATOM     27  O   UNL     1      46.007 128.785  21.423  1.00  0.00    -0.870 OA
ATOM     28  H   UNL     1      45.628 126.268  22.567  1.00  0.00     0.166 HD
ENDBRANCH  10  18
ENDBRANCH   2  10
TORSDOF 6
ENDMDL
MODEL 9
REMARK VINA RESULT:      -2.6      1.500      5.545
REMARK SMILES CCC[C@H](C)NC(=O)N(c1ccc(C)cc1)c1ccc2cc[nH]c2c1[O-]
REMARK SMILES IDX 6 1 7 2 8 3 4 5 5 6 3 7 2 8 1 9 9 10 10 11 11 12 16 13 12 14
REMARK SMILES IDX 15 15 13 16 14 17 17 18 18 19 25 20 19 21 24 22 20 23 23 24
REMARK SMILES IDX 21 25 22 26 26 27
REMARK H PARENT 6 4 23 28
ROOT
ATOM      1  N   UNL     1      46.463 133.427  21.824  1.00  0.00    -0.335 N 
ATOM      2  C   UNL     1      46.743 132.212  21.110  1.00  0.00     0.326 C 
ATOM      3  O   UNL     1      47.938 131.884  20.870  1.00  0.00    -0.248 OA
ATOM      4  H   UNL     1      45.497 133.581  22.192  1.00  0.00     0.165 HD
ENDROOT
BRANCH   1   5
ATOM      5  C   UNL     1      47.501 134.393  22.193  1.00  0.00     0.080 C 
ATOM      6  C   UNL     1      48.625 133.657  22.934  1.00  0.00     0.031 C 
BRANCH   5   7
ATOM      7  C   UNL     1      48.005 135.098  20.915  1.00  0.00     0.024 C 
BRANCH   7   8
ATOM      8  C   UNL     1      48.616 136.493  21.146  1.00  0.00    -0.001 C 
ATOM      9  C   UNL     1      50.138 136.509  20.999  1.00  0.00     0.004 C 
ENDBRANCH   7   8
ENDBRANCH   5   7
ENDBRANCH   1   5
BRANCH   2  10
ATOM     10  N   UNL     1      45.668 131.352  20.678  1.00  0.00    -0.264 N 
BRANCH  10  11
ATOM     11  C   UNL     1      44.744 130.790  21.634  1.00  0.00     0.051 A 
ATOM     12  C   UNL     1      44.863 129.451  22.045  1.00  0.00     0.027 A 
ATOM     13  C   UNL     1      43.722 131.584  22.183  1.00  0.00     0.027 A 
ATOM     14  C   UNL     1      43.966 128.912  22.972  1.00  0.00     0.005 A 
ATOM     15  C   UNL     1      42.828 131.046  23.112  1.00  0.00     0.005 A 
ATOM     16  C   UNL     1      42.936 129.704  23.504  1.00  0.00    -0.051 A 
ATOM     17  C   UNL     1      41.980 129.144  24.514  1.00  0.00     0.044 C 
ENDBRANCH  10  11
BRANCH  10  18
ATOM     18  C   UNL     1      45.464 131.116  19.271  1.00  0.00     0.045 A 
ATOM     19  C   UNL     1      46.270 130.163  18.591  1.00  0.00     0.027 A 
ATOM     20  C   UNL     1      44.472 131.828  18.554  1.00  0.00    -0.059 A 
ATOM     21  C   UNL     1      46.083 129.910  17.221  1.00  0.00     0.012 A 
ATOM     22  C   UNL     1      44.312 131.549  17.196  1.00  0.00     0.039 A 
ATOM     23  C   UNL     1      45.091 130.624  16.557  1.00  0.00    -0.001 A 
ATOM     24  N   UNL     1      43.430 132.098  16.344  1.00  0.00    -0.362 N 
ATOM     25  C   UNL     1      44.687 130.582  15.240  1.00  0.00     0.028 A 
ATOM     26  C   UNL     1      43.655 131.509  15.148  1.00  0.00     0.083 A 
ATOM     27  O   UNL     1      43.683 132.792  19.174  1.00  0.00    -0.870 OA
ATOM     28  H   UNL     1      42.711 132.825  16.558  1.00  0.00     0.166 HD
ENDBRANCH  10  18
ENDBRANCH   2  10
TORSDOF 6
ENDMDL


