REMARK SMILES C/C(O)=C1\CC[C@H](c2cc3ccccc3[nH]2)C[N@H+]1C(=O)c1ncn[nH]1
REMARK SMILES IDX 4 1 5 2 6 3 7 4 17 5 18 6 2 8 1 9 3 10 19 12 20 13 21 14
REMARK SMILES IDX 22 15 25 16 23 17 24 18 8 20 9 21 16 22 10 23 15 24 11 25
REMARK SMILES IDX 14 26 12 27 13 28
REMARK H PARENT 18 7 3 11 25 19 16 29
ROOT
ATOM      1  C   UNL     1       2.147   0.202  -1.116  1.00  0.00     0.152 C 
ATOM      2  C   UNL     1       2.138  -0.940  -0.098  1.00  0.00     0.102 C 
ATOM      3  C   UNL     1       0.733  -1.347   0.335  1.00  0.00     0.026 C 
ATOM      4  C   UNL     1      -0.105  -0.119   0.677  1.00  0.00     0.092 C 
ATOM      5  C   UNL     1      -0.185   0.786  -0.561  1.00  0.00     0.285 C 
ATOM      6  N   UNL     1       1.143   1.260  -1.015  1.00  0.00    -0.232 N 
ATOM      7  H   UNL     1       0.963   1.630  -1.976  1.00  0.00     0.363 HD
ENDROOT
BRANCH   1   8
ATOM      8  C   UNL     1       3.213   0.342  -1.960  1.00  0.00     0.146 C 
ATOM      9  C   UNL     1       4.290  -0.702  -2.072  1.00  0.00     0.093 C 
BRANCH   8  10
ATOM     10  O   UNL     1       3.382   1.472  -2.770  1.00  0.00    -0.507 OA
ATOM     11  H   UNL     1       2.830   2.316  -2.709  1.00  0.00     0.293 HD
ENDBRANCH   8  10
ENDBRANCH   1   8
BRANCH   6  12
ATOM     12  C   UNL     1       1.613   2.343  -0.171  1.00  0.00     0.386 C 
ATOM     13  O   UNL     1       2.295   2.099   0.863  1.00  0.00    -0.221 OA
BRANCH  12  14
ATOM     14  C   UNL     1       1.258   3.744  -0.473  1.00  0.00     0.255 A 
ATOM     15  N   UNL     1       0.490   4.123  -1.513  1.00  0.00    -0.207 NA
ATOM     16  N   UNL     1       1.655   4.798   0.259  1.00  0.00    -0.252 N 
ATOM     17  C   UNL     1       0.450   5.464  -1.364  1.00  0.00     0.246 A 
ATOM     18  N   UNL     1       1.152   5.885  -0.294  1.00  0.00    -0.162 NA
ATOM     19  H   UNL     1       2.253   4.788   1.115  1.00  0.00     0.192 HD
ENDBRANCH  12  14
ENDBRANCH   6  12
BRANCH   4  20
ATOM     20  C   UNL     1      -1.484  -0.520   1.137  1.00  0.00     0.025 A 
ATOM     21  C   UNL     1      -2.415  -1.244   0.390  1.00  0.00     0.032 A 
ATOM     22  N   UNL     1      -1.983  -0.206   2.357  1.00  0.00    -0.358 N 
ATOM     23  C   UNL     1      -3.515  -1.362   1.211  1.00  0.00    -0.000 A 
ATOM     24  C   UNL     1      -3.221  -0.725   2.388  1.00  0.00     0.046 A 
ATOM     25  C   UNL     1      -4.744  -1.982   0.996  1.00  0.00     0.010 A 
ATOM     26  C   UNL     1      -4.139  -0.663   3.436  1.00  0.00     0.026 A 
ATOM     27  C   UNL     1      -5.691  -1.937   2.036  1.00  0.00     0.001 A 
ATOM     28  C   UNL     1      -5.390  -1.281   3.251  1.00  0.00     0.002 A 
ATOM     29  H   UNL     1      -1.507   0.331   3.116  1.00  0.00     0.166 HD
ENDBRANCH   4  20
TORSDOF 5


