MODEL 1
REMARK VINA RESULT:      -9.2      0.000      0.000
REMARK SMILES Oc1ccc(Nc2cc3[nH]ccc3cc2F)c(F)c1
REMARK SMILES IDX 2 1 3 2 4 3 5 4 17 5 18 6 19 7 1 8 6 10 7 12 8 13 15 14 9 15
REMARK SMILES IDX 14 16 10 17 13 18 11 19 12 20 16 21
REMARK H PARENT 1 9 6 11 10 22
ROOT
ATOM      1  C   UNL     1      47.021 129.653  14.482  1.00  0.00     0.118 A 
ATOM      2  C   UNL     1      45.953 128.951  15.057  1.00  0.00     0.048 A 
ATOM      3  C   UNL     1      44.952 129.639  15.747  1.00  0.00     0.033 A 
ATOM      4  C   UNL     1      45.013 131.039  15.883  1.00  0.00     0.075 A 
ATOM      5  C   UNL     1      46.078 131.737  15.287  1.00  0.00     0.150 A 
ATOM      6  F   UNL     1      46.153 133.088  15.389  1.00  0.00    -0.205 F 
ATOM      7  C   UNL     1      47.079 131.044  14.598  1.00  0.00     0.087 A 
ENDROOT
BRANCH   1   8
ATOM      8  O   UNL     1      48.027 128.978  13.793  1.00  0.00    -0.508 OA
ATOM      9  H   UNL     1      48.901 128.729  14.243  1.00  0.00     0.293 HD
ENDBRANCH   1   8
BRANCH   4  10
ATOM     10  N   UNL     1      43.977 131.766  16.566  1.00  0.00    -0.351 N 
ATOM     11  H   UNL     1      43.280 132.289  15.990  1.00  0.00     0.167 HD
BRANCH  10  12
ATOM     12  C   UNL     1      43.784 131.748  17.990  1.00  0.00     0.077 A 
ATOM     13  C   UNL     1      44.816 131.251  18.815  1.00  0.00     0.055 A 
ATOM     14  C   UNL     1      42.555 132.166  18.573  1.00  0.00     0.147 A 
ATOM     15  C   UNL     1      44.604 131.226  20.191  1.00  0.00     0.048 A 
ATOM     16  C   UNL     1      42.377 132.126  19.968  1.00  0.00     0.051 A 
ATOM     17  N   UNL     1      45.456 130.806  21.141  1.00  0.00    -0.361 N 
ATOM     18  C   UNL     1      43.428 131.652  20.747  1.00  0.00     0.002 A 
ATOM     19  C   UNL     1      44.806 130.969  22.317  1.00  0.00     0.083 A 
ATOM     20  C   UNL     1      43.535 131.495  22.111  1.00  0.00     0.028 A 
ATOM     21  F   UNL     1      41.522 132.571  17.792  1.00  0.00    -0.205 F 
ATOM     22  H   UNL     1      46.420 130.430  21.005  1.00  0.00     0.166 HD
ENDBRANCH  10  12
ENDBRANCH   4  10
TORSDOF 3
ENDMDL
MODEL 2
REMARK VINA RESULT:      -9.1      1.221      1.645
REMARK SMILES Oc1ccc(Nc2cc3[nH]ccc3cc2F)c(F)c1
REMARK SMILES IDX 2 1 3 2 4 3 5 4 17 5 18 6 19 7 1 8 6 10 7 12 8 13 15 14 9 15
REMARK SMILES IDX 14 16 10 17 13 18 11 19 12 20 16 21
REMARK H PARENT 1 9 6 11 10 22
ROOT
ATOM      1  C   UNL     1      47.476 129.946  14.027  1.00  0.00     0.118 A 
ATOM      2  C   UNL     1      47.292 131.335  14.059  1.00  0.00     0.048 A 
ATOM      3  C   UNL     1      46.189 131.881  14.720  1.00  0.00     0.033 A 
ATOM      4  C   UNL     1      45.247 131.043  15.345  1.00  0.00     0.075 A 
ATOM      5  C   UNL     1      45.448 129.653  15.324  1.00  0.00     0.150 A 
ATOM      6  F   UNL     1      44.564 128.822  15.933  1.00  0.00    -0.205 F 
ATOM      7  C   UNL     1      46.553 129.110  14.661  1.00  0.00     0.087 A 
ENDROOT
BRANCH   1   8
ATOM      8  O   UNL     1      48.571 129.389  13.370  1.00  0.00    -0.508 OA
ATOM      9  H   UNL     1      48.929 129.785  12.507  1.00  0.00     0.293 HD
ENDBRANCH   1   8
BRANCH   4  10
ATOM     10  N   UNL     1      44.120 131.590  16.053  1.00  0.00    -0.351 N 
ATOM     11  H   UNL     1      43.306 131.933  15.494  1.00  0.00     0.167 HD
BRANCH  10  12
ATOM     12  C   UNL     1      44.001 131.615  17.485  1.00  0.00     0.077 A 
ATOM     13  C   UNL     1      45.091 131.181  18.270  1.00  0.00     0.055 A 
ATOM     14  C   UNL     1      42.790 132.014  18.118  1.00  0.00     0.147 A 
ATOM     15  C   UNL     1      44.951 131.197  19.656  1.00  0.00     0.048 A 
ATOM     16  C   UNL     1      42.686 132.017  19.521  1.00  0.00     0.051 A 
ATOM     17  N   UNL     1      45.864 130.837  20.573  1.00  0.00    -0.361 N 
ATOM     18  C   UNL     1      43.791 131.604  20.258  1.00  0.00     0.002 A 
ATOM     19  C   UNL     1      45.271 131.020  21.775  1.00  0.00     0.083 A 
ATOM     20  C   UNL     1      43.974 131.498  21.619  1.00  0.00     0.028 A 
ATOM     21  F   UNL     1      41.705 132.359  17.379  1.00  0.00    -0.205 F 
ATOM     22  H   UNL     1      46.832 130.488  20.398  1.00  0.00     0.166 HD
ENDBRANCH  10  12
ENDBRANCH   4  10
TORSDOF 3
ENDMDL
MODEL 3
REMARK VINA RESULT:      -9.0      2.822      6.071
REMARK SMILES Oc1ccc(Nc2cc3[nH]ccc3cc2F)c(F)c1
REMARK SMILES IDX 2 1 3 2 4 3 5 4 17 5 18 6 19 7 1 8 6 10 7 12 8 13 15 14 9 15
REMARK SMILES IDX 14 16 10 17 13 18 11 19 12 20 16 21
REMARK H PARENT 1 9 6 11 10 22
ROOT
ATOM      1  C   UNL     1      44.322 131.323  21.610  1.00  0.00     0.118 A 
ATOM      2  C   UNL     1      45.325 131.076  20.664  1.00  0.00     0.048 A 
ATOM      3  C   UNL     1      45.063 131.241  19.302  1.00  0.00     0.033 A 
ATOM      4  C   UNL     1      43.787 131.643  18.866  1.00  0.00     0.075 A 
ATOM      5  C   UNL     1      42.791 131.908  19.822  1.00  0.00     0.150 A 
ATOM      6  F   UNL     1      41.556 132.313  19.430  1.00  0.00    -0.205 F 
ATOM      7  C   UNL     1      43.057 131.741  21.184  1.00  0.00     0.087 A 
ENDROOT
BRANCH   1   8
ATOM      8  O   UNL     1      44.570 131.160  22.971  1.00  0.00    -0.508 OA
ATOM      9  H   UNL     1      44.984 130.309  23.335  1.00  0.00     0.293 HD
ENDBRANCH   1   8
BRANCH   4  10
ATOM     10  N   UNL     1      43.507 131.845  17.470  1.00  0.00    -0.351 N 
ATOM     11  H   UNL     1      42.674 132.419  17.212  1.00  0.00     0.167 HD
BRANCH  10  12
ATOM     12  C   UNL     1      44.351 131.379  16.403  1.00  0.00     0.077 A 
ATOM     13  C   UNL     1      45.576 130.756  16.722  1.00  0.00     0.055 A 
ATOM     14  C   UNL     1      43.999 131.589  15.040  1.00  0.00     0.147 A 
ATOM     15  C   UNL     1      46.388 130.326  15.674  1.00  0.00     0.048 A 
ATOM     16  C   UNL     1      44.845 131.142  14.008  1.00  0.00     0.051 A 
ATOM     17  N   UNL     1      47.576 129.706  15.763  1.00  0.00    -0.361 N 
ATOM     18  C   UNL     1      46.032 130.510  14.365  1.00  0.00     0.002 A 
ATOM     19  C   UNL     1      47.978 129.495  14.488  1.00  0.00     0.083 A 
ATOM     20  C   UNL     1      47.039 129.985  13.586  1.00  0.00     0.028 A 
ATOM     21  F   UNL     1      42.864 132.257  14.714  1.00  0.00    -0.205 F 
ATOM     22  H   UNL     1      48.088 129.441  16.633  1.00  0.00     0.166 HD
ENDBRANCH  10  12
ENDBRANCH   4  10
TORSDOF 3
ENDMDL
MODEL 4
REMARK VINA RESULT:      -8.9      1.843      2.585
REMARK SMILES Oc1ccc(Nc2cc3[nH]ccc3cc2F)c(F)c1
REMARK SMILES IDX 2 1 3 2 4 3 5 4 17 5 18 6 19 7 1 8 6 10 7 12 8 13 15 14 9 15
REMARK SMILES IDX 14 16 10 17 13 18 11 19 12 20 16 21
REMARK H PARENT 1 9 6 11 10 22
ROOT
ATOM      1  C   UNL     1      47.543 129.900  13.912  1.00  0.00     0.118 A 
ATOM      2  C   UNL     1      47.350 131.284  14.006  1.00  0.00     0.048 A 
ATOM      3  C   UNL     1      46.266 131.794  14.726  1.00  0.00     0.033 A 
ATOM      4  C   UNL     1      45.352 130.924  15.349  1.00  0.00     0.075 A 
ATOM      5  C   UNL     1      45.563 129.537  15.265  1.00  0.00     0.150 A 
ATOM      6  F   UNL     1      44.706 128.676  15.870  1.00  0.00    -0.205 F 
ATOM      7  C   UNL     1      46.648 129.031  14.543  1.00  0.00     0.087 A 
ENDROOT
BRANCH   1   8
ATOM      8  O   UNL     1      48.618 129.379  13.196  1.00  0.00    -0.508 OA
ATOM      9  H   UNL     1      49.186 128.625  13.567  1.00  0.00     0.293 HD
ENDBRANCH   1   8
BRANCH   4  10
ATOM     10  N   UNL     1      44.246 131.433  16.116  1.00  0.00    -0.351 N 
ATOM     11  H   UNL     1      43.406 131.779  15.599  1.00  0.00     0.167 HD
BRANCH  10  12
ATOM     12  C   UNL     1      44.185 131.415  17.552  1.00  0.00     0.077 A 
ATOM     13  C   UNL     1      43.035 131.922  18.194  1.00  0.00     0.055 A 
ATOM     14  C   UNL     1      45.282 130.952  18.331  1.00  0.00     0.147 A 
ATOM     15  C   UNL     1      43.001 131.911  19.586  1.00  0.00     0.048 A 
ATOM     16  C   UNL     1      45.212 130.957  19.736  1.00  0.00     0.051 A 
ATOM     17  N   UNL     1      42.005 132.334  20.382  1.00  0.00    -0.361 N 
ATOM     18  C   UNL     1      44.050 131.442  20.329  1.00  0.00     0.002 A 
ATOM     19  C   UNL     1      42.432 132.129  21.649  1.00  0.00     0.083 A 
ATOM     20  C   UNL     1      43.707 131.573  21.657  1.00  0.00     0.028 A 
ATOM     21  F   UNL     1      46.427 130.535  17.734  1.00  0.00    -0.205 F 
ATOM     22  H   UNL     1      41.088 132.739  20.088  1.00  0.00     0.166 HD
ENDBRANCH  10  12
ENDBRANCH   4  10
TORSDOF 3
ENDMDL
MODEL 5
REMARK VINA RESULT:      -8.8      1.549      2.012
REMARK SMILES Oc1ccc(Nc2cc3[nH]ccc3cc2F)c(F)c1
REMARK SMILES IDX 2 1 3 2 4 3 5 4 17 5 18 6 19 7 1 8 6 10 7 12 8 13 15 14 9 15
REMARK SMILES IDX 14 16 10 17 13 18 11 19 12 20 16 21
REMARK H PARENT 1 9 6 11 10 22
ROOT
ATOM      1  C   UNL     1      47.253 129.791  14.147  1.00  0.00     0.118 A 
ATOM      2  C   UNL     1      46.341 128.953  14.801  1.00  0.00     0.048 A 
ATOM      3  C   UNL     1      45.382 129.494  15.661  1.00  0.00     0.033 A 
ATOM      4  C   UNL     1      45.333 130.882  15.890  1.00  0.00     0.075 A 
ATOM      5  C   UNL     1      46.239 131.718  15.216  1.00  0.00     0.150 A 
ATOM      6  F   UNL     1      46.204 133.062  15.405  1.00  0.00    -0.205 F 
ATOM      7  C   UNL     1      47.198 131.172  14.356  1.00  0.00     0.087 A 
ENDROOT
BRANCH   1   8
ATOM      8  O   UNL     1      48.214 129.263  13.288  1.00  0.00    -0.508 OA
ATOM      9  H   UNL     1      48.910 128.601  13.615  1.00  0.00     0.293 HD
ENDBRANCH   1   8
BRANCH   4  10
ATOM     10  N   UNL     1      44.336 131.459  16.751  1.00  0.00    -0.351 N 
ATOM     11  H   UNL     1      43.510 131.922  16.308  1.00  0.00     0.167 HD
BRANCH  10  12
ATOM     12  C   UNL     1      44.355 131.362  18.185  1.00  0.00     0.077 A 
ATOM     13  C   UNL     1      43.254 131.852  18.920  1.00  0.00     0.055 A 
ATOM     14  C   UNL     1      45.485 130.838  18.874  1.00  0.00     0.147 A 
ATOM     15  C   UNL     1      43.298 131.764  20.309  1.00  0.00     0.048 A 
ATOM     16  C   UNL     1      45.494 130.766  20.278  1.00  0.00     0.051 A 
ATOM     17  N   UNL     1      42.357 132.158  21.183  1.00  0.00    -0.361 N 
ATOM     18  C   UNL     1      44.378 131.236  20.963  1.00  0.00     0.002 A 
ATOM     19  C   UNL     1      42.851 131.875  22.410  1.00  0.00     0.083 A 
ATOM     20  C   UNL     1      44.114 131.299  22.313  1.00  0.00     0.028 A 
ATOM     21  F   UNL     1      46.586 130.436  18.189  1.00  0.00    -0.205 F 
ATOM     22  H   UNL     1      41.434 132.594  20.964  1.00  0.00     0.166 HD
ENDBRANCH  10  12
ENDBRANCH   4  10
TORSDOF 3
ENDMDL
MODEL 6
REMARK VINA RESULT:      -8.6      2.988      6.458
REMARK SMILES Oc1ccc(Nc2cc3[nH]ccc3cc2F)c(F)c1
REMARK SMILES IDX 2 1 3 2 4 3 5 4 17 5 18 6 19 7 1 8 6 10 7 12 8 13 15 14 9 15
REMARK SMILES IDX 14 16 10 17 13 18 11 19 12 20 16 21
REMARK H PARENT 1 9 6 11 10 22
ROOT
ATOM      1  C   UNL     1      43.651 131.274  21.684  1.00  0.00     0.118 A 
ATOM      2  C   UNL     1      45.001 131.461  21.359  1.00  0.00     0.048 A 
ATOM      3  C   UNL     1      45.366 131.824  20.060  1.00  0.00     0.033 A 
ATOM      4  C   UNL     1      44.385 131.993  19.065  1.00  0.00     0.075 A 
ATOM      5  C   UNL     1      43.032 131.822  19.404  1.00  0.00     0.150 A 
ATOM      6  F   UNL     1      42.064 131.993  18.468  1.00  0.00    -0.205 F 
ATOM      7  C   UNL     1      42.671 131.457  20.705  1.00  0.00     0.087 A 
ENDROOT
BRANCH   1   8
ATOM      8  O   UNL     1      43.274 130.910  22.975  1.00  0.00    -0.508 OA
ATOM      9  H   UNL     1      43.921 130.446  23.604  1.00  0.00     0.293 HD
ENDBRANCH   1   8
BRANCH   4  10
ATOM     10  N   UNL     1      44.742 132.393  17.730  1.00  0.00    -0.351 N 
ATOM     11  H   UNL     1      44.484 133.357  17.420  1.00  0.00     0.167 HD
BRANCH  10  12
ATOM     12  C   UNL     1      45.508 131.584  16.823  1.00  0.00     0.077 A 
ATOM     13  C   UNL     1      45.916 132.136  15.590  1.00  0.00     0.055 A 
ATOM     14  C   UNL     1      45.809 130.225  17.122  1.00  0.00     0.147 A 
ATOM     15  C   UNL     1      46.643 131.330  14.717  1.00  0.00     0.048 A 
ATOM     16  C   UNL     1      46.546 129.441  16.215  1.00  0.00     0.051 A 
ATOM     17  N   UNL     1      47.130 131.665  13.511  1.00  0.00    -0.361 N 
ATOM     18  C   UNL     1      46.950 130.032  15.021  1.00  0.00     0.002 A 
ATOM     19  C   UNL     1      47.755 130.560  13.045  1.00  0.00     0.083 A 
ATOM     20  C   UNL     1      47.663 129.517  13.961  1.00  0.00     0.028 A 
ATOM     21  F   UNL     1      45.357 129.652  18.266  1.00  0.00    -0.205 F 
ATOM     22  H   UNL     1      47.046 132.588  13.028  1.00  0.00     0.166 HD
ENDBRANCH  10  12
ENDBRANCH   4  10
TORSDOF 3
ENDMDL
MODEL 7
REMARK VINA RESULT:      -8.6      3.172      6.465
REMARK SMILES Oc1ccc(Nc2cc3[nH]ccc3cc2F)c(F)c1
REMARK SMILES IDX 2 1 3 2 4 3 5 4 17 5 18 6 19 7 1 8 6 10 7 12 8 13 15 14 9 15
REMARK SMILES IDX 14 16 10 17 13 18 11 19 12 20 16 21
REMARK H PARENT 1 9 6 11 10 22
ROOT
ATOM      1  C   UNL     1      42.392 132.346  20.089  1.00  0.00     0.118 A 
ATOM      2  C   UNL     1      42.329 132.061  18.719  1.00  0.00     0.048 A 
ATOM      3  C   UNL     1      43.399 131.426  18.084  1.00  0.00     0.033 A 
ATOM      4  C   UNL     1      44.555 131.080  18.809  1.00  0.00     0.075 A 
ATOM      5  C   UNL     1      44.603 131.352  20.188  1.00  0.00     0.150 A 
ATOM      6  F   UNL     1      45.698 131.014  20.915  1.00  0.00    -0.205 F 
ATOM      7  C   UNL     1      43.530 131.989  20.819  1.00  0.00     0.087 A 
ENDROOT
BRANCH   1   8
ATOM      8  O   UNL     1      41.333 132.981  20.733  1.00  0.00    -0.508 OA
ATOM      9  H   UNL     1      40.599 133.447  20.211  1.00  0.00     0.293 HD
ENDBRANCH   1   8
BRANCH   4  10
ATOM     10  N   UNL     1      45.654 130.401  18.177  1.00  0.00    -0.351 N 
ATOM     11  H   UNL     1      46.126 129.632  18.703  1.00  0.00     0.167 HD
BRANCH  10  12
ATOM     12  C   UNL     1      46.091 130.654  16.832  1.00  0.00     0.077 A 
ATOM     13  C   UNL     1      46.773 129.636  16.131  1.00  0.00     0.055 A 
ATOM     14  C   UNL     1      45.900 131.925  16.220  1.00  0.00     0.147 A 
ATOM     15  C   UNL     1      47.204 129.906  14.834  1.00  0.00     0.048 A 
ATOM     16  C   UNL     1      46.349 132.160  14.908  1.00  0.00     0.051 A 
ATOM     17  N   UNL     1      47.855 129.077  14.001  1.00  0.00    -0.361 N 
ATOM     18  C   UNL     1      46.995 131.123  14.244  1.00  0.00     0.002 A 
ATOM     19  C   UNL     1      48.061 129.783  12.865  1.00  0.00     0.083 A 
ATOM     20  C   UNL     1      47.538 131.067  12.979  1.00  0.00     0.028 A 
ATOM     21  F   UNL     1      45.318 132.941  16.906  1.00  0.00    -0.205 F 
ATOM     22  H   UNL     1      48.144 128.091  14.187  1.00  0.00     0.166 HD
ENDBRANCH  10  12
ENDBRANCH   4  10
TORSDOF 3
ENDMDL
MODEL 8
REMARK VINA RESULT:      -8.4      1.002      1.046
REMARK SMILES Oc1ccc(Nc2cc3[nH]ccc3cc2F)c(F)c1
REMARK SMILES IDX 2 1 3 2 4 3 5 4 17 5 18 6 19 7 1 8 6 10 7 12 8 13 15 14 9 15
REMARK SMILES IDX 14 16 10 17 13 18 11 19 12 20 16 21
REMARK H PARENT 1 9 6 11 10 22
ROOT
ATOM      1  C   UNL     1      46.725 129.754  14.840  1.00  0.00     0.118 A 
ATOM      2  C   UNL     1      46.742 129.744  16.241  1.00  0.00     0.048 A 
ATOM      3  C   UNL     1      45.797 130.481  16.960  1.00  0.00     0.033 A 
ATOM      4  C   UNL     1      44.832 131.251  16.285  1.00  0.00     0.075 A 
ATOM      5  C   UNL     1      44.810 131.242  14.880  1.00  0.00     0.150 A 
ATOM      6  F   UNL     1      43.880 131.963  14.204  1.00  0.00    -0.205 F 
ATOM      7  C   UNL     1      45.758 130.503  14.164  1.00  0.00     0.087 A 
ENDROOT
BRANCH   1   8
ATOM      8  O   UNL     1      47.663 129.025  14.112  1.00  0.00    -0.508 OA
ATOM      9  H   UNL     1      48.430 128.545  14.569  1.00  0.00     0.293 HD
ENDBRANCH   1   8
BRANCH   4  10
ATOM     10  N   UNL     1      43.836 131.995  17.009  1.00  0.00    -0.351 N 
ATOM     11  H   UNL     1      43.182 132.602  16.465  1.00  0.00     0.167 HD
BRANCH  10  12
ATOM     12  C   UNL     1      43.623 131.890  18.427  1.00  0.00     0.077 A 
ATOM     13  C   UNL     1      44.661 131.387  19.240  1.00  0.00     0.055 A 
ATOM     14  C   UNL     1      42.370 132.228  19.011  1.00  0.00     0.147 A 
ATOM     15  C   UNL     1      44.430 131.277  20.609  1.00  0.00     0.048 A 
ATOM     16  C   UNL     1      42.173 132.104  20.399  1.00  0.00     0.051 A 
ATOM     17  N   UNL     1      45.283 130.836  21.548  1.00  0.00    -0.361 N 
ATOM     18  C   UNL     1      43.230 131.627  21.167  1.00  0.00     0.002 A 
ATOM     19  C   UNL     1      44.611 130.909  22.720  1.00  0.00     0.083 A 
ATOM     20  C   UNL     1      43.324 131.398  22.522  1.00  0.00     0.028 A 
ATOM     21  F   UNL     1      41.334 132.638  18.237  1.00  0.00    -0.205 F 
ATOM     22  H   UNL     1      46.263 130.505  21.408  1.00  0.00     0.166 HD
ENDBRANCH  10  12
ENDBRANCH   4  10
TORSDOF 3
ENDMDL
MODEL 9
REMARK VINA RESULT:      -8.1      2.962      6.356
REMARK SMILES Oc1ccc(Nc2cc3[nH]ccc3cc2F)c(F)c1
REMARK SMILES IDX 2 1 3 2 4 3 5 4 17 5 18 6 19 7 1 8 6 10 7 12 8 13 15 14 9 15
REMARK SMILES IDX 14 16 10 17 13 18 11 19 12 20 16 21
REMARK H PARENT 1 9 6 11 10 22
ROOT
ATOM      1  C   UNL     1      42.124 132.587  19.731  1.00  0.00     0.118 A 
ATOM      2  C   UNL     1      43.216 132.314  20.566  1.00  0.00     0.048 A 
ATOM      3  C   UNL     1      44.323 131.621  20.069  1.00  0.00     0.033 A 
ATOM      4  C   UNL     1      44.346 131.179  18.733  1.00  0.00     0.075 A 
ATOM      5  C   UNL     1      43.256 131.473  17.897  1.00  0.00     0.150 A 
ATOM      6  F   UNL     1      43.258 131.072  16.601  1.00  0.00    -0.205 F 
ATOM      7  C   UNL     1      42.149 132.166  18.398  1.00  0.00     0.087 A 
ENDROOT
BRANCH   1   8
ATOM      8  O   UNL     1      41.014 133.275  20.215  1.00  0.00    -0.508 OA
ATOM      9  H   UNL     1      40.993 134.288  20.249  1.00  0.00     0.293 HD
ENDBRANCH   1   8
BRANCH   4  10
ATOM     10  N   UNL     1      45.489 130.488  18.199  1.00  0.00    -0.351 N 
ATOM     11  H   UNL     1      45.939 129.751  18.787  1.00  0.00     0.167 HD
BRANCH  10  12
ATOM     12  C   UNL     1      46.000 130.683  16.870  1.00  0.00     0.077 A 
ATOM     13  C   UNL     1      46.607 129.597  16.203  1.00  0.00     0.055 A 
ATOM     14  C   UNL     1      45.957 131.960  16.243  1.00  0.00     0.147 A 
ATOM     15  C   UNL     1      47.111 129.810  14.922  1.00  0.00     0.048 A 
ATOM     16  C   UNL     1      46.477 132.137  14.948  1.00  0.00     0.051 A 
ATOM     17  N   UNL     1      47.711 128.913  14.121  1.00  0.00    -0.361 N 
ATOM     18  C   UNL     1      47.044 131.035  14.316  1.00  0.00     0.002 A 
ATOM     19  C   UNL     1      48.028 129.584  12.990  1.00  0.00     0.083 A 
ATOM     20  C   UNL     1      47.629 130.914  13.075  1.00  0.00     0.028 A 
ATOM     21  F   UNL     1      45.450 133.035  16.898  1.00  0.00    -0.205 F 
ATOM     22  H   UNL     1      47.896 127.906  14.325  1.00  0.00     0.166 HD
ENDBRANCH  10  12
ENDBRANCH   4  10
TORSDOF 3
ENDMDL


