MODEL 1
REMARK VINA RESULT:      -9.8      0.000      0.000
REMARK SMILES Cc1cc(F)c(C/C=C(\O)c2ccccc2)c(F)c1
REMARK SMILES IDX 8 1 9 2 10 3 11 5 12 6 16 7 13 8 15 9 14 10 7 11 6 12 4 13
REMARK SMILES IDX 17 14 3 15 19 16 2 17 5 18 18 19 1 20
REMARK H PARENT 10 4
ROOT
ATOM      1  C   UNL     1      44.515 130.813  16.734  1.00  0.00     0.025 C 
ENDROOT
BRANCH   1   2
ATOM      2  C   UNL     1      44.643 131.027  15.416  1.00  0.00     0.119 C 
BRANCH   2   3
ATOM      3  O   UNL     1      43.601 131.646  14.721  1.00  0.00    -0.508 OA
ATOM      4  H   UNL     1      43.407 131.437  13.749  1.00  0.00     0.293 HD
ENDBRANCH   2   3
BRANCH   2   5
ATOM      5  C   UNL     1      45.876 130.628  14.692  1.00  0.00     0.016 A 
ATOM      6  C   UNL     1      46.426 131.446  13.686  1.00  0.00     0.012 A 
ATOM      7  C   UNL     1      46.522 129.422  15.018  1.00  0.00     0.012 A 
ATOM      8  C   UNL     1      47.592 131.058  13.017  1.00  0.00     0.001 A 
ATOM      9  C   UNL     1      47.688 129.040  14.347  1.00  0.00     0.001 A 
ATOM     10  C   UNL     1      48.222 129.856  13.348  1.00  0.00     0.000 A 
ENDBRANCH   2   5
ENDBRANCH   1   2
BRANCH   1  11
ATOM     11  C   UNL     1      45.224 131.672  17.744  1.00  0.00     0.073 C 
BRANCH  11  12
ATOM     12  C   UNL     1      44.569 131.555  19.099  1.00  0.00     0.027 A 
ATOM     13  C   UNL     1      45.317 131.145  20.217  1.00  0.00     0.129 A 
ATOM     14  C   UNL     1      43.218 131.910  19.269  1.00  0.00     0.129 A 
ATOM     15  C   UNL     1      44.717 131.068  21.477  1.00  0.00     0.043 A 
ATOM     16  C   UNL     1      42.623 131.831  20.532  1.00  0.00     0.043 A 
ATOM     17  C   UNL     1      43.371 131.422  21.645  1.00  0.00    -0.045 A 
ATOM     18  F   UNL     1      46.629 130.820  20.090  1.00  0.00    -0.207 F 
ATOM     19  F   UNL     1      42.477 132.334  18.214  1.00  0.00    -0.207 F 
ATOM     20  C   UNL     1      42.719 131.303  22.991  1.00  0.00     0.044 C 
ENDBRANCH  11  12
ENDBRANCH   1  11
TORSDOF 5
ENDMDL
MODEL 2
REMARK VINA RESULT:      -9.8      0.047      1.915
REMARK SMILES Cc1cc(F)c(C/C=C(\O)c2ccccc2)c(F)c1
REMARK SMILES IDX 8 1 9 2 10 3 11 5 12 6 16 7 13 8 15 9 14 10 7 11 6 12 4 13
REMARK SMILES IDX 17 14 3 15 19 16 2 17 5 18 18 19 1 20
REMARK H PARENT 10 4
ROOT
ATOM      1  C   UNL     1      44.544 130.849  16.778  1.00  0.00     0.025 C 
ENDROOT
BRANCH   1   2
ATOM      2  C   UNL     1      44.655 131.049  15.457  1.00  0.00     0.119 C 
BRANCH   2   3
ATOM      3  O   UNL     1      43.603 131.659  14.769  1.00  0.00    -0.508 OA
ATOM      4  H   UNL     1      42.927 132.250  15.238  1.00  0.00     0.293 HD
ENDBRANCH   2   3
BRANCH   2   5
ATOM      5  C   UNL     1      45.880 130.645  14.721  1.00  0.00     0.016 A 
ATOM      6  C   UNL     1      46.429 131.465  13.716  1.00  0.00     0.012 A 
ATOM      7  C   UNL     1      46.519 129.433  15.035  1.00  0.00     0.012 A 
ATOM      8  C   UNL     1      47.587 131.073  13.037  1.00  0.00     0.001 A 
ATOM      9  C   UNL     1      47.676 129.045  14.353  1.00  0.00     0.001 A 
ATOM     10  C   UNL     1      48.210 129.863  13.355  1.00  0.00     0.000 A 
ENDBRANCH   2   5
ENDBRANCH   1   2
BRANCH   1  11
ATOM     11  C   UNL     1      45.254 131.728  17.771  1.00  0.00     0.073 C 
BRANCH  11  12
ATOM     12  C   UNL     1      44.603 131.634  19.129  1.00  0.00     0.027 A 
ATOM     13  C   UNL     1      43.235 131.924  19.283  1.00  0.00     0.129 A 
ATOM     14  C   UNL     1      45.343 131.201  20.245  1.00  0.00     0.129 A 
ATOM     15  C   UNL     1      42.626 131.806  20.536  1.00  0.00     0.043 A 
ATOM     16  C   UNL     1      44.728 131.085  21.496  1.00  0.00     0.043 A 
ATOM     17  C   UNL     1      43.365 131.374  21.646  1.00  0.00    -0.045 A 
ATOM     18  F   UNL     1      42.488 132.320  18.221  1.00  0.00    -0.207 F 
ATOM     19  F   UNL     1      46.658 130.889  20.124  1.00  0.00    -0.207 F 
ATOM     20  C   UNL     1      42.718 131.285  22.997  1.00  0.00     0.044 C 
ENDBRANCH  11  12
ENDBRANCH   1  11
TORSDOF 5
ENDMDL
MODEL 3
REMARK VINA RESULT:      -9.8      0.168      1.124
REMARK SMILES Cc1cc(F)c(C/C=C(\O)c2ccccc2)c(F)c1
REMARK SMILES IDX 8 1 9 2 10 3 11 5 12 6 16 7 13 8 15 9 14 10 7 11 6 12 4 13
REMARK SMILES IDX 17 14 3 15 19 16 2 17 5 18 18 19 1 20
REMARK H PARENT 10 4
ROOT
ATOM      1  C   UNL     1      44.502 130.877  16.755  1.00  0.00     0.025 C 
ENDROOT
BRANCH   1   2
ATOM      2  C   UNL     1      44.639 131.045  15.431  1.00  0.00     0.119 C 
BRANCH   2   3
ATOM      3  O   UNL     1      43.597 131.628  14.706  1.00  0.00    -0.508 OA
ATOM      4  H   UNL     1      42.625 131.455  14.932  1.00  0.00     0.293 HD
ENDBRANCH   2   3
BRANCH   2   5
ATOM      5  C   UNL     1      45.881 130.630  14.731  1.00  0.00     0.016 A 
ATOM      6  C   UNL     1      46.537 129.429  15.063  1.00  0.00     0.012 A 
ATOM      7  C   UNL     1      46.411 131.435  13.707  1.00  0.00     0.012 A 
ATOM      8  C   UNL     1      47.703 129.050  14.390  1.00  0.00     0.001 A 
ATOM      9  C   UNL     1      47.577 131.051  13.037  1.00  0.00     0.001 A 
ATOM     10  C   UNL     1      48.222 129.861  13.377  1.00  0.00     0.000 A 
ENDBRANCH   2   5
ENDBRANCH   1   2
BRANCH   1  11
ATOM     11  C   UNL     1      45.002 131.903  17.734  1.00  0.00     0.073 C 
BRANCH  11  12
ATOM     12  C   UNL     1      44.434 131.651  19.109  1.00  0.00     0.027 A 
ATOM     13  C   UNL     1      45.252 131.137  20.133  1.00  0.00     0.129 A 
ATOM     14  C   UNL     1      43.097 131.979  19.398  1.00  0.00     0.129 A 
ATOM     15  C   UNL     1      44.732 130.934  21.415  1.00  0.00     0.043 A 
ATOM     16  C   UNL     1      42.583 131.774  20.683  1.00  0.00     0.043 A 
ATOM     17  C   UNL     1      43.400 131.262  21.700  1.00  0.00    -0.045 A 
ATOM     18  F   UNL     1      46.553 130.834  19.891  1.00  0.00    -0.207 F 
ATOM     19  F   UNL     1      42.290 132.500  18.439  1.00  0.00    -0.207 F 
ATOM     20  C   UNL     1      42.835 131.008  23.067  1.00  0.00     0.044 C 
ENDBRANCH  11  12
ENDBRANCH   1  11
TORSDOF 5
ENDMDL
MODEL 4
REMARK VINA RESULT:      -9.6      0.477      2.250
REMARK SMILES Cc1cc(F)c(C/C=C(\O)c2ccccc2)c(F)c1
REMARK SMILES IDX 8 1 9 2 10 3 11 5 12 6 16 7 13 8 15 9 14 10 7 11 6 12 4 13
REMARK SMILES IDX 17 14 3 15 19 16 2 17 5 18 18 19 1 20
REMARK H PARENT 10 4
ROOT
ATOM      1  C   UNL     1      45.012 131.925  16.692  1.00  0.00     0.025 C 
ENDROOT
BRANCH   1   2
ATOM      2  C   UNL     1      44.910 131.521  15.417  1.00  0.00     0.119 C 
BRANCH   2   3
ATOM      3  O   UNL     1      43.702 131.698  14.739  1.00  0.00    -0.508 OA
ATOM      4  H   UNL     1      42.842 131.921  15.226  1.00  0.00     0.293 HD
ENDBRANCH   2   3
BRANCH   2   5
ATOM      5  C   UNL     1      46.064 130.901  14.717  1.00  0.00     0.016 A 
ATOM      6  C   UNL     1      46.469 129.583  15.008  1.00  0.00     0.012 A 
ATOM      7  C   UNL     1      46.761 131.626  13.735  1.00  0.00     0.012 A 
ATOM      8  C   UNL     1      47.553 129.012  14.334  1.00  0.00     0.001 A 
ATOM      9  C   UNL     1      47.844 131.050  13.064  1.00  0.00     0.001 A 
ATOM     10  C   UNL     1      48.240 129.745  13.363  1.00  0.00     0.000 A 
ENDBRANCH   2   5
ENDBRANCH   1   2
BRANCH   1  11
ATOM     11  C   UNL     1      45.470 130.993  17.780  1.00  0.00     0.073 C 
BRANCH  11  12
ATOM     12  C   UNL     1      44.729 131.268  19.066  1.00  0.00     0.027 A 
ATOM     13  C   UNL     1      43.379 131.663  19.039  1.00  0.00     0.129 A 
ATOM     14  C   UNL     1      45.365 131.078  20.308  1.00  0.00     0.129 A 
ATOM     15  C   UNL     1      42.686 131.886  20.232  1.00  0.00     0.043 A 
ATOM     16  C   UNL     1      44.665 131.302  21.498  1.00  0.00     0.043 A 
ATOM     17  C   UNL     1      43.320 131.695  21.467  1.00  0.00    -0.045 A 
ATOM     18  F   UNL     1      42.732 131.830  17.857  1.00  0.00    -0.207 F 
ATOM     19  F   UNL     1      46.658 130.673  20.367  1.00  0.00    -0.207 F 
ATOM     20  C   UNL     1      42.585 131.972  22.746  1.00  0.00     0.044 C 
ENDBRANCH  11  12
ENDBRANCH   1  11
TORSDOF 5
ENDMDL
MODEL 5
REMARK VINA RESULT:      -9.6      1.023      2.218
REMARK SMILES Cc1cc(F)c(C/C=C(\O)c2ccccc2)c(F)c1
REMARK SMILES IDX 8 1 9 2 10 3 11 5 12 6 16 7 13 8 15 9 14 10 7 11 6 12 4 13
REMARK SMILES IDX 17 14 3 15 19 16 2 17 5 18 18 19 1 20
REMARK H PARENT 10 4
ROOT
ATOM      1  C   UNL     1      45.846 130.348  17.286  1.00  0.00     0.025 C 
ENDROOT
BRANCH   1   2
ATOM      2  C   UNL     1      45.699 129.664  16.143  1.00  0.00     0.119 C 
BRANCH   2   3
ATOM      3  O   UNL     1      44.754 128.637  16.078  1.00  0.00    -0.508 OA
ATOM      4  H   UNL     1      44.959 127.747  15.640  1.00  0.00     0.293 HD
ENDBRANCH   2   3
BRANCH   2   5
ATOM      5  C   UNL     1      46.515 129.989  14.945  1.00  0.00     0.016 A 
ATOM      6  C   UNL     1      46.201 131.094  14.129  1.00  0.00     0.012 A 
ATOM      7  C   UNL     1      47.631 129.198  14.620  1.00  0.00     0.012 A 
ATOM      8  C   UNL     1      46.984 131.391  13.009  1.00  0.00     0.001 A 
ATOM      9  C   UNL     1      48.410 129.499  13.499  1.00  0.00     0.001 A 
ATOM     10  C   UNL     1      48.087 130.594  12.694  1.00  0.00     0.000 A 
ENDBRANCH   2   5
ENDBRANCH   1   2
BRANCH   1  11
ATOM     11  C   UNL     1      45.081 131.616  17.551  1.00  0.00     0.073 C 
BRANCH  11  12
ATOM     12  C   UNL     1      44.501 131.609  18.944  1.00  0.00     0.027 A 
ATOM     13  C   UNL     1      43.136 131.884  19.146  1.00  0.00     0.129 A 
ATOM     14  C   UNL     1      45.306 131.274  20.048  1.00  0.00     0.129 A 
ATOM     15  C   UNL     1      42.593 131.846  20.433  1.00  0.00     0.043 A 
ATOM     16  C   UNL     1      44.756 131.238  21.334  1.00  0.00     0.043 A 
ATOM     17  C   UNL     1      43.396 131.511  21.533  1.00  0.00    -0.045 A 
ATOM     18  F   UNL     1      42.329 132.186  18.097  1.00  0.00    -0.207 F 
ATOM     19  F   UNL     1      46.620 130.979  19.882  1.00  0.00    -0.207 F 
ATOM     20  C   UNL     1      42.820 131.509  22.918  1.00  0.00     0.044 C 
ENDBRANCH  11  12
ENDBRANCH   1  11
TORSDOF 5
ENDMDL
MODEL 6
REMARK VINA RESULT:      -9.5      0.863      2.292
REMARK SMILES Cc1cc(F)c(C/C=C(\O)c2ccccc2)c(F)c1
REMARK SMILES IDX 8 1 9 2 10 3 11 5 12 6 16 7 13 8 15 9 14 10 7 11 6 12 4 13
REMARK SMILES IDX 17 14 3 15 19 16 2 17 5 18 18 19 1 20
REMARK H PARENT 10 4
ROOT
ATOM      1  C   UNL     1      44.722 131.717  16.448  1.00  0.00     0.025 C 
ENDROOT
BRANCH   1   2
ATOM      2  C   UNL     1      44.786 131.421  15.142  1.00  0.00     0.119 C 
BRANCH   2   3
ATOM      3  O   UNL     1      43.689 131.698  14.324  1.00  0.00    -0.508 OA
ATOM      4  H   UNL     1      42.889 131.078  14.271  1.00  0.00     0.293 HD
ENDBRANCH   2   3
BRANCH   2   5
ATOM      5  C   UNL     1      46.008 130.815  14.554  1.00  0.00     0.016 A 
ATOM      6  C   UNL     1      46.497 129.575  15.010  1.00  0.00     0.012 A 
ATOM      7  C   UNL     1      46.687 131.474  13.514  1.00  0.00     0.012 A 
ATOM      8  C   UNL     1      47.645 129.015  14.440  1.00  0.00     0.001 A 
ATOM      9  C   UNL     1      47.834 130.909  12.948  1.00  0.00     0.001 A 
ATOM     10  C   UNL     1      48.314 129.682  13.410  1.00  0.00     0.000 A 
ENDBRANCH   2   5
ENDBRANCH   1   2
BRANCH   1  11
ATOM     11  C   UNL     1      43.418 131.691  17.199  1.00  0.00     0.073 C 
BRANCH  11  12
ATOM     12  C   UNL     1      43.659 131.643  18.688  1.00  0.00     0.027 A 
ATOM     13  C   UNL     1      42.658 132.059  19.584  1.00  0.00     0.129 A 
ATOM     14  C   UNL     1      44.867 131.129  19.197  1.00  0.00     0.129 A 
ATOM     15  C   UNL     1      42.871 131.984  20.963  1.00  0.00     0.043 A 
ATOM     16  C   UNL     1      45.073 131.057  20.578  1.00  0.00     0.043 A 
ATOM     17  C   UNL     1      44.074 131.471  21.468  1.00  0.00    -0.045 A 
ATOM     18  F   UNL     1      41.473 132.536  19.123  1.00  0.00    -0.207 F 
ATOM     19  F   UNL     1      45.842 130.696  18.359  1.00  0.00    -0.207 F 
ATOM     20  C   UNL     1      44.314 131.428  22.948  1.00  0.00     0.044 C 
ENDBRANCH  11  12
ENDBRANCH   1  11
TORSDOF 5
ENDMDL
MODEL 7
REMARK VINA RESULT:      -9.4      1.093      1.177
REMARK SMILES Cc1cc(F)c(C/C=C(\O)c2ccccc2)c(F)c1
REMARK SMILES IDX 8 1 9 2 10 3 11 5 12 6 16 7 13 8 15 9 14 10 7 11 6 12 4 13
REMARK SMILES IDX 17 14 3 15 19 16 2 17 5 18 18 19 1 20
REMARK H PARENT 10 4
ROOT
ATOM      1  C   UNL     1      44.641 130.394  16.334  1.00  0.00     0.025 C 
ENDROOT
BRANCH   1   2
ATOM      2  C   UNL     1      45.247 129.482  15.560  1.00  0.00     0.119 C 
BRANCH   2   3
ATOM      3  O   UNL     1      44.864 128.142  15.657  1.00  0.00    -0.508 OA
ATOM      4  H   UNL     1      45.252 127.429  15.052  1.00  0.00     0.293 HD
ENDBRANCH   2   3
BRANCH   2   5
ATOM      5  C   UNL     1      46.305 129.877  14.596  1.00  0.00     0.016 A 
ATOM      6  C   UNL     1      46.150 131.005  13.766  1.00  0.00     0.012 A 
ATOM      7  C   UNL     1      47.493 129.129  14.513  1.00  0.00     0.012 A 
ATOM      8  C   UNL     1      47.159 131.367  12.868  1.00  0.00     0.001 A 
ATOM      9  C   UNL     1      48.499 129.496  13.614  1.00  0.00     0.001 A 
ATOM     10  C   UNL     1      48.333 130.613  12.792  1.00  0.00     0.000 A 
ENDBRANCH   2   5
ENDBRANCH   1   2
BRANCH   1  11
ATOM     11  C   UNL     1      45.418 131.250  17.297  1.00  0.00     0.073 C 
BRANCH  11  12
ATOM     12  C   UNL     1      44.694 131.361  18.617  1.00  0.00     0.027 A 
ATOM     13  C   UNL     1      45.358 131.057  19.819  1.00  0.00     0.129 A 
ATOM     14  C   UNL     1      43.366 131.825  18.663  1.00  0.00     0.129 A 
ATOM     15  C   UNL     1      44.696 131.191  21.043  1.00  0.00     0.043 A 
ATOM     16  C   UNL     1      42.710 131.957  19.891  1.00  0.00     0.043 A 
ATOM     17  C   UNL     1      43.374 131.653  21.087  1.00  0.00    -0.045 A 
ATOM     18  F   UNL     1      46.647 130.631  19.808  1.00  0.00    -0.207 F 
ATOM     19  F   UNL     1      42.707 132.152  17.523  1.00  0.00    -0.207 F 
ATOM     20  C   UNL     1      42.654 131.760  22.399  1.00  0.00     0.044 C 
ENDBRANCH  11  12
ENDBRANCH   1  11
TORSDOF 5
ENDMDL
MODEL 8
REMARK VINA RESULT:      -9.3      1.088      1.570
REMARK SMILES Cc1cc(F)c(C/C=C(\O)c2ccccc2)c(F)c1
REMARK SMILES IDX 8 1 9 2 10 3 11 5 12 6 16 7 13 8 15 9 14 10 7 11 6 12 4 13
REMARK SMILES IDX 17 14 3 15 19 16 2 17 5 18 18 19 1 20
REMARK H PARENT 10 4
ROOT
ATOM      1  C   UNL     1      44.838 130.464  16.349  1.00  0.00     0.025 C 
ENDROOT
BRANCH   1   2
ATOM      2  C   UNL     1      45.418 129.535  15.575  1.00  0.00     0.119 C 
BRANCH   2   3
ATOM      3  O   UNL     1      45.006 128.205  15.679  1.00  0.00    -0.508 OA
ATOM      4  H   UNL     1      44.219 127.932  16.257  1.00  0.00     0.293 HD
ENDBRANCH   2   3
BRANCH   2   5
ATOM      5  C   UNL     1      46.480 129.903  14.604  1.00  0.00     0.016 A 
ATOM      6  C   UNL     1      47.658 129.139  14.491  1.00  0.00     0.012 A 
ATOM      7  C   UNL     1      46.311 131.021  13.769  1.00  0.00     0.012 A 
ATOM      8  C   UNL     1      48.646 129.495  13.566  1.00  0.00     0.001 A 
ATOM      9  C   UNL     1      47.301 131.372  12.846  1.00  0.00     0.001 A 
ATOM     10  C   UNL     1      48.467 130.611  12.745  1.00  0.00     0.000 A 
ENDBRANCH   2   5
ENDBRANCH   1   2
BRANCH   1  11
ATOM     11  C   UNL     1      45.619 131.227  17.383  1.00  0.00     0.073 C 
BRANCH  11  12
ATOM     12  C   UNL     1      44.847 131.318  18.677  1.00  0.00     0.027 A 
ATOM     13  C   UNL     1      45.475 131.027  19.902  1.00  0.00     0.129 A 
ATOM     14  C   UNL     1      43.507 131.750  18.678  1.00  0.00     0.129 A 
ATOM     15  C   UNL     1      44.768 131.143  21.102  1.00  0.00     0.043 A 
ATOM     16  C   UNL     1      42.805 131.864  19.881  1.00  0.00     0.043 A 
ATOM     17  C   UNL     1      43.434 131.573  21.100  1.00  0.00    -0.045 A 
ATOM     18  F   UNL     1      46.774 130.633  19.935  1.00  0.00    -0.207 F 
ATOM     19  F   UNL     1      42.881 132.063  17.515  1.00  0.00    -0.207 F 
ATOM     20  C   UNL     1      42.665 131.660  22.386  1.00  0.00     0.044 C 
ENDBRANCH  11  12
ENDBRANCH   1  11
TORSDOF 5
ENDMDL
MODEL 9
REMARK VINA RESULT:      -9.1      1.783      7.056
REMARK SMILES Cc1cc(F)c(C/C=C(\O)c2ccccc2)c(F)c1
REMARK SMILES IDX 8 1 9 2 10 3 11 5 12 6 16 7 13 8 15 9 14 10 7 11 6 12 4 13
REMARK SMILES IDX 17 14 3 15 19 16 2 17 5 18 18 19 1 20
REMARK H PARENT 10 4
ROOT
ATOM      1  C   UNL     1      43.935 131.771  18.343  1.00  0.00     0.025 C 
ENDROOT
BRANCH   1   2
ATOM      2  C   UNL     1      43.056 132.054  19.315  1.00  0.00     0.119 C 
BRANCH   2   3
ATOM      3  O   UNL     1      41.890 132.755  18.999  1.00  0.00    -0.508 OA
ATOM      4  H   UNL     1      41.876 133.479  18.290  1.00  0.00     0.293 HD
ENDBRANCH   2   3
BRANCH   2   5
ATOM      5  C   UNL     1      43.300 131.625  20.716  1.00  0.00     0.016 A 
ATOM      6  C   UNL     1      44.285 130.664  21.021  1.00  0.00     0.012 A 
ATOM      7  C   UNL     1      42.553 132.190  21.764  1.00  0.00     0.012 A 
ATOM      8  C   UNL     1      44.506 130.276  22.347  1.00  0.00     0.001 A 
ATOM      9  C   UNL     1      42.778 131.798  23.087  1.00  0.00     0.001 A 
ATOM     10  C   UNL     1      43.753 130.842  23.378  1.00  0.00     0.000 A 
ENDBRANCH   2   5
ENDBRANCH   1   2
BRANCH   1  11
ATOM     11  C   UNL     1      43.490 131.514  16.929  1.00  0.00     0.073 C 
BRANCH  11  12
ATOM     12  C   UNL     1      44.644 131.030  16.085  1.00  0.00     0.027 A 
ATOM     13  C   UNL     1      44.701 131.340  14.714  1.00  0.00     0.129 A 
ATOM     14  C   UNL     1      45.702 130.312  16.672  1.00  0.00     0.129 A 
ATOM     15  C   UNL     1      45.786 130.919  13.941  1.00  0.00     0.043 A 
ATOM     16  C   UNL     1      46.785 129.892  15.893  1.00  0.00     0.043 A 
ATOM     17  C   UNL     1      46.840 130.203  14.527  1.00  0.00    -0.045 A 
ATOM     18  F   UNL     1      43.707 132.054  14.125  1.00  0.00    -0.207 F 
ATOM     19  F   UNL     1      45.689 130.019  17.997  1.00  0.00    -0.207 F 
ATOM     20  C   UNL     1      47.984 129.719  13.687  1.00  0.00     0.044 C 
ENDBRANCH  11  12
ENDBRANCH   1  11
TORSDOF 5
ENDMDL


