REMARK SMILES C=C1CC[C@@H](Nc2cccc(N=C=S)c2[O-])C[C@H]1F
REMARK SMILES IDX 7 1 8 2 9 3 10 4 11 5 15 6 16 7 6 8 5 10 2 11 3 12 18 13
REMARK SMILES IDX 4 14 17 15 1 16 19 17 12 18 13 19 14 20
REMARK H PARENT 6 9
ROOT
ATOM      1  C   UNL     1      -1.167  -0.425   0.912  1.00  0.00     0.028 A 
ATOM      2  C   UNL     1      -1.865   0.797   0.874  1.00  0.00     0.025 A 
ATOM      3  C   UNL     1      -2.955   0.963   0.021  1.00  0.00     0.004 A 
ATOM      4  C   UNL     1      -3.370  -0.084  -0.799  1.00  0.00     0.028 A 
ATOM      5  C   UNL     1      -2.704  -1.315  -0.781  1.00  0.00     0.068 A 
ATOM      6  C   UNL     1      -1.593  -1.485   0.084  1.00  0.00    -0.058 A 
ATOM      7  O   UNL     1      -0.901  -2.691   0.122  1.00  0.00    -0.870 OA
ENDROOT
BRANCH   1   8
ATOM      8  N   UNL     1      -0.044  -0.619   1.798  1.00  0.00    -0.383 N 
ATOM      9  H   UNL     1       0.195  -1.601   2.059  1.00  0.00     0.160 HD
BRANCH   8  10
ATOM     10  C   UNL     1       0.769   0.473   2.358  1.00  0.00     0.082 C 
ATOM     11  C   UNL     1       3.508  -0.150   1.519  1.00  0.00    -0.043 C 
ATOM     12  C   UNL     1       2.536   0.434   0.524  1.00  0.00     0.035 C 
ATOM     13  C   UNL     1       2.962  -0.852   2.740  1.00  0.00     0.194 C 
ATOM     14  C   UNL     1       1.478   1.272   1.245  1.00  0.00     0.029 C 
ATOM     15  C   UNL     1       1.805  -0.058   3.378  1.00  0.00     0.067 C 
ATOM     16  C   UNL     1       4.821  -0.192   1.243  1.00  0.00     0.011 C 
ATOM     17  F   UNL     1       2.542  -2.121   2.384  1.00  0.00    -0.243 F 
ENDBRANCH   8  10
ENDBRANCH   1   8
BRANCH   5  18
ATOM     18  N   UNL     1      -3.195  -2.347  -1.656  1.00  0.00    -0.195 NA
BRANCH  18  19
ATOM     19  C   UNL     1      -2.710  -3.519  -1.762  1.00  0.00     0.064 C 
ATOM     20  S   UNL     1      -2.104  -5.006  -1.904  1.00  0.00    -0.006 S 
ENDBRANCH  18  19
ENDBRANCH   5  18
TORSDOF 4


