MODEL 1
REMARK VINA RESULT:      -5.9      0.000      0.000
REMARK SMILES Cc1cc(N)c(N[C@@H]2CC[C@H](C)N(c3cnc(CC#N)n3C)[C@H]2F)cc1F
REMARK SMILES IDX 8 1 9 2 10 3 11 4 12 5 13 6 23 7 24 8 7 9 6 11 2 12 3 13
REMARK SMILES IDX 26 14 4 15 25 16 1 17 27 18 5 19 14 22 15 23 21 24 16 25
REMARK SMILES IDX 17 26 22 27 18 28 19 29 20 30
REMARK H PARENT 7 10 5 20 5 21
ROOT
ATOM      1  C   UNL     1      43.477 131.500  20.815  1.00  0.00     0.134 C 
ATOM      2  C   UNL     1      42.651 132.592  21.506  1.00  0.00     0.032 C 
ATOM      3  C   UNL     1      41.687 131.976  22.526  1.00  0.00     0.027 C 
ATOM      4  C   UNL     1      42.415 131.093  23.559  1.00  0.00     0.083 C 
ATOM      5  C   UNL     1      43.146 131.928  24.619  1.00  0.00     0.031 C 
ATOM      6  N   UNL     1      43.354 130.176  22.894  1.00  0.00    -0.322 N 
ATOM      7  C   UNL     1      44.260 130.681  21.850  1.00  0.00     0.286 C 
ATOM      8  F   UNL     1      44.885 129.628  21.198  1.00  0.00    -0.221 F 
ENDROOT
BRANCH   1   9
ATOM      9  N   UNL     1      44.405 132.112  19.859  1.00  0.00    -0.376 N 
ATOM     10  H   UNL     1      45.011 132.894  20.197  1.00  0.00     0.161 HD
BRANCH   9  11
ATOM     11  C   UNL     1      44.489 131.717  18.479  1.00  0.00     0.061 A 
ATOM     12  C   UNL     1      44.638 130.836  15.803  1.00  0.00    -0.013 A 
ATOM     13  C   UNL     1      43.470 131.442  16.285  1.00  0.00     0.034 A 
ATOM     14  C   UNL     1      45.730 130.665  16.665  1.00  0.00     0.128 A 
ATOM     15  C   UNL     1      43.387 131.892  17.612  1.00  0.00     0.055 A 
ATOM     16  C   UNL     1      45.655 131.101  17.990  1.00  0.00     0.067 A 
ATOM     17  C   UNL     1      44.718 130.351  14.384  1.00  0.00     0.047 C 
ATOM     18  F   UNL     1      46.867 130.066  16.227  1.00  0.00    -0.207 F 
BRANCH  15  19
ATOM     19  N   UNL     1      42.192 132.554  18.048  1.00  0.00    -0.397 N 
ATOM     20  H   UNL     1      41.826 132.454  19.021  1.00  0.00     0.156 HD
ATOM     21  H   UNL     1      41.693 133.217  17.415  1.00  0.00     0.156 HD
ENDBRANCH  15  19
ENDBRANCH   9  11
ENDBRANCH   1   9
BRANCH   6  22
ATOM     22  C   UNL     1      43.536 128.859  23.442  1.00  0.00     0.131 A 
ATOM     23  C   UNL     1      44.742 128.312  23.811  1.00  0.00     0.158 A 
ATOM     24  N   UNL     1      42.556 127.964  23.666  1.00  0.00    -0.317 N 
ATOM     25  N   UNL     1      44.529 127.073  24.298  1.00  0.00    -0.238 NA
ATOM     26  C   UNL     1      43.190 126.898  24.209  1.00  0.00     0.124 A 
ATOM     27  C   UNL     1      41.127 128.115  23.395  1.00  0.00     0.153 C 
BRANCH  26  28
ATOM     28  C   UNL     1      42.518 125.624  24.624  1.00  0.00     0.195 C 
BRANCH  28  29
ATOM     29  C   UNL     1      43.424 124.492  24.420  1.00  0.00     0.070 C 
ATOM     30  N   UNL     1      44.140 123.598  24.259  1.00  0.00    -0.198 NA
ENDBRANCH  28  29
ENDBRANCH  26  28
ENDBRANCH   6  22
TORSDOF 6
ENDMDL
MODEL 2
REMARK VINA RESULT:      -5.4      2.186      3.900
REMARK SMILES Cc1cc(N)c(N[C@@H]2CC[C@H](C)N(c3cnc(CC#N)n3C)[C@H]2F)cc1F
REMARK SMILES IDX 8 1 9 2 10 3 11 4 12 5 13 6 23 7 24 8 7 9 6 11 2 12 3 13
REMARK SMILES IDX 26 14 4 15 25 16 1 17 27 18 5 19 14 22 15 23 21 24 16 25
REMARK SMILES IDX 17 26 22 27 18 28 19 29 20 30
REMARK H PARENT 7 10 5 20 5 21
ROOT
ATOM      1  C   UNL     1      44.413 131.507  17.784  1.00  0.00     0.134 C 
ATOM      2  C   UNL     1      43.014 131.831  17.245  1.00  0.00     0.032 C 
ATOM      3  C   UNL     1      41.932 131.251  18.163  1.00  0.00     0.027 C 
ATOM      4  C   UNL     1      42.088 131.726  19.622  1.00  0.00     0.083 C 
ATOM      5  C   UNL     1      41.607 133.170  19.814  1.00  0.00     0.031 C 
ATOM      6  N   UNL     1      43.484 131.590  20.069  1.00  0.00    -0.322 N 
ATOM      7  C   UNL     1      44.582 132.056  19.207  1.00  0.00     0.286 C 
ATOM      8  F   UNL     1      45.804 131.627  19.703  1.00  0.00    -0.221 F 
ENDROOT
BRANCH   1   9
ATOM      9  N   UNL     1      45.430 132.086  16.903  1.00  0.00    -0.376 N 
ATOM     10  H   UNL     1      45.596 133.116  16.958  1.00  0.00     0.161 HD
BRANCH   9  11
ATOM     11  C   UNL     1      46.173 131.316  15.943  1.00  0.00     0.061 A 
ATOM     12  C   UNL     1      47.726 129.850  14.098  1.00  0.00    -0.013 A 
ATOM     13  C   UNL     1      47.214 129.228  15.245  1.00  0.00     0.034 A 
ATOM     14  C   UNL     1      47.466 131.210  13.880  1.00  0.00     0.128 A 
ATOM     15  C   UNL     1      46.433 129.945  16.166  1.00  0.00     0.055 A 
ATOM     16  C   UNL     1      46.697 131.935  14.794  1.00  0.00     0.067 A 
ATOM     17  C   UNL     1      48.566 129.079  13.122  1.00  0.00     0.047 C 
ATOM     18  F   UNL     1      47.965 131.840  12.786  1.00  0.00    -0.207 F 
BRANCH  15  19
ATOM     19  N   UNL     1      45.885 129.256  17.297  1.00  0.00    -0.397 N 
ATOM     20  H   UNL     1      45.989 129.618  18.271  1.00  0.00     0.156 HD
ATOM     21  H   UNL     1      45.300 128.401  17.164  1.00  0.00     0.156 HD
ENDBRANCH  15  19
ENDBRANCH   9  11
ENDBRANCH   1   9
BRANCH   6  22
ATOM     22  C   UNL     1      43.736 131.224  21.437  1.00  0.00     0.131 A 
ATOM     23  C   UNL     1      43.220 131.865  22.539  1.00  0.00     0.158 A 
ATOM     24  N   UNL     1      44.521 130.207  21.842  1.00  0.00    -0.317 N 
ATOM     25  N   UNL     1      43.654 131.239  23.651  1.00  0.00    -0.238 NA
ATOM     26  C   UNL     1      44.430 130.229  23.193  1.00  0.00     0.124 A 
ATOM     27  C   UNL     1      45.287 129.282  21.009  1.00  0.00     0.153 C 
BRANCH  26  28
ATOM     28  C   UNL     1      45.145 129.286  24.112  1.00  0.00     0.195 C 
BRANCH  28  29
ATOM     29  C   UNL     1      44.296 128.126  24.395  1.00  0.00     0.070 C 
ATOM     30  N   UNL     1      43.626 127.210  24.618  1.00  0.00    -0.198 NA
ENDBRANCH  28  29
ENDBRANCH  26  28
ENDBRANCH   6  22
TORSDOF 6
ENDMDL
MODEL 3
REMARK VINA RESULT:      -5.2      1.032      1.034
REMARK SMILES Cc1cc(N)c(N[C@@H]2CC[C@H](C)N(c3cnc(CC#N)n3C)[C@H]2F)cc1F
REMARK SMILES IDX 8 1 9 2 10 3 11 4 12 5 13 6 23 7 24 8 7 9 6 11 2 12 3 13
REMARK SMILES IDX 26 14 4 15 25 16 1 17 27 18 5 19 14 22 15 23 21 24 16 25
REMARK SMILES IDX 17 26 22 27 18 28 19 29 20 30
REMARK H PARENT 7 10 5 20 5 21
ROOT
ATOM      1  C   UNL     1      44.074 131.262  20.299  1.00  0.00     0.134 C 
ATOM      2  C   UNL     1      43.255 132.302  21.075  1.00  0.00     0.032 C 
ATOM      3  C   UNL     1      42.352 131.618  22.107  1.00  0.00     0.027 C 
ATOM      4  C   UNL     1      43.146 130.709  23.067  1.00  0.00     0.083 C 
ATOM      5  C   UNL     1      43.905 131.515  24.130  1.00  0.00     0.031 C 
ATOM      6  N   UNL     1      44.075 129.846  22.321  1.00  0.00    -0.322 N 
ATOM      7  C   UNL     1      44.921 130.418  21.261  1.00  0.00     0.286 C 
ATOM      8  F   UNL     1      45.539 129.410  20.536  1.00  0.00    -0.221 F 
ENDROOT
BRANCH   1   9
ATOM      9  N   UNL     1      44.943 131.938  19.333  1.00  0.00    -0.376 N 
ATOM     10  H   UNL     1      45.638 132.628  19.697  1.00  0.00     0.161 HD
BRANCH   9  11
ATOM     11  C   UNL     1      44.855 131.729  17.912  1.00  0.00     0.061 A 
ATOM     12  C   UNL     1      44.683 131.207  15.145  1.00  0.00    -0.013 A 
ATOM     13  C   UNL     1      43.547 131.606  15.863  1.00  0.00     0.034 A 
ATOM     14  C   UNL     1      45.905 131.063  15.817  1.00  0.00     0.128 A 
ATOM     15  C   UNL     1      43.622 131.875  17.238  1.00  0.00     0.055 A 
ATOM     16  C   UNL     1      45.989 131.321  17.187  1.00  0.00     0.067 A 
ATOM     17  C   UNL     1      44.594 130.913  13.676  1.00  0.00     0.047 C 
ATOM     18  F   UNL     1      47.016 130.663  15.147  1.00  0.00    -0.207 F 
BRANCH  15  19
ATOM     19  N   UNL     1      42.447 132.332  17.922  1.00  0.00    -0.397 N 
ATOM     20  H   UNL     1      41.565 131.773  17.942  1.00  0.00     0.156 HD
ATOM     21  H   UNL     1      42.470 133.211  18.484  1.00  0.00     0.156 HD
ENDBRANCH  15  19
ENDBRANCH   9  11
ENDBRANCH   1   9
BRANCH   6  22
ATOM     22  C   UNL     1      44.310 128.511  22.800  1.00  0.00     0.131 A 
ATOM     23  C   UNL     1      45.419 127.749  22.515  1.00  0.00     0.158 A 
ATOM     24  N   UNL     1      43.479 127.805  23.590  1.00  0.00    -0.317 N 
ATOM     25  N   UNL     1      45.309 126.563  23.147  1.00  0.00    -0.238 NA
ATOM     26  C   UNL     1      44.127 126.635  23.801  1.00  0.00     0.124 A 
ATOM     27  C   UNL     1      42.176 128.217  24.111  1.00  0.00     0.153 C 
BRANCH  26  28
ATOM     28  C   UNL     1      43.592 125.500  24.621  1.00  0.00     0.195 C 
BRANCH  28  29
ATOM     29  C   UNL     1      42.903 124.540  23.754  1.00  0.00     0.070 C 
ATOM     30  N   UNL     1      42.359 123.783  23.070  1.00  0.00    -0.198 NA
ENDBRANCH  28  29
ENDBRANCH  26  28
ENDBRANCH   6  22
TORSDOF 6
ENDMDL
MODEL 4
REMARK VINA RESULT:      -5.1      2.287      7.514
REMARK SMILES Cc1cc(N)c(N[C@@H]2CC[C@H](C)N(c3cnc(CC#N)n3C)[C@H]2F)cc1F
REMARK SMILES IDX 8 1 9 2 10 3 11 4 12 5 13 6 23 7 24 8 7 9 6 11 2 12 3 13
REMARK SMILES IDX 26 14 4 15 25 16 1 17 27 18 5 19 14 22 15 23 21 24 16 25
REMARK SMILES IDX 17 26 22 27 18 28 19 29 20 30
REMARK H PARENT 7 10 5 20 5 21
ROOT
ATOM      1  C   UNL     1      44.451 131.607  21.302  1.00  0.00     0.134 C 
ATOM      2  C   UNL     1      43.051 132.234  21.320  1.00  0.00     0.032 C 
ATOM      3  C   UNL     1      42.749 132.923  19.985  1.00  0.00     0.027 C 
ATOM      4  C   UNL     1      42.913 131.968  18.785  1.00  0.00     0.083 C 
ATOM      5  C   UNL     1      41.734 130.996  18.655  1.00  0.00     0.031 C 
ATOM      6  N   UNL     1      44.180 131.224  18.879  1.00  0.00    -0.322 N 
ATOM      7  C   UNL     1      44.574 130.599  20.151  1.00  0.00     0.286 C 
ATOM      8  F   UNL     1      45.887 130.157  20.090  1.00  0.00    -0.221 F 
ENDROOT
BRANCH   1   9
ATOM      9  N   UNL     1      44.711 130.938  22.579  1.00  0.00    -0.376 N 
ATOM     10  H   UNL     1      45.361 131.403  23.252  1.00  0.00     0.161 HD
BRANCH   9  11
ATOM     11  C   UNL     1      44.152 129.660  22.928  1.00  0.00     0.061 A 
ATOM     12  C   UNL     1      43.125 127.148  23.700  1.00  0.00    -0.013 A 
ATOM     13  C   UNL     1      42.405 128.320  23.969  1.00  0.00     0.034 A 
ATOM     14  C   UNL     1      44.364 127.235  23.050  1.00  0.00     0.128 A 
ATOM     15  C   UNL     1      42.902 129.575  23.583  1.00  0.00     0.055 A 
ATOM     16  C   UNL     1      44.872 128.480  22.669  1.00  0.00     0.067 A 
ATOM     17  C   UNL     1      42.591 125.810  24.123  1.00  0.00     0.047 C 
ATOM     18  F   UNL     1      45.088 126.116  22.793  1.00  0.00    -0.207 F 
BRANCH  15  19
ATOM     19  N   UNL     1      42.108 130.743  23.830  1.00  0.00    -0.397 N 
ATOM     20  H   UNL     1      42.165 131.272  24.729  1.00  0.00     0.156 HD
ATOM     21  H   UNL     1      41.500 131.138  23.080  1.00  0.00     0.156 HD
ENDBRANCH  15  19
ENDBRANCH   9  11
ENDBRANCH   1   9
BRANCH   6  22
ATOM     22  C   UNL     1      44.892 130.921  17.667  1.00  0.00     0.131 A 
ATOM     23  C   UNL     1      46.103 130.273  17.599  1.00  0.00     0.158 A 
ATOM     24  N   UNL     1      44.485 131.233  16.422  1.00  0.00    -0.317 N 
ATOM     25  N   UNL     1      46.458 130.146  16.304  1.00  0.00    -0.238 NA
ATOM     26  C   UNL     1      45.448 130.727  15.616  1.00  0.00     0.124 A 
ATOM     27  C   UNL     1      43.270 131.946  16.030  1.00  0.00     0.153 C 
BRANCH  26  28
ATOM     28  C   UNL     1      45.452 130.832  14.121  1.00  0.00     0.195 C 
BRANCH  28  29
ATOM     29  C   UNL     1      46.821 131.029  13.638  1.00  0.00     0.070 C 
ATOM     30  N   UNL     1      47.902 131.185  13.257  1.00  0.00    -0.198 NA
ENDBRANCH  28  29
ENDBRANCH  26  28
ENDBRANCH   6  22
TORSDOF 6
ENDMDL
MODEL 5
REMARK VINA RESULT:      -5.0      2.385      7.151
REMARK SMILES Cc1cc(N)c(N[C@@H]2CC[C@H](C)N(c3cnc(CC#N)n3C)[C@H]2F)cc1F
REMARK SMILES IDX 8 1 9 2 10 3 11 4 12 5 13 6 23 7 24 8 7 9 6 11 2 12 3 13
REMARK SMILES IDX 26 14 4 15 25 16 1 17 27 18 5 19 14 22 15 23 21 24 16 25
REMARK SMILES IDX 17 26 22 27 18 28 19 29 20 30
REMARK H PARENT 7 10 5 20 5 21
ROOT
ATOM      1  C   UNL     1      44.676 129.158  23.736  1.00  0.00     0.134 C 
ATOM      2  C   UNL     1      44.042 130.237  24.624  1.00  0.00     0.032 C 
ATOM      3  C   UNL     1      44.364 131.636  24.087  1.00  0.00     0.027 C 
ATOM      4  C   UNL     1      43.938 131.809  22.615  1.00  0.00     0.083 C 
ATOM      5  C   UNL     1      42.423 132.002  22.471  1.00  0.00     0.031 C 
ATOM      6  N   UNL     1      44.387 130.667  21.804  1.00  0.00    -0.322 N 
ATOM      7  C   UNL     1      44.180 129.293  22.289  1.00  0.00     0.286 C 
ATOM      8  F   UNL     1      44.875 128.388  21.499  1.00  0.00    -0.221 F 
ENDROOT
BRANCH   1   9
ATOM      9  N   UNL     1      44.340 127.830  24.255  1.00  0.00    -0.376 N 
ATOM     10  H   UNL     1      43.718 127.774  25.093  1.00  0.00     0.161 HD
BRANCH   9  11
ATOM     11  C   UNL     1      44.859 126.611  23.696  1.00  0.00     0.061 A 
ATOM     12  C   UNL     1      45.902 124.184  22.704  1.00  0.00    -0.013 A 
ATOM     13  C   UNL     1      44.516 124.383  22.774  1.00  0.00     0.034 A 
ATOM     14  C   UNL     1      46.765 125.198  23.139  1.00  0.00     0.128 A 
ATOM     15  C   UNL     1      43.986 125.590  23.258  1.00  0.00     0.055 A 
ATOM     16  C   UNL     1      46.248 126.400  23.630  1.00  0.00     0.067 A 
ATOM     17  C   UNL     1      46.461 122.888  22.192  1.00  0.00     0.047 C 
ATOM     18  F   UNL     1      48.111 125.023  23.097  1.00  0.00    -0.207 F 
BRANCH  15  19
ATOM     19  N   UNL     1      42.564 125.772  23.262  1.00  0.00    -0.397 N 
ATOM     20  H   UNL     1      41.983 125.581  24.109  1.00  0.00     0.156 HD
ATOM     21  H   UNL     1      42.079 126.173  22.429  1.00  0.00     0.156 HD
ENDBRANCH  15  19
ENDBRANCH   9  11
ENDBRANCH   1   9
BRANCH   6  22
ATOM     22  C   UNL     1      44.802 130.905  20.448  1.00  0.00     0.131 A 
ATOM     23  C   UNL     1      46.074 130.715  19.962  1.00  0.00     0.158 A 
ATOM     24  N   UNL     1      44.012 131.358  19.456  1.00  0.00    -0.317 N 
ATOM     25  N   UNL     1      46.090 131.020  18.649  1.00  0.00    -0.238 NA
ATOM     26  C   UNL     1      44.820 131.394  18.370  1.00  0.00     0.124 A 
ATOM     27  C   UNL     1      42.596 131.717  19.534  1.00  0.00     0.153 C 
BRANCH  26  28
ATOM     28  C   UNL     1      44.397 131.848  17.006  1.00  0.00     0.195 C 
BRANCH  28  29
ATOM     29  C   UNL     1      45.499 131.670  16.058  1.00  0.00     0.070 C 
ATOM     30  N   UNL     1      46.370 131.531  15.309  1.00  0.00    -0.198 NA
ENDBRANCH  28  29
ENDBRANCH  26  28
ENDBRANCH   6  22
TORSDOF 6
ENDMDL
MODEL 6
REMARK VINA RESULT:      -4.5      2.505      7.415
REMARK SMILES Cc1cc(N)c(N[C@@H]2CC[C@H](C)N(c3cnc(CC#N)n3C)[C@H]2F)cc1F
REMARK SMILES IDX 8 1 9 2 10 3 11 4 12 5 13 6 23 7 24 8 7 9 6 11 2 12 3 13
REMARK SMILES IDX 26 14 4 15 25 16 1 17 27 18 5 19 14 22 15 23 21 24 16 25
REMARK SMILES IDX 17 26 22 27 18 28 19 29 20 30
REMARK H PARENT 7 10 5 20 5 21
ROOT
ATOM      1  C   UNL     1      44.648 131.688  20.837  1.00  0.00     0.134 C 
ATOM      2  C   UNL     1      43.159 132.020  20.999  1.00  0.00     0.032 C 
ATOM      3  C   UNL     1      42.641 132.790  19.780  1.00  0.00     0.027 C 
ATOM      4  C   UNL     1      42.901 132.037  18.460  1.00  0.00     0.083 C 
ATOM      5  C   UNL     1      41.922 130.874  18.255  1.00  0.00     0.031 C 
ATOM      6  N   UNL     1      44.289 131.552  18.399  1.00  0.00    -0.322 N 
ATOM      7  C   UNL     1      44.881 130.869  19.560  1.00  0.00     0.286 C 
ATOM      8  F   UNL     1      46.247 130.706  19.384  1.00  0.00    -0.221 F 
ENDROOT
BRANCH   1   9
ATOM      9  N   UNL     1      45.118 130.935  22.004  1.00  0.00    -0.376 N 
ATOM     10  H   UNL     1      45.875 131.357  22.586  1.00  0.00     0.161 HD
BRANCH   9  11
ATOM     11  C   UNL     1      44.618 129.633  22.355  1.00  0.00     0.061 A 
ATOM     12  C   UNL     1      43.721 127.071  23.121  1.00  0.00    -0.013 A 
ATOM     13  C   UNL     1      43.034 128.217  23.543  1.00  0.00     0.034 A 
ATOM     14  C   UNL     1      44.863 127.209  22.320  1.00  0.00     0.128 A 
ATOM     15  C   UNL     1      43.466 129.497  23.162  1.00  0.00     0.055 A 
ATOM     16  C   UNL     1      45.307 128.478  21.942  1.00  0.00     0.067 A 
ATOM     17  C   UNL     1      43.257 125.705  23.539  1.00  0.00     0.047 C 
ATOM     18  F   UNL     1      45.555 126.115  21.913  1.00  0.00    -0.207 F 
BRANCH  15  19
ATOM     19  N   UNL     1      42.703 130.639  23.572  1.00  0.00    -0.397 N 
ATOM     20  H   UNL     1      41.722 130.795  23.250  1.00  0.00     0.156 HD
ATOM     21  H   UNL     1      43.092 131.314  24.267  1.00  0.00     0.156 HD
ENDBRANCH  15  19
ENDBRANCH   9  11
ENDBRANCH   1   9
BRANCH   6  22
ATOM     22  C   UNL     1      44.961 131.543  17.128  1.00  0.00     0.131 A 
ATOM     23  C   UNL     1      45.626 132.611  16.573  1.00  0.00     0.158 A 
ATOM     24  N   UNL     1      45.032 130.492  16.289  1.00  0.00    -0.317 N 
ATOM     25  N   UNL     1      46.147 132.234  15.388  1.00  0.00    -0.238 NA
ATOM     26  C   UNL     1      45.780 130.939  15.252  1.00  0.00     0.124 A 
ATOM     27  C   UNL     1      44.444 129.165  16.465  1.00  0.00     0.153 C 
BRANCH  26  28
ATOM     28  C   UNL     1      46.133 130.127  14.042  1.00  0.00     0.195 C 
BRANCH  28  29
ATOM     29  C   UNL     1      47.552 129.764  14.082  1.00  0.00     0.070 C 
ATOM     30  N   UNL     1      48.672 129.478  14.113  1.00  0.00    -0.198 NA
ENDBRANCH  28  29
ENDBRANCH  26  28
ENDBRANCH   6  22
TORSDOF 6
ENDMDL
MODEL 7
REMARK VINA RESULT:      -4.4      2.511      7.553
REMARK SMILES Cc1cc(N)c(N[C@@H]2CC[C@H](C)N(c3cnc(CC#N)n3C)[C@H]2F)cc1F
REMARK SMILES IDX 8 1 9 2 10 3 11 4 12 5 13 6 23 7 24 8 7 9 6 11 2 12 3 13
REMARK SMILES IDX 26 14 4 15 25 16 1 17 27 18 5 19 14 22 15 23 21 24 16 25
REMARK SMILES IDX 17 26 22 27 18 28 19 29 20 30
REMARK H PARENT 7 10 5 20 5 21
ROOT
ATOM      1  C   UNL     1      44.278 132.125  20.759  1.00  0.00     0.134 C 
ATOM      2  C   UNL     1      42.795 132.442  20.986  1.00  0.00     0.032 C 
ATOM      3  C   UNL     1      42.151 132.968  19.698  1.00  0.00     0.027 C 
ATOM      4  C   UNL     1      42.336 131.997  18.514  1.00  0.00     0.083 C 
ATOM      5  C   UNL     1      41.391 130.791  18.603  1.00  0.00     0.031 C 
ATOM      6  N   UNL     1      43.734 131.544  18.423  1.00  0.00    -0.322 N 
ATOM      7  C   UNL     1      44.443 131.096  19.632  1.00  0.00     0.286 C 
ATOM      8  F   UNL     1      45.796 130.939  19.371  1.00  0.00    -0.221 F 
ENDROOT
BRANCH   1   9
ATOM      9  N   UNL     1      44.869 131.606  21.996  1.00  0.00    -0.376 N 
ATOM     10  H   UNL     1      45.671 132.130  22.413  1.00  0.00     0.161 HD
BRANCH   9  11
ATOM     11  C   UNL     1      44.427 130.395  22.632  1.00  0.00     0.061 A 
ATOM     12  C   UNL     1      43.662 128.009  23.929  1.00  0.00    -0.013 A 
ATOM     13  C   UNL     1      43.228 129.250  24.416  1.00  0.00     0.034 A 
ATOM     14  C   UNL     1      44.486 127.964  22.796  1.00  0.00     0.128 A 
ATOM     15  C   UNL     1      43.596 130.443  23.775  1.00  0.00     0.055 A 
ATOM     16  C   UNL     1      44.865 129.146  22.155  1.00  0.00     0.067 A 
ATOM     17  C   UNL     1      43.271 126.737  24.625  1.00  0.00     0.047 C 
ATOM     18  F   UNL     1      44.933 126.776  22.316  1.00  0.00    -0.207 F 
BRANCH  15  19
ATOM     19  N   UNL     1      43.086 131.686  24.274  1.00  0.00    -0.397 N 
ATOM     20  H   UNL     1      42.462 131.734  25.110  1.00  0.00     0.156 HD
ATOM     21  H   UNL     1      43.390 132.591  23.851  1.00  0.00     0.156 HD
ENDBRANCH  15  19
ENDBRANCH   9  11
ENDBRANCH   1   9
BRANCH   6  22
ATOM     22  C   UNL     1      44.303 131.324  17.121  1.00  0.00     0.131 A 
ATOM     23  C   UNL     1      43.942 131.991  15.973  1.00  0.00     0.158 A 
ATOM     24  N   UNL     1      45.264 130.428  16.829  1.00  0.00    -0.317 N 
ATOM     25  N   UNL     1      44.696 131.539  14.950  1.00  0.00    -0.238 NA
ATOM     26  C   UNL     1      45.497 130.601  15.507  1.00  0.00     0.124 A 
ATOM     27  C   UNL     1      45.918 129.489  17.740  1.00  0.00     0.153 C 
BRANCH  26  28
ATOM     28  C   UNL     1      46.488 129.814  14.704  1.00  0.00     0.195 C 
BRANCH  28  29
ATOM     29  C   UNL     1      47.174 130.695  13.756  1.00  0.00     0.070 C 
ATOM     30  N   UNL     1      47.715 131.390  13.006  1.00  0.00    -0.198 NA
ENDBRANCH  28  29
ENDBRANCH  26  28
ENDBRANCH   6  22
TORSDOF 6
ENDMDL
MODEL 8
REMARK VINA RESULT:      -4.3      2.629      7.642
REMARK SMILES Cc1cc(N)c(N[C@@H]2CC[C@H](C)N(c3cnc(CC#N)n3C)[C@H]2F)cc1F
REMARK SMILES IDX 8 1 9 2 10 3 11 4 12 5 13 6 23 7 24 8 7 9 6 11 2 12 3 13
REMARK SMILES IDX 26 14 4 15 25 16 1 17 27 18 5 19 14 22 15 23 21 24 16 25
REMARK SMILES IDX 17 26 22 27 18 28 19 29 20 30
REMARK H PARENT 7 10 5 20 5 21
ROOT
ATOM      1  C   UNL     1      44.843 131.850  20.498  1.00  0.00     0.134 C 
ATOM      2  C   UNL     1      43.444 132.466  20.617  1.00  0.00     0.032 C 
ATOM      3  C   UNL     1      42.959 132.974  19.255  1.00  0.00     0.027 C 
ATOM      4  C   UNL     1      42.990 131.873  18.176  1.00  0.00     0.083 C 
ATOM      5  C   UNL     1      41.825 130.886  18.325  1.00  0.00     0.031 C 
ATOM      6  N   UNL     1      44.274 131.155  18.199  1.00  0.00    -0.322 N 
ATOM      7  C   UNL     1      44.841 130.702  19.479  1.00  0.00     0.286 C 
ATOM      8  F   UNL     1      46.145 130.264  19.305  1.00  0.00    -0.221 F 
ENDROOT
BRANCH   1   9
ATOM      9  N   UNL     1      45.279 131.353  21.806  1.00  0.00    -0.376 N 
ATOM     10  H   UNL     1      46.117 131.797  22.244  1.00  0.00     0.161 HD
BRANCH   9  11
ATOM     11  C   UNL     1      44.639 130.261  22.488  1.00  0.00     0.061 A 
ATOM     12  C   UNL     1      43.480 128.097  23.878  1.00  0.00    -0.013 A 
ATOM     13  C   UNL     1      43.227 129.415  24.282  1.00  0.00     0.034 A 
ATOM     14  C   UNL     1      44.320 127.863  22.780  1.00  0.00     0.128 A 
ATOM     15  C   UNL     1      43.792 130.500  23.593  1.00  0.00     0.055 A 
ATOM     16  C   UNL     1      44.894 128.935  22.093  1.00  0.00     0.067 A 
ATOM     17  C   UNL     1      42.879 126.940  24.624  1.00  0.00     0.047 C 
ATOM     18  F   UNL     1      44.594 126.595  22.380  1.00  0.00    -0.207 F 
BRANCH  15  19
ATOM     19  N   UNL     1      43.464 131.832  24.008  1.00  0.00    -0.397 N 
ATOM     20  H   UNL     1      43.412 132.626  23.332  1.00  0.00     0.156 HD
ATOM     21  H   UNL     1      43.196 132.028  24.998  1.00  0.00     0.156 HD
ENDBRANCH  15  19
ENDBRANCH   9  11
ENDBRANCH   1   9
BRANCH   6  22
ATOM     22  C   UNL     1      44.832 130.702  16.954  1.00  0.00     0.131 A 
ATOM     23  C   UNL     1      44.772 129.412  16.479  1.00  0.00     0.158 A 
ATOM     24  N   UNL     1      45.504 131.467  16.073  1.00  0.00    -0.317 N 
ATOM     25  N   UNL     1      45.382 129.360  15.278  1.00  0.00    -0.238 NA
ATOM     26  C   UNL     1      45.803 130.626  15.055  1.00  0.00     0.124 A 
ATOM     27  C   UNL     1      45.825 132.889  16.186  1.00  0.00     0.153 C 
BRANCH  26  28
ATOM     28  C   UNL     1      46.568 131.013  13.825  1.00  0.00     0.195 C 
BRANCH  28  29
ATOM     29  C   UNL     1      47.675 130.078  13.611  1.00  0.00     0.070 C 
ATOM     30  N   UNL     1      48.550 129.340  13.443  1.00  0.00    -0.198 NA
ENDBRANCH  28  29
ENDBRANCH  26  28
ENDBRANCH   6  22
TORSDOF 6
ENDMDL
MODEL 9
REMARK VINA RESULT:      -4.1      1.917      6.897
REMARK SMILES Cc1cc(N)c(N[C@@H]2CC[C@H](C)N(c3cnc(CC#N)n3C)[C@H]2F)cc1F
REMARK SMILES IDX 8 1 9 2 10 3 11 4 12 5 13 6 23 7 24 8 7 9 6 11 2 12 3 13
REMARK SMILES IDX 26 14 4 15 25 16 1 17 27 18 5 19 14 22 15 23 21 24 16 25
REMARK SMILES IDX 17 26 22 27 18 28 19 29 20 30
REMARK H PARENT 7 10 5 20 5 21
ROOT
ATOM      1  C   UNL     1      43.862 129.987  23.756  1.00  0.00     0.134 C 
ATOM      2  C   UNL     1      43.325 131.141  24.612  1.00  0.00     0.032 C 
ATOM      3  C   UNL     1      43.560 132.486  23.916  1.00  0.00     0.027 C 
ATOM      4  C   UNL     1      42.959 132.522  22.496  1.00  0.00     0.083 C 
ATOM      5  C   UNL     1      41.435 132.697  22.518  1.00  0.00     0.031 C 
ATOM      6  N   UNL     1      43.324 131.311  21.743  1.00  0.00    -0.322 N 
ATOM      7  C   UNL     1      43.196 129.987  22.373  1.00  0.00     0.286 C 
ATOM      8  F   UNL     1      43.803 129.016  21.591  1.00  0.00    -0.221 F 
ENDROOT
BRANCH   1   9
ATOM      9  N   UNL     1      43.609 128.711  24.430  1.00  0.00    -0.376 N 
ATOM     10  H   UNL     1      43.170 128.736  25.378  1.00  0.00     0.161 HD
BRANCH   9  11
ATOM     11  C   UNL     1      43.975 127.438  23.871  1.00  0.00     0.061 A 
ATOM     12  C   UNL     1      44.732 124.909  22.875  1.00  0.00    -0.013 A 
ATOM     13  C   UNL     1      43.385 125.190  23.144  1.00  0.00     0.034 A 
ATOM     14  C   UNL     1      45.701 125.893  23.112  1.00  0.00     0.128 A 
ATOM     15  C   UNL     1      42.996 126.447  23.632  1.00  0.00     0.055 A 
ATOM     16  C   UNL     1      45.325 127.145  23.606  1.00  0.00     0.067 A 
ATOM     17  C   UNL     1      45.141 123.559  22.360  1.00  0.00     0.047 C 
ATOM     18  F   UNL     1      47.013 125.639  22.876  1.00  0.00    -0.207 F 
BRANCH  15  19
ATOM     19  N   UNL     1      41.602 126.711  23.842  1.00  0.00    -0.397 N 
ATOM     20  H   UNL     1      40.858 126.066  23.495  1.00  0.00     0.156 HD
ATOM     21  H   UNL     1      41.299 127.527  24.418  1.00  0.00     0.156 HD
ENDBRANCH  15  19
ENDBRANCH   9  11
ENDBRANCH   1   9
BRANCH   6  22
ATOM     22  C   UNL     1      43.570 131.425  20.332  1.00  0.00     0.131 A 
ATOM     23  C   UNL     1      42.608 131.630  19.371  1.00  0.00     0.158 A 
ATOM     24  N   UNL     1      44.777 131.339  19.739  1.00  0.00    -0.317 N 
ATOM     25  N   UNL     1      43.204 131.703  18.164  1.00  0.00    -0.238 NA
ATOM     26  C   UNL     1      44.521 131.536  18.424  1.00  0.00     0.124 A 
ATOM     27  C   UNL     1      46.071 131.099  20.376  1.00  0.00     0.153 C 
BRANCH  26  28
ATOM     28  C   UNL     1      45.558 131.521  17.342  1.00  0.00     0.195 C 
BRANCH  28  29
ATOM     29  C   UNL     1      45.135 130.628  16.259  1.00  0.00     0.070 C 
ATOM     30  N   UNL     1      44.801 129.923  15.405  1.00  0.00    -0.198 NA
ENDBRANCH  28  29
ENDBRANCH  26  28
ENDBRANCH   6  22
TORSDOF 6
ENDMDL


