REMARK SMILES Nc1cc(F)c(-c2cnc3c(c2)C(=O)[N-]C3)cc1C=O
REMARK SMILES IDX 2 1 3 2 4 3 5 4 6 5 17 6 18 7 1 8 19 11 20 12 7 13 8 14
REMARK SMILES IDX 12 15 9 16 11 17 10 18 13 19 16 20 15 21 14 22
REMARK H PARENT 1 9 1 10
ROOT
ATOM      1  C   UNL     1      -2.607  -1.440   0.721  1.00  0.00     0.045 A 
ATOM      2  C   UNL     1      -2.604  -0.578  -0.385  1.00  0.00     0.066 A 
ATOM      3  C   UNL     1      -1.643   0.425  -0.512  1.00  0.00     0.133 A 
ATOM      4  F   UNL     1      -1.710   1.268  -1.574  1.00  0.00    -0.206 F 
ATOM      5  C   UNL     1      -0.656   0.588   0.475  1.00  0.00     0.020 A 
ATOM      6  C   UNL     1      -0.645  -0.281   1.579  1.00  0.00     0.025 A 
ATOM      7  C   UNL     1      -1.593  -1.310   1.704  1.00  0.00     0.038 A 
ENDROOT
BRANCH   1   8
ATOM      8  N   UNL     1      -3.676  -2.387   0.847  1.00  0.00    -0.398 N 
ATOM      9  H   UNL     1      -3.941  -2.803   1.766  1.00  0.00     0.156 HD
ATOM     10  H   UNL     1      -4.323  -2.561   0.046  1.00  0.00     0.156 HD
ENDBRANCH   1   8
BRANCH   7  11
ATOM     11  C   UNL     1      -1.450  -2.234   2.851  1.00  0.00     0.262 C 
ATOM     12  O   UNL     1      -1.880  -3.416   2.807  1.00  0.00    -0.298 OA
ENDBRANCH   7  11
BRANCH   5  13
ATOM     13  C   UNL     1       0.370   1.653   0.361  1.00  0.00     0.004 A 
ATOM     14  C   UNL     1       0.688   2.467   1.479  1.00  0.00     0.120 A 
ATOM     15  C   UNL     1       1.060   1.862  -0.852  1.00  0.00     0.022 A 
ATOM     16  N   UNL     1       1.638   3.444   1.382  1.00  0.00    -0.262 NA
ATOM     17  C   UNL     1       2.016   2.871  -0.891  1.00  0.00     0.020 A 
ATOM     18  C   UNL     1       2.289   3.638   0.208  1.00  0.00     0.032 A 
ATOM     19  C   UNL     1       2.883   3.329  -1.944  1.00  0.00     0.084 C 
ATOM     20  C   UNL     1       3.358   4.647  -0.078  1.00  0.00    -0.059 C 
ATOM     21  N   UNL     1       3.702   4.399  -1.484  1.00  0.00    -0.644 NA
ATOM     22  O   UNL     1       2.928   2.864  -3.113  1.00  0.00    -0.315 OA
ENDBRANCH   5  13
TORSDOF 3


