REMARK SMILES Cn1nnc2cc(/N=C(\O)c3cc(F)c[nH]3)c(C=O)cc21
REMARK SMILES IDX 8 1 9 2 10 3 11 5 12 6 16 7 13 8 15 9 14 11 7 12 17 13 6 14
REMARK SMILES IDX 20 15 5 16 21 17 4 18 2 19 3 20 1 21 18 22 19 23
REMARK H PARENT 10 4 16 10
ROOT
ATOM      1  N   UNL     1       0.701   0.430  -0.067  1.00  0.00    -0.212 NA
ENDROOT
BRANCH   1   2
ATOM      2  C   UNL     1       1.294  -0.102   0.962  1.00  0.00     0.235 C 
BRANCH   2   3
ATOM      3  O   UNL     1       1.072  -1.442   1.289  1.00  0.00    -0.492 OA
ATOM      4  H   UNL     1       1.504  -1.887   2.087  1.00  0.00     0.295 HD
ENDBRANCH   2   3
BRANCH   2   5
ATOM      5  C   UNL     1       2.171   0.745   1.796  1.00  0.00     0.104 A 
ATOM      6  C   UNL     1       2.877   0.341   2.918  1.00  0.00     0.072 A 
ATOM      7  N   UNL     1       2.396   2.055   1.554  1.00  0.00    -0.355 N 
ATOM      8  C   UNL     1       3.548   1.461   3.359  1.00  0.00     0.141 A 
ATOM      9  C   UNL     1       3.237   2.497   2.506  1.00  0.00     0.122 A 
ATOM     10  H   UNL     1       1.998   2.628   0.777  1.00  0.00     0.166 HD
ATOM     11  F   UNL     1       4.367   1.531   4.436  1.00  0.00    -0.205 F 
ENDBRANCH   2   5
ENDBRANCH   1   2
BRANCH   1  12
ATOM     12  C   UNL     1      -0.145  -0.248  -1.012  1.00  0.00     0.080 A 
ATOM     13  C   UNL     1      -1.281   0.429  -1.569  1.00  0.00     0.042 A 
ATOM     14  C   UNL     1       0.187  -1.551  -1.464  1.00  0.00     0.061 A 
ATOM     15  C   UNL     1      -2.087  -0.225  -2.530  1.00  0.00     0.044 A 
ATOM     16  C   UNL     1      -0.640  -2.144  -2.407  1.00  0.00     0.115 A 
ATOM     17  C   UNL     1      -1.728  -1.513  -2.911  1.00  0.00     0.089 A 
ATOM     18  N   UNL     1      -0.526  -3.353  -2.988  1.00  0.00    -0.130 NA
ATOM     19  N   UNL     1      -2.292  -2.341  -3.802  1.00  0.00    -0.248 N 
ATOM     20  N   UNL     1      -1.549  -3.443  -3.837  1.00  0.00    -0.066 NA
ATOM     21  C   UNL     1      -3.461  -2.097  -4.636  1.00  0.00     0.176 C 
BRANCH  13  22
ATOM     22  C   UNL     1      -1.666   1.803  -1.170  1.00  0.00     0.262 C 
ATOM     23  O   UNL     1      -1.024   2.450  -0.302  1.00  0.00    -0.298 OA
ENDBRANCH  13  22
ENDBRANCH   1  12
TORSDOF 5


