MODEL 1
REMARK VINA RESULT:      -4.7      0.000      0.000
REMARK SMILES Cc1cc(-c2c([NH2+]c3cccc4c3CCC4)ccc3[nH]ccc23)cc([O-])c1F
REMARK SMILES IDX 5 1 6 2 17 3 18 4 19 5 20 6 21 7 22 8 23 9 4 11 2 12 3 13
REMARK SMILES IDX 27 14 25 15 24 16 1 17 28 18 26 19 7 20 8 23 9 24 13 25
REMARK SMILES IDX 10 26 12 27 14 28 11 29 16 30 15 31
REMARK H PARENT 20 10 7 21 7 22
ROOT
ATOM      1  C   UNL     1      45.348 125.455  22.857  1.00  0.00     0.052 A 
ATOM      2  C   UNL     1      44.963 126.826  22.783  1.00  0.00     0.143 A 
ATOM      3  C   UNL     1      43.609 127.180  23.038  1.00  0.00     0.071 A 
ATOM      4  C   UNL     1      42.651 126.205  23.358  1.00  0.00     0.033 A 
ATOM      5  C   UNL     1      43.065 124.880  23.421  1.00  0.00     0.046 A 
ATOM      6  N   UNL     1      42.311 123.807  23.713  1.00  0.00    -0.361 N 
ATOM      7  C   UNL     1      43.144 122.743  23.658  1.00  0.00     0.083 A 
ATOM      8  C   UNL     1      44.433 123.145  23.328  1.00  0.00     0.029 A 
ATOM      9  C   UNL     1      44.362 124.517  23.181  1.00  0.00     0.013 A 
ATOM     10  H   UNL     1      41.291 123.793  23.938  1.00  0.00     0.166 HD
ENDROOT
BRANCH   1  11
ATOM     11  C   UNL     1      46.734 125.013  22.622  1.00  0.00    -0.012 A 
ATOM     12  C   UNL     1      49.023 124.753  23.406  1.00  0.00    -0.015 A 
ATOM     13  C   UNL     1      47.696 125.149  23.632  1.00  0.00     0.015 A 
ATOM     14  C   UNL     1      49.367 124.158  22.179  1.00  0.00     0.118 A 
ATOM     15  C   UNL     1      48.399 123.997  21.181  1.00  0.00    -0.071 A 
ATOM     16  C   UNL     1      47.087 124.428  21.399  1.00  0.00     0.003 A 
ATOM     17  C   UNL     1      50.055 124.925  24.483  1.00  0.00     0.047 C 
ATOM     18  F   UNL     1      50.639 123.741  21.951  1.00  0.00    -0.207 F 
ATOM     19  O   UNL     1      48.742 123.414  19.967  1.00  0.00    -0.870 OA
ENDBRANCH   1  11
BRANCH   2  20
ATOM     20  N   UNL     1      45.921 127.863  22.462  1.00  0.00    -0.281 N 
ATOM     21  H   UNL     1      46.497 128.049  23.313  1.00  0.00     0.358 HD
ATOM     22  H   UNL     1      46.582 127.540  21.718  1.00  0.00     0.358 HD
BRANCH  20  23
ATOM     23  C   UNL     1      45.265 129.062  21.986  1.00  0.00     0.138 A 
ATOM     24  C   UNL     1      45.503 129.547  20.678  1.00  0.00     0.068 A 
ATOM     25  C   UNL     1      44.413 129.818  22.819  1.00  0.00     0.017 A 
ATOM     26  C   UNL     1      44.857 130.704  20.215  1.00  0.00     0.006 A 
ATOM     27  C   UNL     1      43.783 130.948  22.354  1.00  0.00    -0.039 A 
ATOM     28  C   UNL     1      44.082 129.569  24.247  1.00  0.00     0.042 C 
ATOM     29  C   UNL     1      43.984 131.408  21.053  1.00  0.00     0.004 A 
ATOM     30  C   UNL     1      42.929 131.586  23.381  1.00  0.00     0.036 C 
ATOM     31  C   UNL     1      43.027 130.637  24.588  1.00  0.00     0.010 C 
ENDBRANCH  20  23
ENDBRANCH   2  20
TORSDOF 3
ENDMDL
MODEL 2
REMARK VINA RESULT:      -3.9      2.084      3.251
REMARK SMILES Cc1cc(-c2c([NH2+]c3cccc4c3CCC4)ccc3[nH]ccc23)cc([O-])c1F
REMARK SMILES IDX 5 1 6 2 17 3 18 4 19 5 20 6 21 7 22 8 23 9 4 11 2 12 3 13
REMARK SMILES IDX 27 14 25 15 24 16 1 17 28 18 26 19 7 20 8 23 9 24 13 25
REMARK SMILES IDX 10 26 12 27 14 28 11 29 16 30 15 31
REMARK H PARENT 20 10 7 21 7 22
ROOT
ATOM      1  C   UNL     1      43.021 127.317  23.727  1.00  0.00     0.052 A 
ATOM      2  C   UNL     1      43.247 128.726  23.728  1.00  0.00     0.143 A 
ATOM      3  C   UNL     1      42.150 129.603  23.946  1.00  0.00     0.071 A 
ATOM      4  C   UNL     1      40.853 129.106  24.160  1.00  0.00     0.033 A 
ATOM      5  C   UNL     1      40.674 127.728  24.153  1.00  0.00     0.046 A 
ATOM      6  N   UNL     1      39.524 127.058  24.340  1.00  0.00    -0.361 N 
ATOM      7  C   UNL     1      39.840 125.748  24.251  1.00  0.00     0.083 A 
ATOM      8  C   UNL     1      41.199 125.585  24.004  1.00  0.00     0.029 A 
ATOM      9  C   UNL     1      41.715 126.866  23.945  1.00  0.00     0.013 A 
ATOM     10  H   UNL     1      38.579 127.464  24.519  1.00  0.00     0.166 HD
ENDROOT
BRANCH   1  11
ATOM     11  C   UNL     1      44.110 126.345  23.523  1.00  0.00    -0.012 A 
ATOM     12  C   UNL     1      45.092 124.161  23.956  1.00  0.00    -0.015 A 
ATOM     13  C   UNL     1      44.046 125.081  24.126  1.00  0.00     0.015 A 
ATOM     14  C   UNL     1      46.174 124.491  23.121  1.00  0.00     0.118 A 
ATOM     15  C   UNL     1      46.223 125.743  22.497  1.00  0.00    -0.071 A 
ATOM     16  C   UNL     1      45.197 126.670  22.701  1.00  0.00     0.003 A 
ATOM     17  C   UNL     1      45.029 122.818  24.625  1.00  0.00     0.047 C 
ATOM     18  F   UNL     1      47.181 123.603  22.920  1.00  0.00    -0.207 F 
ATOM     19  O   UNL     1      47.297 126.070  21.678  1.00  0.00    -0.870 OA
ENDBRANCH   1  11
BRANCH   2  20
ATOM     20  N   UNL     1      44.569 129.278  23.518  1.00  0.00    -0.281 N 
ATOM     21  H   UNL     1      44.759 129.966  24.280  1.00  0.00     0.358 HD
ATOM     22  H   UNL     1      45.299 128.533  23.598  1.00  0.00     0.358 HD
BRANCH  20  23
ATOM     23  C   UNL     1      44.689 129.881  22.208  1.00  0.00     0.138 A 
ATOM     24  C   UNL     1      45.704 129.471  21.312  1.00  0.00     0.068 A 
ATOM     25  C   UNL     1      43.840 130.932  21.798  1.00  0.00     0.017 A 
ATOM     26  C   UNL     1      45.812 130.050  20.038  1.00  0.00     0.006 A 
ATOM     27  C   UNL     1      43.952 131.489  20.546  1.00  0.00    -0.039 A 
ATOM     28  C   UNL     1      42.768 131.595  22.586  1.00  0.00     0.042 C 
ATOM     29  C   UNL     1      44.927 131.062  19.646  1.00  0.00     0.004 A 
ATOM     30  C   UNL     1      42.964 132.567  20.315  1.00  0.00     0.036 C 
ATOM     31  C   UNL     1      42.113 132.573  21.595  1.00  0.00     0.010 C 
ENDBRANCH  20  23
ENDBRANCH   2  20
TORSDOF 3
ENDMDL
MODEL 3
REMARK VINA RESULT:      -3.7      3.086      7.287
REMARK SMILES Cc1cc(-c2c([NH2+]c3cccc4c3CCC4)ccc3[nH]ccc23)cc([O-])c1F
REMARK SMILES IDX 5 1 6 2 17 3 18 4 19 5 20 6 21 7 22 8 23 9 4 11 2 12 3 13
REMARK SMILES IDX 27 14 25 15 24 16 1 17 28 18 26 19 7 20 8 23 9 24 13 25
REMARK SMILES IDX 10 26 12 27 14 28 11 29 16 30 15 31
REMARK H PARENT 20 10 7 21 7 22
ROOT
ATOM      1  C   UNL     1      44.137 130.252  21.856  1.00  0.00     0.052 A 
ATOM      2  C   UNL     1      44.751 129.103  22.439  1.00  0.00     0.143 A 
ATOM      3  C   UNL     1      44.553 128.839  23.823  1.00  0.00     0.071 A 
ATOM      4  C   UNL     1      43.767 129.689  24.619  1.00  0.00     0.033 A 
ATOM      5  C   UNL     1      43.186 130.797  24.015  1.00  0.00     0.046 A 
ATOM      6  N   UNL     1      42.403 131.721  24.596  1.00  0.00    -0.361 N 
ATOM      7  C   UNL     1      42.076 132.596  23.619  1.00  0.00     0.083 A 
ATOM      8  C   UNL     1      42.655 132.224  22.411  1.00  0.00     0.029 A 
ATOM      9  C   UNL     1      43.362 131.069  22.685  1.00  0.00     0.013 A 
ATOM     10  H   UNL     1      42.106 131.759  25.596  1.00  0.00     0.166 HD
ENDROOT
BRANCH   1  11
ATOM     11  C   UNL     1      44.284 130.582  20.427  1.00  0.00    -0.012 A 
ATOM     12  C   UNL     1      43.395 131.588  18.397  1.00  0.00    -0.015 A 
ATOM     13  C   UNL     1      43.273 131.292  19.764  1.00  0.00     0.015 A 
ATOM     14  C   UNL     1      44.569 131.225  17.713  1.00  0.00     0.118 A 
ATOM     15  C   UNL     1      45.589 130.540  18.384  1.00  0.00    -0.071 A 
ATOM     16  C   UNL     1      45.446 130.215  19.736  1.00  0.00     0.003 A 
ATOM     17  C   UNL     1      42.299 132.327  17.686  1.00  0.00     0.047 C 
ATOM     18  F   UNL     1      44.719 131.528  16.399  1.00  0.00    -0.207 F 
ATOM     19  O   UNL     1      46.746 130.176  17.706  1.00  0.00    -0.870 OA
ENDBRANCH   1  11
BRANCH   2  20
ATOM     20  N   UNL     1      45.562 128.199  21.651  1.00  0.00    -0.281 N 
ATOM     21  H   UNL     1      45.345 128.361  20.643  1.00  0.00     0.358 HD
ATOM     22  H   UNL     1      46.580 128.409  21.776  1.00  0.00     0.358 HD
BRANCH  20  23
ATOM     23  C   UNL     1      45.342 126.821  22.032  1.00  0.00     0.138 A 
ATOM     24  C   UNL     1      44.031 126.316  22.197  1.00  0.00     0.068 A 
ATOM     25  C   UNL     1      46.418 125.949  22.306  1.00  0.00     0.017 A 
ATOM     26  C   UNL     1      43.819 124.975  22.556  1.00  0.00     0.006 A 
ATOM     27  C   UNL     1      46.200 124.637  22.653  1.00  0.00    -0.039 A 
ATOM     28  C   UNL     1      47.870 126.266  22.294  1.00  0.00     0.042 C 
ATOM     29  C   UNL     1      44.909 124.125  22.780  1.00  0.00     0.004 A 
ATOM     30  C   UNL     1      47.459 123.895  22.889  1.00  0.00     0.036 C 
ATOM     31  C   UNL     1      48.560 124.914  22.551  1.00  0.00     0.010 C 
ENDBRANCH  20  23
ENDBRANCH   2  20
TORSDOF 3
ENDMDL
MODEL 4
REMARK VINA RESULT:      -3.4      6.023      8.043
REMARK SMILES Cc1cc(-c2c([NH2+]c3cccc4c3CCC4)ccc3[nH]ccc23)cc([O-])c1F
REMARK SMILES IDX 5 1 6 2 17 3 18 4 19 5 20 6 21 7 22 8 23 9 4 11 2 12 3 13
REMARK SMILES IDX 27 14 25 15 24 16 1 17 28 18 26 19 7 20 8 23 9 24 13 25
REMARK SMILES IDX 10 26 12 27 14 28 11 29 16 30 15 31
REMARK H PARENT 20 10 7 21 7 22
ROOT
ATOM      1  C   UNL     1      44.794 132.018  21.636  1.00  0.00     0.052 A 
ATOM      2  C   UNL     1      45.805 132.902  22.118  1.00  0.00     0.143 A 
ATOM      3  C   UNL     1      45.973 133.062  23.521  1.00  0.00     0.071 A 
ATOM      4  C   UNL     1      45.163 132.367  24.434  1.00  0.00     0.033 A 
ATOM      5  C   UNL     1      44.190 131.515  23.926  1.00  0.00     0.046 A 
ATOM      6  N   UNL     1      43.324 130.763  24.625  1.00  0.00    -0.361 N 
ATOM      7  C   UNL     1      42.582 130.103  23.708  1.00  0.00     0.083 A 
ATOM      8  C   UNL     1      42.980 130.440  22.419  1.00  0.00     0.029 A 
ATOM      9  C   UNL     1      44.012 131.345  22.580  1.00  0.00     0.013 A 
ATOM     10  H   UNL     1      43.240 130.698  25.664  1.00  0.00     0.166 HD
ENDROOT
BRANCH   1  11
ATOM     11  C   UNL     1      44.570 131.789  20.197  1.00  0.00    -0.012 A 
ATOM     12  C   UNL     1      45.338 130.914  18.060  1.00  0.00    -0.015 A 
ATOM     13  C   UNL     1      45.534 131.113  19.435  1.00  0.00     0.015 A 
ATOM     14  C   UNL     1      44.138 131.339  17.464  1.00  0.00     0.118 A 
ATOM     15  C   UNL     1      43.164 131.989  18.232  1.00  0.00    -0.071 A 
ATOM     16  C   UNL     1      43.381 132.218  19.594  1.00  0.00     0.003 A 
ATOM     17  C   UNL     1      46.385 130.212  17.244  1.00  0.00     0.047 C 
ATOM     18  F   UNL     1      43.916 131.129  16.142  1.00  0.00    -0.207 F 
ATOM     19  O   UNL     1      41.981 132.414  17.641  1.00  0.00    -0.870 OA
ENDBRANCH   1  11
BRANCH   2  20
ATOM     20  N   UNL     1      46.665 133.632  21.210  1.00  0.00    -0.281 N 
ATOM     21  H   UNL     1      46.864 133.021  20.387  1.00  0.00     0.358 HD
ATOM     22  H   UNL     1      46.179 134.482  20.841  1.00  0.00     0.358 HD
BRANCH  20  23
ATOM     23  C   UNL     1      47.881 134.063  21.864  1.00  0.00     0.138 A 
ATOM     24  C   UNL     1      48.473 133.279  22.883  1.00  0.00     0.068 A 
ATOM     25  C   UNL     1      48.490 135.298  21.553  1.00  0.00     0.017 A 
ATOM     26  C   UNL     1      49.659 133.694  23.508  1.00  0.00     0.006 A 
ATOM     27  C   UNL     1      49.653 135.693  22.169  1.00  0.00    -0.039 A 
ATOM     28  C   UNL     1      48.013 136.331  20.596  1.00  0.00     0.042 C 
ATOM     29  C   UNL     1      50.261 134.905  23.147  1.00  0.00     0.004 A 
ATOM     30  C   UNL     1      50.128 137.012  21.694  1.00  0.00     0.036 C 
ATOM     31  C   UNL     1      49.129 137.391  20.589  1.00  0.00     0.010 C 
ENDBRANCH  20  23
ENDBRANCH   2  20
TORSDOF 3
ENDMDL
MODEL 5
REMARK VINA RESULT:      -3.1      3.505      7.166
REMARK SMILES Cc1cc(-c2c([NH2+]c3cccc4c3CCC4)ccc3[nH]ccc23)cc([O-])c1F
REMARK SMILES IDX 5 1 6 2 17 3 18 4 19 5 20 6 21 7 22 8 23 9 4 11 2 12 3 13
REMARK SMILES IDX 27 14 25 15 24 16 1 17 28 18 26 19 7 20 8 23 9 24 13 25
REMARK SMILES IDX 10 26 12 27 14 28 11 29 16 30 15 31
REMARK H PARENT 20 10 7 21 7 22
ROOT
ATOM      1  C   UNL     1      44.172 130.242  21.726  1.00  0.00     0.052 A 
ATOM      2  C   UNL     1      44.813 129.075  22.238  1.00  0.00     0.143 A 
ATOM      3  C   UNL     1      44.696 128.770  23.622  1.00  0.00     0.071 A 
ATOM      4  C   UNL     1      43.963 129.598  24.489  1.00  0.00     0.033 A 
ATOM      5  C   UNL     1      43.354 130.726  23.953  1.00  0.00     0.046 A 
ATOM      6  N   UNL     1      42.612 131.636  24.607  1.00  0.00    -0.361 N 
ATOM      7  C   UNL     1      42.232 132.540  23.678  1.00  0.00     0.083 A 
ATOM      8  C   UNL     1      42.737 132.203  22.427  1.00  0.00     0.029 A 
ATOM      9  C   UNL     1      43.452 131.037  22.624  1.00  0.00     0.013 A 
ATOM     10  H   UNL     1      42.374 131.644  25.624  1.00  0.00     0.166 HD
ENDROOT
BRANCH   1  11
ATOM     11  C   UNL     1      44.236 130.615  20.302  1.00  0.00    -0.012 A 
ATOM     12  C   UNL     1      45.401 130.577  18.165  1.00  0.00    -0.015 A 
ATOM     13  C   UNL     1      45.322 130.204  19.516  1.00  0.00     0.015 A 
ATOM     14  C   UNL     1      44.349 131.310  17.589  1.00  0.00     0.118 A 
ATOM     15  C   UNL     1      43.252 131.697  18.368  1.00  0.00    -0.071 A 
ATOM     16  C   UNL     1      43.197 131.354  19.722  1.00  0.00     0.003 A 
ATOM     17  C   UNL     1      46.578 130.155  17.336  1.00  0.00     0.047 C 
ATOM     18  F   UNL     1      44.392 131.655  16.276  1.00  0.00    -0.207 F 
ATOM     19  O   UNL     1      42.217 132.427  17.797  1.00  0.00    -0.870 OA
ENDBRANCH   1  11
BRANCH   2  20
ATOM     20  N   UNL     1      45.571 128.192  21.376  1.00  0.00    -0.281 N 
ATOM     21  H   UNL     1      45.024 128.043  20.499  1.00  0.00     0.358 HD
ATOM     22  H   UNL     1      46.476 128.636  21.094  1.00  0.00     0.358 HD
BRANCH  20  23
ATOM     23  C   UNL     1      45.876 126.941  22.037  1.00  0.00     0.138 A 
ATOM     24  C   UNL     1      47.213 126.584  22.332  1.00  0.00     0.068 A 
ATOM     25  C   UNL     1      44.865 126.010  22.360  1.00  0.00     0.017 A 
ATOM     26  C   UNL     1      47.505 125.375  22.983  1.00  0.00     0.006 A 
ATOM     27  C   UNL     1      45.162 124.831  22.999  1.00  0.00    -0.039 A 
ATOM     28  C   UNL     1      43.410 126.112  22.070  1.00  0.00     0.042 C 
ATOM     29  C   UNL     1      46.475 124.493  23.327  1.00  0.00     0.004 A 
ATOM     30  C   UNL     1      43.960 124.004  23.253  1.00  0.00     0.036 C 
ATOM     31  C   UNL     1      42.797 124.875  22.751  1.00  0.00     0.010 C 
ENDBRANCH  20  23
ENDBRANCH   2  20
TORSDOF 3
ENDMDL
MODEL 6
REMARK VINA RESULT:      -3.0      5.645      7.923
REMARK SMILES Cc1cc(-c2c([NH2+]c3cccc4c3CCC4)ccc3[nH]ccc23)cc([O-])c1F
REMARK SMILES IDX 5 1 6 2 17 3 18 4 19 5 20 6 21 7 22 8 23 9 4 11 2 12 3 13
REMARK SMILES IDX 27 14 25 15 24 16 1 17 28 18 26 19 7 20 8 23 9 24 13 25
REMARK SMILES IDX 10 26 12 27 14 28 11 29 16 30 15 31
REMARK H PARENT 20 10 7 21 7 22
ROOT
ATOM      1  C   UNL     1      44.837 131.915  21.676  1.00  0.00     0.052 A 
ATOM      2  C   UNL     1      45.766 132.870  22.184  1.00  0.00     0.143 A 
ATOM      3  C   UNL     1      45.865 133.062  23.590  1.00  0.00     0.071 A 
ATOM      4  C   UNL     1      45.064 132.330  24.481  1.00  0.00     0.033 A 
ATOM      5  C   UNL     1      44.170 131.409  23.948  1.00  0.00     0.046 A 
ATOM      6  N   UNL     1      43.325 130.613  24.624  1.00  0.00    -0.361 N 
ATOM      7  C   UNL     1      42.667 129.892  23.690  1.00  0.00     0.083 A 
ATOM      8  C   UNL     1      43.097 130.234  22.412  1.00  0.00     0.029 A 
ATOM      9  C   UNL     1      44.060 131.207  22.599  1.00  0.00     0.013 A 
ATOM     10  H   UNL     1      43.201 130.558  25.660  1.00  0.00     0.166 HD
ENDROOT
BRANCH   1  11
ATOM     11  C   UNL     1      44.689 131.650  20.234  1.00  0.00    -0.012 A 
ATOM     12  C   UNL     1      43.387 131.821  18.185  1.00  0.00    -0.015 A 
ATOM     13  C   UNL     1      43.546 132.092  19.553  1.00  0.00     0.015 A 
ATOM     14  C   UNL     1      44.414 131.160  17.488  1.00  0.00     0.118 A 
ATOM     15  C   UNL     1      45.567 130.744  18.164  1.00  0.00    -0.071 A 
ATOM     16  C   UNL     1      45.703 130.984  19.534  1.00  0.00     0.003 A 
ATOM     17  C   UNL     1      42.150 132.274  17.466  1.00  0.00     0.047 C 
ATOM     18  F   UNL     1      44.293 130.915  16.158  1.00  0.00    -0.207 F 
ATOM     19  O   UNL     1      46.578 130.085  17.475  1.00  0.00    -0.870 OA
ENDBRANCH   1  11
BRANCH   2  20
ATOM     20  N   UNL     1      46.616 133.641  21.299  1.00  0.00    -0.281 N 
ATOM     21  H   UNL     1      46.804 133.067  20.447  1.00  0.00     0.358 HD
ATOM     22  H   UNL     1      46.125 134.507  20.975  1.00  0.00     0.358 HD
BRANCH  20  23
ATOM     23  C   UNL     1      47.840 134.042  21.957  1.00  0.00     0.138 A 
ATOM     24  C   UNL     1      48.393 133.261  22.999  1.00  0.00     0.068 A 
ATOM     25  C   UNL     1      48.496 135.248  21.625  1.00  0.00     0.017 A 
ATOM     26  C   UNL     1      49.587 133.646  23.628  1.00  0.00     0.006 A 
ATOM     27  C   UNL     1      49.667 135.614  22.245  1.00  0.00    -0.039 A 
ATOM     28  C   UNL     1      48.067 136.275  20.640  1.00  0.00     0.042 C 
ATOM     29  C   UNL     1      50.235 134.827  23.247  1.00  0.00     0.004 A 
ATOM     30  C   UNL     1      50.194 136.904  21.747  1.00  0.00     0.036 C 
ATOM     31  C   UNL     1      49.220 137.294  20.622  1.00  0.00     0.010 C 
ENDBRANCH  20  23
ENDBRANCH   2  20
TORSDOF 3
ENDMDL
MODEL 7
REMARK VINA RESULT:      -3.0      1.661      4.847
REMARK SMILES Cc1cc(-c2c([NH2+]c3cccc4c3CCC4)ccc3[nH]ccc23)cc([O-])c1F
REMARK SMILES IDX 5 1 6 2 17 3 18 4 19 5 20 6 21 7 22 8 23 9 4 11 2 12 3 13
REMARK SMILES IDX 27 14 25 15 24 16 1 17 28 18 26 19 7 20 8 23 9 24 13 25
REMARK SMILES IDX 10 26 12 27 14 28 11 29 16 30 15 31
REMARK H PARENT 20 10 7 21 7 22
ROOT
ATOM      1  C   UNL     1      45.356 127.605  22.651  1.00  0.00     0.052 A 
ATOM      2  C   UNL     1      44.303 127.594  23.613  1.00  0.00     0.143 A 
ATOM      3  C   UNL     1      43.328 128.629  23.586  1.00  0.00     0.071 A 
ATOM      4  C   UNL     1      43.387 129.658  22.632  1.00  0.00     0.033 A 
ATOM      5  C   UNL     1      44.428 129.635  21.712  1.00  0.00     0.046 A 
ATOM      6  N   UNL     1      44.659 130.517  20.725  1.00  0.00    -0.361 N 
ATOM      7  C   UNL     1      45.772 130.084  20.093  1.00  0.00     0.083 A 
ATOM      8  C   UNL     1      46.251 128.920  20.684  1.00  0.00     0.029 A 
ATOM      9  C   UNL     1      45.376 128.648  21.718  1.00  0.00     0.013 A 
ATOM     10  H   UNL     1      44.095 131.365  20.491  1.00  0.00     0.166 HD
ENDROOT
BRANCH   1  11
ATOM     11  C   UNL     1      46.394 126.559  22.606  1.00  0.00    -0.012 A 
ATOM     12  C   UNL     1      48.521 125.669  23.384  1.00  0.00    -0.015 A 
ATOM     13  C   UNL     1      47.517 126.649  23.439  1.00  0.00     0.015 A 
ATOM     14  C   UNL     1      48.359 124.562  22.533  1.00  0.00     0.118 A 
ATOM     15  C   UNL     1      47.223 124.460  21.721  1.00  0.00    -0.071 A 
ATOM     16  C   UNL     1      46.244 125.458  21.754  1.00  0.00     0.003 A 
ATOM     17  C   UNL     1      49.734 125.784  24.261  1.00  0.00     0.047 C 
ATOM     18  F   UNL     1      49.304 123.589  22.486  1.00  0.00    -0.207 F 
ATOM     19  O   UNL     1      47.067 123.368  20.876  1.00  0.00    -0.870 OA
ENDBRANCH   1  11
BRANCH   2  20
ATOM     20  N   UNL     1      44.202 126.547  24.608  1.00  0.00    -0.281 N 
ATOM     21  H   UNL     1      45.168 126.234  24.851  1.00  0.00     0.358 HD
ATOM     22  H   UNL     1      43.776 126.914  25.491  1.00  0.00     0.358 HD
BRANCH  20  23
ATOM     23  C   UNL     1      43.384 125.448  24.141  1.00  0.00     0.138 A 
ATOM     24  C   UNL     1      43.977 124.273  23.624  1.00  0.00     0.068 A 
ATOM     25  C   UNL     1      41.975 125.529  24.132  1.00  0.00     0.017 A 
ATOM     26  C   UNL     1      43.181 123.204  23.182  1.00  0.00     0.006 A 
ATOM     27  C   UNL     1      41.205 124.475  23.699  1.00  0.00    -0.039 A 
ATOM     28  C   UNL     1      41.127 126.683  24.533  1.00  0.00     0.042 C 
ATOM     29  C   UNL     1      41.785 123.299  23.225  1.00  0.00     0.004 A 
ATOM     30  C   UNL     1      39.755 124.761  23.779  1.00  0.00     0.036 C 
ATOM     31  C   UNL     1      39.686 126.155  24.424  1.00  0.00     0.010 C 
ENDBRANCH  20  23
ENDBRANCH   2  20
TORSDOF 3
ENDMDL
MODEL 8
REMARK VINA RESULT:      -2.8      2.582      6.055
REMARK SMILES Cc1cc(-c2c([NH2+]c3cccc4c3CCC4)ccc3[nH]ccc23)cc([O-])c1F
REMARK SMILES IDX 5 1 6 2 17 3 18 4 19 5 20 6 21 7 22 8 23 9 4 11 2 12 3 13
REMARK SMILES IDX 27 14 25 15 24 16 1 17 28 18 26 19 7 20 8 23 9 24 13 25
REMARK SMILES IDX 10 26 12 27 14 28 11 29 16 30 15 31
REMARK H PARENT 20 10 7 21 7 22
ROOT
ATOM      1  C   UNL     1      44.730 125.618  23.032  1.00  0.00     0.052 A 
ATOM      2  C   UNL     1      45.705 124.931  23.815  1.00  0.00     0.143 A 
ATOM      3  C   UNL     1      45.633 123.515  23.925  1.00  0.00     0.071 A 
ATOM      4  C   UNL     1      44.621 122.786  23.278  1.00  0.00     0.033 A 
ATOM      5  C   UNL     1      43.690 123.491  22.525  1.00  0.00     0.046 A 
ATOM      6  N   UNL     1      42.656 122.985  21.832  1.00  0.00    -0.361 N 
ATOM      7  C   UNL     1      42.040 124.043  21.261  1.00  0.00     0.083 A 
ATOM      8  C   UNL     1      42.686 125.228  21.594  1.00  0.00     0.029 A 
ATOM      9  C   UNL     1      43.741 124.853  22.404  1.00  0.00     0.013 A 
ATOM     10  H   UNL     1      42.383 121.980  21.749  1.00  0.00     0.166 HD
ENDROOT
BRANCH   1  11
ATOM     11  C   UNL     1      44.748 127.081  22.858  1.00  0.00    -0.012 A 
ATOM     12  C   UNL     1      44.107 129.300  23.625  1.00  0.00    -0.015 A 
ATOM     13  C   UNL     1      44.115 127.907  23.798  1.00  0.00     0.015 A 
ATOM     14  C   UNL     1      44.795 129.865  22.538  1.00  0.00     0.118 A 
ATOM     15  C   UNL     1      45.450 129.041  21.615  1.00  0.00    -0.071 A 
ATOM     16  C   UNL     1      45.423 127.652  21.772  1.00  0.00     0.003 A 
ATOM     17  C   UNL     1      43.407 130.178  24.621  1.00  0.00     0.047 C 
ATOM     18  F   UNL     1      44.825 131.212  22.370  1.00  0.00    -0.207 F 
ATOM     19  O   UNL     1      46.125 129.601  20.538  1.00  0.00    -0.870 OA
ENDBRANCH   1  11
BRANCH   2  20
ATOM     20  N   UNL     1      46.768 125.644  24.491  1.00  0.00    -0.281 N 
ATOM     21  H   UNL     1      46.480 126.643  24.588  1.00  0.00     0.358 HD
ATOM     22  H   UNL     1      46.903 125.276  25.461  1.00  0.00     0.358 HD
BRANCH  20  23
ATOM     23  C   UNL     1      48.025 125.515  23.786  1.00  0.00     0.138 A 
ATOM     24  C   UNL     1      49.153 126.277  24.171  1.00  0.00     0.068 A 
ATOM     25  C   UNL     1      48.158 124.671  22.662  1.00  0.00     0.017 A 
ATOM     26  C   UNL     1      50.375 126.141  23.493  1.00  0.00     0.006 A 
ATOM     27  C   UNL     1      49.359 124.544  22.007  1.00  0.00    -0.039 A 
ATOM     28  C   UNL     1      47.103 123.848  22.014  1.00  0.00     0.042 C 
ATOM     29  C   UNL     1      50.485 125.264  22.407  1.00  0.00     0.004 A 
ATOM     30  C   UNL     1      49.286 123.606  20.864  1.00  0.00     0.036 C 
ATOM     31  C   UNL     1      47.850 123.060  20.922  1.00  0.00     0.010 C 
ENDBRANCH  20  23
ENDBRANCH   2  20
TORSDOF 3
ENDMDL
MODEL 9
REMARK VINA RESULT:      -2.2      5.050      8.043
REMARK SMILES Cc1cc(-c2c([NH2+]c3cccc4c3CCC4)ccc3[nH]ccc23)cc([O-])c1F
REMARK SMILES IDX 5 1 6 2 17 3 18 4 19 5 20 6 21 7 22 8 23 9 4 11 2 12 3 13
REMARK SMILES IDX 27 14 25 15 24 16 1 17 28 18 26 19 7 20 8 23 9 24 13 25
REMARK SMILES IDX 10 26 12 27 14 28 11 29 16 30 15 31
REMARK H PARENT 20 10 7 21 7 22
ROOT
ATOM      1  C   UNL     1      45.500 132.004  22.404  1.00  0.00     0.052 A 
ATOM      2  C   UNL     1      46.077 131.703  21.134  1.00  0.00     0.143 A 
ATOM      3  C   UNL     1      47.193 132.461  20.683  1.00  0.00     0.071 A 
ATOM      4  C   UNL     1      47.732 133.496  21.464  1.00  0.00     0.033 A 
ATOM      5  C   UNL     1      47.142 133.759  22.695  1.00  0.00     0.046 A 
ATOM      6  N   UNL     1      47.507 134.696  23.586  1.00  0.00    -0.361 N 
ATOM      7  C   UNL     1      46.651 134.572  24.625  1.00  0.00     0.083 A 
ATOM      8  C   UNL     1      45.738 133.551  24.390  1.00  0.00     0.029 A 
ATOM      9  C   UNL     1      46.069 133.042  23.149  1.00  0.00     0.013 A 
ATOM     10  H   UNL     1      48.291 135.381  23.498  1.00  0.00     0.166 HD
ENDROOT
BRANCH   1  11
ATOM     11  C   UNL     1      44.353 131.253  22.945  1.00  0.00    -0.012 A 
ATOM     12  C   UNL     1      43.358 129.146  23.645  1.00  0.00    -0.015 A 
ATOM     13  C   UNL     1      44.455 129.870  23.154  1.00  0.00     0.015 A 
ATOM     14  C   UNL     1      42.178 129.827  23.990  1.00  0.00     0.118 A 
ATOM     15  C   UNL     1      42.087 131.212  23.807  1.00  0.00    -0.071 A 
ATOM     16  C   UNL     1      43.170 131.923  23.282  1.00  0.00     0.003 A 
ATOM     17  C   UNL     1      43.464 127.661  23.843  1.00  0.00     0.047 C 
ATOM     18  F   UNL     1      41.116 129.148  24.495  1.00  0.00    -0.207 F 
ATOM     19  O   UNL     1      40.918 131.883  24.142  1.00  0.00    -0.870 OA
ENDBRANCH   1  11
BRANCH   2  20
ATOM     20  N   UNL     1      45.556 130.639  20.302  1.00  0.00    -0.281 N 
ATOM     21  H   UNL     1      46.359 130.182  19.816  1.00  0.00     0.358 HD
ATOM     22  H   UNL     1      45.099 129.901  20.886  1.00  0.00     0.358 HD
BRANCH  20  23
ATOM     23  C   UNL     1      44.573 131.135  19.362  1.00  0.00     0.138 A 
ATOM     24  C   UNL     1      43.326 131.628  19.811  1.00  0.00     0.068 A 
ATOM     25  C   UNL     1      44.798 131.095  17.969  1.00  0.00     0.017 A 
ATOM     26  C   UNL     1      42.379 132.120  18.898  1.00  0.00     0.006 A 
ATOM     27  C   UNL     1      43.865 131.581  17.084  1.00  0.00    -0.039 A 
ATOM     28  C   UNL     1      45.979 130.543  17.254  1.00  0.00     0.042 C 
ATOM     29  C   UNL     1      42.650 132.104  17.525  1.00  0.00     0.004 A 
ATOM     30  C   UNL     1      44.299 131.453  15.675  1.00  0.00     0.036 C 
ATOM     31  C   UNL     1      45.722 130.879  15.774  1.00  0.00     0.010 C 
ENDBRANCH  20  23
ENDBRANCH   2  20
TORSDOF 3
ENDMDL


