MODEL 1
REMARK VINA RESULT:      -4.0      0.000      0.000
REMARK SMILES C=C[C@H]1C[C@](Nc2ccc3cc[nH]c3c2)(c2ccc(C(C)=O)cc2)[C@H](F)C[C@H]1O
REMARK SMILES IDX 3 1 4 2 5 3 25 4 26 5 27 6 28 7 2 8 1 9 29 10 6 12 7 14 8 15
REMARK SMILES IDX 15 16 9 17 14 18 10 19 13 20 11 21 12 22 16 24 17 25 24 26
REMARK SMILES IDX 18 27 23 28 19 29 20 30 21 31 22 32
REMARK H PARENT 29 11 6 13 13 23
ROOT
ATOM      1  C   UNL     1      44.636 129.201  23.456  1.00  0.00     0.043 C 
ATOM      2  C   UNL     1      44.314 129.800  22.073  1.00  0.00     0.046 C 
ATOM      3  C   UNL     1      43.896 131.306  22.141  1.00  0.00     0.095 C 
ATOM      4  C   UNL     1      42.700 131.414  23.155  1.00  0.00     0.199 C 
ATOM      5  F   UNL     1      42.330 132.730  23.377  1.00  0.00    -0.244 F 
ATOM      6  C   UNL     1      42.931 130.715  24.514  1.00  0.00     0.073 C 
ATOM      7  C   UNL     1      43.386 129.261  24.358  1.00  0.00     0.124 C 
ENDROOT
BRANCH   1   8
ATOM      8  C   UNL     1      45.148 127.783  23.325  1.00  0.00    -0.029 C 
ATOM      9  C   UNL     1      45.321 127.211  22.129  1.00  0.00     0.004 C 
ENDBRANCH   1   8
BRANCH   7  10
ATOM     10  O   UNL     1      42.334 128.500  23.813  1.00  0.00    -0.392 OA
ATOM     11  H   UNL     1      42.646 127.561  23.753  1.00  0.00     0.210 HD
ENDBRANCH   7  10
BRANCH   3  12
ATOM     12  N   UNL     1      43.408 131.692  20.796  1.00  0.00    -0.373 N 
ATOM     13  H   UNL     1      42.590 132.343  20.736  1.00  0.00     0.161 HD
BRANCH  12  14
ATOM     14  C   UNL     1      44.072 131.421  19.545  1.00  0.00     0.037 A 
ATOM     15  C   UNL     1      45.284 130.679  19.479  1.00  0.00     0.026 A 
ATOM     16  C   UNL     1      43.466 131.863  18.348  1.00  0.00     0.052 A 
ATOM     17  C   UNL     1      45.897 130.412  18.242  1.00  0.00     0.012 A 
ATOM     18  C   UNL     1      44.101 131.581  17.140  1.00  0.00     0.047 A 
ATOM     19  C   UNL     1      45.275 130.883  17.091  1.00  0.00    -0.001 A 
ATOM     20  N   UNL     1      43.695 131.920  15.905  1.00  0.00    -0.361 N 
ATOM     21  C   UNL     1      45.635 130.771  15.765  1.00  0.00     0.028 A 
ATOM     22  C   UNL     1      44.631 131.428  15.061  1.00  0.00     0.083 A 
ATOM     23  H   UNL     1      42.837 132.454  15.646  1.00  0.00     0.166 HD
ENDBRANCH  12  14
ENDBRANCH   3  12
BRANCH   3  24
ATOM     24  C   UNL     1      45.146 132.151  22.466  1.00  0.00    -0.020 A 
ATOM     25  C   UNL     1      46.129 132.311  21.466  1.00  0.00     0.007 A 
ATOM     26  C   UNL     1      45.353 132.818  23.693  1.00  0.00     0.007 A 
ATOM     27  C   UNL     1      47.286 133.060  21.695  1.00  0.00     0.012 A 
ATOM     28  C   UNL     1      46.511 133.568  23.923  1.00  0.00     0.012 A 
ATOM     29  C   UNL     1      47.496 133.693  22.930  1.00  0.00     0.017 A 
BRANCH  29  30
ATOM     30  C   UNL     1      48.733 134.487  23.160  1.00  0.00     0.159 C 
ATOM     31  C   UNL     1      49.250 135.462  22.144  1.00  0.00     0.093 C 
ATOM     32  O   UNL     1      49.374 134.348  24.237  1.00  0.00    -0.295 OA
ENDBRANCH  29  30
ENDBRANCH   3  24
TORSDOF 6
ENDMDL
MODEL 2
REMARK VINA RESULT:      -3.9      1.017      1.467
REMARK SMILES C=C[C@H]1C[C@](Nc2ccc3cc[nH]c3c2)(c2ccc(C(C)=O)cc2)[C@H](F)C[C@H]1O
REMARK SMILES IDX 3 1 4 2 5 3 25 4 26 5 27 6 28 7 2 8 1 9 29 10 6 12 7 14 8 15
REMARK SMILES IDX 15 16 9 17 14 18 10 19 13 20 11 21 12 22 16 24 17 25 24 26
REMARK SMILES IDX 18 27 23 28 19 29 20 30 21 31 22 32
REMARK H PARENT 29 11 6 13 13 23
ROOT
ATOM      1  C   UNL     1      44.958 129.129  22.793  1.00  0.00     0.043 C 
ATOM      2  C   UNL     1      44.495 129.921  21.555  1.00  0.00     0.046 C 
ATOM      3  C   UNL     1      44.080 131.392  21.889  1.00  0.00     0.095 C 
ATOM      4  C   UNL     1      42.993 131.325  23.023  1.00  0.00     0.199 C 
ATOM      5  F   UNL     1      42.643 132.586  23.475  1.00  0.00    -0.244 F 
ATOM      6  C   UNL     1      43.364 130.436  24.232  1.00  0.00     0.073 C 
ATOM      7  C   UNL     1      43.807 129.031  23.814  1.00  0.00     0.124 C 
ENDROOT
BRANCH   1   8
ATOM      8  C   UNL     1      45.460 127.756  22.401  1.00  0.00    -0.029 C 
ATOM      9  C   UNL     1      45.558 126.768  23.296  1.00  0.00     0.004 C 
ENDBRANCH   1   8
BRANCH   7  10
ATOM     10  O   UNL     1      42.707 128.339  23.271  1.00  0.00    -0.392 OA
ATOM     11  H   UNL     1      42.556 128.692  22.356  1.00  0.00     0.210 HD
ENDBRANCH   7  10
BRANCH   3  12
ATOM     12  N   UNL     1      43.456 131.963  20.672  1.00  0.00    -0.373 N 
ATOM     13  H   UNL     1      42.808 132.778  20.787  1.00  0.00     0.161 HD
BRANCH  12  14
ATOM     14  C   UNL     1      43.805 131.641  19.311  1.00  0.00     0.037 A 
ATOM     15  C   UNL     1      42.946 131.948  18.219  1.00  0.00     0.026 A 
ATOM     16  C   UNL     1      45.063 131.052  19.056  1.00  0.00     0.052 A 
ATOM     17  C   UNL     1      43.323 131.641  16.899  1.00  0.00     0.012 A 
ATOM     18  C   UNL     1      45.405 130.761  17.737  1.00  0.00     0.047 A 
ATOM     19  C   UNL     1      44.563 131.044  16.698  1.00  0.00    -0.001 A 
ATOM     20  N   UNL     1      46.539 130.196  17.293  1.00  0.00    -0.361 N 
ATOM     21  C   UNL     1      45.189 130.642  15.538  1.00  0.00     0.028 A 
ATOM     22  C   UNL     1      46.411 130.120  15.948  1.00  0.00     0.083 A 
ATOM     23  H   UNL     1      47.354 129.880  17.863  1.00  0.00     0.166 HD
ENDBRANCH  12  14
ENDBRANCH   3  12
BRANCH   3  24
ATOM     24  C   UNL     1      45.354 132.203  22.209  1.00  0.00    -0.020 A 
ATOM     25  C   UNL     1      46.413 132.190  21.277  1.00  0.00     0.007 A 
ATOM     26  C   UNL     1      45.513 133.001  23.363  1.00  0.00     0.007 A 
ATOM     27  C   UNL     1      47.594 132.899  21.507  1.00  0.00     0.012 A 
ATOM     28  C   UNL     1      46.695 133.711  23.594  1.00  0.00     0.012 A 
ATOM     29  C   UNL     1      47.755 133.664  22.673  1.00  0.00     0.017 A 
BRANCH  29  30
ATOM     30  C   UNL     1      49.018 134.414  22.905  1.00  0.00     0.159 C 
ATOM     31  C   UNL     1      49.978 134.033  23.992  1.00  0.00     0.093 C 
ATOM     32  O   UNL     1      49.303 135.401  22.172  1.00  0.00    -0.295 OA
ENDBRANCH  29  30
ENDBRANCH   3  24
TORSDOF 6
ENDMDL
MODEL 3
REMARK VINA RESULT:      -3.3      1.099      1.551
REMARK SMILES C=C[C@H]1C[C@](Nc2ccc3cc[nH]c3c2)(c2ccc(C(C)=O)cc2)[C@H](F)C[C@H]1O
REMARK SMILES IDX 3 1 4 2 5 3 25 4 26 5 27 6 28 7 2 8 1 9 29 10 6 12 7 14 8 15
REMARK SMILES IDX 15 16 9 17 14 18 10 19 13 20 11 21 12 22 16 24 17 25 24 26
REMARK SMILES IDX 18 27 23 28 19 29 20 30 21 31 22 32
REMARK H PARENT 29 11 6 13 13 23
ROOT
ATOM      1  C   UNL     1      44.739 129.293  22.813  1.00  0.00     0.043 C 
ATOM      2  C   UNL     1      44.575 129.769  21.357  1.00  0.00     0.046 C 
ATOM      3  C   UNL     1      44.229 131.291  21.246  1.00  0.00     0.095 C 
ATOM      4  C   UNL     1      42.952 131.545  22.127  1.00  0.00     0.199 C 
ATOM      5  F   UNL     1      42.630 132.890  22.190  1.00  0.00    -0.244 F 
ATOM      6  C   UNL     1      43.022 130.971  23.560  1.00  0.00     0.073 C 
ATOM      7  C   UNL     1      43.417 129.491  23.582  1.00  0.00     0.124 C 
ENDROOT
BRANCH   1   8
ATOM      8  C   UNL     1      45.189 127.849  22.863  1.00  0.00    -0.029 C 
ATOM      9  C   UNL     1      45.308 127.195  24.023  1.00  0.00     0.004 C 
ENDBRANCH   1   8
BRANCH   7  10
ATOM     10  O   UNL     1      42.381 128.726  23.012  1.00  0.00    -0.392 OA
ATOM     11  H   UNL     1      41.888 129.314  22.383  1.00  0.00     0.210 HD
ENDBRANCH   7  10
BRANCH   3  12
ATOM     12  N   UNL     1      43.886 131.565  19.830  1.00  0.00    -0.373 N 
ATOM     13  H   UNL     1      43.074 132.197  19.633  1.00  0.00     0.161 HD
BRANCH  12  14
ATOM     14  C   UNL     1      44.683 131.210  18.682  1.00  0.00     0.037 A 
ATOM     15  C   UNL     1      45.350 129.958  18.585  1.00  0.00     0.026 A 
ATOM     16  C   UNL     1      44.753 132.117  17.601  1.00  0.00     0.052 A 
ATOM     17  C   UNL     1      46.103 129.631  17.442  1.00  0.00     0.012 A 
ATOM     18  C   UNL     1      45.508 131.762  16.485  1.00  0.00     0.047 A 
ATOM     19  C   UNL     1      46.160 130.562  16.411  1.00  0.00    -0.001 A 
ATOM     20  N   UNL     1      45.707 132.483  15.370  1.00  0.00    -0.361 N 
ATOM     21  C   UNL     1      46.804 130.516  15.194  1.00  0.00     0.028 A 
ATOM     22  C   UNL     1      46.499 131.726  14.577  1.00  0.00     0.083 A 
ATOM     23  H   UNL     1      45.330 133.432  15.155  1.00  0.00     0.166 HD
ENDBRANCH  12  14
ENDBRANCH   3  12
BRANCH   3  24
ATOM     24  C   UNL     1      45.485 132.111  21.609  1.00  0.00    -0.020 A 
ATOM     25  C   UNL     1      45.460 132.897  22.781  1.00  0.00     0.007 A 
ATOM     26  C   UNL     1      46.685 132.090  20.865  1.00  0.00     0.007 A 
ATOM     27  C   UNL     1      46.561 133.665  23.165  1.00  0.00     0.012 A 
ATOM     28  C   UNL     1      47.787 132.860  21.250  1.00  0.00     0.012 A 
ATOM     29  C   UNL     1      47.739 133.663  22.401  1.00  0.00     0.017 A 
BRANCH  29  30
ATOM     30  C   UNL     1      48.903 134.486  22.822  1.00  0.00     0.159 C 
ATOM     31  C   UNL     1      49.676 134.186  24.073  1.00  0.00     0.093 C 
ATOM     32  O   UNL     1      49.264 135.468  22.117  1.00  0.00    -0.295 OA
ENDBRANCH  29  30
ENDBRANCH   3  24
TORSDOF 6
ENDMDL
MODEL 4
REMARK VINA RESULT:      -2.9      1.914      2.568
REMARK SMILES C=C[C@H]1C[C@](Nc2ccc3cc[nH]c3c2)(c2ccc(C(C)=O)cc2)[C@H](F)C[C@H]1O
REMARK SMILES IDX 3 1 4 2 5 3 25 4 26 5 27 6 28 7 2 8 1 9 29 10 6 12 7 14 8 15
REMARK SMILES IDX 15 16 9 17 14 18 10 19 13 20 11 21 12 22 16 24 17 25 24 26
REMARK SMILES IDX 18 27 23 28 19 29 20 30 21 31 22 32
REMARK H PARENT 29 11 6 13 13 23
ROOT
ATOM      1  C   UNL     1      44.089 130.899  23.206  1.00  0.00     0.043 C 
ATOM      2  C   UNL     1      44.804 130.178  22.047  1.00  0.00     0.046 C 
ATOM      3  C   UNL     1      44.924 131.058  20.760  1.00  0.00     0.095 C 
ATOM      4  C   UNL     1      43.474 131.540  20.387  1.00  0.00     0.199 C 
ATOM      5  F   UNL     1      43.484 132.426  19.323  1.00  0.00    -0.244 F 
ATOM      6  C   UNL     1      42.671 132.156  21.554  1.00  0.00     0.073 C 
ATOM      7  C   UNL     1      42.646 131.255  22.792  1.00  0.00     0.124 C 
ENDROOT
BRANCH   1   8
ATOM      8  C   UNL     1      44.105 130.054  24.462  1.00  0.00    -0.029 C 
ATOM      9  C   UNL     1      44.988 129.064  24.625  1.00  0.00     0.004 C 
ENDBRANCH   1   8
BRANCH   7  10
ATOM     10  O   UNL     1      41.902 130.094  22.507  1.00  0.00    -0.392 OA
ATOM     11  H   UNL     1      42.011 129.901  21.540  1.00  0.00     0.210 HD
ENDBRANCH   7  10
BRANCH   3  12
ATOM     12  N   UNL     1      45.423 130.184  19.671  1.00  0.00    -0.373 N 
ATOM     13  H   UNL     1      45.507 129.158  19.861  1.00  0.00     0.161 HD
BRANCH  12  14
ATOM     14  C   UNL     1      45.620 130.574  18.297  1.00  0.00     0.037 A 
ATOM     15  C   UNL     1      45.107 131.795  17.778  1.00  0.00     0.026 A 
ATOM     16  C   UNL     1      46.394 129.739  17.461  1.00  0.00     0.052 A 
ATOM     17  C   UNL     1      45.333 132.158  16.438  1.00  0.00     0.012 A 
ATOM     18  C   UNL     1      46.598 130.129  16.139  1.00  0.00     0.047 A 
ATOM     19  C   UNL     1      46.084 131.296  15.646  1.00  0.00    -0.001 A 
ATOM     20  N   UNL     1      47.289 129.474  15.192  1.00  0.00    -0.361 N 
ATOM     21  C   UNL     1      46.464 131.390  14.326  1.00  0.00     0.028 A 
ATOM     22  C   UNL     1      47.209 130.241  14.080  1.00  0.00     0.083 A 
ATOM     23  H   UNL     1      47.787 128.562  15.288  1.00  0.00     0.166 HD
ENDBRANCH  12  14
ENDBRANCH   3  12
BRANCH   3  24
ATOM     24  C   UNL     1      45.969 132.165  21.013  1.00  0.00    -0.020 A 
ATOM     25  C   UNL     1      45.634 133.495  20.682  1.00  0.00     0.007 A 
ATOM     26  C   UNL     1      47.232 131.939  21.601  1.00  0.00     0.007 A 
ATOM     27  C   UNL     1      46.535 134.543  20.883  1.00  0.00     0.012 A 
ATOM     28  C   UNL     1      48.135 132.988  21.802  1.00  0.00     0.012 A 
ATOM     29  C   UNL     1      47.801 134.304  21.440  1.00  0.00     0.017 A 
BRANCH  29  30
ATOM     30  C   UNL     1      48.750 135.430  21.647  1.00  0.00     0.159 C 
ATOM     31  C   UNL     1      48.641 136.711  20.876  1.00  0.00     0.093 C 
ATOM     32  O   UNL     1      49.678 135.318  22.495  1.00  0.00    -0.295 OA
ENDBRANCH  29  30
ENDBRANCH   3  24
TORSDOF 6
ENDMDL
MODEL 5
REMARK VINA RESULT:      -2.8      2.447      6.542
REMARK SMILES C=C[C@H]1C[C@](Nc2ccc3cc[nH]c3c2)(c2ccc(C(C)=O)cc2)[C@H](F)C[C@H]1O
REMARK SMILES IDX 3 1 4 2 5 3 25 4 26 5 27 6 28 7 2 8 1 9 29 10 6 12 7 14 8 15
REMARK SMILES IDX 15 16 9 17 14 18 10 19 13 20 11 21 12 22 16 24 17 25 24 26
REMARK SMILES IDX 18 27 23 28 19 29 20 30 21 31 22 32
REMARK H PARENT 29 11 6 13 13 23
ROOT
ATOM      1  C   UNL     1      45.328 130.618  18.919  1.00  0.00     0.043 C 
ATOM      2  C   UNL     1      45.993 131.274  20.144  1.00  0.00     0.046 C 
ATOM      3  C   UNL     1      45.007 131.473  21.342  1.00  0.00     0.095 C 
ATOM      4  C   UNL     1      43.772 132.282  20.802  1.00  0.00     0.199 C 
ATOM      5  F   UNL     1      42.782 132.412  21.761  1.00  0.00    -0.244 F 
ATOM      6  C   UNL     1      43.150 131.732  19.499  1.00  0.00     0.073 C 
ATOM      7  C   UNL     1      44.190 131.517  18.395  1.00  0.00     0.124 C 
ENDROOT
BRANCH   1   8
ATOM      8  C   UNL     1      46.346 130.338  17.835  1.00  0.00    -0.029 C 
ATOM      9  C   UNL     1      46.004 129.719  16.700  1.00  0.00     0.004 C 
ENDBRANCH   1   8
BRANCH   7  10
ATOM     10  O   UNL     1      44.686 132.767  17.975  1.00  0.00    -0.392 OA
ATOM     11  H   UNL     1      44.137 133.467  18.413  1.00  0.00     0.210 HD
ENDBRANCH   7  10
BRANCH   3  12
ATOM     12  N   UNL     1      45.704 132.299  22.356  1.00  0.00    -0.373 N 
ATOM     13  H   UNL     1      45.591 132.041  23.365  1.00  0.00     0.161 HD
BRANCH  12  14
ATOM     14  C   UNL     1      46.693 133.313  22.087  1.00  0.00     0.037 A 
ATOM     15  C   UNL     1      46.480 134.339  21.126  1.00  0.00     0.026 A 
ATOM     16  C   UNL     1      47.885 133.313  22.846  1.00  0.00     0.052 A 
ATOM     17  C   UNL     1      47.456 135.328  20.901  1.00  0.00     0.012 A 
ATOM     18  C   UNL     1      48.830 134.306  22.597  1.00  0.00     0.047 A 
ATOM     19  C   UNL     1      48.622 135.276  21.656  1.00  0.00    -0.001 A 
ATOM     20  N   UNL     1      50.020 134.471  23.197  1.00  0.00    -0.361 N 
ATOM     21  C   UNL     1      49.728 136.097  21.657  1.00  0.00     0.028 A 
ATOM     22  C   UNL     1      50.574 135.564  22.626  1.00  0.00     0.083 A 
ATOM     23  H   UNL     1      50.436 133.879  23.950  1.00  0.00     0.166 HD
ENDBRANCH  12  14
ENDBRANCH   3  12
BRANCH   3  24
ATOM     24  C   UNL     1      44.702 130.094  21.965  1.00  0.00    -0.020 A 
ATOM     25  C   UNL     1      45.483 128.988  21.568  1.00  0.00     0.007 A 
ATOM     26  C   UNL     1      43.712 129.872  22.947  1.00  0.00     0.007 A 
ATOM     27  C   UNL     1      45.257 127.713  22.090  1.00  0.00     0.012 A 
ATOM     28  C   UNL     1      43.485 128.595  23.470  1.00  0.00     0.012 A 
ATOM     29  C   UNL     1      44.249 127.497  23.043  1.00  0.00     0.017 A 
BRANCH  29  30
ATOM     30  C   UNL     1      44.019 126.133  23.590  1.00  0.00     0.159 C 
ATOM     31  C   UNL     1      45.110 125.355  24.265  1.00  0.00     0.093 C 
ATOM     32  O   UNL     1      42.879 125.603  23.492  1.00  0.00    -0.295 OA
ENDBRANCH  29  30
ENDBRANCH   3  24
TORSDOF 6
ENDMDL
MODEL 6
REMARK VINA RESULT:      -2.5      0.943      1.684
REMARK SMILES C=C[C@H]1C[C@](Nc2ccc3cc[nH]c3c2)(c2ccc(C(C)=O)cc2)[C@H](F)C[C@H]1O
REMARK SMILES IDX 3 1 4 2 5 3 25 4 26 5 27 6 28 7 2 8 1 9 29 10 6 12 7 14 8 15
REMARK SMILES IDX 15 16 9 17 14 18 10 19 13 20 11 21 12 22 16 24 17 25 24 26
REMARK SMILES IDX 18 27 23 28 19 29 20 30 21 31 22 32
REMARK H PARENT 29 11 6 13 13 23
ROOT
ATOM      1  C   UNL     1      44.766 129.223  22.752  1.00  0.00     0.043 C 
ATOM      2  C   UNL     1      44.258 130.080  21.577  1.00  0.00     0.046 C 
ATOM      3  C   UNL     1      43.926 131.551  21.990  1.00  0.00     0.095 C 
ATOM      4  C   UNL     1      42.910 131.482  23.188  1.00  0.00     0.199 C 
ATOM      5  F   UNL     1      42.640 132.737  23.707  1.00  0.00    -0.244 F 
ATOM      6  C   UNL     1      43.319 130.533  24.337  1.00  0.00     0.073 C 
ATOM      7  C   UNL     1      43.678 129.129  23.841  1.00  0.00     0.124 C 
ENDROOT
BRANCH   1   8
ATOM      8  C   UNL     1      45.185 127.848  22.279  1.00  0.00    -0.029 C 
ATOM      9  C   UNL     1      46.192 127.685  21.415  1.00  0.00     0.004 C 
ENDBRANCH   1   8
BRANCH   7  10
ATOM     10  O   UNL     1      42.519 128.502  23.344  1.00  0.00    -0.392 OA
ATOM     11  H   UNL     1      42.322 128.900  22.457  1.00  0.00     0.210 HD
ENDBRANCH   7  10
BRANCH   3  12
ATOM     12  N   UNL     1      43.250 132.193  20.837  1.00  0.00    -0.373 N 
ATOM     13  H   UNL     1      42.637 133.021  21.024  1.00  0.00     0.161 HD
BRANCH  12  14
ATOM     14  C   UNL     1      43.509 131.920  19.445  1.00  0.00     0.037 A 
ATOM     15  C   UNL     1      42.496 132.031  18.453  1.00  0.00     0.026 A 
ATOM     16  C   UNL     1      44.825 131.588  19.054  1.00  0.00     0.052 A 
ATOM     17  C   UNL     1      42.783 131.779  17.100  1.00  0.00     0.012 A 
ATOM     18  C   UNL     1      45.075 131.344  17.705  1.00  0.00     0.047 A 
ATOM     19  C   UNL     1      44.088 131.435  16.764  1.00  0.00    -0.001 A 
ATOM     20  N   UNL     1      46.245 131.007  17.139  1.00  0.00    -0.361 N 
ATOM     21  C   UNL     1      44.654 131.144  15.542  1.00  0.00     0.028 A 
ATOM     22  C   UNL     1      45.992 130.882  15.816  1.00  0.00     0.083 A 
ATOM     23  H   UNL     1      47.163 130.869  17.617  1.00  0.00     0.166 HD
ENDBRANCH  12  14
ENDBRANCH   3  12
BRANCH   3  24
ATOM     24  C   UNL     1      45.249 132.300  22.257  1.00  0.00    -0.020 A 
ATOM     25  C   UNL     1      45.529 132.723  23.574  1.00  0.00     0.007 A 
ATOM     26  C   UNL     1      46.227 132.552  21.271  1.00  0.00     0.007 A 
ATOM     27  C   UNL     1      46.706 133.408  23.883  1.00  0.00     0.012 A 
ATOM     28  C   UNL     1      47.406 133.238  21.580  1.00  0.00     0.012 A 
ATOM     29  C   UNL     1      47.658 133.682  22.889  1.00  0.00     0.017 A 
BRANCH  29  30
ATOM     30  C   UNL     1      48.907 134.412  23.233  1.00  0.00     0.159 C 
ATOM     31  C   UNL     1      49.502 134.362  24.609  1.00  0.00     0.093 C 
ATOM     32  O   UNL     1      49.494 135.098  22.351  1.00  0.00    -0.295 OA
ENDBRANCH  29  30
ENDBRANCH   3  24
TORSDOF 6
ENDMDL
MODEL 7
REMARK VINA RESULT:      -2.2      1.225      1.623
REMARK SMILES C=C[C@H]1C[C@](Nc2ccc3cc[nH]c3c2)(c2ccc(C(C)=O)cc2)[C@H](F)C[C@H]1O
REMARK SMILES IDX 3 1 4 2 5 3 25 4 26 5 27 6 28 7 2 8 1 9 29 10 6 12 7 14 8 15
REMARK SMILES IDX 15 16 9 17 14 18 10 19 13 20 11 21 12 22 16 24 17 25 24 26
REMARK SMILES IDX 18 27 23 28 19 29 20 30 21 31 22 32
REMARK H PARENT 29 11 6 13 13 23
ROOT
ATOM      1  C   UNL     1      44.406 129.795  22.587  1.00  0.00     0.043 C 
ATOM      2  C   UNL     1      44.292 130.056  21.073  1.00  0.00     0.046 C 
ATOM      3  C   UNL     1      43.921 131.536  20.733  1.00  0.00     0.095 C 
ATOM      4  C   UNL     1      42.603 131.880  21.519  1.00  0.00     0.199 C 
ATOM      5  F   UNL     1      42.252 133.212  21.378  1.00  0.00    -0.244 F 
ATOM      6  C   UNL     1      42.626 131.517  23.021  1.00  0.00     0.073 C 
ATOM      7  C   UNL     1      43.049 130.066  23.269  1.00  0.00     0.124 C 
ENDROOT
BRANCH   1   8
ATOM      8  C   UNL     1      44.882 128.384  22.859  1.00  0.00    -0.029 C 
ATOM      9  C   UNL     1      45.557 127.686  21.940  1.00  0.00     0.004 C 
ENDBRANCH   1   8
BRANCH   7  10
ATOM     10  O   UNL     1      42.054 129.201  22.775  1.00  0.00    -0.392 OA
ATOM     11  H   UNL     1      41.443 128.989  23.528  1.00  0.00     0.210 HD
ENDBRANCH   7  10
BRANCH   3  12
ATOM     12  N   UNL     1      43.631 131.599  19.280  1.00  0.00    -0.373 N 
ATOM     13  H   UNL     1      42.765 132.101  18.971  1.00  0.00     0.161 HD
BRANCH  12  14
ATOM     14  C   UNL     1      44.527 131.209  18.221  1.00  0.00     0.037 A 
ATOM     15  C   UNL     1      45.603 130.303  18.438  1.00  0.00     0.026 A 
ATOM     16  C   UNL     1      44.291 131.701  16.918  1.00  0.00     0.052 A 
ATOM     17  C   UNL     1      46.448 129.924  17.379  1.00  0.00     0.012 A 
ATOM     18  C   UNL     1      45.148 131.306  15.893  1.00  0.00     0.047 A 
ATOM     19  C   UNL     1      46.190 130.450  16.118  1.00  0.00    -0.001 A 
ATOM     20  N   UNL     1      45.098 131.669  14.602  1.00  0.00    -0.361 N 
ATOM     21  C   UNL     1      46.834 130.257  14.916  1.00  0.00     0.028 A 
ATOM     22  C   UNL     1      46.128 131.031  13.999  1.00  0.00     0.083 A 
ATOM     23  H   UNL     1      44.409 132.310  14.150  1.00  0.00     0.166 HD
ENDBRANCH  12  14
ENDBRANCH   3  12
BRANCH   3  24
ATOM     24  C   UNL     1      45.144 132.432  21.023  1.00  0.00    -0.020 A 
ATOM     25  C   UNL     1      45.993 132.085  22.096  1.00  0.00     0.007 A 
ATOM     26  C   UNL     1      45.499 133.560  20.251  1.00  0.00     0.007 A 
ATOM     27  C   UNL     1      47.114 132.854  22.414  1.00  0.00     0.012 A 
ATOM     28  C   UNL     1      46.622 134.330  20.570  1.00  0.00     0.012 A 
ATOM     29  C   UNL     1      47.441 133.992  21.660  1.00  0.00     0.017 A 
BRANCH  29  30
ATOM     30  C   UNL     1      48.638 134.801  22.011  1.00  0.00     0.159 C 
ATOM     31  C   UNL     1      49.025 136.024  21.232  1.00  0.00     0.093 C 
ATOM     32  O   UNL     1      49.357 134.462  22.990  1.00  0.00    -0.295 OA
ENDBRANCH  29  30
ENDBRANCH   3  24
TORSDOF 6
ENDMDL
MODEL 8
REMARK VINA RESULT:      -1.9      1.693      2.225
REMARK SMILES C=C[C@H]1C[C@](Nc2ccc3cc[nH]c3c2)(c2ccc(C(C)=O)cc2)[C@H](F)C[C@H]1O
REMARK SMILES IDX 3 1 4 2 5 3 25 4 26 5 27 6 28 7 2 8 1 9 29 10 6 12 7 14 8 15
REMARK SMILES IDX 15 16 9 17 14 18 10 19 13 20 11 21 12 22 16 24 17 25 24 26
REMARK SMILES IDX 18 27 23 28 19 29 20 30 21 31 22 32
REMARK H PARENT 29 11 6 13 13 23
ROOT
ATOM      1  C   UNL     1      44.254 130.945  23.164  1.00  0.00     0.043 C 
ATOM      2  C   UNL     1      45.069 130.245  22.059  1.00  0.00     0.046 C 
ATOM      3  C   UNL     1      45.221 131.113  20.767  1.00  0.00     0.095 C 
ATOM      4  C   UNL     1      43.774 131.518  20.304  1.00  0.00     0.199 C 
ATOM      5  F   UNL     1      43.803 132.390  19.229  1.00  0.00    -0.244 F 
ATOM      6  C   UNL     1      42.875 132.109  21.414  1.00  0.00     0.073 C 
ATOM      7  C   UNL     1      42.823 131.224  22.662  1.00  0.00     0.124 C 
ENDROOT
BRANCH   1   8
ATOM      8  C   UNL     1      44.238 130.118  24.431  1.00  0.00    -0.029 C 
ATOM      9  C   UNL     1      44.396 128.791  24.400  1.00  0.00     0.004 C 
ENDBRANCH   1   8
BRANCH   7  10
ATOM     10  O   UNL     1      42.153 130.024  22.353  1.00  0.00    -0.392 OA
ATOM     11  H   UNL     1      41.898 129.596  23.211  1.00  0.00     0.210 HD
ENDBRANCH   7  10
BRANCH   3  12
ATOM     12  N   UNL     1      45.824 130.251  19.723  1.00  0.00    -0.373 N 
ATOM     13  H   UNL     1      46.287 129.362  20.024  1.00  0.00     0.161 HD
BRANCH  12  14
ATOM     14  C   UNL     1      45.666 130.411  18.299  1.00  0.00     0.037 A 
ATOM     15  C   UNL     1      46.530 129.772  17.367  1.00  0.00     0.026 A 
ATOM     16  C   UNL     1      44.583 131.182  17.820  1.00  0.00     0.052 A 
ATOM     17  C   UNL     1      46.337 129.929  15.982  1.00  0.00     0.012 A 
ATOM     18  C   UNL     1      44.421 131.317  16.443  1.00  0.00     0.047 A 
ATOM     19  C   UNL     1      45.270 130.713  15.557  1.00  0.00    -0.001 A 
ATOM     20  N   UNL     1      43.470 132.009  15.796  1.00  0.00    -0.361 N 
ATOM     21  C   UNL     1      44.841 131.035  14.288  1.00  0.00     0.028 A 
ATOM     22  C   UNL     1      43.723 131.841  14.478  1.00  0.00     0.083 A 
ATOM     23  H   UNL     1      42.694 132.565  16.218  1.00  0.00     0.166 HD
ENDBRANCH  12  14
ENDBRANCH   3  12
BRANCH   3  24
ATOM     24  C   UNL     1      46.195 132.273  21.062  1.00  0.00    -0.020 A 
ATOM     25  C   UNL     1      47.566 131.980  21.214  1.00  0.00     0.007 A 
ATOM     26  C   UNL     1      45.806 133.628  21.148  1.00  0.00     0.007 A 
ATOM     27  C   UNL     1      48.500 132.982  21.485  1.00  0.00     0.012 A 
ATOM     28  C   UNL     1      46.741 134.632  21.420  1.00  0.00     0.012 A 
ATOM     29  C   UNL     1      48.099 134.323  21.600  1.00  0.00     0.017 A 
BRANCH  29  30
ATOM     30  C   UNL     1      49.104 135.380  21.890  1.00  0.00     0.159 C 
ATOM     31  C   UNL     1      49.250 136.595  21.023  1.00  0.00     0.093 C 
ATOM     32  O   UNL     1      49.862 135.264  22.892  1.00  0.00    -0.295 OA
ENDBRANCH  29  30
ENDBRANCH   3  24
TORSDOF 6
ENDMDL
MODEL 9
REMARK VINA RESULT:      -1.8      1.998      2.880
REMARK SMILES C=C[C@H]1C[C@](Nc2ccc3cc[nH]c3c2)(c2ccc(C(C)=O)cc2)[C@H](F)C[C@H]1O
REMARK SMILES IDX 3 1 4 2 5 3 25 4 26 5 27 6 28 7 2 8 1 9 29 10 6 12 7 14 8 15
REMARK SMILES IDX 15 16 9 17 14 18 10 19 13 20 11 21 12 22 16 24 17 25 24 26
REMARK SMILES IDX 18 27 23 28 19 29 20 30 21 31 22 32
REMARK H PARENT 29 11 6 13 13 23
ROOT
ATOM      1  C   UNL     1      43.883 130.822  22.461  1.00  0.00     0.043 C 
ATOM      2  C   UNL     1      44.794 130.178  21.399  1.00  0.00     0.046 C 
ATOM      3  C   UNL     1      45.170 131.158  20.239  1.00  0.00     0.095 C 
ATOM      4  C   UNL     1      43.825 131.715  19.643  1.00  0.00     0.199 C 
ATOM      5  F   UNL     1      44.051 132.685  18.682  1.00  0.00    -0.244 F 
ATOM      6  C   UNL     1      42.823 132.257  20.688  1.00  0.00     0.073 C 
ATOM      7  C   UNL     1      42.551 131.256  21.816  1.00  0.00     0.124 C 
ENDROOT
BRANCH   1   8
ATOM      8  C   UNL     1      43.646 129.876  23.618  1.00  0.00    -0.029 C 
ATOM      9  C   UNL     1      42.819 130.192  24.619  1.00  0.00     0.004 C 
ENDBRANCH   1   8
BRANCH   7  10
ATOM     10  O   UNL     1      41.857 130.147  21.294  1.00  0.00    -0.392 OA
ATOM     11  H   UNL     1      41.461 129.657  22.061  1.00  0.00     0.210 HD
ENDBRANCH   7  10
BRANCH   3  12
ATOM     12  N   UNL     1      45.854 130.364  19.191  1.00  0.00    -0.373 N 
ATOM     13  H   UNL     1      46.220 129.418  19.450  1.00  0.00     0.161 HD
BRANCH  12  14
ATOM     14  C   UNL     1      45.894 130.675  17.784  1.00  0.00     0.037 A 
ATOM     15  C   UNL     1      45.326 131.868  17.259  1.00  0.00     0.026 A 
ATOM     16  C   UNL     1      46.569 129.790  16.914  1.00  0.00     0.052 A 
ATOM     17  C   UNL     1      45.399 132.155  15.884  1.00  0.00     0.012 A 
ATOM     18  C   UNL     1      46.623 130.104  15.558  1.00  0.00     0.047 A 
ATOM     19  C   UNL     1      46.056 131.246  15.062  1.00  0.00    -0.001 A 
ATOM     20  N   UNL     1      47.203 129.394  14.577  1.00  0.00    -0.361 N 
ATOM     21  C   UNL     1      46.285 131.264  13.704  1.00  0.00     0.028 A 
ATOM     22  C   UNL     1      46.998 130.099  13.441  1.00  0.00     0.083 A 
ATOM     23  H   UNL     1      47.708 128.485  14.668  1.00  0.00     0.166 HD
ENDBRANCH  12  14
ENDBRANCH   3  12
BRANCH   3  24
ATOM     24  C   UNL     1      46.164 132.207  20.781  1.00  0.00    -0.020 A 
ATOM     25  C   UNL     1      47.528 131.859  20.871  1.00  0.00     0.007 A 
ATOM     26  C   UNL     1      45.802 133.520  21.153  1.00  0.00     0.007 A 
ATOM     27  C   UNL     1      48.479 132.759  21.356  1.00  0.00     0.012 A 
ATOM     28  C   UNL     1      46.754 134.422  21.639  1.00  0.00     0.012 A 
ATOM     29  C   UNL     1      48.104 134.052  21.754  1.00  0.00     0.017 A 
BRANCH  29  30
ATOM     30  C   UNL     1      49.127 135.001  22.268  1.00  0.00     0.159 C 
ATOM     31  C   UNL     1      49.684 136.104  21.419  1.00  0.00     0.093 C 
ATOM     32  O   UNL     1      49.548 134.886  23.452  1.00  0.00    -0.295 OA
ENDBRANCH  29  30
ENDBRANCH   3  24
TORSDOF 6
ENDMDL


