REMARK SMILES NN(C(=O)N1CCOCC1)c1ccc2cc3ccccc3cc2c1
REMARK SMILES IDX 2 1 1 2 3 5 5 6 6 7 10 8 7 9 9 10 8 11 4 12 11 13 12 14
REMARK SMILES IDX 24 15 13 16 23 17 14 18 22 19 15 20 21 21 16 22 20 23 17 24
REMARK SMILES IDX 19 25 18 26
REMARK H PARENT 1 3 1 4
ROOT
ATOM      1  N   UNL     1      -1.238   1.641   0.706  1.00  0.00    -0.230 N 
ENDROOT
BRANCH   1   2
ATOM      2  N   UNL     1      -1.323   2.984   1.110  1.00  0.00    -0.239 NA
ATOM      3  H   UNL     1      -0.832   3.561   0.399  1.00  0.00     0.144 HD
ATOM      4  H   UNL     1      -0.825   3.092   2.026  1.00  0.00     0.144 HD
ENDBRANCH   1   2
BRANCH   1   5
ATOM      5  C   UNL     1      -2.432   1.016   0.217  1.00  0.00     0.339 C 
ATOM      6  N   UNL     1      -2.427   0.287  -1.026  1.00  0.00    -0.319 N 
ATOM      7  C   UNL     1      -3.480  -0.713  -1.259  1.00  0.00     0.150 C 
ATOM      8  C   UNL     1      -1.674   0.829  -2.164  1.00  0.00     0.150 C 
ATOM      9  C   UNL     1      -3.146  -1.613  -2.457  1.00  0.00     0.181 C 
ATOM     10  C   UNL     1      -1.500  -0.225  -3.262  1.00  0.00     0.181 C 
ATOM     11  O   UNL     1      -2.743  -0.836  -3.564  1.00  0.00    -0.378 OA
ATOM     12  O   UNL     1      -3.488   1.092   0.900  1.00  0.00    -0.247 OA
ENDBRANCH   1   5
BRANCH   1  13
ATOM     13  C   UNL     1       0.011   0.909   0.775  1.00  0.00     0.063 A 
ATOM     14  C   UNL     1       1.243   1.589   0.751  1.00  0.00     0.028 A 
ATOM     15  C   UNL     1       0.013  -0.497   0.883  1.00  0.00     0.036 A 
ATOM     16  C   UNL     1       2.448   0.887   0.833  1.00  0.00     0.011 A 
ATOM     17  C   UNL     1       1.219  -1.208   0.976  1.00  0.00    -0.016 A 
ATOM     18  C   UNL     1       2.448  -0.508   0.955  1.00  0.00    -0.018 A 
ATOM     19  C   UNL     1       1.213  -2.603   1.113  1.00  0.00     0.017 A 
ATOM     20  C   UNL     1       3.654  -1.213   1.070  1.00  0.00     0.017 A 
ATOM     21  C   UNL     1       2.418  -3.307   1.251  1.00  0.00    -0.018 A 
ATOM     22  C   UNL     1       3.647  -2.606   1.226  1.00  0.00    -0.018 A 
ATOM     23  C   UNL     1       2.418  -4.702   1.429  1.00  0.00     0.009 A 
ATOM     24  C   UNL     1       4.852  -3.312   1.371  1.00  0.00     0.009 A 
ATOM     25  C   UNL     1       3.624  -5.391   1.594  1.00  0.00     0.001 A 
ATOM     26  C   UNL     1       4.838  -4.698   1.560  1.00  0.00     0.001 A 
ENDBRANCH   1  13
TORSDOF 3


