REMARK SMILES O/C(=C/CF)[N-]c1cc(F)c(F)cc1Nc1ccc(F)cc1
REMARK SMILES IDX 6 1 2 2 1 3 3 5 4 6 5 7 7 8 8 9 14 10 9 11 13 12 11 13 10 14
REMARK SMILES IDX 12 15 15 16 16 18 17 19 22 20 18 21 21 22 19 23 20 24
REMARK H PARENT 1 4 15 17
ROOT
ATOM      1  N   UNL     1      -0.306  -1.823  -2.023  1.00  0.00    -0.626 NA
ENDROOT
BRANCH   1   2
ATOM      2  C   UNL     1      -1.041  -0.635  -2.342  1.00  0.00     0.012 C 
BRANCH   2   3
ATOM      3  O   UNL     1      -0.591   0.200  -3.366  1.00  0.00    -0.531 OA
ATOM      4  H   UNL     1      -1.079   1.052  -3.618  1.00  0.00     0.290 HD
ENDBRANCH   2   3
BRANCH   2   5
ATOM      5  C   UNL     1      -2.157  -0.330  -1.669  1.00  0.00     0.028 C 
BRANCH   5   6
ATOM      6  C   UNL     1      -2.675  -1.174  -0.545  1.00  0.00     0.244 C 
ATOM      7  F   UNL     1      -3.040  -2.421  -1.018  1.00  0.00    -0.247 F 
ENDBRANCH   5   6
ENDBRANCH   2   5
ENDBRANCH   1   2
BRANCH   1   8
ATOM      8  C   UNL     1       1.034  -2.089  -2.460  1.00  0.00    -0.107 A 
ATOM      9  C   UNL     1       1.325  -3.359  -2.973  1.00  0.00     0.028 A 
ATOM     10  C   UNL     1       2.063  -1.118  -2.374  1.00  0.00     0.027 A 
ATOM     11  C   UNL     1       2.600  -3.649  -3.466  1.00  0.00     0.157 A 
ATOM     12  C   UNL     1       3.330  -1.413  -2.898  1.00  0.00     0.067 A 
ATOM     13  C   UNL     1       3.598  -2.672  -3.441  1.00  0.00     0.160 A 
ATOM     14  F   UNL     1       2.863  -4.876  -3.979  1.00  0.00    -0.204 F 
ATOM     15  F   UNL     1       4.833  -2.950  -3.928  1.00  0.00    -0.204 F 
BRANCH  10  16
ATOM     16  N   UNL     1       1.856   0.159  -1.749  1.00  0.00    -0.356 N 
ATOM     17  H   UNL     1       2.223   1.005  -2.241  1.00  0.00     0.166 HD
BRANCH  16  18
ATOM     18  C   UNL     1       1.273   0.332  -0.445  1.00  0.00     0.039 A 
ATOM     19  C   UNL     1       0.711   1.571  -0.100  1.00  0.00     0.029 A 
ATOM     20  C   UNL     1       1.266  -0.711   0.501  1.00  0.00     0.029 A 
ATOM     21  C   UNL     1       0.124   1.757   1.155  1.00  0.00     0.041 A 
ATOM     22  C   UNL     1       0.680  -0.521   1.756  1.00  0.00     0.041 A 
ATOM     23  C   UNL     1       0.105   0.711   2.082  1.00  0.00     0.123 A 
ATOM     24  F   UNL     1      -0.466   0.892   3.298  1.00  0.00    -0.207 F 
ENDBRANCH  16  18
ENDBRANCH  10  16
ENDBRANCH   1   8
TORSDOF 7


