MODEL 1
REMARK VINA RESULT:      -9.6      0.000      0.000
REMARK SMILES Cc1cc(N)c([NH2+]c2ccc3cc[nH]c3c2[O-])cc1F
REMARK SMILES IDX 1 1 2 2 3 3 4 4 6 5 18 6 19 7 20 8 5 9 7 12 8 15 9 16 16 17
REMARK SMILES IDX 10 18 15 19 11 20 14 21 12 22 13 23 17 24
REMARK H PARENT 5 10 5 11 7 13 7 14 14 25
ROOT
ATOM      1  C   UNL     1      48.492 129.373  13.324  1.00  0.00     0.047 C 
ATOM      2  C   UNL     1      47.357 129.948  14.122  1.00  0.00    -0.013 A 
ATOM      3  C   UNL     1      46.462 129.102  14.792  1.00  0.00     0.038 A 
ATOM      4  C   UNL     1      45.381 129.623  15.520  1.00  0.00     0.094 A 
ATOM      5  C   UNL     1      45.182 131.029  15.568  1.00  0.00     0.160 A 
ATOM      6  C   UNL     1      46.081 131.865  14.879  1.00  0.00     0.110 A 
ATOM      7  C   UNL     1      47.153 131.333  14.161  1.00  0.00     0.132 A 
ATOM      8  F   UNL     1      47.991 132.171  13.499  1.00  0.00    -0.206 F 
ENDROOT
BRANCH   4   9
ATOM      9  N   UNL     1      44.505 128.712  16.196  1.00  0.00    -0.394 N 
ATOM     10  H   UNL     1      44.846 127.846  16.661  1.00  0.00     0.156 HD
ATOM     11  H   UNL     1      43.475 128.889  16.221  1.00  0.00     0.156 HD
ENDBRANCH   4   9
BRANCH   5  12
ATOM     12  N   UNL     1      44.070 131.621  16.282  1.00  0.00    -0.280 N 
ATOM     13  H   UNL     1      43.176 131.128  16.046  1.00  0.00     0.358 HD
ATOM     14  H   UNL     1      43.948 132.607  15.957  1.00  0.00     0.358 HD
BRANCH  12  15
ATOM     15  C   UNL     1      44.254 131.536  17.716  1.00  0.00     0.128 A 
ATOM     16  C   UNL     1      45.501 131.106  18.253  1.00  0.00     0.068 A 
ATOM     17  C   UNL     1      43.174 131.789  18.604  1.00  0.00    -0.020 A 
ATOM     18  C   UNL     1      45.691 130.988  19.640  1.00  0.00     0.016 A 
ATOM     19  C   UNL     1      43.401 131.663  19.975  1.00  0.00     0.043 A 
ATOM     20  C   UNL     1      44.616 131.281  20.471  1.00  0.00    -0.001 A 
ATOM     21  N   UNL     1      42.524 131.867  20.971  1.00  0.00    -0.361 N 
ATOM     22  C   UNL     1      44.510 131.241  21.844  1.00  0.00     0.028 A 
ATOM     23  C   UNL     1      43.197 131.612  22.117  1.00  0.00     0.083 A 
ATOM     24  O   UNL     1      41.912 132.143  18.136  1.00  0.00    -0.867 OA
ATOM     25  H   UNL     1      41.525 132.160  20.886  1.00  0.00     0.166 HD
ENDBRANCH  12  15
ENDBRANCH   5  12
TORSDOF 3
ENDMDL
MODEL 2
REMARK VINA RESULT:      -9.1      2.225      6.310
REMARK SMILES Cc1cc(N)c([NH2+]c2ccc3cc[nH]c3c2[O-])cc1F
REMARK SMILES IDX 1 1 2 2 3 3 4 4 6 5 18 6 19 7 20 8 5 9 7 12 8 15 9 16 16 17
REMARK SMILES IDX 10 18 15 19 11 20 14 21 12 22 13 23 17 24
REMARK H PARENT 5 10 5 11 7 13 7 14 14 25
ROOT
ATOM      1  C   UNL     1      44.811 131.601  22.209  1.00  0.00     0.047 C 
ATOM      2  C   UNL     1      44.507 131.581  20.738  1.00  0.00    -0.013 A 
ATOM      3  C   UNL     1      43.286 132.077  20.261  1.00  0.00     0.038 A 
ATOM      4  C   UNL     1      42.976 132.041  18.892  1.00  0.00     0.094 A 
ATOM      5  C   UNL     1      43.908 131.482  17.977  1.00  0.00     0.160 A 
ATOM      6  C   UNL     1      45.125 130.976  18.474  1.00  0.00     0.110 A 
ATOM      7  C   UNL     1      45.420 131.021  19.837  1.00  0.00     0.132 A 
ATOM      8  F   UNL     1      46.598 130.510  20.278  1.00  0.00    -0.206 F 
ENDROOT
BRANCH   4   9
ATOM      9  N   UNL     1      41.718 132.573  18.458  1.00  0.00    -0.394 N 
ATOM     10  H   UNL     1      40.893 131.972  18.255  1.00  0.00     0.156 HD
ATOM     11  H   UNL     1      41.601 133.602  18.313  1.00  0.00     0.156 HD
ENDBRANCH   4   9
BRANCH   5  12
ATOM     12  N   UNL     1      43.632 131.396  16.558  1.00  0.00    -0.280 N 
ATOM     13  H   UNL     1      43.145 132.261  16.225  1.00  0.00     0.358 HD
ATOM     14  H   UNL     1      42.964 130.608  16.393  1.00  0.00     0.358 HD
BRANCH  12  15
ATOM     15  C   UNL     1      44.850 131.251  15.788  1.00  0.00     0.128 A 
ATOM     16  C   UNL     1      45.513 132.403  15.277  1.00  0.00     0.068 A 
ATOM     17  C   UNL     1      45.350 129.965  15.453  1.00  0.00    -0.020 A 
ATOM     18  C   UNL     1      46.679 132.284  14.502  1.00  0.00     0.016 A 
ATOM     19  C   UNL     1      46.511 129.885  14.684  1.00  0.00     0.043 A 
ATOM     20  C   UNL     1      47.152 131.005  14.230  1.00  0.00    -0.001 A 
ATOM     21  N   UNL     1      47.147 128.776  14.273  1.00  0.00    -0.361 N 
ATOM     22  C   UNL     1      48.244 130.591  13.500  1.00  0.00     0.028 A 
ATOM     23  C   UNL     1      48.208 129.202  13.550  1.00  0.00     0.083 A 
ATOM     24  O   UNL     1      44.706 128.802  15.864  1.00  0.00    -0.867 OA
ATOM     25  H   UNL     1      46.881 127.784  14.467  1.00  0.00     0.166 HD
ENDBRANCH  12  15
ENDBRANCH   5  12
TORSDOF 3
ENDMDL
MODEL 3
REMARK VINA RESULT:      -9.1      1.474      2.006
REMARK SMILES Cc1cc(N)c([NH2+]c2ccc3cc[nH]c3c2[O-])cc1F
REMARK SMILES IDX 1 1 2 2 3 3 4 4 6 5 18 6 19 7 20 8 5 9 7 12 8 15 9 16 16 17
REMARK SMILES IDX 10 18 15 19 11 20 14 21 12 22 13 23 17 24
REMARK H PARENT 5 10 5 11 7 13 7 14 14 25
ROOT
ATOM      1  C   UNL     1      47.967 129.369  13.800  1.00  0.00     0.047 C 
ATOM      2  C   UNL     1      46.847 130.015  14.565  1.00  0.00    -0.013 A 
ATOM      3  C   UNL     1      46.835 131.403  14.766  1.00  0.00     0.038 A 
ATOM      4  C   UNL     1      45.809 132.018  15.500  1.00  0.00     0.094 A 
ATOM      5  C   UNL     1      44.774 131.223  16.060  1.00  0.00     0.160 A 
ATOM      6  C   UNL     1      44.808 129.829  15.861  1.00  0.00     0.110 A 
ATOM      7  C   UNL     1      45.833 129.231  15.127  1.00  0.00     0.132 A 
ATOM      8  F   UNL     1      45.837 127.883  14.968  1.00  0.00    -0.206 F 
ENDROOT
BRANCH   4   9
ATOM      9  N   UNL     1      45.840 133.442  15.663  1.00  0.00    -0.394 N 
ATOM     10  H   UNL     1      45.209 133.947  16.318  1.00  0.00     0.156 HD
ATOM     11  H   UNL     1      46.500 134.025  15.099  1.00  0.00     0.156 HD
ENDBRANCH   4   9
BRANCH   5  12
ATOM     12  N   UNL     1      43.705 131.800  16.848  1.00  0.00    -0.280 N 
ATOM     13  H   UNL     1      42.795 131.328  16.636  1.00  0.00     0.358 HD
ATOM     14  H   UNL     1      43.582 132.800  16.568  1.00  0.00     0.358 HD
BRANCH  12  15
ATOM     15  C   UNL     1      43.956 131.657  18.268  1.00  0.00     0.128 A 
ATOM     16  C   UNL     1      45.206 131.151  18.726  1.00  0.00     0.068 A 
ATOM     17  C   UNL     1      42.934 131.928  19.217  1.00  0.00    -0.020 A 
ATOM     18  C   UNL     1      45.458 130.976  20.097  1.00  0.00     0.016 A 
ATOM     19  C   UNL     1      43.222 131.744  20.570  1.00  0.00     0.043 A 
ATOM     20  C   UNL     1      44.441 131.289  20.991  1.00  0.00    -0.001 A 
ATOM     21  N   UNL     1      42.406 131.953  21.616  1.00  0.00    -0.361 N 
ATOM     22  C   UNL     1      44.401 131.206  22.366  1.00  0.00     0.028 A 
ATOM     23  C   UNL     1      43.122 131.627  22.716  1.00  0.00     0.083 A 
ATOM     24  O   UNL     1      41.670 132.357  18.826  1.00  0.00    -0.867 OA
ATOM     25  H   UNL     1      41.420 132.296  21.592  1.00  0.00     0.166 HD
ENDBRANCH  12  15
ENDBRANCH   5  12
TORSDOF 3
ENDMDL
MODEL 4
REMARK VINA RESULT:      -8.6      1.541      1.849
REMARK SMILES Cc1cc(N)c([NH2+]c2ccc3cc[nH]c3c2[O-])cc1F
REMARK SMILES IDX 1 1 2 2 3 3 4 4 6 5 18 6 19 7 20 8 5 9 7 12 8 15 9 16 16 17
REMARK SMILES IDX 10 18 15 19 11 20 14 21 12 22 13 23 17 24
REMARK H PARENT 5 10 5 11 7 13 7 14 14 25
ROOT
ATOM      1  C   UNL     1      47.534 129.755  13.762  1.00  0.00     0.047 C 
ATOM      2  C   UNL     1      46.418 130.286  14.615  1.00  0.00    -0.013 A 
ATOM      3  C   UNL     1      45.325 130.938  14.026  1.00  0.00     0.038 A 
ATOM      4  C   UNL     1      44.287 131.462  14.812  1.00  0.00     0.094 A 
ATOM      5  C   UNL     1      44.349 131.342  16.226  1.00  0.00     0.160 A 
ATOM      6  C   UNL     1      45.459 130.696  16.803  1.00  0.00     0.110 A 
ATOM      7  C   UNL     1      46.483 130.177  16.009  1.00  0.00     0.132 A 
ATOM      8  F   UNL     1      47.543 129.573  16.604  1.00  0.00    -0.206 F 
ENDROOT
BRANCH   4   9
ATOM      9  N   UNL     1      43.188 132.108  14.156  1.00  0.00    -0.394 N 
ATOM     10  H   UNL     1      42.221 132.100  14.540  1.00  0.00     0.156 HD
ATOM     11  H   UNL     1      43.331 132.598  13.244  1.00  0.00     0.156 HD
ENDBRANCH   4   9
BRANCH   5  12
ATOM     12  N   UNL     1      43.319 131.886  17.087  1.00  0.00    -0.280 N 
ATOM     13  H   UNL     1      42.409 131.391  16.931  1.00  0.00     0.358 HD
ATOM     14  H   UNL     1      43.153 132.884  16.825  1.00  0.00     0.358 HD
BRANCH  12  15
ATOM     15  C   UNL     1      43.666 131.739  18.486  1.00  0.00     0.128 A 
ATOM     16  C   UNL     1      44.950 131.246  18.857  1.00  0.00     0.068 A 
ATOM     17  C   UNL     1      42.707 131.993  19.503  1.00  0.00    -0.020 A 
ATOM     18  C   UNL     1      45.295 131.068  20.207  1.00  0.00     0.016 A 
ATOM     19  C   UNL     1      43.086 131.807  20.832  1.00  0.00     0.043 A 
ATOM     20  C   UNL     1      44.336 131.364  21.169  1.00  0.00    -0.001 A 
ATOM     21  N   UNL     1      42.340 132.002  21.932  1.00  0.00    -0.361 N 
ATOM     22  C   UNL     1      44.388 131.275  22.542  1.00  0.00     0.028 A 
ATOM     23  C   UNL     1      43.132 131.679  22.980  1.00  0.00     0.083 A 
ATOM     24  O   UNL     1      41.414 132.408  19.199  1.00  0.00    -0.867 OA
ATOM     25  H   UNL     1      41.350 132.332  21.975  1.00  0.00     0.166 HD
ENDBRANCH  12  15
ENDBRANCH   5  12
TORSDOF 3
ENDMDL
MODEL 5
REMARK VINA RESULT:      -8.6      2.361      6.312
REMARK SMILES Cc1cc(N)c([NH2+]c2ccc3cc[nH]c3c2[O-])cc1F
REMARK SMILES IDX 1 1 2 2 3 3 4 4 6 5 18 6 19 7 20 8 5 9 7 12 8 15 9 16 16 17
REMARK SMILES IDX 10 18 15 19 11 20 14 21 12 22 13 23 17 24
REMARK H PARENT 5 10 5 11 7 13 7 14 14 25
ROOT
ATOM      1  C   UNL     1      44.681 131.089  22.506  1.00  0.00     0.047 C 
ATOM      2  C   UNL     1      44.437 131.324  21.043  1.00  0.00    -0.013 A 
ATOM      3  C   UNL     1      43.228 131.885  20.608  1.00  0.00     0.038 A 
ATOM      4  C   UNL     1      42.974 132.086  19.242  1.00  0.00     0.094 A 
ATOM      5  C   UNL     1      43.951 131.704  18.284  1.00  0.00     0.160 A 
ATOM      6  C   UNL     1      45.154 131.129  18.736  1.00  0.00     0.110 A 
ATOM      7  C   UNL     1      45.394 130.937  20.097  1.00  0.00     0.132 A 
ATOM      8  F   UNL     1      46.561 130.367  20.492  1.00  0.00    -0.206 F 
ENDROOT
BRANCH   4   9
ATOM      9  N   UNL     1      41.726 132.676  18.855  1.00  0.00    -0.394 N 
ATOM     10  H   UNL     1      41.338 132.590  17.893  1.00  0.00     0.156 HD
ATOM     11  H   UNL     1      41.172 133.238  19.540  1.00  0.00     0.156 HD
ENDBRANCH   4   9
BRANCH   5  12
ATOM     12  N   UNL     1      43.732 131.864  16.861  1.00  0.00    -0.280 N 
ATOM     13  H   UNL     1      43.852 132.866  16.581  1.00  0.00     0.358 HD
ATOM     14  H   UNL     1      42.740 131.621  16.643  1.00  0.00     0.358 HD
BRANCH  12  15
ATOM     15  C   UNL     1      44.671 131.077  16.089  1.00  0.00     0.128 A 
ATOM     16  C   UNL     1      44.598 129.654  16.109  1.00  0.00     0.068 A 
ATOM     17  C   UNL     1      45.729 131.700  15.376  1.00  0.00    -0.020 A 
ATOM     18  C   UNL     1      45.517 128.871  15.391  1.00  0.00     0.016 A 
ATOM     19  C   UNL     1      46.622 130.890  14.673  1.00  0.00     0.043 A 
ATOM     20  C   UNL     1      46.514 129.527  14.679  1.00  0.00    -0.001 A 
ATOM     21  N   UNL     1      47.673 131.280  13.934  1.00  0.00    -0.361 N 
ATOM     22  C   UNL     1      47.540 129.026  13.908  1.00  0.00     0.028 A 
ATOM     23  C   UNL     1      48.237 130.144  13.463  1.00  0.00     0.083 A 
ATOM     24  O   UNL     1      45.895 133.082  15.376  1.00  0.00    -0.867 OA
ATOM     25  H   UNL     1      47.995 132.257  13.756  1.00  0.00     0.166 HD
ENDBRANCH  12  15
ENDBRANCH   5  12
TORSDOF 3
ENDMDL
MODEL 6
REMARK VINA RESULT:      -8.2      2.521      3.895
REMARK SMILES Cc1cc(N)c([NH2+]c2ccc3cc[nH]c3c2[O-])cc1F
REMARK SMILES IDX 1 1 2 2 3 3 4 4 6 5 18 6 19 7 20 8 5 9 7 12 8 15 9 16 16 17
REMARK SMILES IDX 10 18 15 19 11 20 14 21 12 22 13 23 17 24
REMARK H PARENT 5 10 5 11 7 13 7 14 14 25
ROOT
ATOM      1  C   UNL     1      44.575 130.385  14.959  1.00  0.00     0.047 C 
ATOM      2  C   UNL     1      44.619 130.791  16.404  1.00  0.00    -0.013 A 
ATOM      3  C   UNL     1      43.528 131.450  16.988  1.00  0.00     0.038 A 
ATOM      4  C   UNL     1      43.564 131.859  18.330  1.00  0.00     0.094 A 
ATOM      5  C   UNL     1      44.728 131.613  19.106  1.00  0.00     0.160 A 
ATOM      6  C   UNL     1      45.821 130.962  18.502  1.00  0.00     0.110 A 
ATOM      7  C   UNL     1      45.769 130.559  17.167  1.00  0.00     0.132 A 
ATOM      8  F   UNL     1      46.848 129.945  16.617  1.00  0.00    -0.206 F 
ENDROOT
BRANCH   4   9
ATOM      9  N   UNL     1      42.415 132.518  18.879  1.00  0.00    -0.394 N 
ATOM     10  H   UNL     1      41.448 132.156  18.756  1.00  0.00     0.156 HD
ATOM     11  H   UNL     1      42.522 133.411  19.411  1.00  0.00     0.156 HD
ENDBRANCH   4   9
BRANCH   5  12
ATOM     12  N   UNL     1      44.831 132.035  20.488  1.00  0.00    -0.280 N 
ATOM     13  H   UNL     1      44.217 132.865  20.666  1.00  0.00     0.358 HD
ATOM     14  H   UNL     1      45.809 132.357  20.670  1.00  0.00     0.358 HD
BRANCH  12  15
ATOM     15  C   UNL     1      44.424 130.983  21.396  1.00  0.00     0.128 A 
ATOM     16  C   UNL     1      45.204 129.796  21.511  1.00  0.00     0.068 A 
ATOM     17  C   UNL     1      43.202 131.074  22.114  1.00  0.00    -0.020 A 
ATOM     18  C   UNL     1      44.811 128.751  22.364  1.00  0.00     0.016 A 
ATOM     19  C   UNL     1      42.845 130.017  22.952  1.00  0.00     0.043 A 
ATOM     20  C   UNL     1      43.625 128.901  23.073  1.00  0.00    -0.001 A 
ATOM     21  N   UNL     1      41.747 129.915  23.718  1.00  0.00    -0.361 N 
ATOM     22  C   UNL     1      42.998 128.050  23.957  1.00  0.00     0.028 A 
ATOM     23  C   UNL     1      41.836 128.714  24.336  1.00  0.00     0.083 A 
ATOM     24  O   UNL     1      42.363 132.177  21.988  1.00  0.00    -0.867 OA
ATOM     25  H   UNL     1      40.978 130.614  23.820  1.00  0.00     0.166 HD
ENDBRANCH  12  15
ENDBRANCH   5  12
TORSDOF 3
ENDMDL
MODEL 7
REMARK VINA RESULT:      -7.9      3.076      4.907
REMARK SMILES Cc1cc(N)c([NH2+]c2ccc3cc[nH]c3c2[O-])cc1F
REMARK SMILES IDX 1 1 2 2 3 3 4 4 6 5 18 6 19 7 20 8 5 9 7 12 8 15 9 16 16 17
REMARK SMILES IDX 10 18 15 19 11 20 14 21 12 22 13 23 17 24
REMARK H PARENT 5 10 5 11 7 13 7 14 14 25
ROOT
ATOM      1  C   UNL     1      44.076 131.266  15.929  1.00  0.00     0.047 C 
ATOM      2  C   UNL     1      44.249 131.288  17.421  1.00  0.00    -0.013 A 
ATOM      3  C   UNL     1      43.284 131.893  18.238  1.00  0.00     0.038 A 
ATOM      4  C   UNL     1      43.444 131.945  19.631  1.00  0.00     0.094 A 
ATOM      5  C   UNL     1      44.608 131.387  20.223  1.00  0.00     0.160 A 
ATOM      6  C   UNL     1      45.576 130.794  19.389  1.00  0.00     0.110 A 
ATOM      7  C   UNL     1      45.402 130.748  18.005  1.00  0.00     0.132 A 
ATOM      8  F   UNL     1      46.364 130.180  17.234  1.00  0.00    -0.206 F 
ENDROOT
BRANCH   4   9
ATOM      9  N   UNL     1      42.419 132.565  20.418  1.00  0.00    -0.394 N 
ATOM     10  H   UNL     1      42.089 132.171  21.323  1.00  0.00     0.156 HD
ATOM     11  H   UNL     1      41.951 133.438  20.084  1.00  0.00     0.156 HD
ENDBRANCH   4   9
BRANCH   5  12
ATOM     12  N   UNL     1      44.839 131.434  21.652  1.00  0.00    -0.280 N 
ATOM     13  H   UNL     1      44.388 132.282  22.070  1.00  0.00     0.358 HD
ATOM     14  H   UNL     1      45.864 131.539  21.825  1.00  0.00     0.358 HD
BRANCH  12  15
ATOM     15  C   UNL     1      44.289 130.271  22.317  1.00  0.00     0.128 A 
ATOM     16  C   UNL     1      44.967 129.020  22.247  1.00  0.00     0.068 A 
ATOM     17  C   UNL     1      43.028 130.333  22.968  1.00  0.00    -0.020 A 
ATOM     18  C   UNL     1      44.436 127.872  22.859  1.00  0.00     0.016 A 
ATOM     19  C   UNL     1      42.533 129.174  23.566  1.00  0.00     0.043 A 
ATOM     20  C   UNL     1      43.216 127.990  23.515  1.00  0.00    -0.001 A 
ATOM     21  N   UNL     1      41.378 129.027  24.235  1.00  0.00    -0.361 N 
ATOM     22  C   UNL     1      42.464 127.048  24.182  1.00  0.00     0.028 A 
ATOM     23  C   UNL     1      41.331 127.729  24.615  1.00  0.00     0.083 A 
ATOM     24  O   UNL     1      42.286 131.509  23.008  1.00  0.00    -0.867 OA
ATOM     25  H   UNL     1      40.658 129.760  24.424  1.00  0.00     0.166 HD
ENDBRANCH  12  15
ENDBRANCH   5  12
TORSDOF 3
ENDMDL
MODEL 8
REMARK VINA RESULT:      -7.9      3.451      7.252
REMARK SMILES Cc1cc(N)c([NH2+]c2ccc3cc[nH]c3c2[O-])cc1F
REMARK SMILES IDX 1 1 2 2 3 3 4 4 6 5 18 6 19 7 20 8 5 9 7 12 8 15 9 16 16 17
REMARK SMILES IDX 10 18 15 19 11 20 14 21 12 22 13 23 17 24
REMARK H PARENT 5 10 5 11 7 13 7 14 14 25
ROOT
ATOM      1  C   UNL     1      41.744 127.314  24.561  1.00  0.00     0.047 C 
ATOM      2  C   UNL     1      42.541 128.435  23.957  1.00  0.00    -0.013 A 
ATOM      3  C   UNL     1      41.979 129.713  23.828  1.00  0.00     0.038 A 
ATOM      4  C   UNL     1      42.701 130.764  23.242  1.00  0.00     0.094 A 
ATOM      5  C   UNL     1      44.017 130.528  22.761  1.00  0.00     0.160 A 
ATOM      6  C   UNL     1      44.563 129.235  22.887  1.00  0.00     0.110 A 
ATOM      7  C   UNL     1      43.833 128.200  23.473  1.00  0.00     0.132 A 
ATOM      8  F   UNL     1      44.389 126.965  23.564  1.00  0.00    -0.206 F 
ENDROOT
BRANCH   4   9
ATOM      9  N   UNL     1      42.082 132.053  23.147  1.00  0.00    -0.394 N 
ATOM     10  H   UNL     1      41.362 132.280  22.430  1.00  0.00     0.156 HD
ATOM     11  H   UNL     1      42.360 132.823  23.797  1.00  0.00     0.156 HD
ENDBRANCH   4   9
BRANCH   5  12
ATOM     12  N   UNL     1      44.799 131.568  22.125  1.00  0.00    -0.280 N 
ATOM     13  H   UNL     1      45.767 131.596  22.523  1.00  0.00     0.358 HD
ATOM     14  H   UNL     1      44.370 132.495  22.347  1.00  0.00     0.358 HD
BRANCH  12  15
ATOM     15  C   UNL     1      44.916 131.347  20.699  1.00  0.00     0.128 A 
ATOM     16  C   UNL     1      46.070 130.702  20.167  1.00  0.00     0.068 A 
ATOM     17  C   UNL     1      43.933 131.846  19.803  1.00  0.00    -0.020 A 
ATOM     18  C   UNL     1      46.216 130.505  18.784  1.00  0.00     0.016 A 
ATOM     19  C   UNL     1      44.113 131.630  18.436  1.00  0.00     0.043 A 
ATOM     20  C   UNL     1      45.212 130.979  17.949  1.00  0.00    -0.001 A 
ATOM     21  N   UNL     1      43.302 132.008  17.434  1.00  0.00    -0.361 N 
ATOM     22  C   UNL     1      45.096 130.939  16.576  1.00  0.00     0.028 A 
ATOM     23  C   UNL     1      43.898 131.587  16.295  1.00  0.00     0.083 A 
ATOM     24  O   UNL     1      42.820 132.546  20.257  1.00  0.00    -0.867 OA
ATOM     25  H   UNL     1      42.396 132.523  17.512  1.00  0.00     0.166 HD
ENDBRANCH  12  15
ENDBRANCH   5  12
TORSDOF 3
ENDMDL
MODEL 9
REMARK VINA RESULT:      -7.0      3.452      7.404
REMARK SMILES Cc1cc(N)c([NH2+]c2ccc3cc[nH]c3c2[O-])cc1F
REMARK SMILES IDX 1 1 2 2 3 3 4 4 6 5 18 6 19 7 20 8 5 9 7 12 8 15 9 16 16 17
REMARK SMILES IDX 10 18 15 19 11 20 14 21 12 22 13 23 17 24
REMARK H PARENT 5 10 5 11 7 13 7 14 14 25
ROOT
ATOM      1  C   UNL     1      41.848 127.641  24.624  1.00  0.00     0.047 C 
ATOM      2  C   UNL     1      42.589 128.752  23.937  1.00  0.00    -0.013 A 
ATOM      3  C   UNL     1      42.094 130.063  23.973  1.00  0.00     0.038 A 
ATOM      4  C   UNL     1      42.762 131.106  23.314  1.00  0.00     0.094 A 
ATOM      5  C   UNL     1      43.951 130.830  22.589  1.00  0.00     0.160 A 
ATOM      6  C   UNL     1      44.429 129.505  22.551  1.00  0.00     0.110 A 
ATOM      7  C   UNL     1      43.756 128.478  23.213  1.00  0.00     0.132 A 
ATOM      8  F   UNL     1      44.242 127.212  23.141  1.00  0.00    -0.206 F 
ENDROOT
BRANCH   4   9
ATOM      9  N   UNL     1      42.216 132.430  23.395  1.00  0.00    -0.394 N 
ATOM     10  H   UNL     1      42.570 133.219  22.816  1.00  0.00     0.156 HD
ATOM     11  H   UNL     1      41.445 132.644  24.067  1.00  0.00     0.156 HD
ENDBRANCH   4   9
BRANCH   5  12
ATOM     12  N   UNL     1      44.668 131.862  21.869  1.00  0.00    -0.280 N 
ATOM     13  H   UNL     1      45.701 131.757  22.006  1.00  0.00     0.358 HD
ATOM     14  H   UNL     1      44.417 132.792  22.275  1.00  0.00     0.358 HD
BRANCH  12  15
ATOM     15  C   UNL     1      44.403 131.798  20.447  1.00  0.00     0.128 A 
ATOM     16  C   UNL     1      43.115 132.138  19.942  1.00  0.00     0.068 A 
ATOM     17  C   UNL     1      45.387 131.310  19.545  1.00  0.00    -0.020 A 
ATOM     18  C   UNL     1      42.829 132.054  18.569  1.00  0.00     0.016 A 
ATOM     19  C   UNL     1      45.067 131.242  18.189  1.00  0.00     0.043 A 
ATOM     20  C   UNL     1      43.835 131.606  17.721  1.00  0.00    -0.001 A 
ATOM     21  N   UNL     1      45.853 130.826  17.183  1.00  0.00    -0.361 N 
ATOM     22  C   UNL     1      43.836 131.414  16.357  1.00  0.00     0.028 A 
ATOM     23  C   UNL     1      45.105 130.930  16.060  1.00  0.00     0.083 A 
ATOM     24  O   UNL     1      46.640 130.896  19.987  1.00  0.00    -0.867 OA
ATOM     25  H   UNL     1      46.840 130.488  17.247  1.00  0.00     0.166 HD
ENDBRANCH  12  15
ENDBRANCH   5  12
TORSDOF 3
ENDMDL


