MODEL 1
REMARK VINA RESULT:      -4.3      0.000      0.000
REMARK SMILES N[NH2+][C@@H]1CCC[C@H]2OC=C[C@@]12c1[nH]c2ccccc2[nH+]1
REMARK SMILES IDX 3 1 4 2 5 3 6 4 7 5 8 6 9 7 10 8 11 9 2 10 1 13 12 16 13 17
REMARK SMILES IDX 20 18 14 19 19 20 15 21 18 22 16 23 17 24
REMARK H PARENT 2 11 2 12 1 14 1 15 13 25 20 26
ROOT
ATOM      1  C   UNL     1      44.079 129.409  23.561  1.00  0.00     0.227 C 
ATOM      2  C   UNL     1      42.911 128.476  23.147  1.00  0.00     0.069 C 
ATOM      3  C   UNL     1      41.510 129.016  23.515  1.00  0.00     0.010 C 
ATOM      4  C   UNL     1      41.550 130.321  24.313  1.00  0.00     0.047 C 
ATOM      5  C   UNL     1      42.378 131.387  23.581  1.00  0.00     0.201 C 
ATOM      6  O   UNL     1      42.631 132.470  24.465  1.00  0.00    -0.496 OA
ATOM      7  C   UNL     1      43.984 132.676  24.625  1.00  0.00     0.184 C 
ATOM      8  C   UNL     1      44.691 131.826  23.915  1.00  0.00     0.041 C 
ATOM      9  C   UNL     1      43.801 130.891  23.137  1.00  0.00     0.182 C 
ENDROOT
BRANCH   1  10
ATOM     10  N   UNL     1      45.364 128.909  23.023  1.00  0.00    -0.268 N 
ATOM     11  H   UNL     1      45.403 129.045  21.985  1.00  0.00     0.370 HD
ATOM     12  H   UNL     1      46.174 129.409  23.463  1.00  0.00     0.370 HD
BRANCH  10  13
ATOM     13  N   UNL     1      45.488 127.530  23.295  1.00  0.00    -0.183 NA
ATOM     14  H   UNL     1      45.485 127.394  24.334  1.00  0.00     0.183 HD
ATOM     15  H   UNL     1      46.430 127.218  22.962  1.00  0.00     0.183 HD
ENDBRANCH  10  13
ENDBRANCH   1  10
BRANCH   9  16
ATOM     16  C   UNL     1      44.007 131.089  21.638  1.00  0.00     0.273 A 
ATOM     17  N   UNL     1      43.028 131.511  20.793  1.00  0.00    -0.240 N 
ATOM     18  N   UNL     1      45.145 130.742  20.975  1.00  0.00    -0.240 N 
ATOM     19  C   UNL     1      43.586 131.440  19.575  1.00  0.00     0.171 A 
ATOM     20  C   UNL     1      44.863 130.977  19.685  1.00  0.00     0.171 A 
ATOM     21  C   UNL     1      43.013 131.745  18.342  1.00  0.00     0.056 A 
ATOM     22  C   UNL     1      45.674 130.778  18.571  1.00  0.00     0.056 A 
ATOM     23  C   UNL     1      43.807 131.562  17.194  1.00  0.00     0.005 A 
ATOM     24  C   UNL     1      45.133 131.080  17.307  1.00  0.00     0.005 A 
ATOM     25  H   UNL     1      42.052 131.799  21.022  1.00  0.00     0.312 HD
ATOM     26  H   UNL     1      46.031 130.349  21.362  1.00  0.00     0.312 HD
ENDBRANCH   9  16
TORSDOF 3
ENDMDL
MODEL 2
REMARK VINA RESULT:      -4.3      2.695      3.834
REMARK SMILES N[NH2+][C@@H]1CCC[C@H]2OC=C[C@@]12c1[nH]c2ccccc2[nH+]1
REMARK SMILES IDX 3 1 4 2 5 3 6 4 7 5 8 6 9 7 10 8 11 9 2 10 1 13 12 16 13 17
REMARK SMILES IDX 20 18 14 19 19 20 15 21 18 22 16 23 17 24
REMARK H PARENT 2 11 2 12 1 14 1 15 13 25 20 26
ROOT
ATOM      1  C   UNL     1      45.097 132.000  21.069  1.00  0.00     0.227 C 
ATOM      2  C   UNL     1      45.529 130.590  21.549  1.00  0.00     0.069 C 
ATOM      3  C   UNL     1      44.357 129.687  21.993  1.00  0.00     0.010 C 
ATOM      4  C   UNL     1      43.001 130.395  21.975  1.00  0.00     0.047 C 
ATOM      5  C   UNL     1      42.726 131.019  20.599  1.00  0.00     0.201 C 
ATOM      6  O   UNL     1      41.613 131.896  20.698  1.00  0.00    -0.496 OA
ATOM      7  C   UNL     1      41.955 133.178  20.322  1.00  0.00     0.184 C 
ATOM      8  C   UNL     1      43.215 133.256  19.962  1.00  0.00     0.041 C 
ATOM      9  C   UNL     1      43.898 131.917  20.064  1.00  0.00     0.182 C 
ENDROOT
BRANCH   1  10
ATOM     10  N   UNL     1      46.248 132.737  20.500  1.00  0.00    -0.268 N 
ATOM     11  H   UNL     1      46.709 132.170  19.749  1.00  0.00     0.370 HD
ATOM     12  H   UNL     1      45.943 133.654  20.096  1.00  0.00     0.370 HD
BRANCH  10  13
ATOM     13  N   UNL     1      47.198 132.987  21.513  1.00  0.00    -0.183 NA
ATOM     14  H   UNL     1      47.442 132.078  21.973  1.00  0.00     0.183 HD
ATOM     15  H   UNL     1      46.739 133.574  22.249  1.00  0.00     0.183 HD
ENDBRANCH  10  13
ENDBRANCH   1  10
BRANCH   9  16
ATOM     16  C   UNL     1      44.360 131.451  18.686  1.00  0.00     0.273 A 
ATOM     17  N   UNL     1      45.441 130.650  18.486  1.00  0.00    -0.240 N 
ATOM     18  N   UNL     1      43.821 131.890  17.515  1.00  0.00    -0.240 N 
ATOM     19  C   UNL     1      45.561 130.578  17.151  1.00  0.00     0.171 A 
ATOM     20  C   UNL     1      44.583 131.326  16.566  1.00  0.00     0.171 A 
ATOM     21  C   UNL     1      46.517 129.896  16.403  1.00  0.00     0.056 A 
ATOM     22  C   UNL     1      44.480 131.455  15.183  1.00  0.00     0.056 A 
ATOM     23  C   UNL     1      46.440 129.997  15.001  1.00  0.00     0.005 A 
ATOM     24  C   UNL     1      45.426 130.774  14.393  1.00  0.00     0.005 A 
ATOM     25  H   UNL     1      46.064 130.209  19.197  1.00  0.00     0.312 HD
ATOM     26  H   UNL     1      43.021 132.544  17.370  1.00  0.00     0.312 HD
ENDBRANCH   9  16
TORSDOF 3
ENDMDL
MODEL 3
REMARK VINA RESULT:      -4.1      2.754      3.691
REMARK SMILES N[NH2+][C@@H]1CCC[C@H]2OC=C[C@@]12c1[nH]c2ccccc2[nH+]1
REMARK SMILES IDX 3 1 4 2 5 3 6 4 7 5 8 6 9 7 10 8 11 9 2 10 1 13 12 16 13 17
REMARK SMILES IDX 20 18 14 19 19 20 15 21 18 22 16 23 17 24
REMARK H PARENT 2 11 2 12 1 14 1 15 13 25 20 26
ROOT
ATOM      1  C   UNL     1      45.103 132.116  21.092  1.00  0.00     0.227 C 
ATOM      2  C   UNL     1      45.609 130.723  21.549  1.00  0.00     0.069 C 
ATOM      3  C   UNL     1      44.484 129.733  21.926  1.00  0.00     0.010 C 
ATOM      4  C   UNL     1      43.085 130.353  21.876  1.00  0.00     0.047 C 
ATOM      5  C   UNL     1      42.819 130.998  20.509  1.00  0.00     0.201 C 
ATOM      6  O   UNL     1      41.649 131.799  20.590  1.00  0.00    -0.496 OA
ATOM      7  C   UNL     1      41.919 133.110  20.261  1.00  0.00     0.184 C 
ATOM      8  C   UNL     1      43.184 133.280  19.950  1.00  0.00     0.041 C 
ATOM      9  C   UNL     1      43.948 131.985  20.041  1.00  0.00     0.182 C 
ENDROOT
BRANCH   1  10
ATOM     10  N   UNL     1      46.223 132.941  20.586  1.00  0.00    -0.268 N 
ATOM     11  H   UNL     1      46.649 132.497  19.739  1.00  0.00     0.370 HD
ATOM     12  H   UNL     1      45.896 133.905  20.339  1.00  0.00     0.370 HD
BRANCH  10  13
ATOM     13  N   UNL     1      47.219 133.048  21.580  1.00  0.00    -0.183 NA
ATOM     14  H   UNL     1      47.228 134.032  21.938  1.00  0.00     0.183 HD
ATOM     15  H   UNL     1      48.149 132.894  21.123  1.00  0.00     0.183 HD
ENDBRANCH  10  13
ENDBRANCH   1  10
BRANCH   9  16
ATOM     16  C   UNL     1      44.488 131.591  18.669  1.00  0.00     0.273 A 
ATOM     17  N   UNL     1      43.923 131.988  17.497  1.00  0.00    -0.240 N 
ATOM     18  N   UNL     1      45.502 130.703  18.477  1.00  0.00    -0.240 N 
ATOM     19  C   UNL     1      44.624 131.340  16.553  1.00  0.00     0.171 A 
ATOM     20  C   UNL     1      45.576 130.566  17.145  1.00  0.00     0.171 A 
ATOM     21  C   UNL     1      44.452 131.374  15.171  1.00  0.00     0.056 A 
ATOM     22  C   UNL     1      46.437 129.759  16.404  1.00  0.00     0.056 A 
ATOM     23  C   UNL     1      45.310 130.577  14.389  1.00  0.00     0.005 A 
ATOM     24  C   UNL     1      46.298 129.772  15.003  1.00  0.00     0.005 A 
ATOM     25  H   UNL     1      43.112 132.627  17.349  1.00  0.00     0.312 HD
ATOM     26  H   UNL     1      46.078 130.207  19.192  1.00  0.00     0.312 HD
ENDBRANCH   9  16
TORSDOF 3
ENDMDL
MODEL 4
REMARK VINA RESULT:      -3.9      7.912      9.646
REMARK SMILES N[NH2+][C@@H]1CCC[C@H]2OC=C[C@@]12c1[nH]c2ccccc2[nH+]1
REMARK SMILES IDX 3 1 4 2 5 3 6 4 7 5 8 6 9 7 10 8 11 9 2 10 1 13 12 16 13 17
REMARK SMILES IDX 20 18 14 19 19 20 15 21 18 22 16 23 17 24
REMARK H PARENT 2 11 2 12 1 14 1 15 13 25 20 26
ROOT
ATOM      1  C   UNL     1      51.791 124.690  21.147  1.00  0.00     0.227 C 
ATOM      2  C   UNL     1      51.865 123.147  21.006  1.00  0.00     0.069 C 
ATOM      3  C   UNL     1      52.504 122.431  22.217  1.00  0.00     0.010 C 
ATOM      4  C   UNL     1      53.039 123.393  23.281  1.00  0.00     0.047 C 
ATOM      5  C   UNL     1      51.949 124.375  23.732  1.00  0.00     0.201 C 
ATOM      6  O   UNL     1      52.543 125.417  24.492  1.00  0.00    -0.496 OA
ATOM      7  C   UNL     1      52.297 126.649  23.926  1.00  0.00     0.184 C 
ATOM      8  C   UNL     1      51.571 126.544  22.836  1.00  0.00     0.041 C 
ATOM      9  C   UNL     1      51.224 125.107  22.546  1.00  0.00     0.182 C 
ENDROOT
BRANCH   1  10
ATOM     10  N   UNL     1      51.015 125.282  20.034  1.00  0.00    -0.268 N 
ATOM     11  H   UNL     1      49.988 125.162  20.201  1.00  0.00     0.370 HD
ATOM     12  H   UNL     1      51.227 126.302  19.930  1.00  0.00     0.370 HD
BRANCH  10  13
ATOM     13  N   UNL     1      51.346 124.631  18.826  1.00  0.00    -0.183 NA
ATOM     14  H   UNL     1      50.505 124.638  18.202  1.00  0.00     0.183 HD
ATOM     15  H   UNL     1      51.541 123.626  19.043  1.00  0.00     0.183 HD
ENDBRANCH  10  13
ENDBRANCH   1  10
BRANCH   9  16
ATOM     16  C   UNL     1      49.713 124.902  22.616  1.00  0.00     0.273 A 
ATOM     17  N   UNL     1      49.076 123.820  22.092  1.00  0.00    -0.240 N 
ATOM     18  N   UNL     1      48.841 125.833  23.091  1.00  0.00    -0.240 N 
ATOM     19  C   UNL     1      47.772 124.085  22.267  1.00  0.00     0.171 A 
ATOM     20  C   UNL     1      47.630 125.298  22.870  1.00  0.00     0.171 A 
ATOM     21  C   UNL     1      46.675 123.311  21.896  1.00  0.00     0.056 A 
ATOM     22  C   UNL     1      46.379 125.842  23.152  1.00  0.00     0.056 A 
ATOM     23  C   UNL     1      45.393 123.825  22.171  1.00  0.00     0.005 A 
ATOM     24  C   UNL     1      45.246 125.086  22.797  1.00  0.00     0.005 A 
ATOM     25  H   UNL     1      49.490 122.982  21.630  1.00  0.00     0.312 HD
ATOM     26  H   UNL     1      49.047 126.769  23.505  1.00  0.00     0.312 HD
ENDBRANCH   9  16
TORSDOF 3
ENDMDL
MODEL 5
REMARK VINA RESULT:      -3.5      0.607      1.438
REMARK SMILES N[NH2+][C@@H]1CCC[C@H]2OC=C[C@@]12c1[nH]c2ccccc2[nH+]1
REMARK SMILES IDX 3 1 4 2 5 3 6 4 7 5 8 6 9 7 10 8 11 9 2 10 1 13 12 16 13 17
REMARK SMILES IDX 20 18 14 19 19 20 15 21 18 22 16 23 17 24
REMARK H PARENT 2 11 2 12 1 14 1 15 13 25 20 26
ROOT
ATOM      1  C   UNL     1      44.465 128.878  23.565  1.00  0.00     0.227 C 
ATOM      2  C   UNL     1      43.426 127.788  23.195  1.00  0.00     0.069 C 
ATOM      3  C   UNL     1      41.975 128.134  23.601  1.00  0.00     0.010 C 
ATOM      4  C   UNL     1      41.857 129.443  24.385  1.00  0.00     0.047 C 
ATOM      5  C   UNL     1      42.508 130.603  23.619  1.00  0.00     0.201 C 
ATOM      6  O   UNL     1      42.635 131.722  24.485  1.00  0.00    -0.496 OA
ATOM      7  C   UNL     1      43.950 132.115  24.602  1.00  0.00     0.184 C 
ATOM      8  C   UNL     1      44.747 131.361  23.879  1.00  0.00     0.041 C 
ATOM      9  C   UNL     1      43.973 130.302  23.137  1.00  0.00     0.182 C 
ENDROOT
BRANCH   1  10
ATOM     10  N   UNL     1      45.791 128.554  22.993  1.00  0.00    -0.268 N 
ATOM     11  H   UNL     1      45.982 129.150  22.153  1.00  0.00     0.370 HD
ATOM     12  H   UNL     1      46.551 128.705  23.699  1.00  0.00     0.370 HD
BRANCH  10  13
ATOM     13  N   UNL     1      45.817 127.201  22.592  1.00  0.00    -0.183 NA
ATOM     14  H   UNL     1      46.731 126.782  22.888  1.00  0.00     0.183 HD
ATOM     15  H   UNL     1      45.808 127.174  21.546  1.00  0.00     0.183 HD
ENDBRANCH  10  13
ENDBRANCH   1  10
BRANCH   9  16
ATOM     16  C   UNL     1      44.107 130.507  21.630  1.00  0.00     0.273 A 
ATOM     17  N   UNL     1      45.245 130.242  20.934  1.00  0.00    -0.240 N 
ATOM     18  N   UNL     1      43.153 131.092  20.855  1.00  0.00    -0.240 N 
ATOM     19  C   UNL     1      44.977 130.660  19.686  1.00  0.00     0.171 A 
ATOM     20  C   UNL     1      43.715 131.172  19.639  1.00  0.00     0.171 A 
ATOM     21  C   UNL     1      45.808 130.636  18.569  1.00  0.00     0.056 A 
ATOM     22  C   UNL     1      43.179 131.706  18.470  1.00  0.00     0.056 A 
ATOM     23  C   UNL     1      45.297 131.161  17.367  1.00  0.00     0.005 A 
ATOM     24  C   UNL     1      43.987 131.694  17.318  1.00  0.00     0.005 A 
ATOM     25  H   UNL     1      46.140 129.834  21.281  1.00  0.00     0.312 HD
ATOM     26  H   UNL     1      42.209 131.438  21.133  1.00  0.00     0.312 HD
ENDBRANCH   9  16
TORSDOF 3
ENDMDL
MODEL 6
REMARK VINA RESULT:      -3.4      2.445      5.107
REMARK SMILES N[NH2+][C@@H]1CCC[C@H]2OC=C[C@@]12c1[nH]c2ccccc2[nH+]1
REMARK SMILES IDX 3 1 4 2 5 3 6 4 7 5 8 6 9 7 10 8 11 9 2 10 1 13 12 16 13 17
REMARK SMILES IDX 20 18 14 19 19 20 15 21 18 22 16 23 17 24
REMARK H PARENT 2 11 2 12 1 14 1 15 13 25 20 26
ROOT
ATOM      1  C   UNL     1      44.394 132.170  22.297  1.00  0.00     0.227 C 
ATOM      2  C   UNL     1      42.895 132.291  22.675  1.00  0.00     0.069 C 
ATOM      3  C   UNL     1      41.933 132.248  21.467  1.00  0.00     0.010 C 
ATOM      4  C   UNL     1      42.651 132.199  20.117  1.00  0.00     0.047 C 
ATOM      5  C   UNL     1      43.651 131.035  20.068  1.00  0.00     0.201 C 
ATOM      6  O   UNL     1      44.492 131.187  18.934  1.00  0.00    -0.496 OA
ATOM      7  C   UNL     1      45.818 131.260  19.303  1.00  0.00     0.184 C 
ATOM      8  C   UNL     1      45.964 131.162  20.605  1.00  0.00     0.041 C 
ATOM      9  C   UNL     1      44.634 130.991  21.293  1.00  0.00     0.182 C 
ENDROOT
BRANCH   1  10
ATOM     10  N   UNL     1      45.232 132.044  23.510  1.00  0.00    -0.268 N 
ATOM     11  H   UNL     1      45.928 131.270  23.395  1.00  0.00     0.370 HD
ATOM     12  H   UNL     1      45.745 132.937  23.705  1.00  0.00     0.370 HD
BRANCH  10  13
ATOM     13  N   UNL     1      44.416 131.745  24.622  1.00  0.00    -0.183 NA
ATOM     14  H   UNL     1      43.773 130.960  24.362  1.00  0.00     0.183 HD
ATOM     15  H   UNL     1      43.805 132.574  24.807  1.00  0.00     0.183 HD
ENDBRANCH  10  13
ENDBRANCH   1  10
BRANCH   9  16
ATOM     16  C   UNL     1      44.572 129.639  21.998  1.00  0.00     0.273 A 
ATOM     17  N   UNL     1      45.418 128.609  21.726  1.00  0.00    -0.240 N 
ATOM     18  N   UNL     1      43.591 129.281  22.872  1.00  0.00    -0.240 N 
ATOM     19  C   UNL     1      44.955 127.592  22.469  1.00  0.00     0.171 A 
ATOM     20  C   UNL     1      43.854 127.998  23.160  1.00  0.00     0.171 A 
ATOM     21  C   UNL     1      45.446 126.291  22.556  1.00  0.00     0.056 A 
ATOM     22  C   UNL     1      43.148 127.136  23.997  1.00  0.00     0.056 A 
ATOM     23  C   UNL     1      44.762 125.394  23.398  1.00  0.00     0.005 A 
ATOM     24  C   UNL     1      43.617 125.814  24.115  1.00  0.00     0.005 A 
ATOM     25  H   UNL     1      46.229 128.590  21.069  1.00  0.00     0.312 HD
ATOM     26  H   UNL     1      42.790 129.852  23.221  1.00  0.00     0.312 HD
ENDBRANCH   9  16
TORSDOF 3
ENDMDL
MODEL 7
REMARK VINA RESULT:      -3.0      2.045      5.309
REMARK SMILES N[NH2+][C@@H]1CCC[C@H]2OC=C[C@@]12c1[nH]c2ccccc2[nH+]1
REMARK SMILES IDX 3 1 4 2 5 3 6 4 7 5 8 6 9 7 10 8 11 9 2 10 1 13 12 16 13 17
REMARK SMILES IDX 20 18 14 19 19 20 15 21 18 22 16 23 17 24
REMARK H PARENT 2 11 2 12 1 14 1 15 13 25 20 26
ROOT
ATOM      1  C   UNL     1      43.103 132.293  20.772  1.00  0.00     0.227 C 
ATOM      2  C   UNL     1      42.447 131.634  19.531  1.00  0.00     0.069 C 
ATOM      3  C   UNL     1      43.449 131.226  18.428  1.00  0.00     0.010 C 
ATOM      4  C   UNL     1      44.890 131.646  18.727  1.00  0.00     0.047 C 
ATOM      5  C   UNL     1      45.339 131.128  20.101  1.00  0.00     0.201 C 
ATOM      6  O   UNL     1      46.555 131.765  20.466  1.00  0.00    -0.496 OA
ATOM      7  C   UNL     1      46.422 132.447  21.657  1.00  0.00     0.184 C 
ATOM      8  C   UNL     1      45.211 132.325  22.151  1.00  0.00     0.041 C 
ATOM      9  C   UNL     1      44.342 131.470  21.265  1.00  0.00     0.182 C 
ENDROOT
BRANCH   1  10
ATOM     10  N   UNL     1      42.107 132.495  21.848  1.00  0.00    -0.268 N 
ATOM     11  H   UNL     1      41.752 131.572  22.194  1.00  0.00     0.370 HD
ATOM     12  H   UNL     1      42.524 133.022  22.651  1.00  0.00     0.370 HD
BRANCH  10  13
ATOM     13  N   UNL     1      41.012 133.231  21.348  1.00  0.00    -0.183 NA
ATOM     14  H   UNL     1      40.455 132.611  20.714  1.00  0.00     0.183 HD
ATOM     15  H   UNL     1      41.388 134.002  20.748  1.00  0.00     0.183 HD
ENDBRANCH  10  13
ENDBRANCH   1  10
BRANCH   9  16
ATOM     16  C   UNL     1      43.910 130.207  22.006  1.00  0.00     0.273 A 
ATOM     17  N   UNL     1      42.664 130.025  22.518  1.00  0.00    -0.240 N 
ATOM     18  N   UNL     1      44.758 129.196  22.343  1.00  0.00    -0.240 N 
ATOM     19  C   UNL     1      42.740 128.856  23.174  1.00  0.00     0.171 A 
ATOM     20  C   UNL     1      44.003 128.357  23.068  1.00  0.00     0.171 A 
ATOM     21  C   UNL     1      41.745 128.203  23.897  1.00  0.00     0.056 A 
ATOM     22  C   UNL     1      44.378 127.161  23.676  1.00  0.00     0.056 A 
ATOM     23  C   UNL     1      42.086 126.987  24.520  1.00  0.00     0.005 A 
ATOM     24  C   UNL     1      43.398 126.468  24.411  1.00  0.00     0.005 A 
ATOM     25  H   UNL     1      41.834 130.654  22.451  1.00  0.00     0.312 HD
ATOM     26  H   UNL     1      45.774 129.097  22.125  1.00  0.00     0.312 HD
ENDBRANCH   9  16
TORSDOF 3
ENDMDL
MODEL 8
REMARK VINA RESULT:      -2.8      2.015      5.443
REMARK SMILES N[NH2+][C@@H]1CCC[C@H]2OC=C[C@@]12c1[nH]c2ccccc2[nH+]1
REMARK SMILES IDX 3 1 4 2 5 3 6 4 7 5 8 6 9 7 10 8 11 9 2 10 1 13 12 16 13 17
REMARK SMILES IDX 20 18 14 19 19 20 15 21 18 22 16 23 17 24
REMARK H PARENT 2 11 2 12 1 14 1 15 13 25 20 26
ROOT
ATOM      1  C   UNL     1      43.104 132.337  20.639  1.00  0.00     0.227 C 
ATOM      2  C   UNL     1      42.444 131.578  19.458  1.00  0.00     0.069 C 
ATOM      3  C   UNL     1      43.446 131.048  18.408  1.00  0.00     0.010 C 
ATOM      4  C   UNL     1      44.893 131.465  18.681  1.00  0.00     0.047 C 
ATOM      5  C   UNL     1      45.320 131.069  20.101  1.00  0.00     0.201 C 
ATOM      6  O   UNL     1      46.546 131.713  20.418  1.00  0.00    -0.496 OA
ATOM      7  C   UNL     1      46.418 132.505  21.538  1.00  0.00     0.184 C 
ATOM      8  C   UNL     1      45.201 132.455  22.030  1.00  0.00     0.041 C 
ATOM      9  C   UNL     1      44.321 131.538  21.219  1.00  0.00     0.182 C 
ENDROOT
BRANCH   1  10
ATOM     10  N   UNL     1      42.103 132.658  21.681  1.00  0.00    -0.268 N 
ATOM     11  H   UNL     1      41.808 131.787  22.184  1.00  0.00     0.370 HD
ATOM     12  H   UNL     1      42.491 133.338  22.377  1.00  0.00     0.370 HD
BRANCH  10  13
ATOM     13  N   UNL     1      40.962 133.232  21.082  1.00  0.00    -0.183 NA
ATOM     14  H   UNL     1      40.416 133.737  21.820  1.00  0.00     0.183 HD
ATOM     15  H   UNL     1      40.348 132.454  20.745  1.00  0.00     0.183 HD
ENDBRANCH  10  13
ENDBRANCH   1  10
BRANCH   9  16
ATOM     16  C   UNL     1      43.857 130.359  22.070  1.00  0.00     0.273 A 
ATOM     17  N   UNL     1      44.630 129.270  22.331  1.00  0.00    -0.240 N 
ATOM     18  N   UNL     1      42.589 130.216  22.545  1.00  0.00    -0.240 N 
ATOM     19  C   UNL     1      43.818 128.439  23.003  1.00  0.00     0.171 A 
ATOM     20  C   UNL     1      42.588 129.010  23.132  1.00  0.00     0.171 A 
ATOM     21  C   UNL     1      44.099 127.168  23.499  1.00  0.00     0.056 A 
ATOM     22  C   UNL     1      41.534 128.358  23.768  1.00  0.00     0.056 A 
ATOM     23  C   UNL     1      43.060 126.481  24.154  1.00  0.00     0.005 A 
ATOM     24  C   UNL     1      41.782 127.073  24.288  1.00  0.00     0.005 A 
ATOM     25  H   UNL     1      45.620 129.093  22.053  1.00  0.00     0.312 HD
ATOM     26  H   UNL     1      41.781 130.870  22.452  1.00  0.00     0.312 HD
ENDBRANCH   9  16
TORSDOF 3
ENDMDL
MODEL 9
REMARK VINA RESULT:      -2.8      4.021      7.587
REMARK SMILES N[NH2+][C@@H]1CCC[C@H]2OC=C[C@@]12c1[nH]c2ccccc2[nH+]1
REMARK SMILES IDX 3 1 4 2 5 3 6 4 7 5 8 6 9 7 10 8 11 9 2 10 1 13 12 16 13 17
REMARK SMILES IDX 20 18 14 19 19 20 15 21 18 22 16 23 17 24
REMARK H PARENT 2 11 2 12 1 14 1 15 13 25 20 26
ROOT
ATOM      1  C   UNL     1      45.706 129.286  14.958  1.00  0.00     0.227 C 
ATOM      2  C   UNL     1      47.251 129.391  15.049  1.00  0.00     0.069 C 
ATOM      3  C   UNL     1      47.843 130.628  14.338  1.00  0.00     0.010 C 
ATOM      4  C   UNL     1      46.799 131.459  13.589  1.00  0.00     0.047 C 
ATOM      5  C   UNL     1      45.644 131.857  14.518  1.00  0.00     0.201 C 
ATOM      6  O   UNL     1      44.573 132.370  13.739  1.00  0.00    -0.496 OA
ATOM      7  C   UNL     1      43.420 131.640  13.934  1.00  0.00     0.184 C 
ATOM      8  C   UNL     1      43.605 130.665  14.794  1.00  0.00     0.041 C 
ATOM      9  C   UNL     1      45.021 130.651  15.309  1.00  0.00     0.182 C 
ENDROOT
BRANCH   1  10
ATOM     10  N   UNL     1      45.205 128.180  15.805  1.00  0.00    -0.268 N 
ATOM     11  H   UNL     1      45.983 127.517  16.038  1.00  0.00     0.370 HD
ATOM     12  H   UNL     1      44.791 128.546  16.694  1.00  0.00     0.370 HD
BRANCH  10  13
ATOM     13  N   UNL     1      44.207 127.465  15.108  1.00  0.00    -0.183 NA
ATOM     14  H   UNL     1      43.277 127.688  15.535  1.00  0.00     0.183 HD
ATOM     15  H   UNL     1      44.367 126.443  15.273  1.00  0.00     0.183 HD
ENDBRANCH  10  13
ENDBRANCH   1  10
BRANCH   9  16
ATOM     16  C   UNL     1      45.041 130.912  16.812  1.00  0.00     0.273 A 
ATOM     17  N   UNL     1      45.923 130.326  17.666  1.00  0.00    -0.240 N 
ATOM     18  N   UNL     1      44.105 131.652  17.468  1.00  0.00    -0.240 N 
ATOM     19  C   UNL     1      45.530 130.732  18.883  1.00  0.00     0.171 A 
ATOM     20  C   UNL     1      44.433 131.533  18.763  1.00  0.00     0.171 A 
ATOM     21  C   UNL     1      46.079 130.412  20.122  1.00  0.00     0.056 A 
ATOM     22  C   UNL     1      43.793 132.079  19.873  1.00  0.00     0.056 A 
ATOM     23  C   UNL     1      45.463 130.953  21.267  1.00  0.00     0.005 A 
ATOM     24  C   UNL     1      44.324 131.783  21.143  1.00  0.00     0.005 A 
ATOM     25  H   UNL     1      46.713 129.681  17.444  1.00  0.00     0.312 HD
ATOM     26  H   UNL     1      43.291 132.172  17.073  1.00  0.00     0.312 HD
ENDBRANCH   9  16
TORSDOF 3
ENDMDL


