MODEL 1
REMARK VINA RESULT:      -7.9      0.000      0.000
REMARK SMILES N[NH2+]c1cc(C(=O)[C@H]2O[C@@H]2c2ccc(Cl)c(F)c2)ccc1F
REMARK SMILES IDX 3 1 4 2 5 3 19 4 20 5 21 6 22 7 2 8 1 11 6 14 7 15 8 16 9 17
REMARK SMILES IDX 10 18 11 19 12 20 18 21 13 22 16 23 14 24 17 25 15 26
REMARK H PARENT 2 9 2 10 1 12 1 13
ROOT
ATOM      1  C   UNL     1      43.053 131.297  22.448  1.00  0.00     0.185 A 
ATOM      2  C   UNL     1      42.469 131.473  21.181  1.00  0.00     0.084 A 
ATOM      3  C   UNL     1      43.266 131.618  20.031  1.00  0.00     0.027 A 
ATOM      4  C   UNL     1      44.664 131.588  20.167  1.00  0.00     0.015 A 
ATOM      5  C   UNL     1      45.252 131.399  21.420  1.00  0.00     0.046 A 
ATOM      6  C   UNL     1      44.454 131.244  22.556  1.00  0.00     0.185 A 
ATOM      7  F   UNL     1      45.046 131.041  23.760  1.00  0.00    -0.200 F 
ENDROOT
BRANCH   1   8
ATOM      8  N   UNL     1      42.220 131.111  23.608  1.00  0.00    -0.237 N 
ATOM      9  H   UNL     1      41.393 131.754  23.587  1.00  0.00     0.376 HD
ATOM     10  H   UNL     1      42.767 131.304  24.480  1.00  0.00     0.376 HD
BRANCH   8  11
ATOM     11  N   UNL     1      41.778 129.773  23.633  1.00  0.00    -0.178 NA
ATOM     12  H   UNL     1      40.739 129.765  23.491  1.00  0.00     0.183 HD
ATOM     13  H   UNL     1      41.944 129.397  24.596  1.00  0.00     0.183 HD
ENDBRANCH   8  11
ENDBRANCH   1   8
BRANCH   3  14
ATOM     14  C   UNL     1      42.651 131.796  18.691  1.00  0.00     0.194 C 
ATOM     15  O   UNL     1      41.545 132.392  18.581  1.00  0.00    -0.291 OA
BRANCH  14  16
ATOM     16  C   UNL     1      43.313 131.266  17.453  1.00  0.00     0.224 C 
ATOM     17  O   UNL     1      43.250 132.189  16.391  1.00  0.00    -0.356 OA
ATOM     18  C   UNL     1      44.509 132.022  17.005  1.00  0.00     0.186 C 
BRANCH  18  19
ATOM     19  C   UNL     1      45.465 131.267  16.130  1.00  0.00    -0.013 A 
ATOM     20  C   UNL     1      46.213 130.209  16.666  1.00  0.00     0.008 A 
ATOM     21  C   UNL     1      45.671 131.651  14.795  1.00  0.00     0.047 A 
ATOM     22  C   UNL     1      47.133 129.520  15.868  1.00  0.00     0.024 A 
ATOM     23  C   UNL     1      46.590 130.962  13.997  1.00  0.00     0.142 A 
ATOM     24  C   UNL     1      47.321 129.893  14.533  1.00  0.00     0.076 A 
ATOM     25  F   UNL     1      46.773 131.339  12.707  1.00  0.00    -0.205 F 
ATOM     26  Cl  UNL     1      48.480 129.025  13.541  1.00  0.00    -0.081 Cl
ENDBRANCH  18  19
ENDBRANCH  14  16
ENDBRANCH   3  14
TORSDOF 5
ENDMDL
MODEL 2
REMARK VINA RESULT:      -7.3      2.505      3.101
REMARK SMILES N[NH2+]c1cc(C(=O)[C@H]2O[C@@H]2c2ccc(Cl)c(F)c2)ccc1F
REMARK SMILES IDX 3 1 4 2 5 3 19 4 20 5 21 6 22 7 2 8 1 11 6 14 7 15 8 16 9 17
REMARK SMILES IDX 10 18 11 19 12 20 18 21 13 22 16 23 14 24 17 25 15 26
REMARK H PARENT 2 9 2 10 1 12 1 13
ROOT
ATOM      1  C   UNL     1      44.539 128.519  22.809  1.00  0.00     0.185 A 
ATOM      2  C   UNL     1      45.230 129.374  21.934  1.00  0.00     0.084 A 
ATOM      3  C   UNL     1      44.669 130.598  21.527  1.00  0.00     0.027 A 
ATOM      4  C   UNL     1      43.398 130.955  22.008  1.00  0.00     0.015 A 
ATOM      5  C   UNL     1      42.712 130.117  22.890  1.00  0.00     0.046 A 
ATOM      6  C   UNL     1      43.280 128.908  23.299  1.00  0.00     0.185 A 
ATOM      7  F   UNL     1      42.605 128.120  24.173  1.00  0.00    -0.200 F 
ENDROOT
BRANCH   1   8
ATOM      8  N   UNL     1      45.147 127.287  23.246  1.00  0.00    -0.237 N 
ATOM      9  H   UNL     1      45.957 127.028  22.633  1.00  0.00     0.376 HD
ATOM     10  H   UNL     1      44.447 126.509  23.218  1.00  0.00     0.376 HD
BRANCH   8  11
ATOM     11  N   UNL     1      45.593 127.453  24.573  1.00  0.00    -0.178 NA
ATOM     12  H   UNL     1      45.436 126.555  25.089  1.00  0.00     0.183 HD
ATOM     13  H   UNL     1      44.980 128.167  25.032  1.00  0.00     0.183 HD
ENDBRANCH   8  11
ENDBRANCH   1   8
BRANCH   3  14
ATOM     14  C   UNL     1      45.400 131.508  20.608  1.00  0.00     0.194 C 
ATOM     15  O   UNL     1      45.521 132.729  20.896  1.00  0.00    -0.291 OA
BRANCH  14  16
ATOM     16  C   UNL     1      45.993 131.006  19.324  1.00  0.00     0.224 C 
ATOM     17  O   UNL     1      45.375 129.815  18.893  1.00  0.00    -0.356 OA
ATOM     18  C   UNL     1      45.064 130.984  18.167  1.00  0.00     0.186 C 
BRANCH  18  19
ATOM     19  C   UNL     1      45.712 130.993  16.814  1.00  0.00    -0.013 A 
ATOM     20  C   UNL     1      45.820 132.195  16.100  1.00  0.00     0.008 A 
ATOM     21  C   UNL     1      46.152 129.797  16.223  1.00  0.00     0.047 A 
ATOM     22  C   UNL     1      46.391 132.208  14.823  1.00  0.00     0.024 A 
ATOM     23  C   UNL     1      46.723 129.811  14.945  1.00  0.00     0.142 A 
ATOM     24  C   UNL     1      46.845 131.017  14.245  1.00  0.00     0.076 A 
ATOM     25  F   UNL     1      47.150 128.649  14.390  1.00  0.00    -0.205 F 
ATOM     26  Cl  UNL     1      47.557 131.044  12.640  1.00  0.00    -0.081 Cl
ENDBRANCH  18  19
ENDBRANCH  14  16
ENDBRANCH   3  14
TORSDOF 5
ENDMDL
MODEL 3
REMARK VINA RESULT:      -7.3      1.766      2.160
REMARK SMILES N[NH2+]c1cc(C(=O)[C@H]2O[C@@H]2c2ccc(Cl)c(F)c2)ccc1F
REMARK SMILES IDX 3 1 4 2 5 3 19 4 20 5 21 6 22 7 2 8 1 11 6 14 7 15 8 16 9 17
REMARK SMILES IDX 10 18 11 19 12 20 18 21 13 22 16 23 14 24 17 25 15 26
REMARK H PARENT 2 9 2 10 1 12 1 13
ROOT
ATOM      1  C   UNL     1      45.317 131.738  21.156  1.00  0.00     0.185 A 
ATOM      2  C   UNL     1      44.869 131.874  19.831  1.00  0.00     0.084 A 
ATOM      3  C   UNL     1      43.513 131.691  19.504  1.00  0.00     0.027 A 
ATOM      4  C   UNL     1      42.607 131.363  20.528  1.00  0.00     0.015 A 
ATOM      5  C   UNL     1      43.043 131.240  21.849  1.00  0.00     0.046 A 
ATOM      6  C   UNL     1      44.388 131.436  22.168  1.00  0.00     0.185 A 
ATOM      7  F   UNL     1      44.785 131.333  23.461  1.00  0.00    -0.200 F 
ENDROOT
BRANCH   1   8
ATOM      8  N   UNL     1      46.703 131.969  21.478  1.00  0.00    -0.237 N 
ATOM      9  H   UNL     1      47.334 131.449  20.823  1.00  0.00     0.376 HD
ATOM     10  H   UNL     1      46.904 131.651  22.455  1.00  0.00     0.376 HD
BRANCH   8  11
ATOM     11  N   UNL     1      46.961 133.352  21.384  1.00  0.00    -0.178 NA
ATOM     12  H   UNL     1      47.992 133.504  21.494  1.00  0.00     0.183 HD
ATOM     13  H   UNL     1      46.507 133.820  22.203  1.00  0.00     0.183 HD
ENDBRANCH   8  11
ENDBRANCH   1   8
BRANCH   3  14
ATOM     14  C   UNL     1      43.035 131.842  18.106  1.00  0.00     0.194 C 
ATOM     15  O   UNL     1      42.032 132.564  17.859  1.00  0.00    -0.291 OA
BRANCH  14  16
ATOM     16  C   UNL     1      43.716 131.137  16.970  1.00  0.00     0.224 C 
ATOM     17  O   UNL     1      43.361 131.690  15.724  1.00  0.00    -0.356 OA
ATOM     18  C   UNL     1      44.664 131.970  16.188  1.00  0.00     0.186 C 
BRANCH  18  19
ATOM     19  C   UNL     1      45.708 131.217  15.418  1.00  0.00    -0.013 A 
ATOM     20  C   UNL     1      46.267 130.051  15.960  1.00  0.00     0.008 A 
ATOM     21  C   UNL     1      46.183 131.705  14.190  1.00  0.00     0.047 A 
ATOM     22  C   UNL     1      47.266 129.360  15.266  1.00  0.00     0.024 A 
ATOM     23  C   UNL     1      47.183 131.014  13.497  1.00  0.00     0.142 A 
ATOM     24  C   UNL     1      47.723 129.839  14.033  1.00  0.00     0.076 A 
ATOM     25  F   UNL     1      47.627 131.493  12.308  1.00  0.00    -0.205 F 
ATOM     26  Cl  UNL     1      48.981 128.966  13.173  1.00  0.00    -0.081 Cl
ENDBRANCH  18  19
ENDBRANCH  14  16
ENDBRANCH   3  14
TORSDOF 5
ENDMDL
MODEL 4
REMARK VINA RESULT:      -7.1      2.250      2.752
REMARK SMILES N[NH2+]c1cc(C(=O)[C@H]2O[C@@H]2c2ccc(Cl)c(F)c2)ccc1F
REMARK SMILES IDX 3 1 4 2 5 3 19 4 20 5 21 6 22 7 2 8 1 11 6 14 7 15 8 16 9 17
REMARK SMILES IDX 10 18 11 19 12 20 18 21 13 22 16 23 14 24 17 25 15 26
REMARK H PARENT 2 9 2 10 1 12 1 13
ROOT
ATOM      1  C   UNL     1      44.794 128.911  22.404  1.00  0.00     0.185 A 
ATOM      2  C   UNL     1      44.922 129.717  21.259  1.00  0.00     0.084 A 
ATOM      3  C   UNL     1      44.230 130.937  21.153  1.00  0.00     0.027 A 
ATOM      4  C   UNL     1      43.399 131.340  22.213  1.00  0.00     0.015 A 
ATOM      5  C   UNL     1      43.278 130.552  23.359  1.00  0.00     0.046 A 
ATOM      6  C   UNL     1      43.978 129.347  23.463  1.00  0.00     0.185 A 
ATOM      7  F   UNL     1      43.861 128.607  24.594  1.00  0.00    -0.200 F 
ENDROOT
BRANCH   1   8
ATOM      8  N   UNL     1      45.541 127.684  22.511  1.00  0.00    -0.237 N 
ATOM      9  H   UNL     1      45.724 127.440  23.514  1.00  0.00     0.376 HD
ATOM     10  H   UNL     1      46.461 127.776  22.019  1.00  0.00     0.376 HD
BRANCH   8  11
ATOM     11  N   UNL     1      44.798 126.652  21.902  1.00  0.00    -0.178 NA
ATOM     12  H   UNL     1      45.467 125.926  21.551  1.00  0.00     0.183 HD
ATOM     13  H   UNL     1      44.327 127.050  21.057  1.00  0.00     0.183 HD
ENDBRANCH   8  11
ENDBRANCH   1   8
BRANCH   3  14
ATOM     14  C   UNL     1      44.370 131.794  19.948  1.00  0.00     0.194 C 
ATOM     15  O   UNL     1      43.614 132.791  19.795  1.00  0.00    -0.291 OA
BRANCH  14  16
ATOM     16  C   UNL     1      45.392 131.492  18.892  1.00  0.00     0.224 C 
ATOM     17  O   UNL     1      45.651 130.110  18.795  1.00  0.00    -0.356 OA
ATOM     18  C   UNL     1      44.897 130.685  17.749  1.00  0.00     0.186 C 
BRANCH  18  19
ATOM     19  C   UNL     1      45.692 130.798  16.482  1.00  0.00    -0.013 A 
ATOM     20  C   UNL     1      45.796 132.037  15.832  1.00  0.00     0.008 A 
ATOM     21  C   UNL     1      46.279 129.662  15.900  1.00  0.00     0.047 A 
ATOM     22  C   UNL     1      46.505 132.146  14.632  1.00  0.00     0.024 A 
ATOM     23  C   UNL     1      46.989 129.772  14.699  1.00  0.00     0.142 A 
ATOM     24  C   UNL     1      47.105 131.015  14.065  1.00  0.00     0.076 A 
ATOM     25  F   UNL     1      47.556 128.668  14.153  1.00  0.00    -0.205 F 
ATOM     26  Cl  UNL     1      47.990 131.163  12.556  1.00  0.00    -0.081 Cl
ENDBRANCH  18  19
ENDBRANCH  14  16
ENDBRANCH   3  14
TORSDOF 5
ENDMDL
MODEL 5
REMARK VINA RESULT:      -7.0      3.215      4.191
REMARK SMILES N[NH2+]c1cc(C(=O)[C@H]2O[C@@H]2c2ccc(Cl)c(F)c2)ccc1F
REMARK SMILES IDX 3 1 4 2 5 3 19 4 20 5 21 6 22 7 2 8 1 11 6 14 7 15 8 16 9 17
REMARK SMILES IDX 10 18 11 19 12 20 18 21 13 22 16 23 14 24 17 25 15 26
REMARK H PARENT 2 9 2 10 1 12 1 13
ROOT
ATOM      1  C   UNL     1      44.752 127.513  23.079  1.00  0.00     0.185 A 
ATOM      2  C   UNL     1      44.533 128.781  22.515  1.00  0.00     0.084 A 
ATOM      3  C   UNL     1      43.414 129.552  22.879  1.00  0.00     0.027 A 
ATOM      4  C   UNL     1      42.508 129.029  23.818  1.00  0.00     0.015 A 
ATOM      5  C   UNL     1      42.727 127.776  24.395  1.00  0.00     0.046 A 
ATOM      6  C   UNL     1      43.846 127.022  24.037  1.00  0.00     0.185 A 
ATOM      7  F   UNL     1      44.050 125.816  24.625  1.00  0.00    -0.200 F 
ENDROOT
BRANCH   1   8
ATOM      8  N   UNL     1      45.925 126.756  22.723  1.00  0.00    -0.237 N 
ATOM      9  H   UNL     1      46.517 127.278  22.034  1.00  0.00     0.376 HD
ATOM     10  H   UNL     1      45.648 125.840  22.296  1.00  0.00     0.376 HD
BRANCH   8  11
ATOM     11  N   UNL     1      46.671 126.508  23.894  1.00  0.00    -0.178 NA
ATOM     12  H   UNL     1      46.510 125.514  24.184  1.00  0.00     0.183 HD
ATOM     13  H   UNL     1      46.277 127.104  24.658  1.00  0.00     0.183 HD
ENDBRANCH   8  11
ENDBRANCH   1   8
BRANCH   3  14
ATOM     14  C   UNL     1      43.184 130.895  22.290  1.00  0.00     0.194 C 
ATOM     15  O   UNL     1      43.016 131.892  23.044  1.00  0.00    -0.291 OA
BRANCH  14  16
ATOM     16  C   UNL     1      43.134 131.096  20.804  1.00  0.00     0.224 C 
ATOM     17  O   UNL     1      43.209 132.460  20.458  1.00  0.00    -0.356 OA
ATOM     18  C   UNL     1      44.360 131.683  20.205  1.00  0.00     0.186 C 
BRANCH  18  19
ATOM     19  C   UNL     1      44.553 131.427  18.740  1.00  0.00    -0.013 A 
ATOM     20  C   UNL     1      43.577 131.845  17.824  1.00  0.00     0.008 A 
ATOM     21  C   UNL     1      45.670 130.711  18.279  1.00  0.00     0.047 A 
ATOM     22  C   UNL     1      43.730 131.580  16.460  1.00  0.00     0.024 A 
ATOM     23  C   UNL     1      45.823 130.446  16.914  1.00  0.00     0.142 A 
ATOM     24  C   UNL     1      44.854 130.883  16.002  1.00  0.00     0.076 A 
ATOM     25  F   UNL     1      46.911 129.759  16.482  1.00  0.00    -0.205 F 
ATOM     26  Cl  UNL     1      45.035 130.553  14.287  1.00  0.00    -0.081 Cl
ENDBRANCH  18  19
ENDBRANCH  14  16
ENDBRANCH   3  14
TORSDOF 5
ENDMDL
MODEL 6
REMARK VINA RESULT:      -6.8      1.475      1.748
REMARK SMILES N[NH2+]c1cc(C(=O)[C@H]2O[C@@H]2c2ccc(Cl)c(F)c2)ccc1F
REMARK SMILES IDX 3 1 4 2 5 3 19 4 20 5 21 6 22 7 2 8 1 11 6 14 7 15 8 16 9 17
REMARK SMILES IDX 10 18 11 19 12 20 18 21 13 22 16 23 14 24 17 25 15 26
REMARK H PARENT 2 9 2 10 1 12 1 13
ROOT
ATOM      1  C   UNL     1      44.269 130.496  21.941  1.00  0.00     0.185 A 
ATOM      2  C   UNL     1      43.881 130.789  20.623  1.00  0.00     0.084 A 
ATOM      3  C   UNL     1      42.872 131.734  20.359  1.00  0.00     0.027 A 
ATOM      4  C   UNL     1      42.251 132.381  21.441  1.00  0.00     0.015 A 
ATOM      5  C   UNL     1      42.641 132.105  22.753  1.00  0.00     0.046 A 
ATOM      6  C   UNL     1      43.652 131.175  23.006  1.00  0.00     0.185 A 
ATOM      7  F   UNL     1      44.030 130.938  24.288  1.00  0.00    -0.200 F 
ENDROOT
BRANCH   1   8
ATOM      8  N   UNL     1      45.331 129.554  22.189  1.00  0.00    -0.237 N 
ATOM      9  H   UNL     1      44.949 128.614  22.450  1.00  0.00     0.376 HD
ATOM     10  H   UNL     1      45.939 129.894  22.972  1.00  0.00     0.376 HD
BRANCH   8  11
ATOM     11  N   UNL     1      46.111 129.440  21.021  1.00  0.00    -0.178 NA
ATOM     12  H   UNL     1      47.087 129.179  21.298  1.00  0.00     0.183 HD
ATOM     13  H   UNL     1      46.174 130.388  20.582  1.00  0.00     0.183 HD
ENDBRANCH   8  11
ENDBRANCH   1   8
BRANCH   3  14
ATOM     14  C   UNL     1      42.466 132.052  18.967  1.00  0.00     0.194 C 
ATOM     15  O   UNL     1      41.563 132.907  18.755  1.00  0.00    -0.291 OA
BRANCH  14  16
ATOM     16  C   UNL     1      43.100 131.364  17.794  1.00  0.00     0.224 C 
ATOM     17  O   UNL     1      42.778 132.000  16.578  1.00  0.00    -0.356 OA
ATOM     18  C   UNL     1      44.096 132.175  17.050  1.00  0.00     0.186 C 
BRANCH  18  19
ATOM     19  C   UNL     1      45.091 131.398  16.239  1.00  0.00    -0.013 A 
ATOM     20  C   UNL     1      45.927 130.465  16.869  1.00  0.00     0.008 A 
ATOM     21  C   UNL     1      45.242 131.644  14.865  1.00  0.00     0.047 A 
ATOM     22  C   UNL     1      46.881 129.761  16.127  1.00  0.00     0.024 A 
ATOM     23  C   UNL     1      46.197 130.940  14.124  1.00  0.00     0.142 A 
ATOM     24  C   UNL     1      47.016 129.994  14.754  1.00  0.00     0.076 A 
ATOM     25  F   UNL     1      46.327 131.182  12.795  1.00  0.00    -0.205 F 
ATOM     26  Cl  UNL     1      48.220 129.108  13.834  1.00  0.00    -0.081 Cl
ENDBRANCH  18  19
ENDBRANCH  14  16
ENDBRANCH   3  14
TORSDOF 5
ENDMDL
MODEL 7
REMARK VINA RESULT:      -6.7      3.115      3.858
REMARK SMILES N[NH2+]c1cc(C(=O)[C@H]2O[C@@H]2c2ccc(Cl)c(F)c2)ccc1F
REMARK SMILES IDX 3 1 4 2 5 3 19 4 20 5 21 6 22 7 2 8 1 11 6 14 7 15 8 16 9 17
REMARK SMILES IDX 10 18 11 19 12 20 18 21 13 22 16 23 14 24 17 25 15 26
REMARK H PARENT 2 9 2 10 1 12 1 13
ROOT
ATOM      1  C   UNL     1      44.997 127.574  22.917  1.00  0.00     0.185 A 
ATOM      2  C   UNL     1      44.792 128.798  22.257  1.00  0.00     0.084 A 
ATOM      3  C   UNL     1      43.711 129.631  22.597  1.00  0.00     0.027 A 
ATOM      4  C   UNL     1      42.829 129.217  23.611  1.00  0.00     0.015 A 
ATOM      5  C   UNL     1      43.034 128.009  24.281  1.00  0.00     0.046 A 
ATOM      6  C   UNL     1      44.117 127.193  23.946  1.00  0.00     0.185 A 
ATOM      7  F   UNL     1      44.308 126.034  24.624  1.00  0.00    -0.200 F 
ENDROOT
BRANCH   1   8
ATOM      8  N   UNL     1      46.132 126.752  22.582  1.00  0.00    -0.237 N 
ATOM      9  H   UNL     1      46.756 126.613  23.413  1.00  0.00     0.376 HD
ATOM     10  H   UNL     1      46.691 127.203  21.820  1.00  0.00     0.376 HD
BRANCH   8  11
ATOM     11  N   UNL     1      45.664 125.503  22.129  1.00  0.00    -0.178 NA
ATOM     12  H   UNL     1      46.491 124.911  21.877  1.00  0.00     0.183 HD
ATOM     13  H   UNL     1      45.134 125.661  21.240  1.00  0.00     0.183 HD
ENDBRANCH   8  11
ENDBRANCH   1   8
BRANCH   3  14
ATOM     14  C   UNL     1      43.498 130.929  21.907  1.00  0.00     0.194 C 
ATOM     15  O   UNL     1      43.359 131.984  22.582  1.00  0.00    -0.291 OA
BRANCH  14  16
ATOM     16  C   UNL     1      43.429 131.013  20.411  1.00  0.00     0.224 C 
ATOM     17  O   UNL     1      43.328 132.346  19.966  1.00  0.00    -0.356 OA
ATOM     18  C   UNL     1      44.571 131.709  19.766  1.00  0.00     0.186 C 
BRANCH  18  19
ATOM     19  C   UNL     1      44.803 131.374  18.322  1.00  0.00    -0.013 A 
ATOM     20  C   UNL     1      45.945 130.652  17.948  1.00  0.00     0.008 A 
ATOM     21  C   UNL     1      43.923 131.836  17.329  1.00  0.00     0.047 A 
ATOM     22  C   UNL     1      46.189 130.365  16.601  1.00  0.00     0.024 A 
ATOM     23  C   UNL     1      44.168 131.549  15.982  1.00  0.00     0.142 A 
ATOM     24  C   UNL     1      45.300 130.810  15.617  1.00  0.00     0.076 A 
ATOM     25  F   UNL     1      43.305 131.996  15.034  1.00  0.00    -0.205 F 
ATOM     26  Cl  UNL     1      45.617 130.448  13.929  1.00  0.00    -0.081 Cl
ENDBRANCH  18  19
ENDBRANCH  14  16
ENDBRANCH   3  14
TORSDOF 5
ENDMDL
MODEL 8
REMARK VINA RESULT:      -6.6      3.340      4.357
REMARK SMILES N[NH2+]c1cc(C(=O)[C@H]2O[C@@H]2c2ccc(Cl)c(F)c2)ccc1F
REMARK SMILES IDX 3 1 4 2 5 3 19 4 20 5 21 6 22 7 2 8 1 11 6 14 7 15 8 16 9 17
REMARK SMILES IDX 10 18 11 19 12 20 18 21 13 22 16 23 14 24 17 25 15 26
REMARK H PARENT 2 9 2 10 1 12 1 13
ROOT
ATOM      1  C   UNL     1      42.232 127.421  23.748  1.00  0.00     0.185 A 
ATOM      2  C   UNL     1      42.476 128.794  23.575  1.00  0.00     0.084 A 
ATOM      3  C   UNL     1      43.746 129.260  23.189  1.00  0.00     0.027 A 
ATOM      4  C   UNL     1      44.776 128.326  22.982  1.00  0.00     0.015 A 
ATOM      5  C   UNL     1      44.537 126.959  23.137  1.00  0.00     0.046 A 
ATOM      6  C   UNL     1      43.270 126.504  23.509  1.00  0.00     0.185 A 
ATOM      7  F   UNL     1      43.055 125.170  23.634  1.00  0.00    -0.200 F 
ENDROOT
BRANCH   1   8
ATOM      8  N   UNL     1      40.914 126.960  24.105  1.00  0.00    -0.237 N 
ATOM      9  H   UNL     1      40.613 127.355  25.028  1.00  0.00     0.376 HD
ATOM     10  H   UNL     1      40.903 125.915  24.172  1.00  0.00     0.376 HD
BRANCH   8  11
ATOM     11  N   UNL     1      40.010 127.364  23.102  1.00  0.00    -0.178 NA
ATOM     12  H   UNL     1      39.458 126.527  22.798  1.00  0.00     0.183 HD
ATOM     13  H   UNL     1      40.568 127.665  22.269  1.00  0.00     0.183 HD
ENDBRANCH   8  11
ENDBRANCH   1   8
BRANCH   3  14
ATOM     14  C   UNL     1      44.004 130.710  22.998  1.00  0.00     0.194 C 
ATOM     15  O   UNL     1      44.107 131.468  24.001  1.00  0.00    -0.291 OA
BRANCH  14  16
ATOM     16  C   UNL     1      44.134 131.304  21.626  1.00  0.00     0.224 C 
ATOM     17  O   UNL     1      45.371 131.956  21.454  1.00  0.00    -0.356 OA
ATOM     18  C   UNL     1      45.212 130.722  20.787  1.00  0.00     0.186 C 
BRANCH  18  19
ATOM     19  C   UNL     1      45.050 130.902  19.307  1.00  0.00    -0.013 A 
ATOM     20  C   UNL     1      43.901 131.529  18.802  1.00  0.00     0.008 A 
ATOM     21  C   UNL     1      46.004 130.388  18.414  1.00  0.00     0.047 A 
ATOM     22  C   UNL     1      43.724 131.670  17.422  1.00  0.00     0.024 A 
ATOM     23  C   UNL     1      45.826 130.530  17.033  1.00  0.00     0.142 A 
ATOM     24  C   UNL     1      44.686 131.174  16.536  1.00  0.00     0.076 A 
ATOM     25  F   UNL     1      46.760 130.035  16.183  1.00  0.00    -0.205 F 
ATOM     26  Cl  UNL     1      44.452 131.353  14.805  1.00  0.00    -0.081 Cl
ENDBRANCH  18  19
ENDBRANCH  14  16
ENDBRANCH   3  14
TORSDOF 5
ENDMDL
MODEL 9
REMARK VINA RESULT:      -6.5      1.791      2.210
REMARK SMILES N[NH2+]c1cc(C(=O)[C@H]2O[C@@H]2c2ccc(Cl)c(F)c2)ccc1F
REMARK SMILES IDX 3 1 4 2 5 3 19 4 20 5 21 6 22 7 2 8 1 11 6 14 7 15 8 16 9 17
REMARK SMILES IDX 10 18 11 19 12 20 18 21 13 22 16 23 14 24 17 25 15 26
REMARK H PARENT 2 9 2 10 1 12 1 13
ROOT
ATOM      1  C   UNL     1      43.780 129.819  23.021  1.00  0.00     0.185 A 
ATOM      2  C   UNL     1      44.520 130.309  21.932  1.00  0.00     0.084 A 
ATOM      3  C   UNL     1      44.090 131.442  21.216  1.00  0.00     0.027 A 
ATOM      4  C   UNL     1      42.899 132.078  21.607  1.00  0.00     0.015 A 
ATOM      5  C   UNL     1      42.166 131.605  22.697  1.00  0.00     0.046 A 
ATOM      6  C   UNL     1      42.605 130.488  23.410  1.00  0.00     0.185 A 
ATOM      7  F   UNL     1      41.889 130.058  24.479  1.00  0.00    -0.200 F 
ENDROOT
BRANCH   1   8
ATOM      8  N   UNL     1      44.257 128.682  23.766  1.00  0.00    -0.237 N 
ATOM      9  H   UNL     1      43.493 128.265  24.350  1.00  0.00     0.376 HD
ATOM     10  H   UNL     1      45.040 128.968  24.400  1.00  0.00     0.376 HD
BRANCH   8  11
ATOM     11  N   UNL     1      44.734 127.717  22.856  1.00  0.00    -0.178 NA
ATOM     12  H   UNL     1      45.293 128.207  22.117  1.00  0.00     0.183 HD
ATOM     13  H   UNL     1      43.908 127.298  22.368  1.00  0.00     0.183 HD
ENDBRANCH   8  11
ENDBRANCH   1   8
BRANCH   3  14
ATOM     14  C   UNL     1      44.875 131.967  20.070  1.00  0.00     0.194 C 
ATOM     15  O   UNL     1      45.246 133.172  20.061  1.00  0.00    -0.291 OA
BRANCH  14  16
ATOM     16  C   UNL     1      45.229 131.092  18.903  1.00  0.00     0.224 C 
ATOM     17  O   UNL     1      44.096 130.771  18.128  1.00  0.00    -0.356 OA
ATOM     18  C   UNL     1      45.000 131.700  17.568  1.00  0.00     0.186 C 
BRANCH  18  19
ATOM     19  C   UNL     1      45.789 131.104  16.440  1.00  0.00    -0.013 A 
ATOM     20  C   UNL     1      46.104 129.737  16.455  1.00  0.00     0.008 A 
ATOM     21  C   UNL     1      46.276 131.913  15.400  1.00  0.00     0.047 A 
ATOM     22  C   UNL     1      46.869 129.179  15.426  1.00  0.00     0.024 A 
ATOM     23  C   UNL     1      47.042 131.353  14.372  1.00  0.00     0.142 A 
ATOM     24  C   UNL     1      47.336 129.984  14.382  1.00  0.00     0.076 A 
ATOM     25  F   UNL     1      47.499 132.146  13.370  1.00  0.00    -0.205 F 
ATOM     26  Cl  UNL     1      48.300 129.274  13.098  1.00  0.00    -0.081 Cl
ENDBRANCH  18  19
ENDBRANCH  14  16
ENDBRANCH   3  14
TORSDOF 5
ENDMDL


