REMARK SMILES N[NH2+][C@@H]1CCC[C@H]2OC=C[C@@]12c1[nH]c2ccccc2[nH+]1
REMARK SMILES IDX 3 1 4 2 5 3 6 4 7 5 8 6 9 7 10 8 11 9 2 10 1 13 12 16 13 17
REMARK SMILES IDX 20 18 14 19 19 20 15 21 18 22 16 23 17 24
REMARK H PARENT 2 11 2 12 1 14 1 15 13 25 20 26
ROOT
ATOM      1  C   UNL     1       1.126  -0.251  -0.630  1.00  0.00     0.227 C 
ATOM      2  C   UNL     1       1.288   0.473   0.732  1.00  0.00     0.069 C 
ATOM      3  C   UNL     1       0.383   1.714   0.900  1.00  0.00     0.010 C 
ATOM      4  C   UNL     1      -0.426   2.053  -0.354  1.00  0.00     0.047 C 
ATOM      5  C   UNL     1      -1.236   0.839  -0.830  1.00  0.00     0.201 C 
ATOM      6  O   UNL     1      -1.740   1.095  -2.133  1.00  0.00    -0.496 OA
ATOM      7  C   UNL     1      -1.301   0.147  -3.032  1.00  0.00     0.184 C 
ATOM      8  C   UNL     1      -0.538  -0.752  -2.453  1.00  0.00     0.041 C 
ATOM      9  C   UNL     1      -0.385  -0.473  -0.980  1.00  0.00     0.182 C 
ENDROOT
BRANCH   1  10
ATOM     10  N   UNL     1       1.891  -1.518  -0.645  1.00  0.00    -0.268 N 
ATOM     11  H   UNL     1       1.640  -2.106   0.185  1.00  0.00     0.370 HD
ATOM     12  H   UNL     1       1.698  -2.062  -1.519  1.00  0.00     0.370 HD
BRANCH  10  13
ATOM     13  N   UNL     1       3.273  -1.238  -0.588  1.00  0.00    -0.183 NA
ATOM     14  H   UNL     1       3.577  -0.868  -1.520  1.00  0.00     0.183 HD
ATOM     15  H   UNL     1       3.781  -2.143  -0.453  1.00  0.00     0.183 HD
ENDBRANCH  10  13
ENDBRANCH   1  10
BRANCH   9  16
ATOM     16  C   UNL     1      -0.984  -1.612  -0.160  1.00  0.00     0.273 A 
ATOM     17  N   UNL     1      -1.402  -1.473   1.127  1.00  0.00    -0.240 N 
ATOM     18  N   UNL     1      -1.042  -2.905  -0.583  1.00  0.00    -0.240 N 
ATOM     19  C   UNL     1      -1.746  -2.715   1.502  1.00  0.00     0.171 A 
ATOM     20  C   UNL     1      -1.529  -3.578   0.470  1.00  0.00     0.171 A 
ATOM     21  C   UNL     1      -2.228  -3.144   2.736  1.00  0.00     0.056 A 
ATOM     22  C   UNL     1      -1.775  -4.944   0.586  1.00  0.00     0.056 A 
ATOM     23  C   UNL     1      -2.495  -4.518   2.888  1.00  0.00     0.005 A 
ATOM     24  C   UNL     1      -2.269  -5.415   1.817  1.00  0.00     0.005 A 
ATOM     25  H   UNL     1      -1.428  -0.610   1.713  1.00  0.00     0.312 HD
ATOM     26  H   UNL     1      -0.747  -3.304  -1.501  1.00  0.00     0.312 HD
ENDBRANCH   9  16
TORSDOF 3


