REMARK SMILES C=C(/C=C(\O)N(N)c1ccccc1-c1[nH]c2ccccc2[nH+]1)C(C)=O
REMARK SMILES IDX 4 1 5 2 3 4 2 5 1 6 23 7 25 8 24 9 6 10 8 11 9 12 13 13
REMARK SMILES IDX 10 14 12 15 11 16 14 17 15 18 22 19 16 20 21 21 17 22 20 23
REMARK SMILES IDX 18 24 19 25 7 28
REMARK H PARENT 5 3 15 26 22 27 7 29 7 30
ROOT
ATOM      1  C   UNL     1       1.631  -0.691   0.194  1.00  0.00     0.206 C 
ENDROOT
BRANCH   1   2
ATOM      2  O   UNL     1       2.393   0.271  -0.472  1.00  0.00    -0.494 OA
ATOM      3  H   UNL     1       3.095   0.824   0.002  1.00  0.00     0.295 HD
ENDBRANCH   1   2
BRANCH   1   4
ATOM      4  C   UNL     1       0.666  -1.349  -0.472  1.00  0.00     0.079 C 
BRANCH   4   5
ATOM      5  C   UNL     1       0.317  -1.068  -1.883  1.00  0.00     0.015 C 
ATOM      6  C   UNL     1      -0.979  -0.999  -2.210  1.00  0.00     0.021 C 
BRANCH   5   7
ATOM      7  C   UNL     1       1.375  -0.943  -2.919  1.00  0.00     0.159 C 
ATOM      8  O   UNL     1       2.508  -1.457  -2.713  1.00  0.00    -0.295 OA
ATOM      9  C   UNL     1       1.127  -0.257  -4.229  1.00  0.00     0.093 C 
ENDBRANCH   5   7
ENDBRANCH   4   5
ENDBRANCH   1   4
BRANCH   1  10
ATOM     10  N   UNL     1       1.872  -0.948   1.599  1.00  0.00    -0.248 N 
BRANCH  10  11
ATOM     11  C   UNL     1       0.828  -1.384   2.494  1.00  0.00     0.076 A 
ATOM     12  C   UNL     1       1.062  -2.505   3.308  1.00  0.00     0.029 A 
ATOM     13  C   UNL     1      -0.434  -0.735   2.555  1.00  0.00     0.089 A 
ATOM     14  C   UNL     1       0.056  -3.004   4.138  1.00  0.00     0.002 A 
ATOM     15  C   UNL     1      -1.441  -1.263   3.380  1.00  0.00     0.019 A 
ATOM     16  C   UNL     1      -1.195  -2.390   4.167  1.00  0.00     0.001 A 
BRANCH  13  17
ATOM     17  C   UNL     1      -0.725   0.490   1.782  1.00  0.00     0.287 A 
ATOM     18  N   UNL     1      -1.873   0.673   1.080  1.00  0.00    -0.236 N 
ATOM     19  N   UNL     1       0.140   1.529   1.654  1.00  0.00    -0.236 N 
ATOM     20  C   UNL     1      -1.702   1.861   0.479  1.00  0.00     0.172 A 
ATOM     21  C   UNL     1      -0.488   2.378   0.826  1.00  0.00     0.172 A 
ATOM     22  C   UNL     1      -2.561   2.517  -0.400  1.00  0.00     0.056 A 
ATOM     23  C   UNL     1      -0.034   3.596   0.327  1.00  0.00     0.056 A 
ATOM     24  C   UNL     1      -2.136   3.754  -0.922  1.00  0.00     0.005 A 
ATOM     25  C   UNL     1      -0.878   4.291  -0.560  1.00  0.00     0.005 A 
ATOM     26  H   UNL     1      -2.684   0.021   0.989  1.00  0.00     0.312 HD
ATOM     27  H   UNL     1       1.084   1.643   2.088  1.00  0.00     0.312 HD
ENDBRANCH  13  17
ENDBRANCH  10  11
BRANCH  10  28
ATOM     28  N   UNL     1       3.159  -0.763   2.136  1.00  0.00    -0.240 NA
ATOM     29  H   UNL     1       3.310   0.264   2.257  1.00  0.00     0.144 HD
ATOM     30  H   UNL     1       3.860  -1.122   1.448  1.00  0.00     0.144 HD
ENDBRANCH  10  28
ENDBRANCH   1  10
TORSDOF 8


