REMARK SMILES C=Cc1cc([S-])cc(-c2ccc3c(c2)CC3)c1
REMARK SMILES IDX 3 1 4 2 5 3 6 4 7 5 8 6 17 7 2 8 1 9 9 10 10 11 14 12 11 13
REMARK SMILES IDX 13 14 12 15 15 16 16 17
REMARK H PARENT
ROOT
ATOM      1  C   UNL     1       3.083   0.384   0.117  1.00  0.00    -0.027 A 
ATOM      2  C   UNL     1       3.417   1.639  -0.413  1.00  0.00    -0.013 A 
ATOM      3  C   UNL     1       2.424   2.492  -0.903  1.00  0.00    -0.174 A 
ATOM      4  S   UNL     1       2.875   4.093  -1.598  1.00  0.00    -0.780 S 
ATOM      5  C   UNL     1       1.083   2.103  -0.860  1.00  0.00    -0.012 A 
ATOM      6  C   UNL     1       0.720   0.859  -0.319  1.00  0.00    -0.019 A 
ATOM      7  C   UNL     1       1.726   0.006   0.172  1.00  0.00     0.016 A 
ENDROOT
BRANCH   1   8
ATOM      8  C   UNL     1       4.173  -0.480   0.632  1.00  0.00     0.000 C 
ATOM      9  C   UNL     1       4.059  -1.794   0.826  1.00  0.00     0.009 C 
ENDBRANCH   1   8
BRANCH   6  10
ATOM     10  C   UNL     1      -0.707   0.451  -0.262  1.00  0.00    -0.018 A 
ATOM     11  C   UNL     1      -1.713   1.411   0.113  1.00  0.00     0.009 A 
ATOM     12  C   UNL     1      -1.069  -0.891  -0.580  1.00  0.00     0.012 A 
ATOM     13  C   UNL     1      -3.087   1.074   0.180  1.00  0.00     0.004 A 
ATOM     14  C   UNL     1      -2.414  -1.185  -0.505  1.00  0.00    -0.044 A 
ATOM     15  C   UNL     1      -3.394  -0.232  -0.137  1.00  0.00    -0.044 A 
ATOM     16  C   UNL     1      -3.465  -2.228  -0.669  1.00  0.00     0.040 C 
ATOM     17  C   UNL     1      -4.469  -1.252  -0.289  1.00  0.00     0.040 C 
ENDBRANCH   6  10
TORSDOF 2


