REMARK SMILES CC[C@H](C)C(=O)[C@@H](O)[N@H+]1CCC[C@@H](Cc2cc3ccccc3[nH]2)C1
REMARK SMILES IDX 7 1 5 2 6 3 3 4 4 5 2 6 1 7 8 8 9 10 10 11 24 12 11 13 13 14
REMARK SMILES IDX 12 15 14 17 15 18 16 19 23 20 17 21 22 22 18 23 21 24 19 25
REMARK SMILES IDX 20 26
REMARK H PARENT 8 9 9 16 23 27
ROOT
ATOM      1  C   UNL     1       1.565   0.743   0.488  1.00  0.00     0.389 C 
ENDROOT
BRANCH   1   2
ATOM      2  C   UNL     1       1.326  -0.756   0.551  1.00  0.00     0.221 C 
ATOM      3  O   UNL     1       1.961  -1.499  -0.185  1.00  0.00    -0.290 OA
BRANCH   2   4
ATOM      4  C   UNL     1       0.255  -1.327   1.458  1.00  0.00     0.062 C 
ATOM      5  C   UNL     1      -0.807  -2.082   0.644  1.00  0.00     0.016 C 
BRANCH   4   6
ATOM      6  C   UNL     1       0.849  -2.174   2.608  1.00  0.00     0.008 C 
ATOM      7  C   UNL     1       1.504  -3.489   2.177  1.00  0.00     0.004 C 
ENDBRANCH   4   6
ENDBRANCH   2   4
ENDBRANCH   1   2
BRANCH   1   8
ATOM      8  O   UNL     1       2.801   1.015  -0.131  1.00  0.00    -0.339 OA
ATOM      9  H   UNL     1       3.510   0.791   0.529  1.00  0.00     0.217 HD
ENDBRANCH   1   8
BRANCH   1  10
ATOM     10  N   UNL     1       0.461   1.442  -0.223  1.00  0.00    -0.303 N 
ATOM     11  C   UNL     1       0.629   2.911  -0.118  1.00  0.00     0.264 C 
ATOM     12  C   UNL     1       0.364   1.033  -1.645  1.00  0.00     0.268 C 
ATOM     13  C   UNL     1      -0.550   3.653  -0.762  1.00  0.00     0.062 C 
ATOM     14  C   UNL     1      -0.847   1.701  -2.333  1.00  0.00     0.050 C 
ATOM     15  C   UNL     1      -0.722   3.230  -2.223  1.00  0.00     0.015 C 
ATOM     16  H   UNL     1      -0.437   1.192   0.255  1.00  0.00     0.350 HD
BRANCH  14  17
ATOM     17  C   UNL     1      -0.971   1.275  -3.811  1.00  0.00     0.063 C 
BRANCH  17  18
ATOM     18  C   UNL     1      -1.266  -0.192  -3.934  1.00  0.00     0.016 A 
ATOM     19  C   UNL     1      -2.503  -0.781  -3.681  1.00  0.00     0.031 A 
ATOM     20  N   UNL     1      -0.320  -1.129  -4.181  1.00  0.00    -0.358 N 
ATOM     21  C   UNL     1      -2.277  -2.136  -3.789  1.00  0.00    -0.000 A 
ATOM     22  C   UNL     1      -0.951  -2.311  -4.091  1.00  0.00     0.046 A 
ATOM     23  C   UNL     1      -3.140  -3.215  -3.615  1.00  0.00     0.010 A 
ATOM     24  C   UNL     1      -0.395  -3.580  -4.238  1.00  0.00     0.026 A 
ATOM     25  C   UNL     1      -2.609  -4.510  -3.763  1.00  0.00     0.001 A 
ATOM     26  C   UNL     1      -1.242  -4.692  -4.073  1.00  0.00     0.002 A 
ATOM     27  H   UNL     1       0.695  -0.968  -4.365  1.00  0.00     0.166 HD
ENDBRANCH  17  18
ENDBRANCH  14  17
ENDBRANCH   1  10
TORSDOF 7


