MODEL 1
REMARK VINA RESULT:      -8.1      0.000      0.000
REMARK SMILES C[C@H]1CC[C@H]2C=C[NH2+][C@@]2(C)C1
REMARK SMILES IDX 1 1 2 2 3 3 4 4 5 5 6 6 7 7 8 8 9 9 10 10 11 11
REMARK H PARENT 8 12 8 13
ROOT
ATOM      1  C   UNL     1      47.948 131.193  12.910  1.00  0.00     0.008 C 
ATOM      2  C   UNL     1      46.705 130.716  13.673  1.00  0.00    -0.008 C 
ATOM      3  C   UNL     1      47.027 129.455  14.480  1.00  0.00     0.004 C 
ATOM      4  C   UNL     1      45.759 128.917  15.140  1.00  0.00     0.015 C 
ATOM      5  C   UNL     1      45.034 129.958  16.013  1.00  0.00     0.079 C 
ATOM      6  C   UNL     1      45.667 130.195  17.336  1.00  0.00     0.042 C 
ATOM      7  C   UNL     1      45.517 131.469  17.665  1.00  0.00     0.216 C 
ATOM      8  N   UNL     1      44.864 132.256  16.660  1.00  0.00    -0.315 N 
ATOM      9  C   UNL     1      44.938 131.404  15.448  1.00  0.00     0.104 C 
ATOM     10  C   UNL     1      43.667 131.570  14.584  1.00  0.00     0.080 C 
ATOM     11  C   UNL     1      46.203 131.814  14.623  1.00  0.00     0.072 C 
ATOM     12  H   UNL     1      43.876 132.415  16.969  1.00  0.00     0.352 HD
ATOM     13  H   UNL     1      45.349 133.176  16.550  1.00  0.00     0.352 HD
ENDROOT
TORSDOF 0
ENDMDL
MODEL 2
REMARK VINA RESULT:      -6.6      1.689      3.844
REMARK SMILES C[C@H]1CC[C@H]2C=C[NH2+][C@@]2(C)C1
REMARK SMILES IDX 1 1 2 2 3 3 4 4 5 5 6 6 7 7 8 8 9 9 10 10 11 11
REMARK H PARENT 8 12 8 13
ROOT
ATOM      1  C   UNL     1      45.725 131.190  18.721  1.00  0.00     0.008 C 
ATOM      2  C   UNL     1      45.341 130.863  17.272  1.00  0.00    -0.008 C 
ATOM      3  C   UNL     1      45.299 132.142  16.430  1.00  0.00     0.004 C 
ATOM      4  C   UNL     1      44.801 131.827  15.022  1.00  0.00     0.015 C 
ATOM      5  C   UNL     1      45.617 130.729  14.314  1.00  0.00     0.079 C 
ATOM      6  C   UNL     1      46.928 131.185  13.787  1.00  0.00     0.042 C 
ATOM      7  C   UNL     1      47.805 130.198  13.896  1.00  0.00     0.216 C 
ATOM      8  N   UNL     1      47.281 129.023  14.527  1.00  0.00    -0.315 N 
ATOM      9  C   UNL     1      46.033 129.500  15.171  1.00  0.00     0.104 C 
ATOM     10  C   UNL     1      44.942 128.407  15.128  1.00  0.00     0.080 C 
ATOM     11  C   UNL     1      46.349 129.882  16.657  1.00  0.00     0.072 C 
ATOM     12  H   UNL     1      47.091 128.315  13.780  1.00  0.00     0.352 HD
ATOM     13  H   UNL     1      47.977 128.638  15.207  1.00  0.00     0.352 HD
ENDROOT
TORSDOF 0
ENDMDL


