REMARK SMILES C[C@@](O)(CCl)C(=O)Nc1cc(F)c[n-]/c1=N\c1c[nH]c2[nH+]ccc-2c1
REMARK SMILES IDX 9 1 10 2 11 3 12 4 13 5 14 6 15 7 8 8 6 9 7 10 2 12 1 13
REMARK SMILES IDX 3 14 4 16 5 17 16 18 17 19 25 20 18 21 24 22 19 23 23 24
REMARK SMILES IDX 20 25 22 26 21 27
REMARK H PARENT 8 11 3 15 19 28 21 29
ROOT
ATOM      1  C   UNL     1       1.786   1.015  -1.369  1.00  0.00     0.043 A 
ATOM      2  C   UNL     1       2.369   1.544  -2.534  1.00  0.00     0.064 A 
ATOM      3  C   UNL     1       1.763   1.345  -3.774  1.00  0.00     0.121 A 
ATOM      4  F   UNL     1       2.322   1.856  -4.899  1.00  0.00    -0.207 F 
ATOM      5  C   UNL     1       0.582   0.610  -3.847  1.00  0.00     0.018 A 
ATOM      6  N   UNL     1       0.036   0.087  -2.719  1.00  0.00    -0.438 NA
ATOM      7  C   UNL     1       0.606   0.253  -1.490  1.00  0.00    -0.034 A 
ENDROOT
BRANCH   1   8
ATOM      8  N   UNL     1       2.413   1.192  -0.085  1.00  0.00    -0.324 N 
ATOM      9  C   UNL     1       3.058   2.412   0.324  1.00  0.00     0.257 C 
ATOM     10  O   UNL     1       2.903   3.462  -0.358  1.00  0.00    -0.271 OA
ATOM     11  H   UNL     1       2.337   0.414   0.607  1.00  0.00     0.170 HD
BRANCH   9  12
ATOM     12  C   UNL     1       3.893   2.457   1.594  1.00  0.00     0.154 C 
ATOM     13  C   UNL     1       2.994   2.186   2.819  1.00  0.00     0.054 C 
BRANCH  12  14
ATOM     14  O   UNL     1       4.502   3.723   1.723  1.00  0.00    -0.379 OA
ATOM     15  H   UNL     1       3.789   4.397   1.877  1.00  0.00     0.212 HD
ENDBRANCH  12  14
BRANCH  12  16
ATOM     16  C   UNL     1       5.011   1.398   1.499  1.00  0.00     0.154 C 
ATOM     17  Cl  UNL     1       6.154   1.500   2.869  1.00  0.00    -0.123 Cl
ENDBRANCH  12  16
ENDBRANCH   9  12
ENDBRANCH   1   8
BRANCH   7  18
ATOM     18  N   UNL     1       0.044  -0.238  -0.422  1.00  0.00    -0.431 NA
BRANCH  18  19
ATOM     19  C   UNL     1      -1.128  -1.069  -0.366  1.00  0.00    -0.001 A 
ATOM     20  C   UNL     1      -2.015  -0.901   0.718  1.00  0.00     0.024 A 
ATOM     21  C   UNL     1      -1.362  -2.103  -1.323  1.00  0.00     0.201 A 
ATOM     22  C   UNL     1      -3.121  -1.732   0.775  1.00  0.00     0.068 A 
ATOM     23  N   UNL     1      -2.463  -2.912  -1.241  1.00  0.00    -0.247 N 
ATOM     24  C   UNL     1      -4.166  -1.851   1.662  1.00  0.00     0.060 A 
ATOM     25  C   UNL     1      -3.331  -2.728  -0.220  1.00  0.00     0.284 A 
ATOM     26  C   UNL     1      -4.955  -2.899   1.177  1.00  0.00     0.198 A 
ATOM     27  N   UNL     1      -4.444  -3.429   0.037  1.00  0.00    -0.247 N 
ATOM     28  H   UNL     1      -2.622  -3.666  -1.947  1.00  0.00     0.312 HD
ATOM     29  H   UNL     1      -4.833  -4.223  -0.518  1.00  0.00     0.311 HD
ENDBRANCH  18  19
ENDBRANCH   7  18
TORSDOF 6


