REMARK SMILES NNc1cccc2cc3ccccc3cc12
REMARK SMILES IDX 1 1 2 4 3 6 4 7 16 8 5 9 15 10 7 11 6 12 14 13 8 14 13 15
REMARK SMILES IDX 9 16 12 17 10 18 11 19
REMARK H PARENT 1 2 1 3 2 5
ROOT
ATOM      1  N   UNL     1      -0.537  -3.549  -0.751  1.00  0.00    -0.250 NA
ATOM      2  H   UNL     1      -0.575  -4.043  -1.671  1.00  0.00     0.143 HD
ATOM      3  H   UNL     1      -0.380  -4.277  -0.018  1.00  0.00     0.143 HD
ENDROOT
BRANCH   1   4
ATOM      4  N   UNL     1      -1.808  -2.999  -0.525  1.00  0.00    -0.324 N 
ATOM      5  H   UNL     1      -2.610  -3.659  -0.396  1.00  0.00     0.181 HD
BRANCH   4   6
ATOM      6  C   UNL     1      -2.101  -1.660  -0.949  1.00  0.00     0.056 A 
ATOM      7  C   UNL     1      -3.226  -1.448  -1.760  1.00  0.00     0.028 A 
ATOM      8  C   UNL     1      -1.284  -0.557  -0.585  1.00  0.00     0.007 A 
ATOM      9  C   UNL     1      -3.520  -0.177  -2.253  1.00  0.00     0.003 A 
ATOM     10  C   UNL     1      -0.201  -0.694   0.306  1.00  0.00     0.019 A 
ATOM     11  C   UNL     1      -1.588   0.731  -1.103  1.00  0.00    -0.016 A 
ATOM     12  C   UNL     1      -2.701   0.905  -1.938  1.00  0.00     0.009 A 
ATOM     13  C   UNL     1       0.597   0.410   0.639  1.00  0.00    -0.018 A 
ATOM     14  C   UNL     1      -0.785   1.833  -0.771  1.00  0.00     0.017 A 
ATOM     15  C   UNL     1       1.683   0.266   1.518  1.00  0.00     0.009 A 
ATOM     16  C   UNL     1       0.307   1.681   0.091  1.00  0.00    -0.018 A 
ATOM     17  C   UNL     1       2.475   1.371   1.844  1.00  0.00     0.001 A 
ATOM     18  C   UNL     1       1.110   2.783   0.427  1.00  0.00     0.009 A 
ATOM     19  C   UNL     1       2.190   2.625   1.300  1.00  0.00     0.001 A 
ENDBRANCH   4   6
ENDBRANCH   1   4
TORSDOF 2


