REMARK SMILES Cn1cc2ccc([NH2+]c3cccc(N)c3[O-])cc2[nH+]1
REMARK SMILES IDX 9 1 10 2 11 3 12 4 13 5 15 6 16 7 8 8 7 11 2 12 3 13 19 14
REMARK SMILES IDX 4 15 18 16 5 17 17 18 6 19 1 20 14 22
REMARK H PARENT 8 9 8 10 19 21 14 23 14 24
ROOT
ATOM      1  C   UNL     1       2.162  -0.501   0.574  1.00  0.00     0.128 A 
ATOM      2  C   UNL     1       3.163   0.343   1.088  1.00  0.00     0.067 A 
ATOM      3  C   UNL     1       3.157   0.711   2.434  1.00  0.00     0.008 A 
ATOM      4  C   UNL     1       2.152   0.247   3.284  1.00  0.00     0.025 A 
ATOM      5  C   UNL     1       1.142  -0.591   2.794  1.00  0.00     0.029 A 
ATOM      6  C   UNL     1       1.145  -0.966   1.437  1.00  0.00    -0.021 A 
ATOM      7  O   UNL     1       0.143  -1.799   0.949  1.00  0.00    -0.867 OA
ENDROOT
BRANCH   1   8
ATOM      8  N   UNL     1       2.164  -0.848  -0.828  1.00  0.00    -0.282 N 
ATOM      9  H   UNL     1       1.760  -1.803  -0.971  1.00  0.00     0.358 HD
ATOM     10  H   UNL     1       3.147  -0.887  -1.187  1.00  0.00     0.358 HD
BRANCH   8  11
ATOM     11  C   UNL     1       1.414   0.132  -1.574  1.00  0.00     0.141 A 
ATOM     12  N   UNL     1      -2.143   2.074  -3.567  1.00  0.00    -0.165 N 
ATOM     13  C   UNL     1      -0.995   2.792  -3.622  1.00  0.00     0.165 A 
ATOM     14  N   UNL     1      -1.931   0.930  -2.925  1.00  0.00    -0.123 N 
ATOM     15  C   UNL     1      -0.027   2.063  -2.964  1.00  0.00     0.071 A 
ATOM     16  C   UNL     1      -0.643   0.915  -2.546  1.00  0.00     0.241 A 
ATOM     17  C   UNL     1       1.318   2.310  -2.719  1.00  0.00     0.023 A 
ATOM     18  C   UNL     1       0.040  -0.077  -1.849  1.00  0.00     0.150 A 
ATOM     19  C   UNL     1       2.042   1.332  -2.012  1.00  0.00     0.069 A 
ATOM     20  C   UNL     1      -3.403   2.436  -4.203  1.00  0.00     0.223 C 
ATOM     21  H   UNL     1      -2.644   0.183  -2.766  1.00  0.00     0.488 HD
ENDBRANCH   8  11
ENDBRANCH   1   8
BRANCH   5  22
ATOM     22  N   UNL     1       0.117  -1.057   3.679  1.00  0.00    -0.399 N 
ATOM     23  H   UNL     1       0.115  -0.778   4.685  1.00  0.00     0.156 HD
ATOM     24  H   UNL     1      -0.649  -1.681   3.343  1.00  0.00     0.156 HD
ENDBRANCH   5  22
TORSDOF 3


