MODEL 1
REMARK VINA RESULT:      -9.2      0.000      0.000
REMARK SMILES Cc1ccc(Nc2cccc(N=[N+]=[N-])c2O)cc1F
REMARK SMILES IDX 15 1 11 2 10 3 9 4 8 5 7 6 16 7 12 9 13 10 14 11 6 12 5 14
REMARK SMILES IDX 4 15 17 16 3 17 18 18 2 19 19 20 1 21
REMARK H PARENT 16 8 6 13
ROOT
ATOM      1  C   UNL     1      43.388 131.845  19.237  1.00  0.00     0.148 A 
ATOM      2  C   UNL     1      43.522 131.718  20.635  1.00  0.00     0.081 A 
ATOM      3  C   UNL     1      44.696 131.155  21.167  1.00  0.00     0.014 A 
ATOM      4  C   UNL     1      45.723 130.733  20.322  1.00  0.00     0.003 A 
ATOM      5  C   UNL     1      45.586 130.854  18.940  1.00  0.00     0.030 A 
ATOM      6  C   UNL     1      44.414 131.384  18.386  1.00  0.00     0.081 A 
ENDROOT
BRANCH   1   7
ATOM      7  O   UNL     1      42.254 132.445  18.681  1.00  0.00    -0.505 OA
ATOM      8  H   UNL     1      41.336 132.021  18.724  1.00  0.00     0.293 HD
ENDBRANCH   1   7
BRANCH   2   9
ATOM      9  N   UNL     1      42.462 132.174  21.491  1.00  0.00    -0.057 NA
BRANCH   9  10
ATOM     10  N   UNL     1      42.459 131.968  22.706  1.00  0.00     0.005 N 
ATOM     11  N   UNL     1      42.459 131.762  23.918  1.00  0.00    -0.003 NA
ENDBRANCH   9  10
ENDBRANCH   2   9
BRANCH   6  12
ATOM     12  N   UNL     1      44.309 131.500  16.958  1.00  0.00    -0.352 N 
ATOM     13  H   UNL     1      43.527 132.078  16.575  1.00  0.00     0.167 HD
BRANCH  12  14
ATOM     14  C   UNL     1      45.268 130.960  16.031  1.00  0.00     0.041 A 
ATOM     15  C   UNL     1      45.490 129.576  15.929  1.00  0.00     0.026 A 
ATOM     16  C   UNL     1      46.039 131.834  15.252  1.00  0.00     0.065 A 
ATOM     17  C   UNL     1      46.441 129.076  15.035  1.00  0.00     0.008 A 
ATOM     18  C   UNL     1      46.992 131.337  14.357  1.00  0.00     0.128 A 
ATOM     19  C   UNL     1      47.188 129.952  14.232  1.00  0.00    -0.015 A 
ATOM     20  F   UNL     1      47.726 132.205  13.616  1.00  0.00    -0.207 F 
ATOM     21  C   UNL     1      48.231 129.415  13.294  1.00  0.00     0.047 C 
ENDBRANCH  12  14
ENDBRANCH   6  12
TORSDOF 5
ENDMDL
MODEL 2
REMARK VINA RESULT:      -8.8      1.134      1.586
REMARK SMILES Cc1ccc(Nc2cccc(N=[N+]=[N-])c2O)cc1F
REMARK SMILES IDX 15 1 11 2 10 3 9 4 8 5 7 6 16 7 12 9 13 10 14 11 6 12 5 14
REMARK SMILES IDX 4 15 17 16 3 17 18 18 2 19 19 20 1 21
REMARK H PARENT 16 8 6 13
ROOT
ATOM      1  C   UNL     1      43.328 131.922  19.690  1.00  0.00     0.148 A 
ATOM      2  C   UNL     1      43.492 131.607  21.055  1.00  0.00     0.081 A 
ATOM      3  C   UNL     1      44.661 130.947  21.476  1.00  0.00     0.014 A 
ATOM      4  C   UNL     1      45.653 130.613  20.554  1.00  0.00     0.003 A 
ATOM      5  C   UNL     1      45.487 130.918  19.204  1.00  0.00     0.030 A 
ATOM      6  C   UNL     1      44.319 131.549  18.758  1.00  0.00     0.081 A 
ENDROOT
BRANCH   1   7
ATOM      7  O   UNL     1      42.200 132.620  19.250  1.00  0.00    -0.505 OA
ATOM      8  H   UNL     1      41.992 133.565  19.548  1.00  0.00     0.293 HD
ENDBRANCH   1   7
BRANCH   2   9
ATOM      9  N   UNL     1      42.468 131.975  21.993  1.00  0.00    -0.057 NA
BRANCH   9  10
ATOM     10  N   UNL     1      42.650 131.957  23.212  1.00  0.00     0.005 N 
ATOM     11  N   UNL     1      42.830 131.940  24.428  1.00  0.00    -0.003 NA
ENDBRANCH   9  10
ENDBRANCH   2   9
BRANCH   6  12
ATOM     12  N   UNL     1      44.183 131.856  17.361  1.00  0.00    -0.352 N 
ATOM     13  H   UNL     1      43.397 132.482  17.076  1.00  0.00     0.167 HD
BRANCH  12  14
ATOM     14  C   UNL     1      45.117 131.440  16.349  1.00  0.00     0.041 A 
ATOM     15  C   UNL     1      45.869 132.375  15.616  1.00  0.00     0.026 A 
ATOM     16  C   UNL     1      45.242 130.076  16.046  1.00  0.00     0.065 A 
ATOM     17  C   UNL     1      46.756 131.948  14.624  1.00  0.00     0.008 A 
ATOM     18  C   UNL     1      46.129 129.647  15.053  1.00  0.00     0.128 A 
ATOM     19  C   UNL     1      46.904 130.580  14.346  1.00  0.00    -0.015 A 
ATOM     20  F   UNL     1      46.228 128.321  14.779  1.00  0.00    -0.207 F 
ATOM     21  C   UNL     1      47.834 130.124  13.259  1.00  0.00     0.047 C 
ENDBRANCH  12  14
ENDBRANCH   6  12
TORSDOF 5
ENDMDL
MODEL 3
REMARK VINA RESULT:      -8.1      1.645      2.333
REMARK SMILES Cc1ccc(Nc2cccc(N=[N+]=[N-])c2O)cc1F
REMARK SMILES IDX 15 1 11 2 10 3 9 4 8 5 7 6 16 7 12 9 13 10 14 11 6 12 5 14
REMARK SMILES IDX 4 15 17 16 3 17 18 18 2 19 19 20 1 21
REMARK H PARENT 16 8 6 13
ROOT
ATOM      1  C   UNL     1      44.299 131.369  20.038  1.00  0.00     0.148 A 
ATOM      2  C   UNL     1      43.116 131.941  20.549  1.00  0.00     0.081 A 
ATOM      3  C   UNL     1      42.083 132.299  19.663  1.00  0.00     0.014 A 
ATOM      4  C   UNL     1      42.225 132.085  18.292  1.00  0.00     0.003 A 
ATOM      5  C   UNL     1      43.398 131.526  17.787  1.00  0.00     0.030 A 
ATOM      6  C   UNL     1      44.450 131.189  18.647  1.00  0.00     0.081 A 
ENDROOT
BRANCH   1   7
ATOM      7  O   UNL     1      45.321 130.958  20.898  1.00  0.00    -0.505 OA
ATOM      8  H   UNL     1      45.322 131.173  21.887  1.00  0.00     0.293 HD
ENDBRANCH   1   7
BRANCH   2   9
ATOM      9  N   UNL     1      42.981 132.137  21.966  1.00  0.00    -0.057 NA
BRANCH   9  10
ATOM     10  N   UNL     1      42.928 131.196  22.761  1.00  0.00     0.005 N 
ATOM     11  N   UNL     1      42.873 130.257  23.553  1.00  0.00    -0.003 NA
ENDBRANCH   9  10
ENDBRANCH   2   9
BRANCH   6  12
ATOM     12  N   UNL     1      45.643 130.608  18.095  1.00  0.00    -0.352 N 
ATOM     13  H   UNL     1      46.202 129.973  18.708  1.00  0.00     0.167 HD
BRANCH  12  14
ATOM     14  C   UNL     1      46.056 130.763  16.726  1.00  0.00     0.041 A 
ATOM     15  C   UNL     1      45.801 131.946  16.011  1.00  0.00     0.026 A 
ATOM     16  C   UNL     1      46.678 129.691  16.069  1.00  0.00     0.065 A 
ATOM     17  C   UNL     1      46.195 132.066  14.676  1.00  0.00     0.008 A 
ATOM     18  C   UNL     1      47.073 129.808  14.733  1.00  0.00     0.128 A 
ATOM     19  C   UNL     1      46.847 131.003  14.031  1.00  0.00    -0.015 A 
ATOM     20  F   UNL     1      47.671 128.753  14.121  1.00  0.00    -0.207 F 
ATOM     21  C   UNL     1      47.243 131.121  12.588  1.00  0.00     0.047 C 
ENDBRANCH  12  14
ENDBRANCH   6  12
TORSDOF 5
ENDMDL
MODEL 4
REMARK VINA RESULT:      -7.9      3.782      7.460
REMARK SMILES Cc1ccc(Nc2cccc(N=[N+]=[N-])c2O)cc1F
REMARK SMILES IDX 15 1 11 2 10 3 9 4 8 5 7 6 16 7 12 9 13 10 14 11 6 12 5 14
REMARK SMILES IDX 4 15 17 16 3 17 18 18 2 19 19 20 1 21
REMARK H PARENT 16 8 6 13
ROOT
ATOM      1  C   UNL     1      46.109 130.303  16.389  1.00  0.00     0.148 A 
ATOM      2  C   UNL     1      45.664 130.461  15.060  1.00  0.00     0.081 A 
ATOM      3  C   UNL     1      44.476 131.173  14.810  1.00  0.00     0.014 A 
ATOM      4  C   UNL     1      43.748 131.724  15.865  1.00  0.00     0.003 A 
ATOM      5  C   UNL     1      44.187 131.561  17.179  1.00  0.00     0.030 A 
ATOM      6  C   UNL     1      45.350 130.831  17.453  1.00  0.00     0.081 A 
ENDROOT
BRANCH   1   7
ATOM      7  O   UNL     1      47.310 129.643  16.664  1.00  0.00    -0.505 OA
ATOM      8  H   UNL     1      47.390 128.928  17.375  1.00  0.00     0.293 HD
ENDBRANCH   1   7
BRANCH   2   9
ATOM      9  N   UNL     1      46.435 129.902  13.985  1.00  0.00    -0.057 NA
BRANCH   9  10
ATOM     10  N   UNL     1      47.214 130.578  13.310  1.00  0.00     0.005 N 
ATOM     11  N   UNL     1      47.992 131.255  12.639  1.00  0.00    -0.003 NA
ENDBRANCH   9  10
ENDBRANCH   2   9
BRANCH   6  12
ATOM     12  N   UNL     1      45.777 130.689  18.818  1.00  0.00    -0.352 N 
ATOM     13  H   UNL     1      46.788 130.488  18.991  1.00  0.00     0.167 HD
BRANCH  12  14
ATOM     14  C   UNL     1      44.925 130.906  19.957  1.00  0.00     0.041 A 
ATOM     15  C   UNL     1      43.866 131.829  19.916  1.00  0.00     0.026 A 
ATOM     16  C   UNL     1      45.189 130.224  21.154  1.00  0.00     0.065 A 
ATOM     17  C   UNL     1      43.065 132.037  21.042  1.00  0.00     0.008 A 
ATOM     18  C   UNL     1      44.389 130.431  22.282  1.00  0.00     0.128 A 
ATOM     19  C   UNL     1      43.311 131.329  22.228  1.00  0.00    -0.015 A 
ATOM     20  F   UNL     1      44.669 129.759  23.428  1.00  0.00    -0.207 F 
ATOM     21  C   UNL     1      42.468 131.575  23.446  1.00  0.00     0.047 C 
ENDBRANCH  12  14
ENDBRANCH   6  12
TORSDOF 5
ENDMDL
MODEL 5
REMARK VINA RESULT:      -7.7      3.675      7.287
REMARK SMILES Cc1ccc(Nc2cccc(N=[N+]=[N-])c2O)cc1F
REMARK SMILES IDX 15 1 11 2 10 3 9 4 8 5 7 6 16 7 12 9 13 10 14 11 6 12 5 14
REMARK SMILES IDX 4 15 17 16 3 17 18 18 2 19 19 20 1 21
REMARK H PARENT 16 8 6 13
ROOT
ATOM      1  C   UNL     1      45.986 130.343  16.588  1.00  0.00     0.148 A 
ATOM      2  C   UNL     1      45.423 130.490  15.303  1.00  0.00     0.081 A 
ATOM      3  C   UNL     1      44.226 131.213  15.153  1.00  0.00     0.014 A 
ATOM      4  C   UNL     1      43.603 131.786  16.262  1.00  0.00     0.003 A 
ATOM      5  C   UNL     1      44.157 131.634  17.532  1.00  0.00     0.030 A 
ATOM      6  C   UNL     1      45.333 130.894  17.710  1.00  0.00     0.081 A 
ENDROOT
BRANCH   1   7
ATOM      7  O   UNL     1      47.200 129.673  16.762  1.00  0.00    -0.505 OA
ATOM      8  H   UNL     1      48.092 130.152  16.774  1.00  0.00     0.293 HD
ENDBRANCH   1   7
BRANCH   2   9
ATOM      9  N   UNL     1      46.088 129.909  14.170  1.00  0.00    -0.057 NA
BRANCH   9  10
ATOM     10  N   UNL     1      46.908 130.533  13.493  1.00  0.00     0.005 N 
ATOM     11  N   UNL     1      47.725 131.153  12.816  1.00  0.00    -0.003 NA
ENDBRANCH   9  10
ENDBRANCH   2   9
BRANCH   6  12
ATOM     12  N   UNL     1      45.881 130.763  19.032  1.00  0.00    -0.352 N 
ATOM     13  H   UNL     1      46.921 130.775  19.129  1.00  0.00     0.167 HD
BRANCH  12  14
ATOM     14  C   UNL     1      45.089 130.721  20.233  1.00  0.00     0.041 A 
ATOM     15  C   UNL     1      45.306 129.744  21.221  1.00  0.00     0.026 A 
ATOM     16  C   UNL     1      44.042 131.639  20.399  1.00  0.00     0.065 A 
ATOM     17  C   UNL     1      44.511 129.712  22.370  1.00  0.00     0.008 A 
ATOM     18  C   UNL     1      43.245 131.608  21.548  1.00  0.00     0.128 A 
ATOM     19  C   UNL     1      43.485 130.653  22.549  1.00  0.00    -0.015 A 
ATOM     20  F   UNL     1      42.236 132.507  21.682  1.00  0.00    -0.207 F 
ATOM     21  C   UNL     1      42.612 130.598  23.769  1.00  0.00     0.047 C 
ENDBRANCH  12  14
ENDBRANCH   6  12
TORSDOF 5
ENDMDL
MODEL 6
REMARK VINA RESULT:      -7.7      1.794      2.206
REMARK SMILES Cc1ccc(Nc2cccc(N=[N+]=[N-])c2O)cc1F
REMARK SMILES IDX 15 1 11 2 10 3 9 4 8 5 7 6 16 7 12 9 13 10 14 11 6 12 5 14
REMARK SMILES IDX 4 15 17 16 3 17 18 18 2 19 19 20 1 21
REMARK H PARENT 16 8 6 13
ROOT
ATOM      1  C   UNL     1      44.368 131.353  18.804  1.00  0.00     0.148 A 
ATOM      2  C   UNL     1      44.149 131.352  20.198  1.00  0.00     0.081 A 
ATOM      3  C   UNL     1      42.915 131.799  20.703  1.00  0.00     0.014 A 
ATOM      4  C   UNL     1      41.913 132.234  19.835  1.00  0.00     0.003 A 
ATOM      5  C   UNL     1      42.134 132.242  18.458  1.00  0.00     0.030 A 
ATOM      6  C   UNL     1      43.365 131.829  17.935  1.00  0.00     0.081 A 
ENDROOT
BRANCH   1   7
ATOM      7  O   UNL     1      45.566 130.869  18.271  1.00  0.00    -0.505 OA
ATOM      8  H   UNL     1      46.259 131.473  17.847  1.00  0.00     0.293 HD
ENDBRANCH   1   7
BRANCH   2   9
ATOM      9  N   UNL     1      45.186 130.883  21.075  1.00  0.00    -0.057 NA
BRANCH   9  10
ATOM     10  N   UNL     1      45.040 129.899  21.803  1.00  0.00     0.005 N 
ATOM     11  N   UNL     1      44.896 128.919  22.532  1.00  0.00    -0.003 NA
ENDBRANCH   9  10
ENDBRANCH   2   9
BRANCH   6  12
ATOM     12  N   UNL     1      43.556 131.842  16.511  1.00  0.00    -0.352 N 
ATOM     13  H   UNL     1      42.908 132.430  15.940  1.00  0.00     0.167 HD
BRANCH  12  14
ATOM     14  C   UNL     1      44.643 131.183  15.836  1.00  0.00     0.041 A 
ATOM     15  C   UNL     1      44.763 129.783  15.833  1.00  0.00     0.026 A 
ATOM     16  C   UNL     1      45.636 131.955  15.214  1.00  0.00     0.065 A 
ATOM     17  C   UNL     1      45.839 129.167  15.188  1.00  0.00     0.008 A 
ATOM     18  C   UNL     1      46.713 131.340  14.568  1.00  0.00     0.128 A 
ATOM     19  C   UNL     1      46.813 129.940  14.538  1.00  0.00    -0.015 A 
ATOM     20  F   UNL     1      47.661 132.111  13.976  1.00  0.00    -0.207 F 
ATOM     21  C   UNL     1      47.984 129.278  13.871  1.00  0.00     0.047 C 
ENDBRANCH  12  14
ENDBRANCH   6  12
TORSDOF 5
ENDMDL
MODEL 7
REMARK VINA RESULT:      -7.5      2.003      2.433
REMARK SMILES Cc1ccc(Nc2cccc(N=[N+]=[N-])c2O)cc1F
REMARK SMILES IDX 15 1 11 2 10 3 9 4 8 5 7 6 16 7 12 9 13 10 14 11 6 12 5 14
REMARK SMILES IDX 4 15 17 16 3 17 18 18 2 19 19 20 1 21
REMARK H PARENT 16 8 6 13
ROOT
ATOM      1  C   UNL     1      44.734 131.401  18.555  1.00  0.00     0.148 A 
ATOM      2  C   UNL     1      44.639 131.596  19.949  1.00  0.00     0.081 A 
ATOM      3  C   UNL     1      43.415 132.010  20.506  1.00  0.00     0.014 A 
ATOM      4  C   UNL     1      42.303 132.219  19.690  1.00  0.00     0.003 A 
ATOM      5  C   UNL     1      42.400 132.033  18.312  1.00  0.00     0.030 A 
ATOM      6  C   UNL     1      43.616 131.650  17.732  1.00  0.00     0.081 A 
ENDROOT
BRANCH   1   7
ATOM      7  O   UNL     1      45.922 130.943  17.979  1.00  0.00    -0.505 OA
ATOM      8  H   UNL     1      46.772 130.812  18.512  1.00  0.00     0.293 HD
ENDBRANCH   1   7
BRANCH   2   9
ATOM      9  N   UNL     1      45.789 131.358  20.775  1.00  0.00    -0.057 NA
BRANCH   9  10
ATOM     10  N   UNL     1      46.482 132.274  21.224  1.00  0.00     0.005 N 
ATOM     11  N   UNL     1      47.170 133.189  21.672  1.00  0.00    -0.003 NA
ENDBRANCH   9  10
ENDBRANCH   2   9
BRANCH   6  12
ATOM     12  N   UNL     1      43.679 131.460  16.309  1.00  0.00    -0.352 N 
ATOM     13  H   UNL     1      42.878 131.809  15.737  1.00  0.00     0.167 HD
BRANCH  12  14
ATOM     14  C   UNL     1      44.817 130.914  15.618  1.00  0.00     0.041 A 
ATOM     15  C   UNL     1      45.080 129.533  15.612  1.00  0.00     0.026 A 
ATOM     16  C   UNL     1      45.717 131.782  14.982  1.00  0.00     0.065 A 
ATOM     17  C   UNL     1      46.203 129.029  14.950  1.00  0.00     0.008 A 
ATOM     18  C   UNL     1      46.841 131.280  14.320  1.00  0.00     0.128 A 
ATOM     19  C   UNL     1      47.083 129.897  14.286  1.00  0.00    -0.015 A 
ATOM     20  F   UNL     1      47.697 132.143  13.714  1.00  0.00    -0.207 F 
ATOM     21  C   UNL     1      48.306 129.358  13.601  1.00  0.00     0.047 C 
ENDBRANCH  12  14
ENDBRANCH   6  12
TORSDOF 5
ENDMDL
MODEL 8
REMARK VINA RESULT:      -7.2      2.053      2.676
REMARK SMILES Cc1ccc(Nc2cccc(N=[N+]=[N-])c2O)cc1F
REMARK SMILES IDX 15 1 11 2 10 3 9 4 8 5 7 6 16 7 12 9 13 10 14 11 6 12 5 14
REMARK SMILES IDX 4 15 17 16 3 17 18 18 2 19 19 20 1 21
REMARK H PARENT 16 8 6 13
ROOT
ATOM      1  C   UNL     1      44.244 131.467  18.884  1.00  0.00     0.148 A 
ATOM      2  C   UNL     1      44.042 131.544  20.279  1.00  0.00     0.081 A 
ATOM      3  C   UNL     1      42.830 132.063  20.773  1.00  0.00     0.014 A 
ATOM      4  C   UNL     1      41.835 132.490  19.894  1.00  0.00     0.003 A 
ATOM      5  C   UNL     1      42.039 132.420  18.516  1.00  0.00     0.030 A 
ATOM      6  C   UNL     1      43.248 131.935  18.002  1.00  0.00     0.081 A 
ENDROOT
BRANCH   1   7
ATOM      7  O   UNL     1      45.416 130.911  18.364  1.00  0.00    -0.505 OA
ATOM      8  H   UNL     1      45.615 130.887  17.372  1.00  0.00     0.293 HD
ENDBRANCH   1   7
BRANCH   2   9
ATOM      9  N   UNL     1      45.070 131.082  21.168  1.00  0.00    -0.057 NA
BRANCH   9  10
ATOM     10  N   UNL     1      44.920 130.101  21.899  1.00  0.00     0.005 N 
ATOM     11  N   UNL     1      44.769 129.124  22.631  1.00  0.00    -0.003 NA
ENDBRANCH   9  10
ENDBRANCH   2   9
BRANCH   6  12
ATOM     12  N   UNL     1      43.423 131.869  16.577  1.00  0.00    -0.352 N 
ATOM     13  H   UNL     1      42.691 132.314  15.978  1.00  0.00     0.167 HD
BRANCH  12  14
ATOM     14  C   UNL     1      44.587 131.324  15.931  1.00  0.00     0.041 A 
ATOM     15  C   UNL     1      45.594 132.155  15.409  1.00  0.00     0.026 A 
ATOM     16  C   UNL     1      44.696 129.935  15.768  1.00  0.00     0.065 A 
ATOM     17  C   UNL     1      46.706 131.602  14.769  1.00  0.00     0.008 A 
ATOM     18  C   UNL     1      45.808 129.380  15.127  1.00  0.00     0.128 A 
ATOM     19  C   UNL     1      46.828 130.210  14.636  1.00  0.00    -0.015 A 
ATOM     20  F   UNL     1      45.887 128.032  14.980  1.00  0.00    -0.207 F 
ATOM     21  C   UNL     1      48.009 129.619  13.921  1.00  0.00     0.047 C 
ENDBRANCH  12  14
ENDBRANCH   6  12
TORSDOF 5
ENDMDL
MODEL 9
REMARK VINA RESULT:      -7.1      1.395      1.792
REMARK SMILES Cc1ccc(Nc2cccc(N=[N+]=[N-])c2O)cc1F
REMARK SMILES IDX 15 1 11 2 10 3 9 4 8 5 7 6 16 7 12 9 13 10 14 11 6 12 5 14
REMARK SMILES IDX 4 15 17 16 3 17 18 18 2 19 19 20 1 21
REMARK H PARENT 16 8 6 13
ROOT
ATOM      1  C   UNL     1      43.075 131.705  20.355  1.00  0.00     0.148 A 
ATOM      2  C   UNL     1      43.570 131.647  21.675  1.00  0.00     0.081 A 
ATOM      3  C   UNL     1      44.953 131.496  21.887  1.00  0.00     0.014 A 
ATOM      4  C   UNL     1      45.828 131.411  20.804  1.00  0.00     0.003 A 
ATOM      5  C   UNL     1      45.336 131.463  19.500  1.00  0.00     0.030 A 
ATOM      6  C   UNL     1      43.961 131.583  19.265  1.00  0.00     0.081 A 
ENDROOT
BRANCH   1   7
ATOM      7  O   UNL     1      41.713 131.904  20.114  1.00  0.00    -0.505 OA
ATOM      8  H   UNL     1      41.014 131.838  20.842  1.00  0.00     0.293 HD
ENDBRANCH   1   7
BRANCH   2   9
ATOM      9  N   UNL     1      42.656 131.754  22.778  1.00  0.00    -0.057 NA
BRANCH   9  10
ATOM     10  N   UNL     1      42.467 130.830  23.571  1.00  0.00     0.005 N 
ATOM     11  N   UNL     1      42.276 129.908  24.362  1.00  0.00    -0.003 NA
ENDBRANCH   9  10
ENDBRANCH   2   9
BRANCH   6  12
ATOM     12  N   UNL     1      43.489 131.640  17.909  1.00  0.00    -0.352 N 
ATOM     13  H   UNL     1      42.510 131.970  17.750  1.00  0.00     0.167 HD
BRANCH  12  14
ATOM     14  C   UNL     1      44.308 131.370  16.757  1.00  0.00     0.041 A 
ATOM     15  C   UNL     1      43.899 131.739  15.463  1.00  0.00     0.026 A 
ATOM     16  C   UNL     1      45.515 130.675  16.919  1.00  0.00     0.065 A 
ATOM     17  C   UNL     1      44.704 131.449  14.358  1.00  0.00     0.008 A 
ATOM     18  C   UNL     1      46.321 130.383  15.814  1.00  0.00     0.128 A 
ATOM     19  C   UNL     1      45.927 130.782  14.526  1.00  0.00    -0.015 A 
ATOM     20  F   UNL     1      47.484 129.707  15.999  1.00  0.00    -0.207 F 
ATOM     21  C   UNL     1      46.776 130.444  13.335  1.00  0.00     0.047 C 
ENDBRANCH  12  14
ENDBRANCH   6  12
TORSDOF 5
ENDMDL


