REMARK SMILES Cc1ccc([NH2+][C@@H]2CCC[C@@H](NN)[C@]2(O)c2nc3ccccc3[n-]2)cc1F
REMARK SMILES IDX 7 1 8 2 9 3 10 4 11 5 14 6 6 7 5 10 2 11 3 12 26 13 4 14
REMARK SMILES IDX 25 15 1 16 27 17 15 18 16 20 17 21 24 22 18 23 23 24 19 25
REMARK SMILES IDX 22 26 20 27 21 28 12 29 13 31
REMARK H PARENT 6 8 6 9 15 19 12 30 13 32 13 33
ROOT
ATOM      1  C   UNL     1       0.036  -0.423   0.524  1.00  0.00     0.225 C 
ATOM      2  C   UNL     1       0.428  -1.924   0.602  1.00  0.00     0.069 C 
ATOM      3  C   UNL     1      -0.245  -2.646   1.776  1.00  0.00     0.008 C 
ATOM      4  C   UNL     1       0.056  -1.946   3.105  1.00  0.00     0.024 C 
ATOM      5  C   UNL     1      -0.345  -0.452   3.065  1.00  0.00     0.111 C 
ATOM      6  C   UNL     1       0.366   0.285   1.883  1.00  0.00     0.150 C 
ENDROOT
BRANCH   1   7
ATOM      7  N   UNL     1      -1.378  -0.236   0.097  1.00  0.00    -0.309 N 
ATOM      8  H   UNL     1      -2.036  -0.728   0.742  1.00  0.00     0.352 HD
ATOM      9  H   UNL     1      -1.638   0.775   0.123  1.00  0.00     0.352 HD
BRANCH   7  10
ATOM     10  C   UNL     1      -1.593  -0.683  -1.261  1.00  0.00     0.132 A 
ATOM     11  C   UNL     1      -1.990  -1.557  -3.912  1.00  0.00    -0.015 A 
ATOM     12  C   UNL     1      -2.453  -2.328  -2.835  1.00  0.00     0.012 A 
ATOM     13  C   UNL     1      -1.345  -0.336  -3.659  1.00  0.00     0.132 A 
ATOM     14  C   UNL     1      -2.254  -1.896  -1.520  1.00  0.00     0.068 A 
ATOM     15  C   UNL     1      -1.145   0.095  -2.344  1.00  0.00     0.107 A 
ATOM     16  C   UNL     1      -2.227  -2.008  -5.325  1.00  0.00     0.047 C 
ATOM     17  F   UNL     1      -0.910   0.439  -4.685  1.00  0.00    -0.206 F 
ENDBRANCH   7  10
ENDBRANCH   1   7
BRANCH   6  18
ATOM     18  O   UNL     1       1.766   0.218   2.063  1.00  0.00    -0.378 OA
ATOM     19  H   UNL     1       2.018   0.798   2.828  1.00  0.00     0.212 HD
ENDBRANCH   6  18
BRANCH   6  20
ATOM     20  C   UNL     1      -0.043   1.749   1.811  1.00  0.00    -0.042 A 
ATOM     21  N   UNL     1      -1.180   2.239   2.378  1.00  0.00    -0.437 NA
ATOM     22  N   UNL     1       0.665   2.665   1.096  1.00  0.00    -0.437 NA
ATOM     23  C   UNL     1      -1.160   3.526   2.008  1.00  0.00    -0.038 A 
ATOM     24  C   UNL     1      -0.063   3.780   1.245  1.00  0.00    -0.038 A 
ATOM     25  C   UNL     1      -2.095   4.515   2.309  1.00  0.00     0.004 A 
ATOM     26  C   UNL     1       0.195   5.043   0.718  1.00  0.00     0.004 A 
ATOM     27  C   UNL     1      -1.867   5.806   1.796  1.00  0.00     0.000 A 
ATOM     28  C   UNL     1      -0.727   6.069   1.003  1.00  0.00     0.000 A 
ENDBRANCH   6  20
BRANCH   5  29
ATOM     29  N   UNL     1      -0.040   0.210   4.348  1.00  0.00    -0.254 NA
ATOM     30  H   UNL     1       0.906  -0.096   4.681  1.00  0.00     0.141 HD
BRANCH  29  31
ATOM     31  N   UNL     1      -0.986  -0.192   5.309  1.00  0.00    -0.271 NA
ATOM     32  H   UNL     1      -1.849   0.377   5.150  1.00  0.00     0.137 HD
ATOM     33  H   UNL     1      -0.629   0.100   6.248  1.00  0.00     0.137 HD
ENDBRANCH  29  31
ENDBRANCH   5  29
TORSDOF 6


