REMARK SMILES Cc1ccc(CCC(OC(=O)[N-]C(=O)C(Cl)(Cl)Cl)=C2CCC2)c(C)c1
REMARK SMILES IDX 9 1 8 2 7 3 6 4 5 5 2 6 3 7 25 8 4 9 23 10 1 11 24 12 19 13
REMARK SMILES IDX 20 14 22 15 21 16 10 17 11 18 12 19 13 20 14 21 15 22 16 23
REMARK SMILES IDX 17 24 18 25
REMARK H PARENT
ROOT
ATOM      1  O   UNL     1       1.919  -0.293  -0.896  1.00  0.00    -0.443 OA
ENDROOT
BRANCH   1   2
ATOM      2  C   UNL     1       0.935  -1.123  -0.333  1.00  0.00     0.105 C 
BRANCH   2   3
ATOM      3  C   UNL     1      -0.100  -1.873  -1.146  1.00  0.00     0.080 C 
BRANCH   3   4
ATOM      4  C   UNL     1      -1.180  -0.933  -1.706  1.00  0.00     0.044 C 
BRANCH   4   5
ATOM      5  C   UNL     1      -2.006  -0.302  -0.603  1.00  0.00    -0.045 A 
ATOM      6  C   UNL     1      -3.384   0.888   1.551  1.00  0.00    -0.051 A 
ATOM      7  C   UNL     1      -2.256   1.509   1.005  1.00  0.00     0.004 A 
ATOM      8  C   UNL     1      -3.843  -0.316   1.000  1.00  0.00     0.007 A 
ATOM      9  C   UNL     1      -1.572   0.919  -0.057  1.00  0.00     0.004 A 
ATOM     10  C   UNL     1      -3.159  -0.929  -0.065  1.00  0.00    -0.048 A 
ATOM     11  C   UNL     1      -4.140   1.542   2.670  1.00  0.00     0.044 C 
ATOM     12  C   UNL     1      -3.696  -2.219  -0.630  1.00  0.00     0.044 C 
ENDBRANCH   4   5
ENDBRANCH   3   4
ENDBRANCH   2   3
BRANCH   2  13
ATOM     13  C   UNL     1       0.885  -1.187   0.997  1.00  0.00    -0.032 C 
ATOM     14  C   UNL     1       1.648  -0.583   2.159  1.00  0.00     0.035 C 
ATOM     15  C   UNL     1       0.041  -1.857   2.066  1.00  0.00     0.035 C 
ATOM     16  C   UNL     1       0.803  -1.248   3.197  1.00  0.00     0.009 C 
ENDBRANCH   2  13
ENDBRANCH   1   2
BRANCH   1  17
ATOM     17  C   UNL     1       2.221  -0.111  -2.255  1.00  0.00     0.240 C 
ATOM     18  O   UNL     1       1.716  -0.844  -3.144  1.00  0.00    -0.273 OA
BRANCH  17  19
ATOM     19  N   UNL     1       3.143   0.907  -2.651  1.00  0.00    -0.556 NA
BRANCH  19  20
ATOM     20  C   UNL     1       3.782   1.833  -1.762  1.00  0.00     0.111 C 
ATOM     21  O   UNL     1       3.509   1.825  -0.530  1.00  0.00    -0.315 OA
BRANCH  20  22
ATOM     22  C   UNL     1       4.729   2.857  -2.320  1.00  0.00     0.232 C 
ATOM     23  Cl  UNL     1       5.874   2.083  -3.446  1.00  0.00    -0.077 Cl
ATOM     24  Cl  UNL     1       5.672   3.658  -1.031  1.00  0.00    -0.077 Cl
ATOM     25  Cl  UNL     1       3.802   4.095  -3.200  1.00  0.00    -0.077 Cl
ENDBRANCH  20  22
ENDBRANCH  19  20
ENDBRANCH  17  19
ENDBRANCH   1  17
TORSDOF 9


