REMARK SMILES Cc1ccc([NH2+]CCC[Si](C)(C)C)c(-c2ccc3c(c2)[N-]C(=O)C3)c1
REMARK SMILES IDX 7 1 6 2 5 5 2 6 3 7 25 8 4 9 14 10 1 11 15 12 16 13 20 14
REMARK SMILES IDX 17 15 19 16 18 17 21 18 24 19 22 20 23 21 8 22 9 23 10 24
REMARK SMILES IDX 11 25 12 26 13 27
REMARK H PARENT 6 3 6 4
ROOT
ATOM      1  C   UNL     1       0.386  -1.260   2.234  1.00  0.00     0.265 C 
ENDROOT
BRANCH   1   2
ATOM      2  N   UNL     1      -1.008  -1.646   1.949  1.00  0.00    -0.313 N 
ATOM      3  H   UNL     1      -1.213  -1.613   0.926  1.00  0.00     0.352 HD
ATOM      4  H   UNL     1      -1.151  -2.641   2.244  1.00  0.00     0.352 HD
BRANCH   2   5
ATOM      5  C   UNL     1      -1.923  -0.784   2.662  1.00  0.00     0.137 A 
ATOM      6  C   UNL     1      -3.593   0.931   4.158  1.00  0.00    -0.050 A 
ATOM      7  C   UNL     1      -3.210  -0.313   4.676  1.00  0.00     0.009 A 
ATOM      8  C   UNL     1      -3.155   1.312   2.882  1.00  0.00     0.018 A 
ATOM      9  C   UNL     1      -2.373  -1.155   3.942  1.00  0.00     0.068 A 
ATOM     10  C   UNL     1      -2.322   0.470   2.131  1.00  0.00     0.043 A 
ATOM     11  C   UNL     1      -4.519   1.819   4.935  1.00  0.00     0.044 C 
BRANCH  10  12
ATOM     12  C   UNL     1      -1.865   0.926   0.805  1.00  0.00    -0.014 A 
ATOM     13  C   UNL     1      -2.456   0.404  -0.368  1.00  0.00     0.009 A 
ATOM     14  C   UNL     1      -0.828   1.874   0.707  1.00  0.00    -0.007 A 
ATOM     15  C   UNL     1      -2.000   0.807  -1.634  1.00  0.00     0.003 A 
ATOM     16  C   UNL     1      -0.391   2.253  -0.561  1.00  0.00    -0.130 A 
ATOM     17  C   UNL     1      -0.960   1.733  -1.703  1.00  0.00    -0.057 A 
ATOM     18  N   UNL     1       0.663   3.161  -0.836  1.00  0.00    -0.626 NA
ATOM     19  C   UNL     1      -0.305   2.293  -2.916  1.00  0.00     0.089 C 
ATOM     20  C   UNL     1       0.714   3.176  -2.261  1.00  0.00     0.059 C 
ATOM     21  O   UNL     1       1.544   3.874  -2.900  1.00  0.00    -0.320 OA
ENDBRANCH  10  12
ENDBRANCH   2   5
ENDBRANCH   1   2
BRANCH   1  22
ATOM     22  C   UNL     1       1.361  -1.814   1.181  1.00  0.00     0.059 C 
BRANCH  22  23
ATOM     23  C   UNL     1       1.354  -0.971  -0.101  1.00  0.00    -0.005 C 
BRANCH  23  24
ATOM     24  Si  UNL     1       2.599  -1.594  -1.356  1.00  0.00     0.044 Si
ATOM     25  C   UNL     1       2.454  -0.555  -2.898  1.00  0.00    -0.010 C 
ATOM     26  C   UNL     1       4.332  -1.441  -0.677  1.00  0.00    -0.010 C 
ATOM     27  C   UNL     1       2.249  -3.377  -1.788  1.00  0.00    -0.010 C 
ENDBRANCH  23  24
ENDBRANCH  22  23
ENDBRANCH   1  22
TORSDOF 6


