REMARK SMILES CC(=O)n1[nH+]c2cc(-c3c[nH+]c(F)cc3C)ccc2c1C
REMARK SMILES IDX 4 1 5 2 6 3 7 4 8 5 17 6 18 7 19 8 20 9 21 10 2 12 1 13 3 14
REMARK SMILES IDX 9 15 10 16 15 17 11 18 14 19 12 20 16 21 13 23
REMARK H PARENT 5 11 11 22
ROOT
ATOM      1  N   UNL     1       1.308  -1.509  -1.563  1.00  0.00    -0.091 N 
ATOM      2  N   UNL     1       1.625  -0.997  -0.375  1.00  0.00    -0.116 N 
ATOM      3  C   UNL     1       0.615  -0.208   0.022  1.00  0.00     0.237 A 
ATOM      4  C   UNL     1       0.517   0.532   1.197  1.00  0.00     0.091 A 
ATOM      5  C   UNL     1      -0.655   1.296   1.401  1.00  0.00    -0.005 A 
ATOM      6  C   UNL     1      -1.673   1.303   0.411  1.00  0.00     0.010 A 
ATOM      7  C   UNL     1      -1.538   0.543  -0.765  1.00  0.00     0.018 A 
ATOM      8  C   UNL     1      -0.373  -0.206  -0.924  1.00  0.00     0.074 A 
ATOM      9  C   UNL     1       0.080  -1.041  -1.931  1.00  0.00     0.097 A 
ATOM     10  C   UNL     1      -0.642  -1.373  -3.204  1.00  0.00     0.072 C 
ATOM     11  H   UNL     1       2.507  -1.179   0.154  1.00  0.00     0.489 HD
ENDROOT
BRANCH   1  12
ATOM     12  C   UNL     1       2.161  -2.408  -2.301  1.00  0.00     0.279 C 
ATOM     13  C   UNL     1       3.487  -2.832  -1.750  1.00  0.00     0.121 C 
ATOM     14  O   UNL     1       1.804  -2.851  -3.425  1.00  0.00    -0.269 OA
ENDBRANCH   1  12
BRANCH   5  15
ATOM     15  C   UNL     1      -0.811   2.111   2.627  1.00  0.00     0.049 A 
ATOM     16  C   UNL     1      -0.993   3.497   2.501  1.00  0.00     0.317 A 
ATOM     17  C   UNL     1      -0.787   1.542   3.922  1.00  0.00    -0.028 A 
ATOM     18  N   UNL     1      -1.114   4.282   3.605  1.00  0.00    -0.186 N 
ATOM     19  C   UNL     1      -0.896   2.385   5.038  1.00  0.00     0.118 A 
ATOM     20  C   UNL     1      -1.062   3.759   4.858  1.00  0.00     0.358 A 
ATOM     21  C   UNL     1      -0.634   0.060   4.141  1.00  0.00     0.045 C 
ATOM     22  H   UNL     1      -1.242   5.312   3.485  1.00  0.00     0.456 HD
ATOM     23  F   UNL     1      -1.177   4.572   5.937  1.00  0.00    -0.136 F 
ENDBRANCH   5  15
TORSDOF 2


