REMARK SMILES Cc1ccc(NC(=O)[N-]c2c(F)cc(F)cc2F)c(-c2ccc3c(c2)[N-]C(=O)C3)c1
REMARK SMILES IDX 6 1 7 2 8 3 5 5 2 6 3 7 30 8 4 9 19 10 1 11 20 12 21 13
REMARK SMILES IDX 25 14 22 15 24 16 23 17 26 18 29 19 27 20 28 21 9 22 10 23
REMARK SMILES IDX 11 24 17 25 13 26 16 27 14 28 12 29 18 30 15 31
REMARK H PARENT 6 4
ROOT
ATOM      1  N   UNL     1      -0.379  -1.394  -1.292  1.00  0.00    -0.423 N 
ATOM      2  C   UNL     1       0.862  -0.827  -0.853  1.00  0.00     0.160 C 
ATOM      3  O   UNL     1       1.036   0.422  -0.883  1.00  0.00    -0.298 OA
ATOM      4  H   UNL     1      -0.394  -2.411  -1.534  1.00  0.00     0.029 HD
ENDROOT
BRANCH   1   5
ATOM      5  C   UNL     1      -1.529  -0.597  -1.613  1.00  0.00    -0.033 A 
ATOM      6  C   UNL     1      -3.722   0.999  -2.367  1.00  0.00    -0.051 A 
ATOM      7  C   UNL     1      -3.204   0.045  -3.251  1.00  0.00     0.004 A 
ATOM      8  C   UNL     1      -3.172   1.120  -1.083  1.00  0.00     0.012 A 
ATOM      9  C   UNL     1      -2.116  -0.744  -2.877  1.00  0.00     0.004 A 
ATOM     10  C   UNL     1      -2.084   0.322  -0.688  1.00  0.00    -0.015 A 
ATOM     11  C   UNL     1      -4.914   1.822  -2.758  1.00  0.00     0.044 C 
BRANCH  10  12
ATOM     12  C   UNL     1      -1.589   0.425   0.706  1.00  0.00    -0.019 A 
ATOM     13  C   UNL     1      -1.459  -0.736   1.508  1.00  0.00     0.009 A 
ATOM     14  C   UNL     1      -1.259   1.685   1.249  1.00  0.00    -0.007 A 
ATOM     15  C   UNL     1      -0.987  -0.645   2.826  1.00  0.00     0.003 A 
ATOM     16  C   UNL     1      -0.794   1.747   2.562  1.00  0.00    -0.130 A 
ATOM     17  C   UNL     1      -0.659   0.612   3.331  1.00  0.00    -0.057 A 
ATOM     18  N   UNL     1      -0.395   2.924   3.243  1.00  0.00    -0.626 NA
ATOM     19  C   UNL     1      -0.124   0.953   4.677  1.00  0.00     0.089 C 
ATOM     20  C   UNL     1       0.009   2.437   4.522  1.00  0.00     0.059 C 
ATOM     21  O   UNL     1       0.437   3.197   5.429  1.00  0.00    -0.320 OA
ENDBRANCH  10  12
ENDBRANCH   1   5
BRANCH   2  22
ATOM     22  N   UNL     1       1.926  -1.697  -0.452  1.00  0.00    -0.396 NA
BRANCH  22  23
ATOM     23  C   UNL     1       3.116  -1.304   0.248  1.00  0.00     0.034 A 
ATOM     24  C   UNL     1       4.311  -1.990  -0.019  1.00  0.00     0.132 A 
ATOM     25  C   UNL     1       3.105  -0.300   1.238  1.00  0.00     0.132 A 
ATOM     26  C   UNL     1       5.487  -1.649   0.656  1.00  0.00     0.079 A 
ATOM     27  C   UNL     1       4.285   0.035   1.910  1.00  0.00     0.079 A 
ATOM     28  C   UNL     1       5.476  -0.633   1.615  1.00  0.00     0.129 A 
ATOM     29  F   UNL     1       4.336  -2.981  -0.945  1.00  0.00    -0.207 F 
ATOM     30  F   UNL     1       1.953   0.315   1.600  1.00  0.00    -0.207 F 
ATOM     31  F   UNL     1       6.617  -0.307   2.271  1.00  0.00    -0.207 F 
ENDBRANCH  22  23
ENDBRANCH   2  22
TORSDOF 4


