MODEL 1
REMARK VINA RESULT:      -8.2      0.000      0.000
REMARK SMILES Cc1ccc2ccc([C@@H]3CCCN(c4ccc(F)c(F)n4)[C@@H]3F)nc2c1F
REMARK SMILES IDX 9 1 10 2 11 3 12 4 13 5 22 6 23 7 8 8 2 9 3 10 26 11 4 12
REMARK SMILES IDX 25 13 5 14 24 15 6 16 7 17 1 18 27 19 14 20 15 21 21 22
REMARK SMILES IDX 16 23 19 24 17 25 20 26 18 27
REMARK H PARENT
ROOT
ATOM      1  C   UNL     1      44.719 130.976  22.599  1.00  0.00     0.093 C 
ATOM      2  C   UNL     1      43.449 131.726  23.048  1.00  0.00     0.017 C 
ATOM      3  C   UNL     1      42.353 131.686  21.978  1.00  0.00     0.022 C 
ATOM      4  C   UNL     1      42.873 132.232  20.648  1.00  0.00     0.121 C 
ATOM      5  N   UNL     1      44.111 131.542  20.256  1.00  0.00    -0.326 N 
ATOM      6  C   UNL     1      45.212 131.507  21.234  1.00  0.00     0.273 C 
ATOM      7  F   UNL     1      46.255 130.711  20.782  1.00  0.00    -0.223 F 
ENDROOT
BRANCH   1   8
ATOM      8  C   UNL     1      44.489 129.477  22.598  1.00  0.00     0.049 A 
ATOM      9  C   UNL     1      41.771 125.721  23.906  1.00  0.00    -0.013 A 
ATOM     10  C   UNL     1      42.713 124.841  23.347  1.00  0.00     0.007 A 
ATOM     11  C   UNL     1      42.005 127.106  23.861  1.00  0.00     0.152 A 
ATOM     12  C   UNL     1      43.866 125.336  22.731  1.00  0.00     0.011 A 
ATOM     13  C   UNL     1      43.160 127.605  23.245  1.00  0.00     0.106 A 
ATOM     14  C   UNL     1      44.095 126.717  22.675  1.00  0.00     0.003 A 
ATOM     15  N   UNL     1      43.385 128.946  23.196  1.00  0.00    -0.249 NA
ATOM     16  C   UNL     1      45.243 127.238  22.068  1.00  0.00     0.012 A 
ATOM     17  C   UNL     1      45.444 128.620  22.032  1.00  0.00     0.025 A 
ATOM     18  C   UNL     1      40.544 125.186  24.587  1.00  0.00     0.047 C 
ATOM     19  F   UNL     1      41.111 127.967  24.414  1.00  0.00    -0.204 F 
ENDBRANCH   1   8
BRANCH   5  20
ATOM     20  C   UNL     1      44.374 131.304  18.861  1.00  0.00     0.134 A 
ATOM     21  C   UNL     1      43.477 131.752  17.878  1.00  0.00     0.050 A 
ATOM     22  N   UNL     1      45.493 130.623  18.484  1.00  0.00    -0.200 NA
ATOM     23  C   UNL     1      43.749 131.496  16.532  1.00  0.00     0.048 A 
ATOM     24  C   UNL     1      45.776 130.366  17.179  1.00  0.00     0.250 A 
ATOM     25  C   UNL     1      44.905 130.802  16.176  1.00  0.00     0.178 A 
ATOM     26  F   UNL     1      46.903 129.686  16.855  1.00  0.00    -0.182 F 
ATOM     27  F   UNL     1      45.177 130.549  14.872  1.00  0.00    -0.202 F 
ENDBRANCH   5  20
TORSDOF 2
ENDMDL
MODEL 2
REMARK VINA RESULT:      -8.1      0.760      1.285
REMARK SMILES Cc1ccc2ccc([C@@H]3CCCN(c4ccc(F)c(F)n4)[C@@H]3F)nc2c1F
REMARK SMILES IDX 9 1 10 2 11 3 12 4 13 5 22 6 23 7 8 8 2 9 3 10 26 11 4 12
REMARK SMILES IDX 25 13 5 14 24 15 6 16 7 17 1 18 27 19 14 20 15 21 21 22
REMARK SMILES IDX 16 23 19 24 17 25 20 26 18 27
REMARK H PARENT
ROOT
ATOM      1  C   UNL     1      44.663 130.943  22.416  1.00  0.00     0.093 C 
ATOM      2  C   UNL     1      43.323 131.642  22.717  1.00  0.00     0.017 C 
ATOM      3  C   UNL     1      42.333 131.503  21.556  1.00  0.00     0.022 C 
ATOM      4  C   UNL     1      42.945 132.023  20.255  1.00  0.00     0.121 C 
ATOM      5  N   UNL     1      44.245 131.384  20.006  1.00  0.00    -0.326 N 
ATOM      6  C   UNL     1      45.252 131.445  21.079  1.00  0.00     0.273 C 
ATOM      7  F   UNL     1      46.371 130.688  20.757  1.00  0.00    -0.223 F 
ENDROOT
BRANCH   1   8
ATOM      8  C   UNL     1      44.507 129.434  22.460  1.00  0.00     0.049 A 
ATOM      9  C   UNL     1      41.996 125.589  23.911  1.00  0.00    -0.013 A 
ATOM     10  C   UNL     1      42.973 124.740  23.362  1.00  0.00     0.007 A 
ATOM     11  C   UNL     1      42.161 126.982  23.825  1.00  0.00     0.152 A 
ATOM     12  C   UNL     1      44.092 125.273  22.716  1.00  0.00     0.011 A 
ATOM     13  C   UNL     1      43.281 127.519  23.178  1.00  0.00     0.106 A 
ATOM     14  C   UNL     1      44.251 126.662  22.618  1.00  0.00     0.003 A 
ATOM     15  N   UNL     1      43.440 128.867  23.089  1.00  0.00    -0.249 NA
ATOM     16  C   UNL     1      45.364 127.221  21.979  1.00  0.00     0.012 A 
ATOM     17  C   UNL     1      45.496 128.609  21.903  1.00  0.00     0.025 A 
ATOM     18  C   UNL     1      40.807 125.013  24.625  1.00  0.00     0.047 C 
ATOM     19  F   UNL     1      41.234 127.812  24.367  1.00  0.00    -0.204 F 
ENDBRANCH   1   8
BRANCH   5  20
ATOM     20  C   UNL     1      44.646 131.106  18.651  1.00  0.00     0.134 A 
ATOM     21  C   UNL     1      45.736 130.262  18.387  1.00  0.00     0.050 A 
ATOM     22  N   UNL     1      43.976 131.678  17.611  1.00  0.00    -0.200 NA
ATOM     23  C   UNL     1      46.113 130.020  17.065  1.00  0.00     0.048 A 
ATOM     24  C   UNL     1      44.326 131.453  16.316  1.00  0.00     0.250 A 
ATOM     25  C   UNL     1      45.404 130.615  16.020  1.00  0.00     0.178 A 
ATOM     26  F   UNL     1      43.627 132.045  15.317  1.00  0.00    -0.182 F 
ATOM     27  F   UNL     1      45.763 130.386  14.733  1.00  0.00    -0.202 F 
ENDBRANCH   5  20
TORSDOF 2
ENDMDL
MODEL 3
REMARK VINA RESULT:      -7.7      1.706      2.660
REMARK SMILES Cc1ccc2ccc([C@@H]3CCCN(c4ccc(F)c(F)n4)[C@@H]3F)nc2c1F
REMARK SMILES IDX 9 1 10 2 11 3 12 4 13 5 22 6 23 7 8 8 2 9 3 10 26 11 4 12
REMARK SMILES IDX 25 13 5 14 24 15 6 16 7 17 1 18 27 19 14 20 15 21 21 22
REMARK SMILES IDX 16 23 19 24 17 25 20 26 18 27
REMARK H PARENT
ROOT
ATOM      1  C   UNL     1      44.514 131.280  22.683  1.00  0.00     0.093 C 
ATOM      2  C   UNL     1      43.275 132.164  22.929  1.00  0.00     0.017 C 
ATOM      3  C   UNL     1      42.274 132.078  21.771  1.00  0.00     0.022 C 
ATOM      4  C   UNL     1      42.947 132.429  20.444  1.00  0.00     0.121 C 
ATOM      5  N   UNL     1      44.154 131.614  20.247  1.00  0.00    -0.326 N 
ATOM      6  C   UNL     1      45.162 131.615  21.321  1.00  0.00     0.273 C 
ATOM      7  F   UNL     1      46.173 130.701  21.057  1.00  0.00    -0.223 F 
ENDROOT
BRANCH   1   8
ATOM      8  C   UNL     1      44.165 129.811  22.824  1.00  0.00     0.049 A 
ATOM      9  C   UNL     1      45.475 125.198  22.361  1.00  0.00    -0.013 A 
ATOM     10  C   UNL     1      44.190 124.791  22.757  1.00  0.00     0.007 A 
ATOM     11  C   UNL     1      45.770 126.570  22.270  1.00  0.00     0.152 A 
ATOM     12  C   UNL     1      43.214 125.738  23.079  1.00  0.00     0.011 A 
ATOM     13  C   UNL     1      44.794 127.522  22.592  1.00  0.00     0.106 A 
ATOM     14  C   UNL     1      43.510 127.105  23.001  1.00  0.00     0.003 A 
ATOM     15  N   UNL     1      45.079 128.850  22.510  1.00  0.00    -0.249 NA
ATOM     16  C   UNL     1      42.551 128.075  23.315  1.00  0.00     0.012 A 
ATOM     17  C   UNL     1      42.876 129.430  23.223  1.00  0.00     0.025 A 
ATOM     18  C   UNL     1      46.514 124.178  21.994  1.00  0.00     0.047 C 
ATOM     19  F   UNL     1      47.003 126.977  21.872  1.00  0.00    -0.204 F 
ENDBRANCH   1   8
BRANCH   5  20
ATOM     20  C   UNL     1      44.515 131.199  18.916  1.00  0.00     0.134 A 
ATOM     21  C   UNL     1      45.600 130.334  18.706  1.00  0.00     0.050 A 
ATOM     22  N   UNL     1      43.812 131.662  17.844  1.00  0.00    -0.200 NA
ATOM     23  C   UNL     1      45.937 129.957  17.405  1.00  0.00     0.048 A 
ATOM     24  C   UNL     1      44.123 131.306  16.569  1.00  0.00     0.250 A 
ATOM     25  C   UNL     1      45.195 130.443  16.327  1.00  0.00     0.178 A 
ATOM     26  F   UNL     1      43.393 131.792  15.536  1.00  0.00    -0.182 F 
ATOM     27  F   UNL     1      45.516 130.083  15.060  1.00  0.00    -0.202 F 
ENDBRANCH   5  20
TORSDOF 2
ENDMDL
MODEL 4
REMARK VINA RESULT:      -7.6      2.060      6.855
REMARK SMILES Cc1ccc2ccc([C@@H]3CCCN(c4ccc(F)c(F)n4)[C@@H]3F)nc2c1F
REMARK SMILES IDX 9 1 10 2 11 3 12 4 13 5 22 6 23 7 8 8 2 9 3 10 26 11 4 12
REMARK SMILES IDX 25 13 5 14 24 15 6 16 7 17 1 18 27 19 14 20 15 21 21 22
REMARK SMILES IDX 16 23 19 24 17 25 20 26 18 27
REMARK H PARENT
ROOT
ATOM      1  C   UNL     1      43.006 131.619  22.287  1.00  0.00     0.093 C 
ATOM      2  C   UNL     1      43.779 132.441  23.338  1.00  0.00     0.017 C 
ATOM      3  C   UNL     1      44.881 131.614  24.011  1.00  0.00     0.022 C 
ATOM      4  C   UNL     1      44.305 130.338  24.624  1.00  0.00     0.121 C 
ATOM      5  N   UNL     1      43.530 129.591  23.623  1.00  0.00    -0.326 N 
ATOM      6  C   UNL     1      42.465 130.312  22.906  1.00  0.00     0.273 C 
ATOM      7  F   UNL     1      41.915 129.523  21.904  1.00  0.00    -0.223 F 
ENDROOT
BRANCH   1   8
ATOM      8  C   UNL     1      43.860 131.378  21.056  1.00  0.00     0.049 A 
ATOM      9  C   UNL     1      44.297 131.449  16.260  1.00  0.00    -0.013 A 
ATOM     10  C   UNL     1      45.587 130.903  16.367  1.00  0.00     0.007 A 
ATOM     11  C   UNL     1      43.546 131.686  17.425  1.00  0.00     0.152 A 
ATOM     12  C   UNL     1      46.133 130.616  17.620  1.00  0.00     0.011 A 
ATOM     13  C   UNL     1      44.090 131.399  18.683  1.00  0.00     0.106 A 
ATOM     14  C   UNL     1      45.392 130.863  18.783  1.00  0.00     0.003 A 
ATOM     15  N   UNL     1      43.368 131.632  19.811  1.00  0.00    -0.249 NA
ATOM     16  C   UNL     1      45.913 130.581  20.050  1.00  0.00     0.012 A 
ATOM     17  C   UNL     1      45.147 130.834  21.190  1.00  0.00     0.025 A 
ATOM     18  C   UNL     1      43.704 131.736  14.910  1.00  0.00     0.047 C 
ATOM     19  F   UNL     1      42.291 132.197  17.334  1.00  0.00    -0.204 F 
ENDBRANCH   1   8
BRANCH   5  20
ATOM     20  C   UNL     1      43.529 128.151  23.664  1.00  0.00     0.134 A 
ATOM     21  C   UNL     1      42.600 127.459  24.457  1.00  0.00     0.050 A 
ATOM     22  N   UNL     1      44.446 127.447  22.942  1.00  0.00    -0.200 NA
ATOM     23  C   UNL     1      42.629 126.064  24.489  1.00  0.00     0.048 A 
ATOM     24  C   UNL     1      44.489 126.088  22.958  1.00  0.00     0.250 A 
ATOM     25  C   UNL     1      43.576 125.370  23.734  1.00  0.00     0.178 A 
ATOM     26  F   UNL     1      45.421 125.435  22.222  1.00  0.00    -0.182 F 
ATOM     27  F   UNL     1      43.612 124.015  23.760  1.00  0.00    -0.202 F 
ENDBRANCH   5  20
TORSDOF 2
ENDMDL
MODEL 5
REMARK VINA RESULT:      -7.4      1.580      2.193
REMARK SMILES Cc1ccc2ccc([C@@H]3CCCN(c4ccc(F)c(F)n4)[C@@H]3F)nc2c1F
REMARK SMILES IDX 9 1 10 2 11 3 12 4 13 5 22 6 23 7 8 8 2 9 3 10 26 11 4 12
REMARK SMILES IDX 25 13 5 14 24 15 6 16 7 17 1 18 27 19 14 20 15 21 21 22
REMARK SMILES IDX 16 23 19 24 17 25 20 26 18 27
REMARK H PARENT
ROOT
ATOM      1  C   UNL     1      44.395 130.112  23.800  1.00  0.00     0.093 C 
ATOM      2  C   UNL     1      43.360 130.909  24.620  1.00  0.00     0.017 C 
ATOM      3  C   UNL     1      42.156 131.325  23.769  1.00  0.00     0.022 C 
ATOM      4  C   UNL     1      42.607 132.112  22.537  1.00  0.00     0.121 C 
ATOM      5  N   UNL     1      43.628 131.362  21.793  1.00  0.00    -0.326 N 
ATOM      6  C   UNL     1      44.812 130.898  22.537  1.00  0.00     0.273 C 
ATOM      7  F   UNL     1      45.617 130.093  21.741  1.00  0.00    -0.223 F 
ENDROOT
BRANCH   1   8
ATOM      8  C   UNL     1      43.877 128.722  23.484  1.00  0.00     0.049 A 
ATOM      9  C   UNL     1      40.233 125.572  23.509  1.00  0.00    -0.013 A 
ATOM     10  C   UNL     1      41.087 124.575  23.008  1.00  0.00     0.007 A 
ATOM     11  C   UNL     1      40.742 126.858  23.763  1.00  0.00     0.152 A 
ATOM     12  C   UNL     1      42.429 124.861  22.742  1.00  0.00     0.011 A 
ATOM     13  C   UNL     1      42.086 127.147  23.497  1.00  0.00     0.106 A 
ATOM     14  C   UNL     1      42.935 126.145  22.982  1.00  0.00     0.003 A 
ATOM     15  N   UNL     1      42.579 128.392  23.737  1.00  0.00    -0.249 NA
ATOM     16  C   UNL     1      44.275 126.456  22.728  1.00  0.00     0.012 A 
ATOM     17  C   UNL     1      44.750 127.745  22.982  1.00  0.00     0.025 A 
ATOM     18  C   UNL     1      38.797 125.256  23.816  1.00  0.00     0.047 C 
ATOM     19  F   UNL     1      39.931 127.825  24.264  1.00  0.00    -0.204 F 
ENDBRANCH   1   8
BRANCH   5  20
ATOM     20  C   UNL     1      43.668 131.460  20.357  1.00  0.00     0.134 A 
ATOM     21  C   UNL     1      44.834 131.127  19.649  1.00  0.00     0.050 A 
ATOM     22  N   UNL     1      42.573 131.897  19.673  1.00  0.00    -0.200 NA
ATOM     23  C   UNL     1      44.850 131.244  18.258  1.00  0.00     0.048 A 
ATOM     24  C   UNL     1      42.568 132.016  18.318  1.00  0.00     0.250 A 
ATOM     25  C   UNL     1      43.711 131.689  17.584  1.00  0.00     0.178 A 
ATOM     26  F   UNL     1      41.453 132.455  17.684  1.00  0.00    -0.182 F 
ATOM     27  F   UNL     1      43.718 131.806  16.234  1.00  0.00    -0.202 F 
ENDBRANCH   5  20
TORSDOF 2
ENDMDL
MODEL 6
REMARK VINA RESULT:      -7.4      1.782      2.660
REMARK SMILES Cc1ccc2ccc([C@@H]3CCCN(c4ccc(F)c(F)n4)[C@@H]3F)nc2c1F
REMARK SMILES IDX 9 1 10 2 11 3 12 4 13 5 22 6 23 7 8 8 2 9 3 10 26 11 4 12
REMARK SMILES IDX 25 13 5 14 24 15 6 16 7 17 1 18 27 19 14 20 15 21 21 22
REMARK SMILES IDX 16 23 19 24 17 25 20 26 18 27
REMARK H PARENT
ROOT
ATOM      1  C   UNL     1      44.305 130.576  23.820  1.00  0.00     0.093 C 
ATOM      2  C   UNL     1      43.222 131.347  24.599  1.00  0.00     0.017 C 
ATOM      3  C   UNL     1      41.981 131.613  23.740  1.00  0.00     0.022 C 
ATOM      4  C   UNL     1      42.359 132.345  22.452  1.00  0.00     0.121 C 
ATOM      5  N   UNL     1      43.427 131.624  21.745  1.00  0.00    -0.326 N 
ATOM      6  C   UNL     1      44.649 131.302  22.500  1.00  0.00     0.273 C 
ATOM      7  F   UNL     1      45.505 130.507  21.749  1.00  0.00    -0.223 F 
ENDROOT
BRANCH   1   8
ATOM      8  C   UNL     1      43.892 129.132  23.607  1.00  0.00     0.049 A 
ATOM      9  C   UNL     1      45.107 124.628  22.408  1.00  0.00    -0.013 A 
ATOM     10  C   UNL     1      43.763 124.232  22.524  1.00  0.00     0.007 A 
ATOM     11  C   UNL     1      45.456 125.969  22.642  1.00  0.00     0.152 A 
ATOM     12  C   UNL     1      42.781 125.157  22.889  1.00  0.00     0.011 A 
ATOM     13  C   UNL     1      44.474 126.898  23.007  1.00  0.00     0.106 A 
ATOM     14  C   UNL     1      43.130 126.491  23.134  1.00  0.00     0.003 A 
ATOM     15  N   UNL     1      44.811 128.196  23.239  1.00  0.00    -0.249 NA
ATOM     16  C   UNL     1      42.165 127.438  23.497  1.00  0.00     0.012 A 
ATOM     17  C   UNL     1      42.544 128.762  23.730  1.00  0.00     0.025 A 
ATOM     18  C   UNL     1      46.156 123.637  21.994  1.00  0.00     0.047 C 
ATOM     19  F   UNL     1      46.748 126.369  22.516  1.00  0.00    -0.204 F 
ENDBRANCH   1   8
BRANCH   5  20
ATOM     20  C   UNL     1      43.445 131.626  20.305  1.00  0.00     0.134 A 
ATOM     21  C   UNL     1      42.268 131.857  19.576  1.00  0.00     0.050 A 
ATOM     22  N   UNL     1      44.608 131.384  19.637  1.00  0.00    -0.200 NA
ATOM     23  C   UNL     1      42.310 131.841  18.180  1.00  0.00     0.048 A 
ATOM     24  C   UNL     1      44.671 131.366  18.278  1.00  0.00     0.250 A 
ATOM     25  C   UNL     1      43.517 131.597  17.524  1.00  0.00     0.178 A 
ATOM     26  F   UNL     1      45.852 131.122  17.661  1.00  0.00    -0.182 F 
ATOM     27  F   UNL     1      43.567 131.578  16.169  1.00  0.00    -0.202 F 
ENDBRANCH   5  20
TORSDOF 2
ENDMDL
MODEL 7
REMARK VINA RESULT:      -7.2      1.572      2.361
REMARK SMILES Cc1ccc2ccc([C@@H]3CCCN(c4ccc(F)c(F)n4)[C@@H]3F)nc2c1F
REMARK SMILES IDX 9 1 10 2 11 3 12 4 13 5 22 6 23 7 8 8 2 9 3 10 26 11 4 12
REMARK SMILES IDX 25 13 5 14 24 15 6 16 7 17 1 18 27 19 14 20 15 21 21 22
REMARK SMILES IDX 16 23 19 24 17 25 20 26 18 27
REMARK H PARENT
ROOT
ATOM      1  C   UNL     1      44.467 131.215  22.881  1.00  0.00     0.093 C 
ATOM      2  C   UNL     1      43.248 132.076  23.266  1.00  0.00     0.017 C 
ATOM      3  C   UNL     1      42.172 132.063  22.174  1.00  0.00     0.022 C 
ATOM      4  C   UNL     1      42.756 132.504  20.831  1.00  0.00     0.121 C 
ATOM      5  N   UNL     1      43.947 131.707  20.502  1.00  0.00    -0.326 N 
ATOM      6  C   UNL     1      45.023 131.640  21.505  1.00  0.00     0.273 C 
ATOM      7  F   UNL     1      46.014 130.749  21.115  1.00  0.00    -0.223 F 
ENDROOT
BRANCH   1   8
ATOM      8  C   UNL     1      44.126 129.738  22.947  1.00  0.00     0.049 A 
ATOM      9  C   UNL     1      45.485 125.160  22.316  1.00  0.00    -0.013 A 
ATOM     10  C   UNL     1      44.192 124.726  22.659  1.00  0.00     0.007 A 
ATOM     11  C   UNL     1      45.770 126.536  22.294  1.00  0.00     0.152 A 
ATOM     12  C   UNL     1      43.201 125.652  22.997  1.00  0.00     0.011 A 
ATOM     13  C   UNL     1      44.779 127.466  22.632  1.00  0.00     0.106 A 
ATOM     14  C   UNL     1      43.488 127.023  22.987  1.00  0.00     0.003 A 
ATOM     15  N   UNL     1      45.056 128.798  22.616  1.00  0.00    -0.249 NA
ATOM     16  C   UNL     1      42.513 127.971  23.318  1.00  0.00     0.012 A 
ATOM     17  C   UNL     1      42.829 129.331  23.295  1.00  0.00     0.025 A 
ATOM     18  C   UNL     1      46.541 124.164  21.932  1.00  0.00     0.047 C 
ATOM     19  F   UNL     1      47.010 126.969  21.947  1.00  0.00    -0.204 F 
ENDBRANCH   1   8
BRANCH   5  20
ATOM     20  C   UNL     1      44.218 131.382  19.125  1.00  0.00     0.134 A 
ATOM     21  C   UNL     1      43.315 131.744  18.114  1.00  0.00     0.050 A 
ATOM     22  N   UNL     1      45.352 130.702  18.796  1.00  0.00    -0.200 NA
ATOM     23  C   UNL     1      43.595 131.406  16.789  1.00  0.00     0.048 A 
ATOM     24  C   UNL     1      45.645 130.364  17.511  1.00  0.00     0.250 A 
ATOM     25  C   UNL     1      44.767 130.714  16.481  1.00  0.00     0.178 A 
ATOM     26  F   UNL     1      46.786 129.688  17.235  1.00  0.00    -0.182 F 
ATOM     27  F   UNL     1      45.047 130.380  15.197  1.00  0.00    -0.202 F 
ENDBRANCH   5  20
TORSDOF 2
ENDMDL
MODEL 8
REMARK VINA RESULT:      -6.7      2.095      3.242
REMARK SMILES Cc1ccc2ccc([C@@H]3CCCN(c4ccc(F)c(F)n4)[C@@H]3F)nc2c1F
REMARK SMILES IDX 9 1 10 2 11 3 12 4 13 5 22 6 23 7 8 8 2 9 3 10 26 11 4 12
REMARK SMILES IDX 25 13 5 14 24 15 6 16 7 17 1 18 27 19 14 20 15 21 21 22
REMARK SMILES IDX 16 23 19 24 17 25 20 26 18 27
REMARK H PARENT
ROOT
ATOM      1  C   UNL     1      43.300 132.725  20.958  1.00  0.00     0.093 C 
ATOM      2  C   UNL     1      41.837 133.059  20.606  1.00  0.00     0.017 C 
ATOM      3  C   UNL     1      41.288 132.135  19.513  1.00  0.00     0.022 C 
ATOM      4  C   UNL     1      42.177 132.176  18.270  1.00  0.00     0.121 C 
ATOM      5  N   UNL     1      43.577 131.905  18.629  1.00  0.00    -0.326 N 
ATOM      6  C   UNL     1      44.182 132.728  19.689  1.00  0.00     0.273 C 
ATOM      7  F   UNL     1      45.452 132.271  20.012  1.00  0.00    -0.223 F 
ENDROOT
BRANCH   1   8
ATOM      8  C   UNL     1      43.386 131.423  21.731  1.00  0.00     0.049 A 
ATOM      9  C   UNL     1      45.530 127.163  22.409  1.00  0.00    -0.013 A 
ATOM     10  C   UNL     1      44.596 126.849  23.411  1.00  0.00     0.007 A 
ATOM     11  C   UNL     1      45.436 128.393  21.735  1.00  0.00     0.152 A 
ATOM     12  C   UNL     1      43.591 127.759  23.752  1.00  0.00     0.011 A 
ATOM     13  C   UNL     1      44.430 129.306  22.074  1.00  0.00     0.106 A 
ATOM     14  C   UNL     1      43.504 128.990  23.090  1.00  0.00     0.003 A 
ATOM     15  N   UNL     1      44.341 130.499  21.426  1.00  0.00    -0.249 NA
ATOM     16  C   UNL     1      42.505 129.917  23.410  1.00  0.00     0.012 A 
ATOM     17  C   UNL     1      42.443 131.134  22.728  1.00  0.00     0.025 A 
ATOM     18  C   UNL     1      46.594 126.174  22.028  1.00  0.00     0.047 C 
ATOM     19  F   UNL     1      46.322 128.700  20.752  1.00  0.00    -0.204 F 
ENDBRANCH   1   8
BRANCH   5  20
ATOM     20  C   UNL     1      44.414 131.185  17.705  1.00  0.00     0.134 A 
ATOM     21  C   UNL     1      45.528 130.464  18.162  1.00  0.00     0.050 A 
ATOM     22  N   UNL     1      44.139 131.213  16.370  1.00  0.00    -0.200 NA
ATOM     23  C   UNL     1      46.331 129.785  17.244  1.00  0.00     0.048 A 
ATOM     24  C   UNL     1      44.907 130.557  15.460  1.00  0.00     0.250 A 
ATOM     25  C   UNL     1      46.021 129.827  15.884  1.00  0.00     0.178 A 
ATOM     26  F   UNL     1      44.591 130.615  14.144  1.00  0.00    -0.182 F 
ATOM     27  F   UNL     1      46.796 129.171  14.985  1.00  0.00    -0.202 F 
ENDBRANCH   5  20
TORSDOF 2
ENDMDL
MODEL 9
REMARK VINA RESULT:      -6.4      1.982      7.023
REMARK SMILES Cc1ccc2ccc([C@@H]3CCCN(c4ccc(F)c(F)n4)[C@@H]3F)nc2c1F
REMARK SMILES IDX 9 1 10 2 11 3 12 4 13 5 22 6 23 7 8 8 2 9 3 10 26 11 4 12
REMARK SMILES IDX 25 13 5 14 24 15 6 16 7 17 1 18 27 19 14 20 15 21 21 22
REMARK SMILES IDX 16 23 19 24 17 25 20 26 18 27
REMARK H PARENT
ROOT
ATOM      1  C   UNL     1      43.192 132.019  22.271  1.00  0.00     0.093 C 
ATOM      2  C   UNL     1      44.047 132.790  23.296  1.00  0.00     0.017 C 
ATOM      3  C   UNL     1      45.100 131.890  23.953  1.00  0.00     0.022 C 
ATOM      4  C   UNL     1      44.445 130.666  24.593  1.00  0.00     0.121 C 
ATOM      5  N   UNL     1      43.595 129.969  23.617  1.00  0.00    -0.326 N 
ATOM      6  C   UNL     1      42.570 130.761  22.916  1.00  0.00     0.273 C 
ATOM      7  F   UNL     1      41.940 130.006  21.936  1.00  0.00    -0.223 F 
ENDROOT
BRANCH   1   8
ATOM      8  C   UNL     1      43.998 131.703  21.025  1.00  0.00     0.049 A 
ATOM      9  C   UNL     1      44.220 131.413  16.222  1.00  0.00    -0.013 A 
ATOM     10  C   UNL     1      45.529 130.909  16.311  1.00  0.00     0.007 A 
ATOM     11  C   UNL     1      43.516 131.721  17.399  1.00  0.00     0.152 A 
ATOM     12  C   UNL     1      46.138 130.732  17.557  1.00  0.00     0.011 A 
ATOM     13  C   UNL     1      44.123 131.545  18.649  1.00  0.00     0.106 A 
ATOM     14  C   UNL     1      45.441 131.051  18.729  1.00  0.00     0.003 A 
ATOM     15  N   UNL     1      43.444 131.848  19.788  1.00  0.00    -0.249 NA
ATOM     16  C   UNL     1      46.026 130.880  19.990  1.00  0.00     0.012 A 
ATOM     17  C   UNL     1      45.303 131.203  21.140  1.00  0.00     0.025 A 
ATOM     18  C   UNL     1      43.561 131.580  14.883  1.00  0.00     0.047 C 
ATOM     19  F   UNL     1      42.244 132.193  17.328  1.00  0.00    -0.204 F 
ENDBRANCH   1   8
BRANCH   5  20
ATOM     20  C   UNL     1      43.488 128.534  23.674  1.00  0.00     0.134 A 
ATOM     21  C   UNL     1      44.570 127.722  23.300  1.00  0.00     0.050 A 
ATOM     22  N   UNL     1      42.323 127.951  24.076  1.00  0.00    -0.200 NA
ATOM     23  C   UNL     1      44.437 126.333  23.351  1.00  0.00     0.048 A 
ATOM     24  C   UNL     1      42.174 126.601  24.135  1.00  0.00     0.250 A 
ATOM     25  C   UNL     1      43.233 125.765  23.773  1.00  0.00     0.178 A 
ATOM     26  F   UNL     1      40.995 126.071  24.543  1.00  0.00    -0.182 F 
ATOM     27  F   UNL     1      43.094 124.418  23.825  1.00  0.00    -0.202 F 
ENDBRANCH   5  20
TORSDOF 2
ENDMDL


