REMARK SMILES C=C[C@@H]1C[NH2+][C@@H](c2ccc3ncnn3c2)N(C(=O)c2cccc(C)c2)C1
REMARK SMILES IDX 3 1 4 2 5 3 6 4 16 5 26 6 2 9 1 10 17 11 18 12 19 13 20 14
REMARK SMILES IDX 25 15 21 16 23 17 22 18 24 19 7 20 8 21 15 22 9 23 14 24
REMARK SMILES IDX 10 25 13 26 11 27 12 28
REMARK H PARENT 5 7 5 8
ROOT
ATOM      1  C   UNL     1       2.156   1.655  -2.739  1.00  0.00     0.086 C 
ATOM      2  C   UNL     1       2.070   3.147  -2.338  1.00  0.00     0.272 C 
ATOM      3  N   UNL     1       1.114   3.357  -1.234  1.00  0.00    -0.322 N 
ATOM      4  C   UNL     1       1.505   2.558  -0.056  1.00  0.00     0.320 C 
ATOM      5  N   UNL     1       1.546   1.134  -0.429  1.00  0.00    -0.284 N 
ATOM      6  C   UNL     1       2.483   0.798  -1.503  1.00  0.00     0.139 C 
ATOM      7  H   UNL     1       0.162   3.076  -1.565  1.00  0.00     0.348 HD
ATOM      8  H   UNL     1       1.111   4.374  -0.986  1.00  0.00     0.348 HD
ENDROOT
BRANCH   1   9
ATOM      9  C   UNL     1       3.188   1.452  -3.823  1.00  0.00    -0.024 C 
ATOM     10  C   UNL     1       3.273   0.302  -4.499  1.00  0.00     0.004 C 
ENDBRANCH   1   9
BRANCH   5  11
ATOM     11  C   UNL     1       0.426   0.258  -0.201  1.00  0.00     0.258 C 
ATOM     12  O   UNL     1      -0.738   0.656  -0.479  1.00  0.00    -0.269 OA
BRANCH  11  13
ATOM     13  C   UNL     1       0.630  -1.101   0.356  1.00  0.00     0.040 A 
ATOM     14  C   UNL     1       1.859  -1.458   0.938  1.00  0.00     0.014 A 
ATOM     15  C   UNL     1      -0.414  -2.045   0.332  1.00  0.00     0.017 A 
ATOM     16  C   UNL     1       2.042  -2.732   1.479  1.00  0.00     0.001 A 
ATOM     17  C   UNL     1      -0.225  -3.332   0.858  1.00  0.00    -0.050 A 
ATOM     18  C   UNL     1       1.004  -3.666   1.445  1.00  0.00     0.003 A 
ATOM     19  C   UNL     1      -1.354  -4.320   0.859  1.00  0.00     0.044 C 
ENDBRANCH  11  13
ENDBRANCH   5  11
BRANCH   4  20
ATOM     20  C   UNL     1       0.635   2.802   1.172  1.00  0.00     0.050 A 
ATOM     21  C   UNL     1       1.088   2.324   2.428  1.00  0.00     0.017 A 
ATOM     22  C   UNL     1      -0.627   3.438   1.112  1.00  0.00     0.127 A 
ATOM     23  C   UNL     1       0.311   2.487   3.585  1.00  0.00     0.050 A 
ATOM     24  N   UNL     1      -1.335   3.568   2.261  1.00  0.00    -0.221 N 
ATOM     25  C   UNL     1      -0.915   3.127   3.448  1.00  0.00     0.155 A 
ATOM     26  N   UNL     1      -2.520   4.125   2.409  1.00  0.00    -0.155 NA
ATOM     27  N   UNL     1      -1.806   3.377   4.423  1.00  0.00    -0.215 NA
ATOM     28  C   UNL     1      -2.793   4.002   3.730  1.00  0.00     0.247 A 
ENDBRANCH   4  20
TORSDOF 4


