MODEL 1
REMARK VINA RESULT:      -9.8      0.000      0.000
REMARK SMILES Cc1ccc(-c2ccc(NC3CC(=O)C3)c(C=O)c2)cc1
REMARK SMILES IDX 6 1 7 2 8 3 9 4 16 5 19 6 5 7 2 8 3 9 21 10 4 11 20 12 1 13
REMARK SMILES IDX 17 14 18 15 10 16 11 18 12 19 15 20 13 21 14 22
REMARK H PARENT 10 17
ROOT
ATOM      1  C   UNL     1      45.241 131.100  18.464  1.00  0.00    -0.018 A 
ATOM      2  C   UNL     1      45.909 130.457  19.516  1.00  0.00     0.011 A 
ATOM      3  C   UNL     1      45.423 130.542  20.820  1.00  0.00     0.027 A 
ATOM      4  C   UNL     1      44.253 131.268  21.109  1.00  0.00     0.045 A 
ATOM      5  C   UNL     1      43.550 131.891  20.046  1.00  0.00     0.038 A 
ATOM      6  C   UNL     1      44.064 131.815  18.741  1.00  0.00     0.022 A 
ENDROOT
BRANCH   1   7
ATOM      7  C   UNL     1      45.765 131.019  17.076  1.00  0.00    -0.018 A 
ATOM      8  C   UNL     1      46.750 130.863  14.438  1.00  0.00    -0.051 A 
ATOM      9  C   UNL     1      46.150 132.042  14.900  1.00  0.00     0.004 A 
ATOM     10  C   UNL     1      46.878 129.769  15.306  1.00  0.00     0.004 A 
ATOM     11  C   UNL     1      45.655 132.118  16.205  1.00  0.00     0.009 A 
ATOM     12  C   UNL     1      46.385 129.844  16.612  1.00  0.00     0.009 A 
ATOM     13  C   UNL     1      47.314 130.795  13.050  1.00  0.00     0.044 C 
ENDBRANCH   1   7
BRANCH   5  14
ATOM     14  C   UNL     1      42.257 132.586  20.233  1.00  0.00     0.262 C 
ATOM     15  O   UNL     1      41.417 132.685  19.300  1.00  0.00    -0.298 OA
ENDBRANCH   5  14
BRANCH   4  16
ATOM     16  N   UNL     1      43.822 131.419  22.475  1.00  0.00    -0.381 N 
ATOM     17  H   UNL     1      43.563 132.374  22.812  1.00  0.00     0.160 HD
BRANCH  16  18
ATOM     18  C   UNL     1      43.853 130.320  23.447  1.00  0.00     0.094 C 
ATOM     19  C   UNL     1      42.987 129.163  23.042  1.00  0.00     0.100 C 
ATOM     20  C   UNL     1      42.905 130.519  24.594  1.00  0.00     0.100 C 
ATOM     21  C   UNL     1      42.027 129.343  24.203  1.00  0.00     0.137 C 
ATOM     22  O   UNL     1      41.021 128.799  24.625  1.00  0.00    -0.300 OA
ENDBRANCH  16  18
ENDBRANCH   4  16
TORSDOF 4
ENDMDL
MODEL 2
REMARK VINA RESULT:      -9.7      1.110      1.303
REMARK SMILES Cc1ccc(-c2ccc(NC3CC(=O)C3)c(C=O)c2)cc1
REMARK SMILES IDX 6 1 7 2 8 3 9 4 16 5 19 6 5 7 2 8 3 9 21 10 4 11 20 12 1 13
REMARK SMILES IDX 17 14 18 15 10 16 11 18 12 19 15 20 13 21 14 22
REMARK H PARENT 10 17
ROOT
ATOM      1  C   UNL     1      45.050 131.238  18.372  1.00  0.00    -0.018 A 
ATOM      2  C   UNL     1      45.747 130.830  19.518  1.00  0.00     0.011 A 
ATOM      3  C   UNL     1      45.180 130.981  20.783  1.00  0.00     0.027 A 
ATOM      4  C   UNL     1      43.898 131.540  20.938  1.00  0.00     0.045 A 
ATOM      5  C   UNL     1      43.171 131.922  19.782  1.00  0.00     0.038 A 
ATOM      6  C   UNL     1      43.764 131.785  18.516  1.00  0.00     0.022 A 
ENDROOT
BRANCH   1   7
ATOM      7  C   UNL     1      45.659 131.088  17.025  1.00  0.00    -0.018 A 
ATOM      8  C   UNL     1      46.804 130.800  14.464  1.00  0.00    -0.051 A 
ATOM      9  C   UNL     1      46.240 132.023  14.853  1.00  0.00     0.004 A 
ATOM     10  C   UNL     1      46.815 129.729  15.367  1.00  0.00     0.004 A 
ATOM     11  C   UNL     1      45.666 132.165  16.119  1.00  0.00     0.009 A 
ATOM     12  C   UNL     1      46.243 129.868  16.635  1.00  0.00     0.009 A 
ATOM     13  C   UNL     1      47.454 130.662  13.118  1.00  0.00     0.044 C 
ENDBRANCH   1   7
BRANCH   5  14
ATOM     14  C   UNL     1      41.778 132.420  19.834  1.00  0.00     0.262 C 
ATOM     15  O   UNL     1      41.433 133.344  20.617  1.00  0.00    -0.298 OA
ENDBRANCH   5  14
BRANCH   4  16
ATOM     16  N   UNL     1      43.373 131.772  22.258  1.00  0.00    -0.381 N 
ATOM     17  H   UNL     1      43.417 132.740  22.648  1.00  0.00     0.160 HD
BRANCH  16  18
ATOM     18  C   UNL     1      42.896 130.689  23.127  1.00  0.00     0.094 C 
ATOM     19  C   UNL     1      43.660 130.602  24.417  1.00  0.00     0.100 C 
ATOM     20  C   UNL     1      43.487 129.352  22.784  1.00  0.00     0.100 C 
ATOM     21  C   UNL     1      44.255 129.245  24.090  1.00  0.00     0.137 C 
ATOM     22  O   UNL     1      45.002 128.443  24.625  1.00  0.00    -0.300 OA
ENDBRANCH  16  18
ENDBRANCH   4  16
TORSDOF 4
ENDMDL
MODEL 3
REMARK VINA RESULT:      -9.7      1.103      1.676
REMARK SMILES Cc1ccc(-c2ccc(NC3CC(=O)C3)c(C=O)c2)cc1
REMARK SMILES IDX 6 1 7 2 8 3 9 4 16 5 19 6 5 7 2 8 3 9 21 10 4 11 20 12 1 13
REMARK SMILES IDX 17 14 18 15 10 16 11 18 12 19 15 20 13 21 14 22
REMARK H PARENT 10 17
ROOT
ATOM      1  C   UNL     1      45.035 131.212  18.424  1.00  0.00    -0.018 A 
ATOM      2  C   UNL     1      45.727 130.778  19.563  1.00  0.00     0.011 A 
ATOM      3  C   UNL     1      45.162 130.916  20.831  1.00  0.00     0.027 A 
ATOM      4  C   UNL     1      43.886 131.487  20.994  1.00  0.00     0.045 A 
ATOM      5  C   UNL     1      43.163 131.896  19.844  1.00  0.00     0.038 A 
ATOM      6  C   UNL     1      43.756 131.771  18.576  1.00  0.00     0.022 A 
ENDROOT
BRANCH   1   7
ATOM      7  C   UNL     1      45.643 131.076  17.075  1.00  0.00    -0.018 A 
ATOM      8  C   UNL     1      46.808 130.818  14.519  1.00  0.00    -0.051 A 
ATOM      9  C   UNL     1      46.800 129.732  15.405  1.00  0.00     0.004 A 
ATOM     10  C   UNL     1      46.211 132.026  14.906  1.00  0.00     0.004 A 
ATOM     11  C   UNL     1      46.229 129.861  16.674  1.00  0.00     0.009 A 
ATOM     12  C   UNL     1      45.638 132.157  16.175  1.00  0.00     0.009 A 
ATOM     13  C   UNL     1      47.386 130.667  13.143  1.00  0.00     0.044 C 
ENDBRANCH   1   7
BRANCH   5  14
ATOM     14  C   UNL     1      41.776 132.408  19.903  1.00  0.00     0.262 C 
ATOM     15  O   UNL     1      41.453 133.360  20.662  1.00  0.00    -0.298 OA
ENDBRANCH   5  14
BRANCH   4  16
ATOM     16  N   UNL     1      43.362 131.704  22.317  1.00  0.00    -0.381 N 
ATOM     17  H   UNL     1      43.403 132.669  22.716  1.00  0.00     0.160 HD
BRANCH  16  18
ATOM     18  C   UNL     1      42.893 130.611  23.178  1.00  0.00     0.094 C 
ATOM     19  C   UNL     1      43.671 130.506  24.458  1.00  0.00     0.100 C 
ATOM     20  C   UNL     1      43.479 129.278  22.812  1.00  0.00     0.100 C 
ATOM     21  C   UNL     1      44.260 129.153  24.108  1.00  0.00     0.137 C 
ATOM     22  O   UNL     1      45.012 128.344  24.625  1.00  0.00    -0.300 OA
ENDBRANCH  16  18
ENDBRANCH   4  16
TORSDOF 4
ENDMDL
MODEL 4
REMARK VINA RESULT:      -9.3      0.199      1.075
REMARK SMILES Cc1ccc(-c2ccc(NC3CC(=O)C3)c(C=O)c2)cc1
REMARK SMILES IDX 6 1 7 2 8 3 9 4 16 5 19 6 5 7 2 8 3 9 21 10 4 11 20 12 1 13
REMARK SMILES IDX 17 14 18 15 10 16 11 18 12 19 15 20 13 21 14 22
REMARK H PARENT 10 17
ROOT
ATOM      1  C   UNL     1      45.277 131.032  18.339  1.00  0.00    -0.018 A 
ATOM      2  C   UNL     1      45.883 130.347  19.402  1.00  0.00     0.011 A 
ATOM      3  C   UNL     1      45.387 130.473  20.699  1.00  0.00     0.027 A 
ATOM      4  C   UNL     1      44.268 131.282  20.969  1.00  0.00     0.045 A 
ATOM      5  C   UNL     1      43.627 131.950  19.895  1.00  0.00     0.038 A 
ATOM      6  C   UNL     1      44.152 131.832  18.597  1.00  0.00     0.022 A 
ENDROOT
BRANCH   1   7
ATOM      7  C   UNL     1      45.814 130.908  16.959  1.00  0.00    -0.018 A 
ATOM      8  C   UNL     1      46.842 130.673  14.343  1.00  0.00    -0.051 A 
ATOM      9  C   UNL     1      46.889 129.582  15.221  1.00  0.00     0.004 A 
ATOM     10  C   UNL     1      46.258 131.875  14.768  1.00  0.00     0.004 A 
ATOM     11  C   UNL     1      46.386 129.699  16.520  1.00  0.00     0.009 A 
ATOM     12  C   UNL     1      45.753 131.994  16.066  1.00  0.00     0.009 A 
ATOM     13  C   UNL     1      47.348 130.534  12.938  1.00  0.00     0.044 C 
ENDBRANCH   1   7
BRANCH   5  14
ATOM     14  C   UNL     1      42.385 132.737  20.061  1.00  0.00     0.262 C 
ATOM     15  O   UNL     1      41.389 132.571  19.309  1.00  0.00    -0.298 OA
ENDBRANCH   5  14
BRANCH   4  16
ATOM     16  N   UNL     1      43.831 131.469  22.329  1.00  0.00    -0.381 N 
ATOM     17  H   UNL     1      43.486 132.414  22.614  1.00  0.00     0.160 HD
BRANCH  16  18
ATOM     18  C   UNL     1      43.966 130.433  23.360  1.00  0.00     0.094 C 
ATOM     19  C   UNL     1      43.220 129.176  23.020  1.00  0.00     0.100 C 
ATOM     20  C   UNL     1      42.999 130.600  24.496  1.00  0.00     0.100 C 
ATOM     21  C   UNL     1      42.243 129.324  24.171  1.00  0.00     0.137 C 
ATOM     22  O   UNL     1      41.293 128.707  24.625  1.00  0.00    -0.300 OA
ENDBRANCH  16  18
ENDBRANCH   4  16
TORSDOF 4
ENDMDL
MODEL 5
REMARK VINA RESULT:      -8.5      0.987      1.054
REMARK SMILES Cc1ccc(-c2ccc(NC3CC(=O)C3)c(C=O)c2)cc1
REMARK SMILES IDX 6 1 7 2 8 3 9 4 16 5 19 6 5 7 2 8 3 9 21 10 4 11 20 12 1 13
REMARK SMILES IDX 17 14 18 15 10 16 11 18 12 19 15 20 13 21 14 22
REMARK H PARENT 10 17
ROOT
ATOM      1  C   UNL     1      45.296 131.054  17.627  1.00  0.00    -0.018 A 
ATOM      2  C   UNL     1      45.940 130.542  18.762  1.00  0.00     0.011 A 
ATOM      3  C   UNL     1      45.352 130.655  20.021  1.00  0.00     0.027 A 
ATOM      4  C   UNL     1      44.101 131.277  20.181  1.00  0.00     0.045 A 
ATOM      5  C   UNL     1      43.424 131.765  19.034  1.00  0.00     0.038 A 
ATOM      6  C   UNL     1      44.040 131.665  17.774  1.00  0.00     0.022 A 
ENDROOT
BRANCH   1   7
ATOM      7  C   UNL     1      45.928 130.944  16.287  1.00  0.00    -0.018 A 
ATOM      8  C   UNL     1      47.118 130.737  13.738  1.00  0.00    -0.051 A 
ATOM      9  C   UNL     1      46.788 131.994  14.264  1.00  0.00     0.004 A 
ATOM     10  C   UNL     1      46.874 129.586  14.500  1.00  0.00     0.004 A 
ATOM     11  C   UNL     1      46.191 132.097  15.524  1.00  0.00     0.009 A 
ATOM     12  C   UNL     1      46.279 129.687  15.761  1.00  0.00     0.009 A 
ATOM     13  C   UNL     1      47.792 130.631  12.402  1.00  0.00     0.044 C 
ENDBRANCH   1   7
BRANCH   5  14
ATOM     14  C   UNL     1      42.061 132.339  19.085  1.00  0.00     0.262 C 
ATOM     15  O   UNL     1      41.408 132.591  18.038  1.00  0.00    -0.298 OA
ENDBRANCH   5  14
BRANCH   4  16
ATOM     16  N   UNL     1      43.556 131.465  21.501  1.00  0.00    -0.381 N 
ATOM     17  H   UNL     1      42.704 132.060  21.607  1.00  0.00     0.160 HD
BRANCH  16  18
ATOM     18  C   UNL     1      44.216 130.964  22.713  1.00  0.00     0.094 C 
ATOM     19  C   UNL     1      44.312 129.467  22.745  1.00  0.00     0.100 C 
ATOM     20  C   UNL     1      43.285 130.845  23.886  1.00  0.00     0.100 C 
ATOM     21  C   UNL     1      43.384 129.331  23.937  1.00  0.00     0.137 C 
ATOM     22  O   UNL     1      42.928 128.428  24.619  1.00  0.00    -0.300 OA
ENDBRANCH  16  18
ENDBRANCH   4  16
TORSDOF 4
ENDMDL
MODEL 6
REMARK VINA RESULT:      -7.9      1.636      2.291
REMARK SMILES Cc1ccc(-c2ccc(NC3CC(=O)C3)c(C=O)c2)cc1
REMARK SMILES IDX 6 1 7 2 8 3 9 4 16 5 19 6 5 7 2 8 3 9 21 10 4 11 20 12 1 13
REMARK SMILES IDX 17 14 18 15 10 16 11 18 12 19 15 20 13 21 14 22
REMARK H PARENT 10 17
ROOT
ATOM      1  C   UNL     1      44.672 131.443  17.722  1.00  0.00    -0.018 A 
ATOM      2  C   UNL     1      43.272 131.520  17.729  1.00  0.00     0.011 A 
ATOM      3  C   UNL     1      42.581 131.732  18.922  1.00  0.00     0.027 A 
ATOM      4  C   UNL     1      43.269 131.879  20.139  1.00  0.00     0.045 A 
ATOM      5  C   UNL     1      44.687 131.839  20.137  1.00  0.00     0.038 A 
ATOM      6  C   UNL     1      45.369 131.601  18.931  1.00  0.00     0.022 A 
ENDROOT
BRANCH   1   7
ATOM      7  C   UNL     1      45.408 131.204  16.453  1.00  0.00    -0.018 A 
ATOM      8  C   UNL     1      46.814 130.749  14.052  1.00  0.00    -0.051 A 
ATOM      9  C   UNL     1      46.215 129.680  14.734  1.00  0.00     0.004 A 
ATOM     10  C   UNL     1      46.688 132.048  14.561  1.00  0.00     0.004 A 
ATOM     11  C   UNL     1      45.524 129.904  15.928  1.00  0.00     0.009 A 
ATOM     12  C   UNL     1      45.996 132.275  15.755  1.00  0.00     0.009 A 
ATOM     13  C   UNL     1      47.523 130.512  12.750  1.00  0.00     0.044 C 
ENDBRANCH   1   7
BRANCH   5  14
ATOM     14  C   UNL     1      45.503 132.087  21.346  1.00  0.00     0.262 C 
ATOM     15  O   UNL     1      46.761 132.052  21.316  1.00  0.00    -0.298 OA
ENDBRANCH   5  14
BRANCH   4  16
ATOM     16  N   UNL     1      42.531 132.005  21.369  1.00  0.00    -0.381 N 
ATOM     17  H   UNL     1      41.622 132.520  21.353  1.00  0.00     0.160 HD
BRANCH  16  18
ATOM     18  C   UNL     1      43.057 131.555  22.664  1.00  0.00     0.094 C 
ATOM     19  C   UNL     1      43.095 130.060  22.787  1.00  0.00     0.100 C 
ATOM     20  C   UNL     1      42.018 131.534  23.749  1.00  0.00     0.100 C 
ATOM     21  C   UNL     1      42.056 130.023  23.892  1.00  0.00     0.137 C 
ATOM     22  O   UNL     1      41.506 129.176  24.576  1.00  0.00    -0.300 OA
ENDBRANCH  16  18
ENDBRANCH   4  16
TORSDOF 4
ENDMDL
MODEL 7
REMARK VINA RESULT:      -7.4      1.898      2.427
REMARK SMILES Cc1ccc(-c2ccc(NC3CC(=O)C3)c(C=O)c2)cc1
REMARK SMILES IDX 6 1 7 2 8 3 9 4 16 5 19 6 5 7 2 8 3 9 21 10 4 11 20 12 1 13
REMARK SMILES IDX 17 14 18 15 10 16 11 18 12 19 15 20 13 21 14 22
REMARK H PARENT 10 17
ROOT
ATOM      1  C   UNL     1      45.117 131.349  17.631  1.00  0.00    -0.018 A 
ATOM      2  C   UNL     1      43.727 131.517  17.553  1.00  0.00     0.011 A 
ATOM      3  C   UNL     1      42.990 131.856  18.687  1.00  0.00     0.027 A 
ATOM      4  C   UNL     1      43.622 132.041  19.930  1.00  0.00     0.045 A 
ATOM      5  C   UNL     1      45.031 131.909  20.012  1.00  0.00     0.038 A 
ATOM      6  C   UNL     1      45.758 131.545  18.865  1.00  0.00     0.022 A 
ENDROOT
BRANCH   1   7
ATOM      7  C   UNL     1      45.901 130.977  16.425  1.00  0.00    -0.018 A 
ATOM      8  C   UNL     1      47.379 130.268  14.130  1.00  0.00    -0.051 A 
ATOM      9  C   UNL     1      46.785 131.534  14.225  1.00  0.00     0.004 A 
ATOM     10  C   UNL     1      47.252 129.366  15.196  1.00  0.00     0.004 A 
ATOM     11  C   UNL     1      46.046 131.884  15.359  1.00  0.00     0.009 A 
ATOM     12  C   UNL     1      46.515 129.714  16.332  1.00  0.00     0.009 A 
ATOM     13  C   UNL     1      48.203 129.908  12.929  1.00  0.00     0.044 C 
ENDBRANCH   1   7
BRANCH   5  14
ATOM     14  C   UNL     1      45.797 132.186  21.247  1.00  0.00     0.262 C 
ATOM     15  O   UNL     1      46.950 132.693  21.213  1.00  0.00    -0.298 OA
ENDBRANCH   5  14
BRANCH   4  16
ATOM     16  N   UNL     1      42.830 132.298  21.105  1.00  0.00    -0.381 N 
ATOM     17  H   UNL     1      42.597 133.290  21.340  1.00  0.00     0.160 HD
BRANCH  16  18
ATOM     18  C   UNL     1      42.444 131.246  22.053  1.00  0.00     0.094 C 
ATOM     19  C   UNL     1      42.863 131.552  23.462  1.00  0.00     0.100 C 
ATOM     20  C   UNL     1      43.421 130.106  22.100  1.00  0.00     0.100 C 
ATOM     21  C   UNL     1      43.845 130.397  23.528  1.00  0.00     0.137 C 
ATOM     22  O   UNL     1      44.615 129.923  24.347  1.00  0.00    -0.300 OA
ENDBRANCH  16  18
ENDBRANCH   4  16
TORSDOF 4
ENDMDL
MODEL 8
REMARK VINA RESULT:      -7.3      1.555      2.039
REMARK SMILES Cc1ccc(-c2ccc(NC3CC(=O)C3)c(C=O)c2)cc1
REMARK SMILES IDX 6 1 7 2 8 3 9 4 16 5 19 6 5 7 2 8 3 9 21 10 4 11 20 12 1 13
REMARK SMILES IDX 17 14 18 15 10 16 11 18 12 19 15 20 13 21 14 22
REMARK H PARENT 10 17
ROOT
ATOM      1  C   UNL     1      44.661 131.490  17.678  1.00  0.00    -0.018 A 
ATOM      2  C   UNL     1      43.281 131.737  17.681  1.00  0.00     0.011 A 
ATOM      3  C   UNL     1      42.594 131.900  18.884  1.00  0.00     0.027 A 
ATOM      4  C   UNL     1      43.268 131.825  20.117  1.00  0.00     0.045 A 
ATOM      5  C   UNL     1      44.670 131.611  20.122  1.00  0.00     0.038 A 
ATOM      6  C   UNL     1      45.345 131.427  18.903  1.00  0.00     0.022 A 
ENDROOT
BRANCH   1   7
ATOM      7  C   UNL     1      45.391 131.305  16.397  1.00  0.00    -0.018 A 
ATOM      8  C   UNL     1      46.766 130.953  13.960  1.00  0.00    -0.051 A 
ATOM      9  C   UNL     1      46.177 132.187  14.267  1.00  0.00     0.004 A 
ATOM     10  C   UNL     1      46.687 129.903  14.885  1.00  0.00     0.004 A 
ATOM     11  C   UNL     1      45.489 132.360  15.471  1.00  0.00     0.009 A 
ATOM     12  C   UNL     1      46.000 130.074  16.091  1.00  0.00     0.009 A 
ATOM     13  C   UNL     1      47.536 130.780  12.684  1.00  0.00     0.044 C 
ENDBRANCH   1   7
BRANCH   5  14
ATOM     14  C   UNL     1      45.483 131.622  21.359  1.00  0.00     0.262 C 
ATOM     15  O   UNL     1      46.435 132.430  21.519  1.00  0.00    -0.298 OA
ENDBRANCH   5  14
BRANCH   4  16
ATOM     16  N   UNL     1      42.524 131.903  21.347  1.00  0.00    -0.381 N 
ATOM     17  H   UNL     1      41.605 132.402  21.341  1.00  0.00     0.160 HD
BRANCH  16  18
ATOM     18  C   UNL     1      43.052 131.427  22.630  1.00  0.00     0.094 C 
ATOM     19  C   UNL     1      42.974 129.935  22.772  1.00  0.00     0.100 C 
ATOM     20  C   UNL     1      42.050 131.501  23.747  1.00  0.00     0.100 C 
ATOM     21  C   UNL     1      41.971 129.993  23.909  1.00  0.00     0.137 C 
ATOM     22  O   UNL     1      41.378 129.200  24.621  1.00  0.00    -0.300 OA
ENDBRANCH  16  18
ENDBRANCH   4  16
TORSDOF 4
ENDMDL
MODEL 9
REMARK VINA RESULT:      -7.2      1.943      2.643
REMARK SMILES Cc1ccc(-c2ccc(NC3CC(=O)C3)c(C=O)c2)cc1
REMARK SMILES IDX 6 1 7 2 8 3 9 4 16 5 19 6 5 7 2 8 3 9 21 10 4 11 20 12 1 13
REMARK SMILES IDX 17 14 18 15 10 16 11 18 12 19 15 20 13 21 14 22
REMARK H PARENT 10 17
ROOT
ATOM      1  C   UNL     1      44.986 131.467  17.534  1.00  0.00    -0.018 A 
ATOM      2  C   UNL     1      43.584 131.434  17.522  1.00  0.00     0.011 A 
ATOM      3  C   UNL     1      42.859 131.742  18.673  1.00  0.00     0.027 A 
ATOM      4  C   UNL     1      43.514 132.097  19.866  1.00  0.00     0.045 A 
ATOM      5  C   UNL     1      44.930 132.169  19.878  1.00  0.00     0.038 A 
ATOM      6  C   UNL     1      45.648 131.834  18.716  1.00  0.00     0.022 A 
ENDROOT
BRANCH   1   7
ATOM      7  C   UNL     1      45.758 131.128  16.311  1.00  0.00    -0.018 A 
ATOM      8  C   UNL     1      47.235 130.485  13.995  1.00  0.00    -0.051 A 
ATOM      9  C   UNL     1      47.065 129.535  15.012  1.00  0.00     0.004 A 
ATOM     10  C   UNL     1      46.644 131.750  14.129  1.00  0.00     0.004 A 
ATOM     11  C   UNL     1      46.340 129.855  16.163  1.00  0.00     0.009 A 
ATOM     12  C   UNL     1      45.917 132.071  15.279  1.00  0.00     0.009 A 
ATOM     13  C   UNL     1      47.982 130.128  12.744  1.00  0.00     0.044 C 
ENDBRANCH   1   7
BRANCH   5  14
ATOM     14  C   UNL     1      45.705 132.634  21.050  1.00  0.00     0.262 C 
ATOM     15  O   UNL     1      46.703 131.998  21.479  1.00  0.00    -0.298 OA
ENDBRANCH   5  14
BRANCH   4  16
ATOM     16  N   UNL     1      42.748 132.320  21.065  1.00  0.00    -0.381 N 
ATOM     17  H   UNL     1      42.463 133.298  21.298  1.00  0.00     0.160 HD
BRANCH  16  18
ATOM     18  C   UNL     1      42.462 131.257  22.037  1.00  0.00     0.094 C 
ATOM     19  C   UNL     1      42.654 131.703  23.457  1.00  0.00     0.100 C 
ATOM     20  C   UNL     1      43.623 130.331  22.260  1.00  0.00     0.100 C 
ATOM     21  C   UNL     1      43.820 130.764  23.701  1.00  0.00     0.137 C 
ATOM     22  O   UNL     1      44.567 130.487  24.624  1.00  0.00    -0.300 OA
ENDBRANCH  16  18
ENDBRANCH   4  16
TORSDOF 4
ENDMDL


