MODEL 1
REMARK VINA RESULT:      -8.9      0.000      0.000
REMARK SMILES O=C([N-]CCc1ccc(-c2c[nH+]c3cc[nH+]n3c2)cc1)[C@H]1CCCSC1
REMARK SMILES IDX 4 1 3 2 2 3 1 4 21 5 22 6 26 7 23 8 25 9 24 10 5 11 6 12
REMARK SMILES IDX 7 13 20 14 8 15 19 16 9 17 10 18 11 19 18 20 12 21 17 22
REMARK SMILES IDX 13 23 16 24 14 25 15 26
REMARK H PARENT 12 27 16 28
ROOT
ATOM      1  C   UNL     1      44.209 129.178  23.179  1.00  0.00    -0.113 C 
ENDROOT
BRANCH   1   2
ATOM      2  N   UNL     1      43.434 128.962  24.400  1.00  0.00    -0.653 NA
BRANCH   2   3
ATOM      3  C   UNL     1      42.305 128.083  24.482  1.00  0.00     0.055 C 
ATOM      4  O   UNL     1      41.142 128.551  24.619  1.00  0.00    -0.320 OA
BRANCH   3   5
ATOM      5  C   UNL     1      42.512 126.595  24.399  1.00  0.00     0.047 C 
ATOM      6  C   UNL     1      41.200 125.902  23.985  1.00  0.00     0.011 C 
ATOM      7  C   UNL     1      43.649 126.275  23.417  1.00  0.00     0.079 C 
ATOM      8  C   UNL     1      41.345 124.377  23.942  1.00  0.00     0.012 C 
ATOM      9  S   UNL     1      44.062 124.497  23.448  1.00  0.00    -0.161 SA
ATOM     10  C   UNL     1      42.404 123.940  22.928  1.00  0.00     0.069 C 
ENDBRANCH   3   5
ENDBRANCH   2   3
ENDBRANCH   1   2
BRANCH   1  11
ATOM     11  C   UNL     1      44.000 130.597  22.633  1.00  0.00     0.016 C 
BRANCH  11  12
ATOM     12  C   UNL     1      44.544 130.748  21.235  1.00  0.00    -0.049 A 
ATOM     13  C   UNL     1      43.979 131.681  20.354  1.00  0.00     0.004 A 
ATOM     14  C   UNL     1      45.572 129.909  20.781  1.00  0.00     0.004 A 
ATOM     15  C   UNL     1      44.424 131.762  19.031  1.00  0.00     0.009 A 
ATOM     16  C   UNL     1      46.017 129.989  19.460  1.00  0.00     0.009 A 
ATOM     17  C   UNL     1      45.442 130.909  18.567  1.00  0.00    -0.011 A 
BRANCH  17  18
ATOM     18  C   UNL     1      45.886 130.964  17.152  1.00  0.00     0.067 A 
ATOM     19  C   UNL     1      45.621 132.099  16.344  1.00  0.00     0.210 A 
ATOM     20  C   UNL     1      46.580 129.884  16.570  1.00  0.00     0.290 A 
ATOM     21  N   UNL     1      46.031 132.139  15.042  1.00  0.00    -0.242 N 
ATOM     22  N   UNL     1      46.954 129.992  15.273  1.00  0.00     0.008 N 
ATOM     23  C   UNL     1      46.694 131.072  14.533  1.00  0.00     0.346 A 
ATOM     24  N   UNL     1      47.601 129.104  14.541  1.00  0.00    -0.055 N 
ATOM     25  C   UNL     1      47.188 130.899  13.257  1.00  0.00     0.180 A 
ATOM     26  C   UNL     1      47.761 129.628  13.304  1.00  0.00     0.364 A 
ATOM     27  H   UNL     1      45.835 132.979  14.453  1.00  0.00     0.312 HD
ATOM     28  H   UNL     1      47.925 128.168  14.871  1.00  0.00     0.514 HD
ENDBRANCH  17  18
ENDBRANCH  11  12
ENDBRANCH   1  11
TORSDOF 6
ENDMDL
MODEL 2
REMARK VINA RESULT:      -7.2      1.759      2.315
REMARK SMILES O=C([N-]CCc1ccc(-c2c[nH+]c3cc[nH+]n3c2)cc1)[C@H]1CCCSC1
REMARK SMILES IDX 4 1 3 2 2 3 1 4 21 5 22 6 26 7 23 8 25 9 24 10 5 11 6 12
REMARK SMILES IDX 7 13 20 14 8 15 19 16 9 17 10 18 11 19 18 20 12 21 17 22
REMARK SMILES IDX 13 23 16 24 14 25 15 26
REMARK H PARENT 12 27 16 28
ROOT
ATOM      1  C   UNL     1      43.008 132.177  22.118  1.00  0.00    -0.113 C 
ENDROOT
BRANCH   1   2
ATOM      2  N   UNL     1      42.667 131.565  23.402  1.00  0.00    -0.653 NA
BRANCH   2   3
ATOM      3  C   UNL     1      43.422 130.506  24.004  1.00  0.00     0.055 C 
ATOM      4  O   UNL     1      44.664 130.630  24.183  1.00  0.00    -0.320 OA
BRANCH   3   5
ATOM      5  C   UNL     1      42.724 129.242  24.428  1.00  0.00     0.047 C 
ATOM      6  C   UNL     1      41.221 129.334  24.104  1.00  0.00     0.011 C 
ATOM      7  C   UNL     1      43.372 128.028  23.743  1.00  0.00     0.079 C 
ATOM      8  C   UNL     1      40.456 128.089  24.569  1.00  0.00     0.012 C 
ATOM      9  S   UNL     1      42.686 126.465  24.390  1.00  0.00    -0.161 SA
ATOM     10  C   UNL     1      40.970 126.823  23.883  1.00  0.00     0.069 C 
ENDBRANCH   3   5
ENDBRANCH   2   3
ENDBRANCH   1   2
BRANCH   1  11
ATOM     11  C   UNL     1      42.255 131.503  20.964  1.00  0.00     0.016 C 
BRANCH  11  12
ATOM     12  C   UNL     1      43.096 131.421  19.716  1.00  0.00    -0.049 A 
ATOM     13  C   UNL     1      42.503 131.568  18.454  1.00  0.00     0.004 A 
ATOM     14  C   UNL     1      44.464 131.126  19.802  1.00  0.00     0.004 A 
ATOM     15  C   UNL     1      43.264 131.406  17.293  1.00  0.00     0.009 A 
ATOM     16  C   UNL     1      45.226 130.963  18.642  1.00  0.00     0.009 A 
ATOM     17  C   UNL     1      44.633 131.091  17.375  1.00  0.00    -0.011 A 
BRANCH  17  18
ATOM     18  C   UNL     1      45.434 130.877  16.144  1.00  0.00     0.067 A 
ATOM     19  C   UNL     1      45.065 131.481  14.915  1.00  0.00     0.210 A 
ATOM     20  C   UNL     1      46.582 130.060  16.162  1.00  0.00     0.290 A 
ATOM     21  N   UNL     1      45.806 131.274  13.787  1.00  0.00    -0.242 N 
ATOM     22  N   UNL     1      47.268 129.899  15.005  1.00  0.00     0.008 N 
ATOM     23  C   UNL     1      46.901 130.479  13.860  1.00  0.00     0.346 A 
ATOM     24  N   UNL     1      48.356 129.179  14.803  1.00  0.00    -0.055 N 
ATOM     25  C   UNL     1      47.780 130.134  12.855  1.00  0.00     0.180 A 
ATOM     26  C   UNL     1      48.695 129.302  13.500  1.00  0.00     0.364 A 
ATOM     27  H   UNL     1      45.531 131.724  12.885  1.00  0.00     0.312 HD
ATOM     28  H   UNL     1      48.855 128.619  15.530  1.00  0.00     0.514 HD
ENDBRANCH  17  18
ENDBRANCH  11  12
ENDBRANCH   1  11
TORSDOF 6
ENDMDL
MODEL 3
REMARK VINA RESULT:      -6.7      1.395      1.595
REMARK SMILES O=C([N-]CCc1ccc(-c2c[nH+]c3cc[nH+]n3c2)cc1)[C@H]1CCCSC1
REMARK SMILES IDX 4 1 3 2 2 3 1 4 21 5 22 6 26 7 23 8 25 9 24 10 5 11 6 12
REMARK SMILES IDX 7 13 20 14 8 15 19 16 9 17 10 18 11 19 18 20 12 21 17 22
REMARK SMILES IDX 13 23 16 24 14 25 15 26
REMARK H PARENT 12 27 16 28
ROOT
ATOM      1  C   UNL     1      42.566 130.015  21.916  1.00  0.00    -0.113 C 
ENDROOT
BRANCH   1   2
ATOM      2  N   UNL     1      42.370 129.637  23.315  1.00  0.00    -0.653 NA
BRANCH   2   3
ATOM      3  C   UNL     1      42.915 128.449  23.903  1.00  0.00     0.055 C 
ATOM      4  O   UNL     1      43.947 128.511  24.625  1.00  0.00    -0.320 OA
BRANCH   3   5
ATOM      5  C   UNL     1      42.246 127.123  23.659  1.00  0.00     0.047 C 
ATOM      6  C   UNL     1      42.808 126.063  24.625  1.00  0.00     0.011 C 
ATOM      7  C   UNL     1      40.723 127.266  23.807  1.00  0.00     0.079 C 
ATOM      8  C   UNL     1      42.197 124.679  24.377  1.00  0.00     0.012 C 
ATOM      9  S   UNL     1      39.869 125.729  23.318  1.00  0.00    -0.161 SA
ATOM     10  C   UNL     1      40.681 124.688  24.578  1.00  0.00     0.069 C 
ENDBRANCH   3   5
ENDBRANCH   2   3
ENDBRANCH   1   2
BRANCH   1  11
ATOM     11  C   UNL     1      43.521 131.210  21.793  1.00  0.00     0.016 C 
BRANCH  11  12
ATOM     12  C   UNL     1      44.243 131.219  20.470  1.00  0.00    -0.049 A 
ATOM     13  C   UNL     1      44.151 132.332  19.622  1.00  0.00     0.004 A 
ATOM     14  C   UNL     1      44.954 130.088  20.044  1.00  0.00     0.004 A 
ATOM     15  C   UNL     1      44.747 132.308  18.358  1.00  0.00     0.009 A 
ATOM     16  C   UNL     1      45.549 130.062  18.780  1.00  0.00     0.009 A 
ATOM     17  C   UNL     1      45.445 131.168  17.919  1.00  0.00    -0.011 A 
BRANCH  17  18
ATOM     18  C   UNL     1      46.042 131.124  16.562  1.00  0.00     0.067 A 
ATOM     19  C   UNL     1      45.934 132.228  15.677  1.00  0.00     0.210 A 
ATOM     20  C   UNL     1      46.729 129.979  16.111  1.00  0.00     0.290 A 
ATOM     21  N   UNL     1      46.484 132.176  14.428  1.00  0.00    -0.242 N 
ATOM     22  N   UNL     1      47.248 129.998  14.860  1.00  0.00     0.008 N 
ATOM     23  C   UNL     1      47.134 131.050  14.046  1.00  0.00     0.346 A 
ATOM     24  N   UNL     1      47.917 129.039  14.246  1.00  0.00    -0.055 N 
ATOM     25  C   UNL     1      47.752 130.783  12.843  1.00  0.00     0.180 A 
ATOM     26  C   UNL     1      48.240 129.487  13.012  1.00  0.00     0.364 A 
ATOM     27  H   UNL     1      46.404 132.993  13.782  1.00  0.00     0.312 HD
ATOM     28  H   UNL     1      48.147 128.106  14.654  1.00  0.00     0.514 HD
ENDBRANCH  17  18
ENDBRANCH  11  12
ENDBRANCH   1  11
TORSDOF 6
ENDMDL


