REMARK SMILES Cc1ccc(-c2ccc(N=[N+]=[N-])cc2)c2c[nH][nH+]c12
REMARK SMILES IDX 8 1 7 2 6 3 14 4 13 5 9 6 10 7 11 8 12 9 5 10 4 11 15 12
REMARK SMILES IDX 3 13 19 14 16 15 2 16 18 17 17 18 1 19
REMARK H PARENT 18 20 17 21
ROOT
ATOM      1  C   UNL     1      -1.069   2.595   1.686  1.00  0.00     0.011 A 
ATOM      2  C   UNL     1      -1.084   1.736   0.584  1.00  0.00     0.009 A 
ATOM      3  C   UNL     1      -0.287   0.579   0.573  1.00  0.00    -0.017 A 
ATOM      4  C   UNL     1       0.537   0.307   1.678  1.00  0.00     0.009 A 
ATOM      5  C   UNL     1       0.551   1.166   2.780  1.00  0.00     0.011 A 
ATOM      6  C   UNL     1      -0.257   2.318   2.791  1.00  0.00     0.038 A 
ENDROOT
BRANCH   6   7
ATOM      7  N   UNL     1      -0.269   3.223   3.904  1.00  0.00    -0.061 NA
BRANCH   7   8
ATOM      8  N   UNL     1       0.422   3.041   4.908  1.00  0.00     0.005 N 
ATOM      9  N   UNL     1       1.111   2.861   5.911  1.00  0.00    -0.003 NA
ENDBRANCH   7   8
ENDBRANCH   6   7
BRANCH   3  10
ATOM     10  C   UNL     1      -0.291  -0.330  -0.597  1.00  0.00    -0.003 A 
ATOM     11  C   UNL     1       0.922  -0.774  -1.172  1.00  0.00     0.010 A 
ATOM     12  C   UNL     1      -1.477  -0.791  -1.183  1.00  0.00     0.078 A 
ATOM     13  C   UNL     1       0.922  -1.633  -2.292  1.00  0.00     0.011 A 
ATOM     14  C   UNL     1      -1.476  -1.629  -2.270  1.00  0.00     0.239 A 
ATOM     15  C   UNL     1      -2.810  -0.616  -0.859  1.00  0.00     0.163 A 
ATOM     16  C   UNL     1      -0.291  -2.074  -2.864  1.00  0.00     0.024 A 
ATOM     17  N   UNL     1      -2.742  -1.938  -2.600  1.00  0.00    -0.126 N 
ATOM     18  N   UNL     1      -3.547  -1.323  -1.744  1.00  0.00    -0.174 N 
ATOM     19  C   UNL     1      -0.307  -3.001  -4.043  1.00  0.00     0.052 C 
ATOM     20  H   UNL     1      -3.062  -2.561  -3.376  1.00  0.00     0.488 HD
ATOM     21  H   UNL     1      -4.588  -1.396  -1.757  1.00  0.00     0.238 HD
ENDBRANCH   3  10
TORSDOF 3


