REMARK SMILES C=Cc1ccc([C@H]2CCC[C@]3(Cl)C=CO[C@H]23)nc1
REMARK SMILES IDX 3 1 4 2 5 3 6 4 17 5 18 6 2 7 1 8 7 9 8 10 16 11 9 12 15 13
REMARK SMILES IDX 11 14 10 15 14 16 13 17 12 18
REMARK H PARENT
ROOT
ATOM      1  C   UNL     1       1.373   1.525   3.042  1.00  0.00    -0.008 A 
ATOM      2  C   UNL     1       1.935   0.303   2.644  1.00  0.00     0.011 A 
ATOM      3  C   UNL     1       1.340  -0.454   1.633  1.00  0.00     0.025 A 
ATOM      4  C   UNL     1       0.166   0.009   1.024  1.00  0.00     0.047 A 
ATOM      5  N   UNL     1      -0.370   1.194   1.426  1.00  0.00    -0.260 NA
ATOM      6  C   UNL     1       0.191   1.950   2.406  1.00  0.00     0.119 A 
ENDROOT
BRANCH   1   7
ATOM      7  C   UNL     1       2.033   2.295   4.125  1.00  0.00     0.002 C 
ATOM      8  C   UNL     1       1.778   3.575   4.400  1.00  0.00     0.009 C 
ENDBRANCH   1   7
BRANCH   4   9
ATOM      9  C   UNL     1      -0.488  -0.777  -0.090  1.00  0.00     0.081 C 
ATOM     10  C   UNL     1      -1.978  -1.025   0.211  1.00  0.00     0.014 C 
ATOM     11  C   UNL     1      -0.339  -0.035  -1.435  1.00  0.00     0.206 C 
ATOM     12  C   UNL     1      -2.696  -1.823  -0.903  1.00  0.00     0.003 C 
ATOM     13  O   UNL     1       1.008  -0.095  -1.885  1.00  0.00    -0.495 OA
ATOM     14  C   UNL     1      -1.158  -0.679  -2.594  1.00  0.00     0.103 C 
ATOM     15  C   UNL     1      -1.864  -1.990  -2.187  1.00  0.00     0.031 C 
ATOM     16  C   UNL     1       1.083  -0.617  -3.162  1.00  0.00     0.185 C 
ATOM     17  C   UNL     1      -0.104  -0.955  -3.618  1.00  0.00     0.038 C 
ATOM     18  Cl  UNL     1      -2.343   0.481  -3.271  1.00  0.00    -0.111 Cl
ENDBRANCH   4   9
TORSDOF 2


