MODEL 1
REMARK VINA RESULT:      -7.4      0.000      0.000
REMARK SMILES CC(=O)c1ccc(-c2ccc(OC(=O)[C@@H]3C[C@H]3C=O)cc2)c2c[n-]nc12
REMARK SMILES IDX 12 1 11 2 8 3 9 4 21 5 10 6 20 7 7 8 4 9 5 10 26 11 6 12
REMARK SMILES IDX 25 13 22 14 24 15 23 16 2 17 1 18 3 19 13 20 14 21 15 22
REMARK SMILES IDX 16 23 17 24 18 25 19 26
REMARK H PARENT
ROOT
ATOM      1  O   UNL     1      42.642 132.099  22.407  1.00  0.00    -0.426 OA
ENDROOT
BRANCH   1   2
ATOM      2  C   UNL     1      43.246 131.851  21.165  1.00  0.00     0.130 A 
ATOM      3  C   UNL     1      44.537 131.313  18.717  1.00  0.00    -0.018 A 
ATOM      4  C   UNL     1      43.172 131.643  18.742  1.00  0.00     0.012 A 
ATOM      5  C   UNL     1      45.242 131.227  19.929  1.00  0.00     0.012 A 
ATOM      6  C   UNL     1      42.530 131.909  19.955  1.00  0.00     0.048 A 
ATOM      7  C   UNL     1      44.598 131.491  21.141  1.00  0.00     0.048 A 
BRANCH   3   8
ATOM      8  C   UNL     1      45.212 131.022  17.431  1.00  0.00    -0.011 A 
ATOM      9  C   UNL     1      46.527 130.472  14.942  1.00  0.00     0.042 A 
ATOM     10  C   UNL     1      47.140 130.158  16.179  1.00  0.00     0.014 A 
ATOM     11  C   UNL     1      45.251 131.055  15.005  1.00  0.00     0.058 A 
ATOM     12  C   UNL     1      46.490 130.426  17.403  1.00  0.00     0.010 A 
ATOM     13  N   UNL     1      44.452 131.411  13.981  1.00  0.00    -0.367 NA
ATOM     14  C   UNL     1      44.626 131.317  16.194  1.00  0.00    -0.014 A 
ATOM     15  N   UNL     1      43.325 131.890  14.498  1.00  0.00    -0.581 NA
ATOM     16  C   UNL     1      43.400 131.841  15.847  1.00  0.00    -0.113 A 
BRANCH   9  17
ATOM     17  C   UNL     1      47.198 130.191  13.643  1.00  0.00     0.161 C 
ATOM     18  C   UNL     1      48.273 129.153  13.520  1.00  0.00     0.093 C 
ATOM     19  O   UNL     1      46.867 130.835  12.611  1.00  0.00    -0.294 OA
ENDBRANCH   9  17
ENDBRANCH   3   8
ENDBRANCH   1   2
BRANCH   1  20
ATOM     20  C   UNL     1      42.527 131.173  23.453  1.00  0.00     0.315 C 
ATOM     21  O   UNL     1      42.239 131.543  24.623  1.00  0.00    -0.251 OA
BRANCH  20  22
ATOM     22  C   UNL     1      42.769 129.723  23.179  1.00  0.00     0.110 C 
ATOM     23  C   UNL     1      42.843 128.851  24.426  1.00  0.00     0.028 C 
ATOM     24  C   UNL     1      44.116 129.205  23.669  1.00  0.00     0.068 C 
BRANCH  24  25
ATOM     25  C   UNL     1      44.679 128.070  22.870  1.00  0.00     0.228 C 
ATOM     26  O   UNL     1      45.291 127.174  23.427  1.00  0.00    -0.303 OA
ENDBRANCH  24  25
ENDBRANCH  20  22
ENDBRANCH   1  20
TORSDOF 6
ENDMDL
MODEL 2
REMARK VINA RESULT:      -5.1      1.615      1.795
REMARK SMILES CC(=O)c1ccc(-c2ccc(OC(=O)[C@@H]3C[C@H]3C=O)cc2)c2c[n-]nc12
REMARK SMILES IDX 12 1 11 2 8 3 9 4 21 5 10 6 20 7 7 8 4 9 5 10 26 11 6 12
REMARK SMILES IDX 25 13 22 14 24 15 23 16 2 17 1 18 3 19 13 20 14 21 15 22
REMARK SMILES IDX 16 23 17 24 18 25 19 26
REMARK H PARENT
ROOT
ATOM      1  O   UNL     1      42.179 132.648  21.430  1.00  0.00    -0.426 OA
ENDROOT
BRANCH   1   2
ATOM      2  C   UNL     1      42.888 132.366  20.253  1.00  0.00     0.130 A 
ATOM      3  C   UNL     1      44.397 131.796  17.941  1.00  0.00    -0.018 A 
ATOM      4  C   UNL     1      42.997 131.678  17.922  1.00  0.00     0.012 A 
ATOM      5  C   UNL     1      45.035 132.174  19.133  1.00  0.00     0.012 A 
ATOM      6  C   UNL     1      42.247 131.959  19.068  1.00  0.00     0.048 A 
ATOM      7  C   UNL     1      44.284 132.453  20.279  1.00  0.00     0.048 A 
BRANCH   3   8
ATOM      8  C   UNL     1      45.188 131.487  16.727  1.00  0.00    -0.011 A 
ATOM      9  C   UNL     1      46.710 130.897  14.368  1.00  0.00     0.042 A 
ATOM     10  C   UNL     1      46.702 132.198  14.929  1.00  0.00     0.014 A 
ATOM     11  C   UNL     1      45.943 129.925  15.030  1.00  0.00     0.058 A 
ATOM     12  C   UNL     1      45.956 132.486  16.092  1.00  0.00     0.010 A 
ATOM     13  N   UNL     1      45.813 128.622  14.721  1.00  0.00    -0.367 NA
ATOM     14  C   UNL     1      45.217 130.209  16.155  1.00  0.00    -0.014 A 
ATOM     15  N   UNL     1      45.021 128.068  15.633  1.00  0.00    -0.581 NA
ATOM     16  C   UNL     1      44.645 129.012  16.525  1.00  0.00    -0.113 A 
BRANCH   9  17
ATOM     17  C   UNL     1      47.496 130.578  13.145  1.00  0.00     0.161 C 
ATOM     18  C   UNL     1      48.485 129.452  13.116  1.00  0.00     0.093 C 
ATOM     19  O   UNL     1      47.340 131.265  12.099  1.00  0.00    -0.294 OA
ENDBRANCH   9  17
ENDBRANCH   3   8
ENDBRANCH   1   2
BRANCH   1  20
ATOM     20  C   UNL     1      42.133 131.829  22.566  1.00  0.00     0.315 C 
ATOM     21  O   UNL     1      41.704 132.265  23.668  1.00  0.00    -0.251 OA
BRANCH  20  22
ATOM     22  C   UNL     1      42.617 130.417  22.472  1.00  0.00     0.110 C 
ATOM     23  C   UNL     1      42.976 129.785  23.811  1.00  0.00     0.028 C 
ATOM     24  C   UNL     1      44.079 130.225  22.857  1.00  0.00     0.068 C 
BRANCH  24  25
ATOM     25  C   UNL     1      44.765 129.090  22.162  1.00  0.00     0.228 C 
ATOM     26  O   UNL     1      45.504 129.308  21.216  1.00  0.00    -0.303 OA
ENDBRANCH  24  25
ENDBRANCH  20  22
ENDBRANCH   1  20
TORSDOF 6
ENDMDL
MODEL 3
REMARK VINA RESULT:      -4.5      1.652      2.152
REMARK SMILES CC(=O)c1ccc(-c2ccc(OC(=O)[C@@H]3C[C@H]3C=O)cc2)c2c[n-]nc12
REMARK SMILES IDX 12 1 11 2 8 3 9 4 21 5 10 6 20 7 7 8 4 9 5 10 26 11 6 12
REMARK SMILES IDX 25 13 22 14 24 15 23 16 2 17 1 18 3 19 13 20 14 21 15 22
REMARK SMILES IDX 16 23 17 24 18 25 19 26
REMARK H PARENT
ROOT
ATOM      1  O   UNL     1      41.879 132.610  21.208  1.00  0.00    -0.426 OA
ENDROOT
BRANCH   1   2
ATOM      2  C   UNL     1      42.717 132.335  20.118  1.00  0.00     0.130 A 
ATOM      3  C   UNL     1      44.322 131.793  17.864  1.00  0.00    -0.018 A 
ATOM      4  C   UNL     1      44.914 132.093  19.102  1.00  0.00     0.012 A 
ATOM      5  C   UNL     1      42.922 131.794  17.759  1.00  0.00     0.012 A 
ATOM      6  C   UNL     1      44.120 132.364  20.220  1.00  0.00     0.048 A 
ATOM      7  C   UNL     1      42.129 132.067  18.877  1.00  0.00     0.048 A 
BRANCH   3   8
ATOM      8  C   UNL     1      45.167 131.517  16.680  1.00  0.00    -0.011 A 
ATOM      9  C   UNL     1      46.793 130.987  14.376  1.00  0.00     0.042 A 
ATOM     10  C   UNL     1      46.690 132.293  14.916  1.00  0.00     0.014 A 
ATOM     11  C   UNL     1      46.067 129.979  15.031  1.00  0.00     0.058 A 
ATOM     12  C   UNL     1      45.892 132.551  16.052  1.00  0.00     0.010 A 
ATOM     13  N   UNL     1      46.025 128.667  14.738  1.00  0.00    -0.367 NA
ATOM     14  C   UNL     1      45.291 130.235  16.130  1.00  0.00    -0.014 A 
ATOM     15  N   UNL     1      45.241 128.079  15.636  1.00  0.00    -0.581 NA
ATOM     16  C   UNL     1      44.781 129.010  16.501  1.00  0.00    -0.113 A 
BRANCH   9  17
ATOM     17  C   UNL     1      47.634 130.699  13.183  1.00  0.00     0.161 C 
ATOM     18  C   UNL     1      48.622 129.572  13.168  1.00  0.00     0.093 C 
ATOM     19  O   UNL     1      47.527 131.415  12.149  1.00  0.00    -0.294 OA
ENDBRANCH   9  17
ENDBRANCH   3   8
ENDBRANCH   1   2
BRANCH   1  20
ATOM     20  C   UNL     1      42.132 132.250  22.538  1.00  0.00     0.315 C 
ATOM     21  O   UNL     1      41.371 132.621  23.472  1.00  0.00    -0.251 OA
BRANCH  20  22
ATOM     22  C   UNL     1      43.338 131.425  22.858  1.00  0.00     0.110 C 
ATOM     23  C   UNL     1      43.343 130.043  22.218  1.00  0.00     0.028 C 
ATOM     24  C   UNL     1      43.052 130.192  23.705  1.00  0.00     0.068 C 
BRANCH  24  25
ATOM     25  C   UNL     1      44.182 129.762  24.588  1.00  0.00     0.228 C 
ATOM     26  O   UNL     1      44.806 128.745  24.332  1.00  0.00    -0.303 OA
ENDBRANCH  24  25
ENDBRANCH  20  22
ENDBRANCH   1  20
TORSDOF 6
ENDMDL


