REMARK SMILES C[C@H](CCO)C(=O)N(N)c1ccccc1-c1[nH]c2ccccc2[nH+]1
REMARK SMILES IDX 1 1 2 2 3 3 4 4 5 5 6 7 7 8 8 9 9 10 10 13 11 14 15 15 12 16
REMARK SMILES IDX 14 17 13 18 16 19 17 20 24 21 18 22 23 23 19 24 22 25 20 26
REMARK SMILES IDX 21 27
REMARK H PARENT 5 6 9 11 9 12 17 28 24 29
ROOT
ATOM      1  C   UNL     1      -1.559   1.373  -1.644  1.00  0.00     0.018 C 
ATOM      2  C   UNL     1      -0.118   1.264  -2.159  1.00  0.00     0.079 C 
ENDROOT
BRANCH   2   3
ATOM      3  C   UNL     1       0.005   0.319  -3.384  1.00  0.00     0.041 C 
BRANCH   3   4
ATOM      4  C   UNL     1      -0.666  -1.052  -3.212  1.00  0.00     0.157 C 
BRANCH   4   5
ATOM      5  O   UNL     1      -0.337  -1.868  -4.302  1.00  0.00    -0.396 OA
ATOM      6  H   UNL     1      -0.796  -2.734  -4.147  1.00  0.00     0.210 HD
ENDBRANCH   4   5
ENDBRANCH   3   4
ENDBRANCH   2   3
BRANCH   2   7
ATOM      7  C   UNL     1       0.831   0.912  -1.029  1.00  0.00     0.244 C 
ATOM      8  O   UNL     1       1.330  -0.245  -0.963  1.00  0.00    -0.273 OA
BRANCH   7   9
ATOM      9  N   UNL     1       1.160   1.883  -0.014  1.00  0.00    -0.247 N 
BRANCH   9  10
ATOM     10  N   UNL     1       0.826   3.236  -0.215  1.00  0.00    -0.241 NA
ATOM     11  H   UNL     1       1.665   3.716  -0.612  1.00  0.00     0.144 HD
ATOM     12  H   UNL     1       0.620   3.666   0.716  1.00  0.00     0.144 HD
ENDBRANCH   9  10
BRANCH   9  13
ATOM     13  C   UNL     1       1.984   1.510   1.109  1.00  0.00     0.076 A 
ATOM     14  C   UNL     1       3.247   2.106   1.262  1.00  0.00     0.029 A 
ATOM     15  C   UNL     1       1.567   0.518   2.032  1.00  0.00     0.089 A 
ATOM     16  C   UNL     1       4.098   1.708   2.295  1.00  0.00     0.002 A 
ATOM     17  C   UNL     1       2.443   0.117   3.054  1.00  0.00     0.019 A 
ATOM     18  C   UNL     1       3.700   0.711   3.184  1.00  0.00     0.001 A 
BRANCH  15  19
ATOM     19  C   UNL     1       0.221  -0.090   1.963  1.00  0.00     0.287 A 
ATOM     20  N   UNL     1      -0.014  -1.413   2.164  1.00  0.00    -0.236 N 
ATOM     21  N   UNL     1      -0.913   0.610   1.699  1.00  0.00    -0.236 N 
ATOM     22  C   UNL     1      -1.341  -1.538   2.003  1.00  0.00     0.172 A 
ATOM     23  C   UNL     1      -1.883  -0.317   1.724  1.00  0.00     0.172 A 
ATOM     24  C   UNL     1      -2.118  -2.691   2.081  1.00  0.00     0.056 A 
ATOM     25  C   UNL     1      -3.248  -0.147   1.504  1.00  0.00     0.056 A 
ATOM     26  C   UNL     1      -3.503  -2.558   1.862  1.00  0.00     0.005 A 
ATOM     27  C   UNL     1      -4.065  -1.291   1.575  1.00  0.00     0.005 A 
ATOM     28  H   UNL     1       0.678  -2.167   2.373  1.00  0.00     0.312 HD
ATOM     29  H   UNL     1      -1.017   1.635   1.534  1.00  0.00     0.312 HD
ENDBRANCH  15  19
ENDBRANCH   9  13
ENDBRANCH   7   9
ENDBRANCH   2   7
TORSDOF 8


