MODEL 1
REMARK VINA RESULT:      -9.3      0.000      0.000
REMARK SMILES [O-]c1ccc([NH2+]c2cc3[nH]ccc3cc2F)c(F)c1
REMARK SMILES IDX 6 1 5 4 2 5 3 6 19 7 4 8 17 9 1 10 18 11 7 12 8 13 15 14
REMARK SMILES IDX 9 15 14 16 10 17 13 18 11 19 12 20 16 21
REMARK H PARENT 6 2 6 3 10 22
ROOT
ATOM      1  N   UNL     1      43.897 131.482  15.717  1.00  0.00    -0.276 N 
ATOM      2  H   UNL     1      43.689 132.440  15.350  1.00  0.00     0.358 HD
ATOM      3  H   UNL     1      43.101 130.873  15.418  1.00  0.00     0.358 HD
ENDROOT
BRANCH   1   4
ATOM      4  C   UNL     1      45.134 130.988  15.158  1.00  0.00     0.170 A 
ATOM      5  C   UNL     1      47.520 130.039  14.011  1.00  0.00    -0.106 A 
ATOM      6  C   UNL     1      47.252 131.410  14.032  1.00  0.00    -0.002 A 
ATOM      7  C   UNL     1      46.603 129.139  14.561  1.00  0.00     0.037 A 
ATOM      8  C   UNL     1      46.065 131.883  14.601  1.00  0.00     0.071 A 
ATOM      9  C   UNL     1      45.414 129.606  15.132  1.00  0.00     0.183 A 
ATOM     10  O   UNL     1      48.699 129.570  13.444  1.00  0.00    -0.872 OA
ATOM     11  F   UNL     1      44.543 128.712  15.663  1.00  0.00    -0.200 F 
ENDBRANCH   1   4
BRANCH   1  12
ATOM     12  C   UNL     1      43.989 131.518  17.157  1.00  0.00     0.172 A 
ATOM     13  C   UNL     1      45.161 131.057  17.802  1.00  0.00     0.098 A 
ATOM     14  C   UNL     1      42.897 131.984  17.944  1.00  0.00     0.184 A 
ATOM     15  C   UNL     1      45.202 131.077  19.194  1.00  0.00     0.052 A 
ATOM     16  C   UNL     1      42.976 131.991  19.349  1.00  0.00     0.056 A 
ATOM     17  N   UNL     1      46.213 130.686  19.988  1.00  0.00    -0.361 N 
ATOM     18  C   UNL     1      44.147 131.528  19.939  1.00  0.00     0.003 A 
ATOM     19  C   UNL     1      45.788 130.892  21.255  1.00  0.00     0.083 A 
ATOM     20  C   UNL     1      44.500 131.418  21.266  1.00  0.00     0.028 A 
ATOM     21  F   UNL     1      41.764 132.438  17.350  1.00  0.00    -0.200 F 
ATOM     22  H   UNL     1      47.137 130.300  19.691  1.00  0.00     0.166 HD
ENDBRANCH   1  12
TORSDOF 2
ENDMDL
MODEL 2
REMARK VINA RESULT:      -8.7      2.579      5.886
REMARK SMILES [O-]c1ccc([NH2+]c2cc3[nH]ccc3cc2F)c(F)c1
REMARK SMILES IDX 6 1 5 4 2 5 3 6 19 7 4 8 17 9 1 10 18 11 7 12 8 13 15 14
REMARK SMILES IDX 9 15 14 16 10 17 13 18 11 19 12 20 16 21
REMARK H PARENT 6 2 6 3 10 22
ROOT
ATOM      1  N   UNL     1      43.715 131.749  16.476  1.00  0.00    -0.276 N 
ATOM      2  H   UNL     1      42.807 131.293  16.223  1.00  0.00     0.358 HD
ATOM      3  H   UNL     1      43.638 132.746  16.172  1.00  0.00     0.358 HD
ENDROOT
BRANCH   1   4
ATOM      4  C   UNL     1      43.931 131.683  17.903  1.00  0.00     0.170 A 
ATOM      5  C   UNL     1      44.358 131.492  20.676  1.00  0.00    -0.106 A 
ATOM      6  C   UNL     1      45.419 131.288  19.790  1.00  0.00    -0.002 A 
ATOM      7  C   UNL     1      43.085 131.791  20.184  1.00  0.00     0.037 A 
ATOM      8  C   UNL     1      45.208 131.382  18.410  1.00  0.00     0.071 A 
ATOM      9  C   UNL     1      42.867 131.886  18.806  1.00  0.00     0.183 A 
ATOM     10  O   UNL     1      44.570 131.397  22.046  1.00  0.00    -0.872 OA
ATOM     11  F   UNL     1      41.622 132.183  18.355  1.00  0.00    -0.200 F 
ENDBRANCH   1   4
BRANCH   1  12
ATOM     12  C   UNL     1      44.800 131.095  15.785  1.00  0.00     0.172 A 
ATOM     13  C   UNL     1      45.651 131.843  14.937  1.00  0.00     0.098 A 
ATOM     14  C   UNL     1      45.008 129.692  15.920  1.00  0.00     0.184 A 
ATOM     15  C   UNL     1      46.669 131.173  14.262  1.00  0.00     0.052 A 
ATOM     16  C   UNL     1      46.048 129.050  15.223  1.00  0.00     0.056 A 
ATOM     17  N   UNL     1      47.573 131.698  13.419  1.00  0.00    -0.361 N 
ATOM     18  C   UNL     1      46.858 129.826  14.401  1.00  0.00     0.003 A 
ATOM     19  C   UNL     1      48.348 130.664  13.018  1.00  0.00     0.083 A 
ATOM     20  C   UNL     1      47.931 129.476  13.611  1.00  0.00     0.028 A 
ATOM     21  F   UNL     1      44.210 128.952  16.731  1.00  0.00    -0.200 F 
ATOM     22  H   UNL     1      47.662 132.697  13.130  1.00  0.00     0.166 HD
ENDBRANCH   1  12
TORSDOF 2
ENDMDL
MODEL 3
REMARK VINA RESULT:      -8.6      1.232      1.644
REMARK SMILES [O-]c1ccc([NH2+]c2cc3[nH]ccc3cc2F)c(F)c1
REMARK SMILES IDX 6 1 5 4 2 5 3 6 19 7 4 8 17 9 1 10 18 11 7 12 8 13 15 14
REMARK SMILES IDX 9 15 14 16 10 17 13 18 11 19 12 20 16 21
REMARK H PARENT 6 2 6 3 10 22
ROOT
ATOM      1  N   UNL     1      43.754 131.874  16.137  1.00  0.00    -0.276 N 
ATOM      2  H   UNL     1      43.782 132.887  15.878  1.00  0.00     0.358 HD
ATOM      3  H   UNL     1      42.850 131.500  15.767  1.00  0.00     0.358 HD
ENDROOT
BRANCH   1   4
ATOM      4  C   UNL     1      44.862 131.170  15.535  1.00  0.00     0.170 A 
ATOM      5  C   UNL     1      47.033 129.772  14.421  1.00  0.00    -0.106 A 
ATOM      6  C   UNL     1      45.878 129.083  14.797  1.00  0.00    -0.002 A 
ATOM      7  C   UNL     1      47.110 131.156  14.597  1.00  0.00     0.037 A 
ATOM      8  C   UNL     1      44.798 129.776  15.353  1.00  0.00     0.071 A 
ATOM      9  C   UNL     1      46.033 131.856  15.153  1.00  0.00     0.183 A 
ATOM     10  O   UNL     1      48.106 129.081  13.869  1.00  0.00    -0.872 OA
ATOM     11  F   UNL     1      46.132 133.199  15.309  1.00  0.00    -0.200 F 
ENDBRANCH   1   4
BRANCH   1  12
ATOM     12  C   UNL     1      43.806 131.734  17.573  1.00  0.00     0.172 A 
ATOM     13  C   UNL     1      44.969 131.218  18.191  1.00  0.00     0.098 A 
ATOM     14  C   UNL     1      42.682 132.080  18.378  1.00  0.00     0.184 A 
ATOM     15  C   UNL     1      44.972 131.068  19.576  1.00  0.00     0.052 A 
ATOM     16  C   UNL     1      42.722 131.914  19.774  1.00  0.00     0.056 A 
ATOM     17  N   UNL     1      45.968 130.600  20.346  1.00  0.00    -0.361 N 
ATOM     18  C   UNL     1      43.886 131.404  20.338  1.00  0.00     0.003 A 
ATOM     19  C   UNL     1      45.505 130.641  21.616  1.00  0.00     0.083 A 
ATOM     20  C   UNL     1      44.206 131.138  21.652  1.00  0.00     0.028 A 
ATOM     21  F   UNL     1      41.557 132.582  17.811  1.00  0.00    -0.200 F 
ATOM     22  H   UNL     1      46.908 130.270  20.032  1.00  0.00     0.166 HD
ENDBRANCH   1  12
TORSDOF 2
ENDMDL
MODEL 4
REMARK VINA RESULT:      -8.4      3.336      6.291
REMARK SMILES [O-]c1ccc([NH2+]c2cc3[nH]ccc3cc2F)c(F)c1
REMARK SMILES IDX 6 1 5 4 2 5 3 6 19 7 4 8 17 9 1 10 18 11 7 12 8 13 15 14
REMARK SMILES IDX 9 15 14 16 10 17 13 18 11 19 12 20 16 21
REMARK H PARENT 6 2 6 3 10 22
ROOT
ATOM      1  N   UNL     1      44.802 132.202  20.255  1.00  0.00    -0.276 N 
ATOM      2  H   UNL     1      44.197 133.055  20.300  1.00  0.00     0.358 HD
ATOM      3  H   UNL     1      45.771 132.516  20.492  1.00  0.00     0.358 HD
ENDROOT
BRANCH   1   4
ATOM      4  C   UNL     1      44.354 131.217  21.211  1.00  0.00     0.170 A 
ATOM      5  C   UNL     1      43.474 129.256  23.026  1.00  0.00    -0.106 A 
ATOM      6  C   UNL     1      44.709 129.114  22.388  1.00  0.00    -0.002 A 
ATOM      7  C   UNL     1      42.677 130.374  22.763  1.00  0.00     0.037 A 
ATOM      8  C   UNL     1      45.148 130.087  21.485  1.00  0.00     0.071 A 
ATOM      9  C   UNL     1      43.110 131.351  21.860  1.00  0.00     0.183 A 
ATOM     10  O   UNL     1      43.039 128.288  23.923  1.00  0.00    -0.872 OA
ATOM     11  F   UNL     1      42.319 132.428  21.626  1.00  0.00    -0.200 F 
ENDBRANCH   1   4
BRANCH   1  12
ATOM     12  C   UNL     1      44.765 131.646  18.924  1.00  0.00     0.172 A 
ATOM     13  C   UNL     1      45.894 130.960  18.413  1.00  0.00     0.098 A 
ATOM     14  C   UNL     1      43.615 131.806  18.099  1.00  0.00     0.184 A 
ATOM     15  C   UNL     1      45.834 130.463  17.113  1.00  0.00     0.052 A 
ATOM     16  C   UNL     1      43.591 131.290  16.791  1.00  0.00     0.056 A 
ATOM     17  N   UNL     1      46.789 129.790  16.451  1.00  0.00    -0.361 N 
ATOM     18  C   UNL     1      44.722 130.624  16.332  1.00  0.00     0.003 A 
ATOM     19  C   UNL     1      46.273 129.521  15.230  1.00  0.00     0.083 A 
ATOM     20  C   UNL     1      44.982 130.026  15.118  1.00  0.00     0.028 A 
ATOM     21  F   UNL     1      42.517 132.454  18.566  1.00  0.00    -0.200 F 
ATOM     22  H   UNL     1      47.737 129.528  16.803  1.00  0.00     0.166 HD
ENDBRANCH   1  12
TORSDOF 2
ENDMDL
MODEL 5
REMARK VINA RESULT:      -8.4      1.525      1.996
REMARK SMILES [O-]c1ccc([NH2+]c2cc3[nH]ccc3cc2F)c(F)c1
REMARK SMILES IDX 6 1 5 4 2 5 3 6 19 7 4 8 17 9 1 10 18 11 7 12 8 13 15 14
REMARK SMILES IDX 9 15 14 16 10 17 13 18 11 19 12 20 16 21
REMARK H PARENT 6 2 6 3 10 22
ROOT
ATOM      1  N   UNL     1      43.941 131.598  16.072  1.00  0.00    -0.276 N 
ATOM      2  H   UNL     1      43.786 132.599  15.809  1.00  0.00     0.358 HD
ATOM      3  H   UNL     1      43.089 131.077  15.760  1.00  0.00     0.358 HD
ENDROOT
BRANCH   1   4
ATOM      4  C   UNL     1      45.109 131.077  15.401  1.00  0.00     0.170 A 
ATOM      5  C   UNL     1      47.361 130.083  14.040  1.00  0.00    -0.106 A 
ATOM      6  C   UNL     1      47.180 131.461  14.178  1.00  0.00    -0.002 A 
ATOM      7  C   UNL     1      46.423 129.198  14.579  1.00  0.00     0.037 A 
ATOM      8  C   UNL     1      46.061 131.957  14.854  1.00  0.00     0.071 A 
ATOM      9  C   UNL     1      45.301 129.687  15.256  1.00  0.00     0.183 A 
ATOM     10  O   UNL     1      48.473 129.591  13.367  1.00  0.00    -0.872 OA
ATOM     11  F   UNL     1      44.409 128.807  15.774  1.00  0.00    -0.200 F 
ENDBRANCH   1   4
BRANCH   1  12
ATOM     12  C   UNL     1      44.105 131.486  17.501  1.00  0.00     0.172 A 
ATOM     13  C   UNL     1      43.032 131.817  18.363  1.00  0.00     0.098 A 
ATOM     14  C   UNL     1      45.349 131.076  18.061  1.00  0.00     0.184 A 
ATOM     15  C   UNL     1      43.236 131.727  19.738  1.00  0.00     0.052 A 
ATOM     16  C   UNL     1      45.517 130.996  19.455  1.00  0.00     0.056 A 
ATOM     17  N   UNL     1      42.354 131.995  20.714  1.00  0.00    -0.361 N 
ATOM     18  C   UNL     1      44.436 131.331  20.263  1.00  0.00     0.003 A 
ATOM     19  C   UNL     1      43.007 131.765  21.877  1.00  0.00     0.083 A 
ATOM     20  C   UNL     1      44.312 131.348  21.635  1.00  0.00     0.028 A 
ATOM     21  F   UNL     1      46.391 130.747  17.256  1.00  0.00    -0.200 F 
ATOM     22  H   UNL     1      41.366 132.316  20.603  1.00  0.00     0.166 HD
ENDBRANCH   1  12
TORSDOF 2
ENDMDL
MODEL 6
REMARK VINA RESULT:      -8.3      4.082      6.997
REMARK SMILES [O-]c1ccc([NH2+]c2cc3[nH]ccc3cc2F)c(F)c1
REMARK SMILES IDX 6 1 5 4 2 5 3 6 19 7 4 8 17 9 1 10 18 11 7 12 8 13 15 14
REMARK SMILES IDX 9 15 14 16 10 17 13 18 11 19 12 20 16 21
REMARK H PARENT 6 2 6 3 10 22
ROOT
ATOM      1  N   UNL     1      44.851 131.317  22.224  1.00  0.00    -0.276 N 
ATOM      2  H   UNL     1      44.471 132.209  22.618  1.00  0.00     0.358 HD
ATOM      3  H   UNL     1      45.863 131.286  22.488  1.00  0.00     0.358 HD
ENDROOT
BRANCH   1   4
ATOM      4  C   UNL     1      44.160 130.182  22.792  1.00  0.00     0.170 A 
ATOM      5  C   UNL     1      42.801 127.952  23.837  1.00  0.00    -0.106 A 
ATOM      6  C   UNL     1      44.040 127.786  23.212  1.00  0.00    -0.002 A 
ATOM      7  C   UNL     1      42.238 129.227  23.943  1.00  0.00     0.037 A 
ATOM      8  C   UNL     1      44.716 128.893  22.691  1.00  0.00     0.071 A 
ATOM      9  C   UNL     1      42.909 130.339  23.424  1.00  0.00     0.183 A 
ATOM     10  O   UNL     1      42.130 126.850  24.353  1.00  0.00    -0.872 OA
ATOM     11  F   UNL     1      42.342 131.565  23.544  1.00  0.00    -0.200 F 
ENDBRANCH   1   4
BRANCH   1  12
ATOM     12  C   UNL     1      44.704 131.313  20.789  1.00  0.00     0.172 A 
ATOM     13  C   UNL     1      45.704 130.725  19.978  1.00  0.00     0.098 A 
ATOM     14  C   UNL     1      43.575 131.926  20.171  1.00  0.00     0.184 A 
ATOM     15  C   UNL     1      45.543 130.767  18.594  1.00  0.00     0.052 A 
ATOM     16  C   UNL     1      43.448 131.948  18.771  1.00  0.00     0.056 A 
ATOM     17  N   UNL     1      46.372 130.271  17.661  1.00  0.00    -0.361 N 
ATOM     18  C   UNL     1      44.455 131.358  18.014  1.00  0.00     0.003 A 
ATOM     19  C   UNL     1      45.796 130.554  16.469  1.00  0.00     0.083 A 
ATOM     20  C   UNL     1      44.596 131.234  16.649  1.00  0.00     0.028 A 
ATOM     21  F   UNL     1      42.600 132.491  20.926  1.00  0.00    -0.200 F 
ATOM     22  H   UNL     1      47.274 129.771  17.818  1.00  0.00     0.166 HD
ENDBRANCH   1  12
TORSDOF 2
ENDMDL
MODEL 7
REMARK VINA RESULT:      -8.3      1.884      2.667
REMARK SMILES [O-]c1ccc([NH2+]c2cc3[nH]ccc3cc2F)c(F)c1
REMARK SMILES IDX 6 1 5 4 2 5 3 6 19 7 4 8 17 9 1 10 18 11 7 12 8 13 15 14
REMARK SMILES IDX 9 15 14 16 10 17 13 18 11 19 12 20 16 21
REMARK H PARENT 6 2 6 3 10 22
ROOT
ATOM      1  N   UNL     1      43.821 131.832  16.779  1.00  0.00    -0.276 N 
ATOM      2  H   UNL     1      43.855 132.859  16.577  1.00  0.00     0.358 HD
ATOM      3  H   UNL     1      42.869 131.508  16.491  1.00  0.00     0.358 HD
ENDROOT
BRANCH   1   4
ATOM      4  C   UNL     1      44.831 131.136  16.016  1.00  0.00     0.170 A 
ATOM      5  C   UNL     1      46.819 129.754  14.584  1.00  0.00    -0.106 A 
ATOM      6  C   UNL     1      45.732 129.058  15.121  1.00  0.00    -0.002 A 
ATOM      7  C   UNL     1      46.917 131.137  14.758  1.00  0.00     0.037 A 
ATOM      8  C   UNL     1      44.744 129.743  15.834  1.00  0.00     0.071 A 
ATOM      9  C   UNL     1      45.932 131.829  15.470  1.00  0.00     0.183 A 
ATOM     10  O   UNL     1      47.801 129.071  13.877  1.00  0.00    -0.872 OA
ATOM     11  F   UNL     1      46.049 133.172  15.620  1.00  0.00    -0.200 F 
ENDBRANCH   1   4
BRANCH   1  12
ATOM     12  C   UNL     1      44.026 131.602  18.188  1.00  0.00     0.172 A 
ATOM     13  C   UNL     1      42.992 131.894  19.110  1.00  0.00     0.098 A 
ATOM     14  C   UNL     1      45.274 131.113  18.672  1.00  0.00     0.184 A 
ATOM     15  C   UNL     1      43.237 131.689  20.466  1.00  0.00     0.052 A 
ATOM     16  C   UNL     1      45.484 130.918  20.049  1.00  0.00     0.056 A 
ATOM     17  N   UNL     1      42.394 131.903  21.489  1.00  0.00    -0.361 N 
ATOM     18  C   UNL     1      44.439 131.218  20.917  1.00  0.00     0.003 A 
ATOM     19  C   UNL     1      43.076 131.562  22.607  1.00  0.00     0.083 A 
ATOM     20  C   UNL     1      44.359 131.129  22.289  1.00  0.00     0.028 A 
ATOM     21  F   UNL     1      46.280 130.820  17.809  1.00  0.00    -0.200 F 
ATOM     22  H   UNL     1      41.414 132.260  21.437  1.00  0.00     0.166 HD
ENDBRANCH   1  12
TORSDOF 2
ENDMDL
MODEL 8
REMARK VINA RESULT:      -8.1      2.855      5.609
REMARK SMILES [O-]c1ccc([NH2+]c2cc3[nH]ccc3cc2F)c(F)c1
REMARK SMILES IDX 6 1 5 4 2 5 3 6 19 7 4 8 17 9 1 10 18 11 7 12 8 13 15 14
REMARK SMILES IDX 9 15 14 16 10 17 13 18 11 19 12 20 16 21
REMARK H PARENT 6 2 6 3 10 22
ROOT
ATOM      1  N   UNL     1      43.102 131.958  17.067  1.00  0.00    -0.276 N 
ATOM      2  H   UNL     1      42.185 131.481  16.903  1.00  0.00     0.358 HD
ATOM      3  H   UNL     1      42.941 132.975  16.884  1.00  0.00     0.358 HD
ENDROOT
BRANCH   1   4
ATOM      4  C   UNL     1      43.533 131.764  18.432  1.00  0.00     0.170 A 
ATOM      5  C   UNL     1      44.378 131.324  21.078  1.00  0.00    -0.106 A 
ATOM      6  C   UNL     1      45.291 131.218  20.026  1.00  0.00    -0.002 A 
ATOM      7  C   UNL     1      43.045 131.649  20.815  1.00  0.00     0.037 A 
ATOM      8  C   UNL     1      44.873 131.436  18.709  1.00  0.00     0.071 A 
ATOM      9  C   UNL     1      42.619 131.868  19.501  1.00  0.00     0.183 A 
ATOM     10  O   UNL     1      44.796 131.106  22.385  1.00  0.00    -0.872 OA
ATOM     11  F   UNL     1      41.320 132.187  19.274  1.00  0.00    -0.200 F 
ENDBRANCH   1   4
BRANCH   1  12
ATOM     12  C   UNL     1      44.095 131.436  16.160  1.00  0.00     0.172 A 
ATOM     13  C   UNL     1      45.251 130.796  16.669  1.00  0.00     0.098 A 
ATOM     14  C   UNL     1      43.944 131.585  14.751  1.00  0.00     0.184 A 
ATOM     15  C   UNL     1      46.203 130.331  15.765  1.00  0.00     0.052 A 
ATOM     16  C   UNL     1      44.928 131.102  13.869  1.00  0.00     0.056 A 
ATOM     17  N   UNL     1      47.357 129.703  16.045  1.00  0.00    -0.361 N 
ATOM     18  C   UNL     1      46.045 130.480  14.415  1.00  0.00     0.003 A 
ATOM     19  C   UNL     1      47.939 129.451  14.850  1.00  0.00     0.083 A 
ATOM     20  C   UNL     1      47.149 129.922  13.806  1.00  0.00     0.028 A 
ATOM     21  F   UNL     1      42.843 132.189  14.237  1.00  0.00    -0.200 F 
ATOM     22  H   UNL     1      47.731 129.459  16.988  1.00  0.00     0.166 HD
ENDBRANCH   1  12
TORSDOF 2
ENDMDL
MODEL 9
REMARK VINA RESULT:      -7.8      4.483      7.205
REMARK SMILES [O-]c1ccc([NH2+]c2cc3[nH]ccc3cc2F)c(F)c1
REMARK SMILES IDX 6 1 5 4 2 5 3 6 19 7 4 8 17 9 1 10 18 11 7 12 8 13 15 14
REMARK SMILES IDX 9 15 14 16 10 17 13 18 11 19 12 20 16 21
REMARK H PARENT 6 2 6 3 10 22
ROOT
ATOM      1  N   UNL     1      44.607 130.739  22.865  1.00  0.00    -0.276 N 
ATOM      2  H   UNL     1      44.325 131.593  23.400  1.00  0.00     0.358 HD
ATOM      3  H   UNL     1      45.604 130.549  23.120  1.00  0.00     0.358 HD
ENDROOT
BRANCH   1   4
ATOM      4  C   UNL     1      43.780 129.616  23.237  1.00  0.00     0.170 A 
ATOM      5  C   UNL     1      42.175 127.444  24.023  1.00  0.00    -0.106 A 
ATOM      6  C   UNL     1      41.691 128.749  24.141  1.00  0.00    -0.002 A 
ATOM      7  C   UNL     1      43.456 127.218  23.514  1.00  0.00     0.037 A 
ATOM      8  C   UNL     1      42.487 129.830  23.752  1.00  0.00     0.071 A 
ATOM      9  C   UNL     1      44.259 128.294  23.122  1.00  0.00     0.183 A 
ATOM     10  O   UNL     1      41.382 126.370  24.412  1.00  0.00    -0.872 OA
ATOM     11  F   UNL     1      45.497 128.047  22.626  1.00  0.00    -0.200 F 
ENDBRANCH   1   4
BRANCH   1  12
ATOM     12  C   UNL     1      44.489 130.988  21.448  1.00  0.00     0.172 A 
ATOM     13  C   UNL     1      45.466 130.481  20.558  1.00  0.00     0.098 A 
ATOM     14  C   UNL     1      43.414 131.768  20.933  1.00  0.00     0.184 A 
ATOM     15  C   UNL     1      45.337 130.767  19.201  1.00  0.00     0.052 A 
ATOM     16  C   UNL     1      43.317 132.036  19.556  1.00  0.00     0.056 A 
ATOM     17  N   UNL     1      46.151 130.383  18.204  1.00  0.00    -0.361 N 
ATOM     18  C   UNL     1      44.300 131.517  18.719  1.00  0.00     0.003 A 
ATOM     19  C   UNL     1      45.619 130.900  17.072  1.00  0.00     0.083 A 
ATOM     20  C   UNL     1      44.460 131.616  17.354  1.00  0.00     0.028 A 
ATOM     21  F   UNL     1      42.461 132.261  21.765  1.00  0.00    -0.200 F 
ATOM     22  H   UNL     1      47.017 129.805  18.282  1.00  0.00     0.166 HD
ENDBRANCH   1  12
TORSDOF 2
ENDMDL


