REMARK SMILES c1cc(-c2ccc([C@@H]3CO3)cn2)c2occc2c1
REMARK SMILES IDX 4 1 5 2 6 3 7 4 11 5 12 6 3 7 1 8 2 9 18 10 17 11 13 12
REMARK SMILES IDX 16 13 14 14 15 15 8 16 9 17 10 18
REMARK H PARENT
ROOT
ATOM      1  C   UNL     1      -0.692  -0.613  -0.263  1.00  0.00     0.074 A 
ATOM      2  C   UNL     1      -0.711  -1.846   0.412  1.00  0.00     0.029 A 
ATOM      3  C   UNL     1      -1.916  -2.537   0.552  1.00  0.00     0.010 A 
ATOM      4  C   UNL     1      -3.093  -2.012   0.007  1.00  0.00     0.001 A 
ATOM      5  C   UNL     1      -3.039  -0.778  -0.651  1.00  0.00     0.118 A 
ATOM      6  N   UNL     1      -1.856  -0.121  -0.773  1.00  0.00    -0.256 NA
ENDROOT
BRANCH   1   7
ATOM      7  C   UNL     1       0.565   0.159  -0.438  1.00  0.00     0.043 A 
ATOM      8  C   UNL     1       2.811   0.837   0.304  1.00  0.00     0.002 A 
ATOM      9  C   UNL     1       1.632   0.083   0.492  1.00  0.00     0.014 A 
ATOM     10  C   UNL     1       2.948   1.684  -0.808  1.00  0.00     0.012 A 
ATOM     11  C   UNL     1       1.886   1.750  -1.704  1.00  0.00     0.021 A 
ATOM     12  C   UNL     1       0.739   1.022  -1.531  1.00  0.00     0.143 A 
ATOM     13  C   UNL     1       1.735   2.477  -2.861  1.00  0.00     0.050 A 
ATOM     14  O   UNL     1      -0.096   1.260  -2.514  1.00  0.00    -0.464 OA
ATOM     15  C   UNL     1       0.473   2.130  -3.328  1.00  0.00     0.196 A 
ENDBRANCH   1   7
BRANCH   4  16
ATOM     16  C   UNL     1      -4.397  -2.732   0.181  1.00  0.00     0.176 C 
ATOM     17  C   UNL     1      -4.509  -4.049  -0.486  1.00  0.00     0.198 C 
ATOM     18  O   UNL     1      -5.075  -2.887  -1.045  1.00  0.00    -0.368 OA
ENDBRANCH   4  16
TORSDOF 2


