MODEL 1
REMARK VINA RESULT:      -9.9      0.000      0.000
REMARK SMILES [O-]c1nccc2ccc(-c3cccc([C@H]4CO4)c3)cc12
REMARK SMILES IDX 1 1 2 2 3 3 4 4 5 5 6 6 7 7 8 8 9 9 19 10 20 11 10 12 11 13
REMARK SMILES IDX 18 14 12 15 14 16 13 17 15 18 16 19 17 20
REMARK H PARENT
ROOT
ATOM      1  O   UNL     1      41.527 132.930  20.498  1.00  0.00    -0.858 OA
ATOM      2  C   UNL     1      42.551 132.275  21.174  1.00  0.00    -0.005 A 
ATOM      3  N   UNL     1      42.502 132.193  22.530  1.00  0.00    -0.272 NA
ATOM      4  C   UNL     1      43.470 131.567  23.250  1.00  0.00     0.111 A 
ATOM      5  C   UNL     1      44.558 130.982  22.603  1.00  0.00     0.029 A 
ATOM      6  C   UNL     1      44.644 131.045  21.206  1.00  0.00    -0.016 A 
ATOM      7  C   UNL     1      45.726 130.465  20.529  1.00  0.00     0.009 A 
ATOM      8  C   UNL     1      45.803 130.533  19.138  1.00  0.00     0.009 A 
ATOM      9  C   UNL     1      44.802 131.182  18.394  1.00  0.00    -0.018 A 
ATOM     10  C   UNL     1      43.715 131.765  19.072  1.00  0.00     0.018 A 
ATOM     11  C   UNL     1      43.628 131.702  20.473  1.00  0.00    -0.007 A 
ENDROOT
BRANCH   9  12
ATOM     12  C   UNL     1      44.891 131.253  16.913  1.00  0.00    -0.018 A 
ATOM     13  C   UNL     1      43.742 131.496  16.140  1.00  0.00     0.009 A 
ATOM     14  C   UNL     1      46.127 131.081  16.262  1.00  0.00     0.015 A 
ATOM     15  C   UNL     1      43.829 131.572  14.748  1.00  0.00     0.001 A 
ATOM     16  C   UNL     1      46.211 131.138  14.863  1.00  0.00    -0.016 A 
ATOM     17  C   UNL     1      45.059 131.400  14.110  1.00  0.00     0.006 A 
BRANCH  16  18
ATOM     18  C   UNL     1      47.540 130.982  14.183  1.00  0.00     0.174 C 
ATOM     19  C   UNL     1      47.821 129.650  13.599  1.00  0.00     0.198 C 
ATOM     20  O   UNL     1      47.396 130.732  12.804  1.00  0.00    -0.368 OA
ENDBRANCH  16  18
ENDBRANCH   9  12
TORSDOF 2
ENDMDL
MODEL 2
REMARK VINA RESULT:      -8.3      2.673      7.086
REMARK SMILES [O-]c1nccc2ccc(-c3cccc([C@H]4CO4)c3)cc12
REMARK SMILES IDX 1 1 2 2 3 3 4 4 5 5 6 6 7 7 8 8 9 9 19 10 20 11 10 12 11 13
REMARK SMILES IDX 18 14 12 15 14 16 13 17 15 18 16 19 17 20
REMARK H PARENT
ROOT
ATOM      1  O   UNL     1      43.256 132.063  14.489  1.00  0.00    -0.858 OA
ATOM      2  C   UNL     1      44.439 131.399  14.791  1.00  0.00    -0.005 A 
ATOM      3  N   UNL     1      45.245 130.988  13.775  1.00  0.00    -0.272 NA
ATOM      4  C   UNL     1      46.414 130.334  14.002  1.00  0.00     0.111 A 
ATOM      5  C   UNL     1      46.825 130.063  15.308  1.00  0.00     0.029 A 
ATOM      6  C   UNL     1      46.022 130.470  16.380  1.00  0.00    -0.016 A 
ATOM      7  C   UNL     1      46.410 130.212  17.702  1.00  0.00     0.009 A 
ATOM      8  C   UNL     1      45.604 130.622  18.765  1.00  0.00     0.009 A 
ATOM      9  C   UNL     1      44.394 131.297  18.529  1.00  0.00    -0.018 A 
ATOM     10  C   UNL     1      44.003 131.557  17.203  1.00  0.00     0.018 A 
ATOM     11  C   UNL     1      44.808 131.148  16.126  1.00  0.00    -0.007 A 
ENDROOT
BRANCH   9  12
ATOM     12  C   UNL     1      43.539 131.728  19.665  1.00  0.00    -0.018 A 
ATOM     13  C   UNL     1      42.453 132.596  19.452  1.00  0.00     0.009 A 
ATOM     14  C   UNL     1      43.801 131.271  20.970  1.00  0.00     0.015 A 
ATOM     15  C   UNL     1      41.645 132.993  20.519  1.00  0.00     0.001 A 
ATOM     16  C   UNL     1      43.000 131.686  22.046  1.00  0.00    -0.016 A 
ATOM     17  C   UNL     1      41.912 132.536  21.811  1.00  0.00     0.006 A 
BRANCH  16  18
ATOM     18  C   UNL     1      43.273 131.169  23.428  1.00  0.00     0.174 C 
ATOM     19  C   UNL     1      44.101 132.036  24.297  1.00  0.00     0.198 C 
ATOM     20  O   UNL     1      42.699 131.993  24.416  1.00  0.00    -0.368 OA
ENDBRANCH  16  18
ENDBRANCH   9  12
TORSDOF 2
ENDMDL
MODEL 3
REMARK VINA RESULT:      -8.3      1.505      2.139
REMARK SMILES [O-]c1nccc2ccc(-c3cccc([C@H]4CO4)c3)cc12
REMARK SMILES IDX 1 1 2 2 3 3 4 4 5 5 6 6 7 7 8 8 9 9 19 10 20 11 10 12 11 13
REMARK SMILES IDX 18 14 12 15 14 16 13 17 15 18 16 19 17 20
REMARK H PARENT
ROOT
ATOM      1  O   UNL     1      46.437 131.176  20.994  1.00  0.00    -0.858 OA
ATOM      2  C   UNL     1      45.091 131.475  21.175  1.00  0.00    -0.005 A 
ATOM      3  N   UNL     1      44.612 131.628  22.439  1.00  0.00    -0.272 NA
ATOM      4  C   UNL     1      43.308 131.921  22.685  1.00  0.00     0.111 A 
ATOM      5  C   UNL     1      42.411 132.076  21.627  1.00  0.00     0.029 A 
ATOM      6  C   UNL     1      42.868 131.926  20.311  1.00  0.00    -0.016 A 
ATOM      7  C   UNL     1      41.990 132.076  19.229  1.00  0.00     0.009 A 
ATOM      8  C   UNL     1      42.453 131.926  17.921  1.00  0.00     0.009 A 
ATOM      9  C   UNL     1      43.802 131.621  17.668  1.00  0.00    -0.018 A 
ATOM     10  C   UNL     1      44.684 131.470  18.753  1.00  0.00     0.018 A 
ATOM     11  C   UNL     1      44.228 131.620  20.074  1.00  0.00    -0.007 A 
ENDROOT
BRANCH   9  12
ATOM     12  C   UNL     1      44.287 131.460  16.273  1.00  0.00    -0.018 A 
ATOM     13  C   UNL     1      43.407 131.625  15.188  1.00  0.00     0.009 A 
ATOM     14  C   UNL     1      45.634 131.142  16.017  1.00  0.00     0.015 A 
ATOM     15  C   UNL     1      43.867 131.483  13.877  1.00  0.00     0.001 A 
ATOM     16  C   UNL     1      46.091 130.980  14.700  1.00  0.00    -0.016 A 
ATOM     17  C   UNL     1      45.204 131.168  13.632  1.00  0.00     0.006 A 
BRANCH  16  18
ATOM     18  C   UNL     1      47.536 130.669  14.440  1.00  0.00     0.174 C 
ATOM     19  C   UNL     1      47.828 129.314  13.920  1.00  0.00     0.198 C 
ATOM     20  O   UNL     1      47.782 130.437  13.072  1.00  0.00    -0.368 OA
ENDBRANCH  16  18
ENDBRANCH   9  12
TORSDOF 2
ENDMDL


