REMARK SMILES C#Cc1cncc([NH2+]c2cc(C)cc(-n3nc4ccccc4[nH+]3)c2N=[N+]=[N-])c1
REMARK SMILES IDX 9 1 10 2 11 3 12 4 13 5 14 6 24 7 8 8 7 11 3 12 4 13 28 14
REMARK SMILES IDX 5 15 6 16 2 17 1 18 25 19 26 20 27 21 15 22 16 23 23 24
REMARK SMILES IDX 17 25 22 26 18 27 21 28 19 29 20 30
REMARK H PARENT 8 9 8 10 23 31
ROOT
ATOM      1  C   UNL     1       1.041   0.872   0.751  1.00  0.00     0.147 A 
ATOM      2  C   UNL     1       0.287   1.919   1.310  1.00  0.00     0.072 A 
ATOM      3  C   UNL     1      -0.976   2.244   0.805  1.00  0.00    -0.043 A 
ATOM      4  C   UNL     1      -1.779   3.345   1.434  1.00  0.00     0.044 C 
ATOM      5  C   UNL     1      -1.524   1.474  -0.225  1.00  0.00     0.038 A 
ATOM      6  C   UNL     1      -0.808   0.408  -0.785  1.00  0.00     0.144 A 
ATOM      7  C   UNL     1       0.506   0.128  -0.328  1.00  0.00     0.130 A 
ENDROOT
BRANCH   1   8
ATOM      8  N   UNL     1       2.342   0.562   1.301  1.00  0.00    -0.280 N 
ATOM      9  H   UNL     1       3.001   0.263   0.545  1.00  0.00     0.358 HD
ATOM     10  H   UNL     1       2.766   1.415   1.734  1.00  0.00     0.358 HD
BRANCH   8  11
ATOM     11  C   UNL     1       2.215  -0.468   2.304  1.00  0.00     0.154 A 
ATOM     12  C   UNL     1       2.311  -2.802   2.968  1.00  0.00     0.048 A 
ATOM     13  C   UNL     1       1.905  -2.433   4.254  1.00  0.00     0.128 A 
ATOM     14  C   UNL     1       2.466  -1.814   1.990  1.00  0.00     0.088 A 
ATOM     15  N   UNL     1       1.666  -1.127   4.543  1.00  0.00    -0.257 NA
ATOM     16  C   UNL     1       1.808  -0.149   3.611  1.00  0.00     0.179 A 
BRANCH  12  17
ATOM     17  C   UNL     1       2.565  -4.184   2.653  1.00  0.00    -0.069 C 
ATOM     18  C   UNL     1       2.777  -5.341   2.388  1.00  0.00     0.010 C 
ENDBRANCH  12  17
ENDBRANCH   8  11
ENDBRANCH   1   8
BRANCH   7  19
ATOM     19  N   UNL     1       1.329  -0.872  -0.951  1.00  0.00    -0.052 NA
BRANCH  19  20
ATOM     20  N   UNL     1       1.259  -1.135  -2.152  1.00  0.00     0.006 N 
ATOM     21  N   UNL     1       1.195  -1.398  -3.352  1.00  0.00    -0.003 NA
ENDBRANCH  19  20
ENDBRANCH   7  19
BRANCH   6  22
ATOM     22  N   UNL     1      -1.464  -0.432  -1.747  1.00  0.00    -0.012 N 
ATOM     23  N   UNL     1      -1.492  -1.762  -1.668  1.00  0.00     0.054 NA
ATOM     24  N   UNL     1      -2.182   0.028  -2.769  1.00  0.00    -0.161 N 
ATOM     25  C   UNL     1      -2.251  -2.154  -2.706  1.00  0.00     0.249 A 
ATOM     26  C   UNL     1      -2.677  -1.053  -3.385  1.00  0.00     0.198 A 
ATOM     27  C   UNL     1      -2.601  -3.443  -3.096  1.00  0.00     0.064 A 
ATOM     28  C   UNL     1      -3.489  -1.137  -4.512  1.00  0.00     0.058 A 
ATOM     29  C   UNL     1      -3.422  -3.574  -4.234  1.00  0.00     0.005 A 
ATOM     30  C   UNL     1      -3.864  -2.427  -4.939  1.00  0.00     0.005 A 
ATOM     31  H   UNL     1      -2.318   1.031  -3.027  1.00  0.00     0.340 HD
ENDBRANCH   6  22
TORSDOF 6


