REMARK SMILES O=C1c2cc(-c3ccc4[nH]ccc4c3)cnc2C/[N+]1=C(\O)OCCOCC(F)(F)F
REMARK SMILES IDX 23 1 22 2 20 3 21 4 19 6 2 7 18 8 3 9 17 10 4 11 16 12 5 13
REMARK SMILES IDX 15 14 1 15 6 16 7 17 14 18 8 19 13 20 9 21 12 22 10 23 11 24
REMARK SMILES IDX 24 26 25 27 26 28 27 29 28 30 29 31 30 32
REMARK H PARENT 21 5 10 25
ROOT
ATOM      1  C   UNL     1       0.757   0.034  -5.562  1.00  0.00     0.268 C 
ENDROOT
BRANCH   1   2
ATOM      2  O   UNL     1       0.389   0.319  -4.218  1.00  0.00    -0.412 OA
BRANCH   2   3
ATOM      3  C   UNL     1      -0.814   0.938  -3.851  1.00  0.00     0.555 C 
BRANCH   3   4
ATOM      4  O   UNL     1      -1.735   1.347  -4.819  1.00  0.00    -0.430 OA
ATOM      5  H   UNL     1      -1.575   1.227  -5.810  1.00  0.00     0.303 HD
ENDBRANCH   3   4
BRANCH   3   6
ATOM      6  N   UNL     1      -1.081   1.139  -2.591  1.00  0.00    -0.083 N 
ATOM      7  C   UNL     1      -0.257   0.784  -1.475  1.00  0.00     0.427 C 
ATOM      8  C   UNL     1      -2.304   1.779  -2.083  1.00  0.00     0.426 C 
ATOM      9  C   UNL     1      -0.910   1.178  -0.253  1.00  0.00     0.119 A 
ATOM     10  C   UNL     1      -2.103   1.759  -0.598  1.00  0.00     0.123 A 
ATOM     11  C   UNL     1      -0.527   1.048   1.077  1.00  0.00     0.031 A 
ATOM     12  N   UNL     1      -2.956   2.228   0.347  1.00  0.00    -0.253 NA
ATOM     13  C   UNL     1      -1.405   1.534   2.070  1.00  0.00     0.001 A 
ATOM     14  C   UNL     1      -2.631   2.126   1.668  1.00  0.00     0.120 A 
ATOM     15  O   UNL     1       0.864   0.215  -1.557  1.00  0.00    -0.214 OA
BRANCH  13  16
ATOM     16  C   UNL     1      -1.049   1.435   3.506  1.00  0.00    -0.016 A 
ATOM     17  C   UNL     1      -2.034   1.086   4.468  1.00  0.00     0.011 A 
ATOM     18  C   UNL     1       0.275   1.696   3.933  1.00  0.00     0.019 A 
ATOM     19  C   UNL     1      -1.709   1.002   5.835  1.00  0.00     0.027 A 
ATOM     20  C   UNL     1       0.558   1.609   5.293  1.00  0.00    -0.000 A 
ATOM     21  C   UNL     1      -0.397   1.274   6.211  1.00  0.00     0.045 A 
ATOM     22  C   UNL     1       1.734   1.821   5.980  1.00  0.00     0.028 A 
ATOM     23  N   UNL     1       0.117   1.261   7.452  1.00  0.00    -0.361 N 
ATOM     24  C   UNL     1       1.421   1.593   7.316  1.00  0.00     0.083 A 
ATOM     25  H   UNL     1      -0.382   1.036   8.340  1.00  0.00     0.166 HD
ENDBRANCH  13  16
ENDBRANCH   3   6
ENDBRANCH   2   3
ENDBRANCH   1   2
BRANCH   1  26
ATOM     26  C   UNL     1       2.115  -0.655  -5.582  1.00  0.00     0.202 C 
BRANCH  26  27
ATOM     27  O   UNL     1       2.030  -1.873  -4.872  1.00  0.00    -0.368 OA
BRANCH  27  28
ATOM     28  C   UNL     1       3.319  -2.436  -4.742  1.00  0.00     0.275 C 
BRANCH  28  29
ATOM     29  C   UNL     1       3.204  -3.819  -4.113  1.00  0.00     0.411 C 
ATOM     30  F   UNL     1       2.586  -3.725  -2.879  1.00  0.00    -0.168 F 
ATOM     31  F   UNL     1       4.465  -4.362  -3.945  1.00  0.00    -0.168 F 
ATOM     32  F   UNL     1       2.460  -4.648  -4.934  1.00  0.00    -0.168 F 
ENDBRANCH  28  29
ENDBRANCH  27  28
ENDBRANCH  26  27
ENDBRANCH   1  26
TORSDOF 9


