REMARK SMILES Cc1ccc(N[C@H]2CC[C@H]3[N+](C)=NN[C@@]3(N)[C@@H]2O)cc1
REMARK SMILES IDX 7 1 8 2 9 3 10 4 11 5 12 6 13 7 14 8 15 9 17 10 6 12 5 14
REMARK SMILES IDX 2 15 3 16 20 17 4 18 19 19 1 20 18 21 16 23
REMARK H PARENT 14 11 6 13 18 22 16 24 16 25
ROOT
ATOM      1  C   UNL     1       0.098   0.060   0.263  1.00  0.00     0.114 C 
ATOM      2  C   UNL     1       1.435  -0.516  -0.277  1.00  0.00     0.032 C 
ATOM      3  C   UNL     1       2.666   0.258   0.200  1.00  0.00     0.061 C 
ATOM      4  C   UNL     1       2.598   1.736  -0.229  1.00  0.00     0.266 C 
ATOM      5  N   UNL     1       2.712   1.858  -1.685  1.00  0.00    -0.163 N 
ATOM      6  C   UNL     1       3.886   1.502  -2.473  1.00  0.00     0.319 C 
ATOM      7  N   UNL     1       1.676   2.357  -2.216  1.00  0.00     0.079 NA
ATOM      8  N   UNL     1       0.707   2.671  -1.269  1.00  0.00    -0.156 N 
ATOM      9  C   UNL     1       1.215   2.402   0.070  1.00  0.00     0.244 C 
ATOM     10  C   UNL     1       0.235   1.494   0.862  1.00  0.00     0.206 C 
ATOM     11  H   UNL     1      -0.187   3.159  -1.498  1.00  0.00     0.337 HD
ENDROOT
BRANCH   1  12
ATOM     12  N   UNL     1      -0.927   0.031  -0.794  1.00  0.00    -0.379 N 
ATOM     13  H   UNL     1      -1.296   0.938  -1.158  1.00  0.00     0.160 HD
BRANCH  12  14
ATOM     14  C   UNL     1      -1.451  -1.173  -1.391  1.00  0.00     0.034 A 
ATOM     15  C   UNL     1      -2.502  -3.485  -2.620  1.00  0.00    -0.051 A 
ATOM     16  C   UNL     1      -2.758  -2.218  -3.160  1.00  0.00     0.005 A 
ATOM     17  C   UNL     1      -1.744  -3.591  -1.445  1.00  0.00     0.005 A 
ATOM     18  C   UNL     1      -2.234  -1.073  -2.553  1.00  0.00     0.026 A 
ATOM     19  C   UNL     1      -1.219  -2.447  -0.837  1.00  0.00     0.026 A 
ATOM     20  C   UNL     1      -3.098  -4.710  -3.248  1.00  0.00     0.044 C 
ENDBRANCH  12  14
ENDBRANCH   1  12
BRANCH  10  21
ATOM     21  O   UNL     1       0.673   1.408   2.197  1.00  0.00    -0.384 OA
ATOM     22  H   UNL     1      -0.112   1.146   2.745  1.00  0.00     0.211 HD
ENDBRANCH  10  21
BRANCH   9  23
ATOM     23  N   UNL     1       1.407   3.672   0.782  1.00  0.00    -0.283 NA
ATOM     24  H   UNL     1       0.482   4.152   0.871  1.00  0.00     0.123 HD
ATOM     25  H   UNL     1       2.011   4.302   0.203  1.00  0.00     0.123 HD
ENDBRANCH   9  23
TORSDOF 4


