MODEL 1
REMARK VINA RESULT:     -10.3      0.000      0.000
REMARK SMILES CC(=O)c1ccc(-c2[nH+]ccc(C)c2F)cc1F
REMARK SMILES IDX 4 1 5 2 6 3 7 4 16 5 17 6 18 7 2 8 1 9 3 10 8 11 9 12 14 13
REMARK SMILES IDX 10 14 12 15 11 16 15 18 13 19
REMARK H PARENT 9 17
ROOT
ATOM      1  C   UNL     1      46.626 130.715  14.625  1.00  0.00     0.053 A 
ATOM      2  C   UNL     1      46.457 132.036  15.080  1.00  0.00     0.016 A 
ATOM      3  C   UNL     1      45.664 132.314  16.196  1.00  0.00     0.016 A 
ATOM      4  C   UNL     1      45.024 131.277  16.889  1.00  0.00     0.052 A 
ATOM      5  C   UNL     1      45.186 129.957  16.442  1.00  0.00     0.055 A 
ATOM      6  C   UNL     1      45.981 129.673  15.327  1.00  0.00     0.134 A 
ATOM      7  F   UNL     1      46.135 128.374  14.968  1.00  0.00    -0.206 F 
ENDROOT
BRANCH   1   8
ATOM      8  C   UNL     1      47.477 130.464  13.429  1.00  0.00     0.162 C 
ATOM      9  C   UNL     1      48.550 129.417  13.408  1.00  0.00     0.093 C 
ATOM     10  O   UNL     1      47.302 131.154  12.388  1.00  0.00    -0.294 OA
ENDBRANCH   1   8
BRANCH   4  11
ATOM     11  C   UNL     1      44.170 131.563  18.067  1.00  0.00     0.247 A 
ATOM     12  N   UNL     1      42.889 132.001  17.887  1.00  0.00    -0.209 N 
ATOM     13  C   UNL     1      44.657 131.375  19.376  1.00  0.00     0.198 A 
ATOM     14  C   UNL     1      42.068 132.270  18.937  1.00  0.00     0.307 A 
ATOM     15  C   UNL     1      43.829 131.661  20.473  1.00  0.00    -0.002 A 
ATOM     16  C   UNL     1      42.521 132.103  20.246  1.00  0.00     0.077 A 
ATOM     17  H   UNL     1      42.520 132.155  16.921  1.00  0.00     0.453 HD
ATOM     18  F   UNL     1      45.906 130.881  19.584  1.00  0.00    -0.199 F 
ATOM     19  C   UNL     1      44.321 131.435  21.873  1.00  0.00     0.048 C 
ENDBRANCH   4  11
TORSDOF 2
ENDMDL
MODEL 2
REMARK VINA RESULT:      -9.5      1.324      1.781
REMARK SMILES CC(=O)c1ccc(-c2[nH+]ccc(C)c2F)cc1F
REMARK SMILES IDX 4 1 5 2 6 3 7 4 16 5 17 6 18 7 2 8 1 9 3 10 8 11 9 12 14 13
REMARK SMILES IDX 10 14 12 15 11 16 15 18 13 19
REMARK H PARENT 9 17
ROOT
ATOM      1  C   UNL     1      46.683 130.492  14.937  1.00  0.00     0.053 A 
ATOM      2  C   UNL     1      46.106 129.479  15.723  1.00  0.00     0.016 A 
ATOM      3  C   UNL     1      45.299 129.792  16.820  1.00  0.00     0.016 A 
ATOM      4  C   UNL     1      45.043 131.131  17.154  1.00  0.00     0.052 A 
ATOM      5  C   UNL     1      45.615 132.148  16.376  1.00  0.00     0.055 A 
ATOM      6  C   UNL     1      46.422 131.839  15.276  1.00  0.00     0.134 A 
ATOM      7  F   UNL     1      46.911 132.865  14.536  1.00  0.00    -0.206 F 
ENDROOT
BRANCH   1   8
ATOM      8  C   UNL     1      47.540 130.113  13.780  1.00  0.00     0.162 C 
ATOM      9  C   UNL     1      47.666 130.969  12.555  1.00  0.00     0.093 C 
ATOM     10  O   UNL     1      48.187 129.031  13.817  1.00  0.00    -0.294 OA
ENDBRANCH   1   8
BRANCH   4  11
ATOM     11  C   UNL     1      44.198 131.474  18.323  1.00  0.00     0.247 A 
ATOM     12  N   UNL     1      42.942 131.976  18.129  1.00  0.00    -0.209 N 
ATOM     13  C   UNL     1      44.665 131.273  19.637  1.00  0.00     0.198 A 
ATOM     14  C   UNL     1      42.130 132.297  19.171  1.00  0.00     0.307 A 
ATOM     15  C   UNL     1      43.846 131.613  20.724  1.00  0.00    -0.002 A 
ATOM     16  C   UNL     1      42.564 132.120  20.484  1.00  0.00     0.077 A 
ATOM     17  H   UNL     1      42.588 132.138  17.158  1.00  0.00     0.453 HD
ATOM     18  F   UNL     1      45.886 130.717  19.859  1.00  0.00    -0.199 F 
ATOM     19  C   UNL     1      44.316 131.377  22.131  1.00  0.00     0.048 C 
ENDBRANCH   4  11
TORSDOF 2
ENDMDL
MODEL 3
REMARK VINA RESULT:      -9.4      1.449      1.638
REMARK SMILES CC(=O)c1ccc(-c2[nH+]ccc(C)c2F)cc1F
REMARK SMILES IDX 4 1 5 2 6 3 7 4 16 5 17 6 18 7 2 8 1 9 3 10 8 11 9 12 14 13
REMARK SMILES IDX 10 14 12 15 11 16 15 18 13 19
REMARK H PARENT 9 17
ROOT
ATOM      1  C   UNL     1      46.216 130.498  15.199  1.00  0.00     0.053 A 
ATOM      2  C   UNL     1      46.610 130.199  16.516  1.00  0.00     0.016 A 
ATOM      3  C   UNL     1      45.815 130.567  17.604  1.00  0.00     0.016 A 
ATOM      4  C   UNL     1      44.600 131.239  17.401  1.00  0.00     0.052 A 
ATOM      5  C   UNL     1      44.200 131.541  16.091  1.00  0.00     0.055 A 
ATOM      6  C   UNL     1      44.991 131.173  14.998  1.00  0.00     0.134 A 
ATOM      7  F   UNL     1      44.531 131.455  13.754  1.00  0.00    -0.206 F 
ENDROOT
BRANCH   1   8
ATOM      8  C   UNL     1      47.096 130.090  14.069  1.00  0.00     0.162 C 
ATOM      9  C   UNL     1      47.473 131.029  12.962  1.00  0.00     0.093 C 
ATOM     10  O   UNL     1      47.545 128.913  14.027  1.00  0.00    -0.294 OA
ENDBRANCH   1   8
BRANCH   4  11
ATOM     11  C   UNL     1      43.755 131.644  18.550  1.00  0.00     0.247 A 
ATOM     12  N   UNL     1      42.569 132.283  18.328  1.00  0.00    -0.209 N 
ATOM     13  C   UNL     1      44.152 131.364  19.873  1.00  0.00     0.198 A 
ATOM     14  C   UNL     1      41.759 132.667  19.351  1.00  0.00     0.307 A 
ATOM     15  C   UNL     1      43.336 131.766  20.942  1.00  0.00    -0.002 A 
ATOM     16  C   UNL     1      42.125 132.414  20.673  1.00  0.00     0.077 A 
ATOM     17  H   UNL     1      42.268 132.505  17.352  1.00  0.00     0.453 HD
ATOM     18  F   UNL     1      45.297 130.675  20.120  1.00  0.00    -0.199 F 
ATOM     19  C   UNL     1      43.727 131.448  22.356  1.00  0.00     0.048 C 
ENDBRANCH   4  11
TORSDOF 2
ENDMDL
MODEL 4
REMARK VINA RESULT:      -8.6      1.347      1.830
REMARK SMILES CC(=O)c1ccc(-c2[nH+]ccc(C)c2F)cc1F
REMARK SMILES IDX 4 1 5 2 6 3 7 4 16 5 17 6 18 7 2 8 1 9 3 10 8 11 9 12 14 13
REMARK SMILES IDX 10 14 12 15 11 16 15 18 13 19
REMARK H PARENT 9 17
ROOT
ATOM      1  C   UNL     1      46.644 130.690  14.722  1.00  0.00     0.053 A 
ATOM      2  C   UNL     1      46.409 131.994  15.196  1.00  0.00     0.016 A 
ATOM      3  C   UNL     1      45.780 132.208  16.425  1.00  0.00     0.016 A 
ATOM      4  C   UNL     1      45.377 131.122  17.215  1.00  0.00     0.052 A 
ATOM      5  C   UNL     1      45.606 129.819  16.751  1.00  0.00     0.055 A 
ATOM      6  C   UNL     1      46.237 129.599  15.521  1.00  0.00     0.134 A 
ATOM      7  F   UNL     1      46.470 128.317  15.145  1.00  0.00    -0.206 F 
ENDROOT
BRANCH   1   8
ATOM      8  C   UNL     1      47.313 130.507  13.404  1.00  0.00     0.162 C 
ATOM      9  C   UNL     1      48.479 129.584  13.213  1.00  0.00     0.093 C 
ATOM     10  O   UNL     1      46.895 131.151  12.403  1.00  0.00    -0.294 OA
ENDBRANCH   1   8
BRANCH   4  11
ATOM     11  C   UNL     1      44.698 131.340  18.516  1.00  0.00     0.247 A 
ATOM     12  N   UNL     1      45.343 131.029  19.679  1.00  0.00    -0.209 N 
ATOM     13  C   UNL     1      43.398 131.881  18.571  1.00  0.00     0.198 A 
ATOM     14  C   UNL     1      44.763 131.219  20.894  1.00  0.00     0.307 A 
ATOM     15  C   UNL     1      42.777 132.069  19.816  1.00  0.00    -0.002 A 
ATOM     16  C   UNL     1      43.474 131.743  20.984  1.00  0.00     0.077 A 
ATOM     17  H   UNL     1      46.305 130.619  19.650  1.00  0.00     0.453 HD
ATOM     18  F   UNL     1      42.756 132.256  17.433  1.00  0.00    -0.199 F 
ATOM     19  C   UNL     1      41.405 132.673  19.895  1.00  0.00     0.048 C 
ENDBRANCH   4  11
TORSDOF 2
ENDMDL
MODEL 5
REMARK VINA RESULT:      -8.6      1.132      1.194
REMARK SMILES CC(=O)c1ccc(-c2[nH+]ccc(C)c2F)cc1F
REMARK SMILES IDX 4 1 5 2 6 3 7 4 16 5 17 6 18 7 2 8 1 9 3 10 8 11 9 12 14 13
REMARK SMILES IDX 10 14 12 15 11 16 15 18 13 19
REMARK H PARENT 9 17
ROOT
ATOM      1  C   UNL     1      46.419 130.572  14.936  1.00  0.00     0.053 A 
ATOM      2  C   UNL     1      45.307 131.408  14.733  1.00  0.00     0.016 A 
ATOM      3  C   UNL     1      44.473 131.764  15.796  1.00  0.00     0.016 A 
ATOM      4  C   UNL     1      44.736 131.297  17.092  1.00  0.00     0.052 A 
ATOM      5  C   UNL     1      45.843 130.462  17.304  1.00  0.00     0.055 A 
ATOM      6  C   UNL     1      46.682 130.104  16.243  1.00  0.00     0.134 A 
ATOM      7  F   UNL     1      47.761 129.330  16.517  1.00  0.00    -0.206 F 
ENDROOT
BRANCH   1   8
ATOM      8  C   UNL     1      47.279 130.214  13.774  1.00  0.00     0.162 C 
ATOM      9  C   UNL     1      47.586 131.181  12.670  1.00  0.00     0.093 C 
ATOM     10  O   UNL     1      47.770 129.055  13.701  1.00  0.00    -0.294 OA
ENDBRANCH   1   8
BRANCH   4  11
ATOM     11  C   UNL     1      43.850 131.660  18.225  1.00  0.00     0.247 A 
ATOM     12  N   UNL     1      42.606 132.168  17.978  1.00  0.00    -0.209 N 
ATOM     13  C   UNL     1      44.267 131.472  19.558  1.00  0.00     0.198 A 
ATOM     14  C   UNL     1      41.758 132.508  18.985  1.00  0.00     0.307 A 
ATOM     15  C   UNL     1      43.410 131.831  20.610  1.00  0.00    -0.002 A 
ATOM     16  C   UNL     1      42.142 132.344  20.315  1.00  0.00     0.077 A 
ATOM     17  H   UNL     1      42.289 132.321  16.993  1.00  0.00     0.453 HD
ATOM     18  F   UNL     1      45.474 130.911  19.831  1.00  0.00    -0.199 F 
ATOM     19  C   UNL     1      43.826 131.609  22.035  1.00  0.00     0.048 C 
ENDBRANCH   4  11
TORSDOF 2
ENDMDL
MODEL 6
REMARK VINA RESULT:      -8.6      3.152      6.496
REMARK SMILES CC(=O)c1ccc(-c2[nH+]ccc(C)c2F)cc1F
REMARK SMILES IDX 4 1 5 2 6 3 7 4 16 5 17 6 18 7 2 8 1 9 3 10 8 11 9 12 14 13
REMARK SMILES IDX 10 14 12 15 11 16 15 18 13 19
REMARK H PARENT 9 17
ROOT
ATOM      1  C   UNL     1      43.410 131.881  19.466  1.00  0.00     0.053 A 
ATOM      2  C   UNL     1      44.688 131.333  19.682  1.00  0.00     0.016 A 
ATOM      3  C   UNL     1      45.459 130.866  18.615  1.00  0.00     0.016 A 
ATOM      4  C   UNL     1      44.974 130.944  17.301  1.00  0.00     0.052 A 
ATOM      5  C   UNL     1      43.701 131.488  17.075  1.00  0.00     0.055 A 
ATOM      6  C   UNL     1      42.926 131.959  18.141  1.00  0.00     0.134 A 
ATOM      7  F   UNL     1      41.721 132.514  17.856  1.00  0.00    -0.206 F 
ENDROOT
BRANCH   1   8
ATOM      8  C   UNL     1      42.621 132.363  20.633  1.00  0.00     0.162 C 
ATOM      9  C   UNL     1      42.830 131.835  22.021  1.00  0.00     0.093 C 
ATOM     10  O   UNL     1      41.736 133.245  20.460  1.00  0.00    -0.294 OA
ENDBRANCH   1   8
BRANCH   4  11
ATOM     11  C   UNL     1      45.780 130.440  16.162  1.00  0.00     0.247 A 
ATOM     12  N   UNL     1      45.918 129.095  15.971  1.00  0.00    -0.209 N 
ATOM     13  C   UNL     1      46.394 131.332  15.261  1.00  0.00     0.198 A 
ATOM     14  C   UNL     1      46.642 128.588  14.937  1.00  0.00     0.307 A 
ATOM     15  C   UNL     1      47.157 130.828  14.197  1.00  0.00    -0.002 A 
ATOM     16  C   UNL     1      47.271 129.443  14.032  1.00  0.00     0.077 A 
ATOM     17  H   UNL     1      45.475 128.423  16.638  1.00  0.00     0.453 HD
ATOM     18  F   UNL     1      46.222 132.675  15.392  1.00  0.00    -0.199 F 
ATOM     19  C   UNL     1      47.793 131.764  13.210  1.00  0.00     0.048 C 
ENDBRANCH   4  11
TORSDOF 2
ENDMDL
MODEL 7
REMARK VINA RESULT:      -8.6      1.876      2.547
REMARK SMILES CC(=O)c1ccc(-c2[nH+]ccc(C)c2F)cc1F
REMARK SMILES IDX 4 1 5 2 6 3 7 4 16 5 17 6 18 7 2 8 1 9 3 10 8 11 9 12 14 13
REMARK SMILES IDX 10 14 12 15 11 16 15 18 13 19
REMARK H PARENT 9 17
ROOT
ATOM      1  C   UNL     1      46.697 130.450  15.108  1.00  0.00     0.053 A 
ATOM      2  C   UNL     1      46.414 129.411  16.014  1.00  0.00     0.016 A 
ATOM      3  C   UNL     1      45.762 129.670  17.222  1.00  0.00     0.016 A 
ATOM      4  C   UNL     1      45.370 130.976  17.552  1.00  0.00     0.052 A 
ATOM      5  C   UNL     1      45.649 132.018  16.656  1.00  0.00     0.055 A 
ATOM      6  C   UNL     1      46.300 131.764  15.444  1.00  0.00     0.134 A 
ATOM      7  F   UNL     1      46.503 132.805  14.599  1.00  0.00    -0.206 F 
ENDROOT
BRANCH   1   8
ATOM      8  C   UNL     1      47.398 130.130  13.834  1.00  0.00     0.162 C 
ATOM      9  C   UNL     1      47.358 131.038  12.642  1.00  0.00     0.093 C 
ATOM     10  O   UNL     1      48.051 129.055  13.739  1.00  0.00    -0.294 OA
ENDBRANCH   1   8
BRANCH   4  11
ATOM     11  C   UNL     1      44.688 131.263  18.837  1.00  0.00     0.247 A 
ATOM     12  N   UNL     1      45.303 130.951  20.016  1.00  0.00    -0.209 N 
ATOM     13  C   UNL     1      43.417 131.870  18.862  1.00  0.00     0.198 A 
ATOM     14  C   UNL     1      44.719 131.202  21.218  1.00  0.00     0.307 A 
ATOM     15  C   UNL     1      42.792 132.123  20.092  1.00  0.00    -0.002 A 
ATOM     16  C   UNL     1      43.457 131.793  21.278  1.00  0.00     0.077 A 
ATOM     17  H   UNL     1      46.243 130.491  20.011  1.00  0.00     0.453 HD
ATOM     18  F   UNL     1      42.809 132.247  17.706  1.00  0.00    -0.199 F 
ATOM     19  C   UNL     1      41.451 132.797  20.138  1.00  0.00     0.048 C 
ENDBRANCH   4  11
TORSDOF 2
ENDMDL
MODEL 8
REMARK VINA RESULT:      -8.5      3.192      6.507
REMARK SMILES CC(=O)c1ccc(-c2[nH+]ccc(C)c2F)cc1F
REMARK SMILES IDX 4 1 5 2 6 3 7 4 16 5 17 6 18 7 2 8 1 9 3 10 8 11 9 12 14 13
REMARK SMILES IDX 10 14 12 15 11 16 15 18 13 19
REMARK H PARENT 9 17
ROOT
ATOM      1  C   UNL     1      44.355 131.242  21.268  1.00  0.00     0.053 A 
ATOM      2  C   UNL     1      45.504 130.676  20.686  1.00  0.00     0.016 A 
ATOM      3  C   UNL     1      45.666 130.647  19.299  1.00  0.00     0.016 A 
ATOM      4  C   UNL     1      44.684 131.192  18.458  1.00  0.00     0.052 A 
ATOM      5  C   UNL     1      43.535 131.758  19.029  1.00  0.00     0.055 A 
ATOM      6  C   UNL     1      43.369 131.791  20.418  1.00  0.00     0.134 A 
ATOM      7  F   UNL     1      42.258 132.390  20.913  1.00  0.00    -0.206 F 
ENDROOT
BRANCH   1   8
ATOM      8  C   UNL     1      44.221 131.247  22.751  1.00  0.00     0.162 C 
ATOM      9  C   UNL     1      44.125 129.986  23.557  1.00  0.00     0.093 C 
ATOM     10  O   UNL     1      44.182 132.348  23.366  1.00  0.00    -0.294 OA
ENDBRANCH   1   8
BRANCH   4  11
ATOM     11  C   UNL     1      44.842 131.156  16.984  1.00  0.00     0.247 A 
ATOM     12  N   UNL     1      43.952 131.822  16.189  1.00  0.00    -0.209 N 
ATOM     13  C   UNL     1      45.910 130.456  16.387  1.00  0.00     0.198 A 
ATOM     14  C   UNL     1      44.062 131.823  14.834  1.00  0.00     0.307 A 
ATOM     15  C   UNL     1      46.030 130.433  14.990  1.00  0.00    -0.002 A 
ATOM     16  C   UNL     1      45.101 131.132  14.211  1.00  0.00     0.077 A 
ATOM     17  H   UNL     1      43.150 132.337  16.619  1.00  0.00     0.453 HD
ATOM     18  F   UNL     1      46.844 129.836  17.156  1.00  0.00    -0.199 F 
ATOM     19  C   UNL     1      47.179 129.718  14.339  1.00  0.00     0.048 C 
ENDBRANCH   4  11
TORSDOF 2
ENDMDL
MODEL 9
REMARK VINA RESULT:      -8.4      3.545      6.841
REMARK SMILES CC(=O)c1ccc(-c2[nH+]ccc(C)c2F)cc1F
REMARK SMILES IDX 4 1 5 2 6 3 7 4 16 5 17 6 18 7 2 8 1 9 3 10 8 11 9 12 14 13
REMARK SMILES IDX 10 14 12 15 11 16 15 18 13 19
REMARK H PARENT 9 17
ROOT
ATOM      1  C   UNL     1      44.121 131.363  21.619  1.00  0.00     0.053 A 
ATOM      2  C   UNL     1      45.312 130.724  21.230  1.00  0.00     0.016 A 
ATOM      3  C   UNL     1      45.644 130.584  19.880  1.00  0.00     0.016 A 
ATOM      4  C   UNL     1      44.796 131.089  18.884  1.00  0.00     0.052 A 
ATOM      5  C   UNL     1      43.606 131.728  19.262  1.00  0.00     0.055 A 
ATOM      6  C   UNL     1      43.269 131.871  20.613  1.00  0.00     0.134 A 
ATOM      7  F   UNL     1      42.127 132.536  20.918  1.00  0.00    -0.206 F 
ENDROOT
BRANCH   1   8
ATOM      8  C   UNL     1      43.804 131.486  23.068  1.00  0.00     0.162 C 
ATOM      9  C   UNL     1      42.609 130.828  23.691  1.00  0.00     0.093 C 
ATOM     10  O   UNL     1      44.559 132.170  23.812  1.00  0.00    -0.294 OA
ENDBRANCH   1   8
BRANCH   4  11
ATOM     11  C   UNL     1      45.134 130.935  17.448  1.00  0.00     0.247 A 
ATOM     12  N   UNL     1      46.314 130.349  17.088  1.00  0.00    -0.209 N 
ATOM     13  C   UNL     1      44.246 131.372  16.445  1.00  0.00     0.198 A 
ATOM     14  C   UNL     1      46.663 130.181  15.784  1.00  0.00     0.307 A 
ATOM     15  C   UNL     1      44.595 131.220  15.095  1.00  0.00    -0.002 A 
ATOM     16  C   UNL     1      45.811 130.610  14.767  1.00  0.00     0.077 A 
ATOM     17  H   UNL     1      46.986 130.030  17.823  1.00  0.00     0.453 HD
ATOM     18  F   UNL     1      43.038 131.902  16.775  1.00  0.00    -0.199 F 
ATOM     19  C   UNL     1      43.647 131.651  14.013  1.00  0.00     0.048 C 
ENDBRANCH   4  11
TORSDOF 2
ENDMDL


