MODEL 1
REMARK VINA RESULT:      -7.1      0.000      0.000
REMARK SMILES C=C[C@H]1CCC[C@@](F)(c2ccc3c(c2)[C@H](N)CC3)[C@@H]1Cl
REMARK SMILES IDX 9 1 10 2 11 3 12 4 13 5 14 6 15 7 17 8 18 9 7 10 3 11 4 12
REMARK SMILES IDX 19 13 5 14 6 15 20 16 8 17 2 18 1 19 16 20
REMARK H PARENT 16 21 16 22
ROOT
ATOM      1  C   UNL     1      43.980 131.683  18.262  1.00  0.00    -0.009 A 
ATOM      2  C   UNL     1      42.626 132.047  18.474  1.00  0.00     0.007 A 
ATOM      3  C   UNL     1      42.077 132.043  19.764  1.00  0.00     0.004 A 
ATOM      4  C   UNL     1      42.883 131.674  20.840  1.00  0.00    -0.043 A 
ATOM      5  C   UNL     1      44.189 131.310  20.653  1.00  0.00    -0.028 A 
ATOM      6  C   UNL     1      44.764 131.310  19.380  1.00  0.00     0.012 A 
ATOM      7  C   UNL     1      44.857 130.947  21.930  1.00  0.00     0.081 C 
ATOM      8  C   UNL     1      43.791 131.278  23.003  1.00  0.00     0.028 C 
ATOM      9  C   UNL     1      42.482 131.614  22.263  1.00  0.00     0.038 C 
ENDROOT
BRANCH   1  10
ATOM     10  C   UNL     1      44.583 131.693  16.857  1.00  0.00     0.152 C 
ATOM     11  C   UNL     1      45.947 130.370  15.140  1.00  0.00     0.033 C 
ATOM     12  C   UNL     1      44.803 130.538  14.120  1.00  0.00     0.009 C 
ATOM     13  C   UNL     1      45.408 130.403  16.594  1.00  0.00     0.130 C 
ATOM     14  C   UNL     1      44.016 131.825  14.380  1.00  0.00     0.004 C 
ATOM     15  C   UNL     1      43.458 131.843  15.808  1.00  0.00     0.048 C 
ATOM     16  Cl  UNL     1      46.772 130.300  17.755  1.00  0.00    -0.118 Cl
ATOM     17  F   UNL     1      45.433 132.784  16.719  1.00  0.00    -0.237 F 
BRANCH  11  18
ATOM     18  C   UNL     1      46.737 129.111  14.853  1.00  0.00    -0.030 C 
ATOM     19  C   UNL     1      47.828 129.093  14.077  1.00  0.00     0.004 C 
ENDBRANCH  11  18
ENDBRANCH   1  10
BRANCH   7  20
ATOM     20  N   UNL     1      45.186 129.521  21.946  1.00  0.00    -0.324 NA
ATOM     21  H   UNL     1      46.207 129.424  21.739  1.00  0.00     0.119 HD
ATOM     22  H   UNL     1      44.688 129.061  21.148  1.00  0.00     0.119 HD
ENDBRANCH   7  20
TORSDOF 3
ENDMDL
MODEL 2
REMARK VINA RESULT:      -6.7      1.960      2.676
REMARK SMILES C=C[C@H]1CCC[C@@](F)(c2ccc3c(c2)[C@H](N)CC3)[C@@H]1Cl
REMARK SMILES IDX 9 1 10 2 11 3 12 4 13 5 14 6 15 7 17 8 18 9 7 10 3 11 4 12
REMARK SMILES IDX 19 13 5 14 6 15 20 16 8 17 2 18 1 19 16 20
REMARK H PARENT 16 21 16 22
ROOT
ATOM      1  C   UNL     1      44.794 130.943  18.045  1.00  0.00    -0.009 A 
ATOM      2  C   UNL     1      45.919 130.859  18.904  1.00  0.00     0.007 A 
ATOM      3  C   UNL     1      45.805 131.177  20.265  1.00  0.00     0.004 A 
ATOM      4  C   UNL     1      44.567 131.580  20.763  1.00  0.00    -0.043 A 
ATOM      5  C   UNL     1      43.473 131.676  19.947  1.00  0.00    -0.028 A 
ATOM      6  C   UNL     1      43.555 131.360  18.588  1.00  0.00     0.012 A 
ATOM      7  C   UNL     1      42.264 132.130  20.682  1.00  0.00     0.081 C 
ATOM      8  C   UNL     1      42.733 132.176  22.156  1.00  0.00     0.028 C 
ATOM      9  C   UNL     1      44.256 131.949  22.162  1.00  0.00     0.038 C 
ENDROOT
BRANCH   1  10
ATOM     10  C   UNL     1      44.913 130.589  16.562  1.00  0.00     0.152 C 
ATOM     11  C   UNL     1      46.289 130.906  14.425  1.00  0.00     0.033 C 
ATOM     12  C   UNL     1      46.421 129.375  14.297  1.00  0.00     0.009 C 
ATOM     13  C   UNL     1      46.111 131.330  15.906  1.00  0.00     0.130 C 
ATOM     14  C   UNL     1      45.221 128.663  14.928  1.00  0.00     0.004 C 
ATOM     15  C   UNL     1      45.065 129.060  16.400  1.00  0.00     0.048 C 
ATOM     16  Cl  UNL     1      45.867 133.104  16.010  1.00  0.00    -0.118 Cl
ATOM     17  F   UNL     1      43.755 130.968  15.894  1.00  0.00    -0.237 F 
BRANCH  11  18
ATOM     18  C   UNL     1      47.464 131.599  13.770  1.00  0.00    -0.030 C 
ATOM     19  C   UNL     1      48.038 131.160  12.643  1.00  0.00     0.004 C 
ENDBRANCH  11  18
ENDBRANCH   1  10
BRANCH   7  20
ATOM     20  N   UNL     1      41.859 133.460  20.223  1.00  0.00    -0.324 NA
ATOM     21  H   UNL     1      42.101 133.538  19.208  1.00  0.00     0.119 HD
ATOM     22  H   UNL     1      42.452 134.170  20.713  1.00  0.00     0.119 HD
ENDBRANCH   7  20
TORSDOF 3
ENDMDL
MODEL 3
REMARK VINA RESULT:      -5.8      2.513      6.538
REMARK SMILES C=C[C@H]1CCC[C@@](F)(c2ccc3c(c2)[C@H](N)CC3)[C@@H]1Cl
REMARK SMILES IDX 9 1 10 2 11 3 12 4 13 5 14 6 15 7 17 8 18 9 7 10 3 11 4 12
REMARK SMILES IDX 19 13 5 14 6 15 20 16 8 17 2 18 1 19 16 20
REMARK H PARENT 16 21 16 22
ROOT
ATOM      1  C   UNL     1      44.377 131.476  18.283  1.00  0.00    -0.009 A 
ATOM      2  C   UNL     1      43.087 131.795  17.787  1.00  0.00     0.007 A 
ATOM      3  C   UNL     1      42.833 131.807  16.408  1.00  0.00     0.004 A 
ATOM      4  C   UNL     1      43.870 131.501  15.528  1.00  0.00    -0.043 A 
ATOM      5  C   UNL     1      45.124 131.200  15.988  1.00  0.00    -0.028 A 
ATOM      6  C   UNL     1      45.404 131.176  17.357  1.00  0.00     0.012 A 
ATOM      7  C   UNL     1      46.073 130.916  14.881  1.00  0.00     0.081 C 
ATOM      8  C   UNL     1      45.178 130.945  13.620  1.00  0.00     0.028 C 
ATOM      9  C   UNL     1      43.791 131.459  14.051  1.00  0.00     0.038 C 
ENDROOT
BRANCH   1  10
ATOM     10  C   UNL     1      44.654 131.456  19.786  1.00  0.00     0.152 C 
ATOM     11  C   UNL     1      43.605 131.415  22.123  1.00  0.00     0.033 C 
ATOM     12  C   UNL     1      44.417 130.146  22.452  1.00  0.00     0.009 C 
ATOM     13  C   UNL     1      43.332 131.524  20.600  1.00  0.00     0.130 C 
ATOM     14  C   UNL     1      45.726 130.107  21.659  1.00  0.00     0.004 C 
ATOM     15  C   UNL     1      45.453 130.185  20.153  1.00  0.00     0.048 C 
ATOM     16  Cl  UNL     1      42.470 133.056  20.241  1.00  0.00    -0.118 Cl
ATOM     17  F   UNL     1      45.432 132.555  20.135  1.00  0.00    -0.237 F 
BRANCH  11  18
ATOM     18  C   UNL     1      42.329 131.458  22.935  1.00  0.00    -0.030 C 
ATOM     19  C   UNL     1      42.311 131.641  24.262  1.00  0.00     0.004 C 
ENDBRANCH  11  18
ENDBRANCH   1  10
BRANCH   7  20
ATOM     20  N   UNL     1      47.102 131.955  14.813  1.00  0.00    -0.324 NA
ATOM     21  H   UNL     1      48.035 131.483  14.766  1.00  0.00     0.119 HD
ATOM     22  H   UNL     1      47.095 132.482  15.718  1.00  0.00     0.119 HD
ENDBRANCH   7  20
TORSDOF 3
ENDMDL
MODEL 4
REMARK VINA RESULT:      -5.7      1.324      1.931
REMARK SMILES C=C[C@H]1CCC[C@@](F)(c2ccc3c(c2)[C@H](N)CC3)[C@@H]1Cl
REMARK SMILES IDX 9 1 10 2 11 3 12 4 13 5 14 6 15 7 17 8 18 9 7 10 3 11 4 12
REMARK SMILES IDX 19 13 5 14 6 15 20 16 8 17 2 18 1 19 16 20
REMARK H PARENT 16 21 16 22
ROOT
ATOM      1  C   UNL     1      44.795 131.413  18.485  1.00  0.00    -0.009 A 
ATOM      2  C   UNL     1      45.883 131.072  19.329  1.00  0.00     0.007 A 
ATOM      3  C   UNL     1      45.699 130.935  20.712  1.00  0.00     0.004 A 
ATOM      4  C   UNL     1      44.429 131.141  21.249  1.00  0.00    -0.043 A 
ATOM      5  C   UNL     1      43.370 131.481  20.451  1.00  0.00    -0.028 A 
ATOM      6  C   UNL     1      43.523 131.618  19.068  1.00  0.00     0.012 A 
ATOM      7  C   UNL     1      42.118 131.660  21.230  1.00  0.00     0.081 C 
ATOM      8  C   UNL     1      42.519 131.236  22.663  1.00  0.00     0.028 C 
ATOM      9  C   UNL     1      44.046 131.038  22.675  1.00  0.00     0.038 C 
ENDROOT
BRANCH   1  10
ATOM     10  C   UNL     1      44.991 131.555  16.976  1.00  0.00     0.152 C 
ATOM     11  C   UNL     1      45.898 130.444  14.853  1.00  0.00     0.033 C 
ATOM     12  C   UNL     1      44.512 130.599  14.195  1.00  0.00     0.009 C 
ATOM     13  C   UNL     1      45.775 130.345  16.396  1.00  0.00     0.130 C 
ATOM     14  C   UNL     1      43.764 131.809  14.761  1.00  0.00     0.004 C 
ATOM     15  C   UNL     1      43.617 131.696  16.282  1.00  0.00     0.048 C 
ATOM     16  Cl  UNL     1      47.407 130.262  17.136  1.00  0.00    -0.118 Cl
ATOM     17  F   UNL     1      45.717 132.709  16.703  1.00  0.00    -0.237 F 
BRANCH  11  18
ATOM     18  C   UNL     1      46.641 129.264  14.264  1.00  0.00    -0.030 C 
ATOM     19  C   UNL     1      47.887 129.351  13.783  1.00  0.00     0.004 C 
ENDBRANCH  11  18
ENDBRANCH   1  10
BRANCH   7  20
ATOM     20  N   UNL     1      41.696 133.061  21.200  1.00  0.00    -0.324 NA
ATOM     21  H   UNL     1      42.498 133.646  21.532  1.00  0.00     0.119 HD
ATOM     22  H   UNL     1      40.937 133.191  21.909  1.00  0.00     0.119 HD
ENDBRANCH   7  20
TORSDOF 3
ENDMDL
MODEL 5
REMARK VINA RESULT:      -5.7      2.504      6.647
REMARK SMILES C=C[C@H]1CCC[C@@](F)(c2ccc3c(c2)[C@H](N)CC3)[C@@H]1Cl
REMARK SMILES IDX 9 1 10 2 11 3 12 4 13 5 14 6 15 7 17 8 18 9 7 10 3 11 4 12
REMARK SMILES IDX 19 13 5 14 6 15 20 16 8 17 2 18 1 19 16 20
REMARK H PARENT 16 21 16 22
ROOT
ATOM      1  C   UNL     1      45.243 131.311  18.561  1.00  0.00    -0.009 A 
ATOM      2  C   UNL     1      45.976 130.099  18.496  1.00  0.00     0.007 A 
ATOM      3  C   UNL     1      46.316 129.533  17.259  1.00  0.00     0.004 A 
ATOM      4  C   UNL     1      45.920 130.180  16.089  1.00  0.00    -0.043 A 
ATOM      5  C   UNL     1      45.203 131.345  16.132  1.00  0.00    -0.028 A 
ATOM      6  C   UNL     1      44.856 131.934  17.351  1.00  0.00     0.012 A 
ATOM      7  C   UNL     1      44.880 131.854  14.774  1.00  0.00     0.081 C 
ATOM      8  C   UNL     1      45.640 130.887  13.835  1.00  0.00     0.028 C 
ATOM      9  C   UNL     1      46.188 129.738  14.702  1.00  0.00     0.038 C 
ENDROOT
BRANCH   1  10
ATOM     10  C   UNL     1      44.878 131.933  19.908  1.00  0.00     0.152 C 
ATOM     11  C   UNL     1      43.367 131.760  21.970  1.00  0.00     0.033 C 
ATOM     12  C   UNL     1      44.619 131.742  22.870  1.00  0.00     0.009 C 
ATOM     13  C   UNL     1      43.683 131.187  20.563  1.00  0.00     0.130 C 
ATOM     14  C   UNL     1      45.778 132.501  22.220  1.00  0.00     0.004 C 
ATOM     15  C   UNL     1      46.109 131.915  20.843  1.00  0.00     0.048 C 
ATOM     16  Cl  UNL     1      42.233 131.309  19.513  1.00  0.00    -0.118 Cl
ATOM     17  F   UNL     1      44.509 133.261  19.727  1.00  0.00    -0.237 F 
BRANCH  11  18
ATOM     18  C   UNL     1      42.219 131.034  22.637  1.00  0.00    -0.030 C 
ATOM     19  C   UNL     1      42.393 130.058  23.537  1.00  0.00     0.004 C 
ENDBRANCH  11  18
ENDBRANCH   1  10
BRANCH   7  20
ATOM     20  N   UNL     1      43.438 131.787  14.535  1.00  0.00    -0.324 NA
ATOM     21  H   UNL     1      42.971 131.559  15.443  1.00  0.00     0.119 HD
ATOM     22  H   UNL     1      43.248 130.974  13.904  1.00  0.00     0.119 HD
ENDBRANCH   7  20
TORSDOF 3
ENDMDL
MODEL 6
REMARK VINA RESULT:      -5.4      4.390      7.098
REMARK SMILES C=C[C@H]1CCC[C@@](F)(c2ccc3c(c2)[C@H](N)CC3)[C@@H]1Cl
REMARK SMILES IDX 9 1 10 2 11 3 12 4 13 5 14 6 15 7 17 8 18 9 7 10 3 11 4 12
REMARK SMILES IDX 19 13 5 14 6 15 20 16 8 17 2 18 1 19 16 20
REMARK H PARENT 16 21 16 22
ROOT
ATOM      1  C   UNL     1      44.047 128.089  23.396  1.00  0.00    -0.009 A 
ATOM      2  C   UNL     1      42.926 127.237  23.562  1.00  0.00     0.007 A 
ATOM      3  C   UNL     1      43.087 125.845  23.623  1.00  0.00     0.004 A 
ATOM      4  C   UNL     1      44.370 125.309  23.516  1.00  0.00    -0.043 A 
ATOM      5  C   UNL     1      45.462 126.116  23.345  1.00  0.00    -0.028 A 
ATOM      6  C   UNL     1      45.332 127.506  23.287  1.00  0.00     0.012 A 
ATOM      7  C   UNL     1      46.724 125.336  23.245  1.00  0.00     0.081 C 
ATOM      8  C   UNL     1      46.274 123.882  23.526  1.00  0.00     0.028 C 
ATOM      9  C   UNL     1      44.733 123.875  23.560  1.00  0.00     0.038 C 
ENDROOT
BRANCH   1  10
ATOM     10  C   UNL     1      43.874 129.607  23.338  1.00  0.00     0.152 C 
ATOM     11  C   UNL     1      43.643 131.644  21.801  1.00  0.00     0.033 C 
ATOM     12  C   UNL     1      42.324 132.012  22.508  1.00  0.00     0.009 C 
ATOM     13  C   UNL     1      43.907 130.117  21.870  1.00  0.00     0.130 C 
ATOM     14  C   UNL     1      42.319 131.523  23.959  1.00  0.00     0.004 C 
ATOM     15  C   UNL     1      42.549 130.009  24.024  1.00  0.00     0.048 C 
ATOM     16  Cl  UNL     1      45.493 129.735  21.123  1.00  0.00    -0.118 Cl
ATOM     17  F   UNL     1      44.909 130.225  24.031  1.00  0.00    -0.237 F 
BRANCH  11  18
ATOM     18  C   UNL     1      43.650 132.160  20.379  1.00  0.00    -0.030 C 
ATOM     19  C   UNL     1      42.569 132.142  19.588  1.00  0.00     0.004 C 
ENDBRANCH  11  18
ENDBRANCH   1  10
BRANCH   7  20
ATOM     20  N   UNL     1      47.291 125.456  21.902  1.00  0.00    -0.324 NA
ATOM     21  H   UNL     1      48.123 126.088  21.958  1.00  0.00     0.119 HD
ATOM     22  H   UNL     1      46.597 125.951  21.295  1.00  0.00     0.119 HD
ENDBRANCH   7  20
TORSDOF 3
ENDMDL
MODEL 7
REMARK VINA RESULT:      -5.4      2.489      6.596
REMARK SMILES C=C[C@H]1CCC[C@@](F)(c2ccc3c(c2)[C@H](N)CC3)[C@@H]1Cl
REMARK SMILES IDX 9 1 10 2 11 3 12 4 13 5 14 6 15 7 17 8 18 9 7 10 3 11 4 12
REMARK SMILES IDX 19 13 5 14 6 15 20 16 8 17 2 18 1 19 16 20
REMARK H PARENT 16 21 16 22
ROOT
ATOM      1  C   UNL     1      45.363 130.777  18.650  1.00  0.00    -0.009 A 
ATOM      2  C   UNL     1      44.645 131.884  18.130  1.00  0.00     0.007 A 
ATOM      3  C   UNL     1      44.593 132.118  16.749  1.00  0.00     0.004 A 
ATOM      4  C   UNL     1      45.260 131.245  15.890  1.00  0.00    -0.043 A 
ATOM      5  C   UNL     1      45.967 130.178  16.375  1.00  0.00    -0.028 A 
ATOM      6  C   UNL     1      46.032 129.917  17.746  1.00  0.00     0.012 A 
ATOM      7  C   UNL     1      46.605 129.389  15.289  1.00  0.00     0.081 C 
ATOM      8  C   UNL     1      46.068 130.052  13.997  1.00  0.00     0.028 C 
ATOM      9  C   UNL     1      45.314 131.329  14.414  1.00  0.00     0.038 C 
ENDROOT
BRANCH   1  10
ATOM     10  C   UNL     1      45.416 130.516  20.156  1.00  0.00     0.152 C 
ATOM     11  C   UNL     1      44.142 130.689  22.371  1.00  0.00     0.033 C 
ATOM     12  C   UNL     1      44.352 129.179  22.596  1.00  0.00     0.009 C 
ATOM     13  C   UNL     1      44.130 131.032  20.858  1.00  0.00     0.130 C 
ATOM     14  C   UNL     1      45.635 128.692  21.917  1.00  0.00     0.004 C 
ATOM     15  C   UNL     1      45.609 129.005  20.417  1.00  0.00     0.048 C 
ATOM     16  Cl  UNL     1      43.979 132.806  20.634  1.00  0.00    -0.118 Cl
ATOM     17  F   UNL     1      46.506 131.179  20.709  1.00  0.00    -0.237 F 
BRANCH  11  18
ATOM     18  C   UNL     1      42.888 131.165  23.073  1.00  0.00    -0.030 C 
ATOM     19  C   UNL     1      42.903 131.767  24.269  1.00  0.00     0.004 C 
ENDBRANCH  11  18
ENDBRANCH   1  10
BRANCH   7  20
ATOM     20  N   UNL     1      48.062 129.503  15.365  1.00  0.00    -0.324 NA
ATOM     21  H   UNL     1      48.410 129.821  14.431  1.00  0.00     0.119 HD
ATOM     22  H   UNL     1      48.458 128.545  15.506  1.00  0.00     0.119 HD
ENDBRANCH   7  20
TORSDOF 3
ENDMDL
MODEL 8
REMARK VINA RESULT:      -5.3      1.577      1.939
REMARK SMILES C=C[C@H]1CCC[C@@](F)(c2ccc3c(c2)[C@H](N)CC3)[C@@H]1Cl
REMARK SMILES IDX 9 1 10 2 11 3 12 4 13 5 14 6 15 7 17 8 18 9 7 10 3 11 4 12
REMARK SMILES IDX 19 13 5 14 6 15 20 16 8 17 2 18 1 19 16 20
REMARK H PARENT 16 21 16 22
ROOT
ATOM      1  C   UNL     1      44.216 131.086  17.640  1.00  0.00    -0.009 A 
ATOM      2  C   UNL     1      43.004 131.790  17.854  1.00  0.00     0.007 A 
ATOM      3  C   UNL     1      42.634 132.203  19.142  1.00  0.00     0.004 A 
ATOM      4  C   UNL     1      43.477 131.910  20.213  1.00  0.00    -0.043 A 
ATOM      5  C   UNL     1      44.645 131.222  20.027  1.00  0.00    -0.028 A 
ATOM      6  C   UNL     1      45.042 130.803  18.754  1.00  0.00     0.012 A 
ATOM      7  C   UNL     1      45.380 131.011  21.301  1.00  0.00     0.081 C 
ATOM      8  C   UNL     1      44.550 131.811  22.334  1.00  0.00     0.028 C 
ATOM      9  C   UNL     1      43.256 132.265  21.633  1.00  0.00     0.038 C 
ENDROOT
BRANCH   1  10
ATOM     10  C   UNL     1      44.626 130.641  16.236  1.00  0.00     0.152 C 
ATOM     11  C   UNL     1      46.380 130.861  14.383  1.00  0.00     0.033 C 
ATOM     12  C   UNL     1      46.564 129.331  14.391  1.00  0.00     0.009 C 
ATOM     13  C   UNL     1      45.913 131.375  15.769  1.00  0.00     0.130 C 
ATOM     14  C   UNL     1      45.279 128.623  14.830  1.00  0.00     0.004 C 
ATOM     15  C   UNL     1      44.835 129.110  16.214  1.00  0.00     0.048 C 
ATOM     16  Cl  UNL     1      45.618 133.144  15.699  1.00  0.00    -0.118 Cl
ATOM     17  F   UNL     1      43.610 130.937  15.334  1.00  0.00    -0.237 F 
BRANCH  11  18
ATOM     18  C   UNL     1      47.646 131.549  13.916  1.00  0.00    -0.030 C 
ATOM     19  C   UNL     1      48.213 131.310  12.727  1.00  0.00     0.004 C 
ENDBRANCH  11  18
ENDBRANCH   1  10
BRANCH   7  20
ATOM     20  N   UNL     1      45.407 129.589  21.645  1.00  0.00    -0.324 NA
ATOM     21  H   UNL     1      46.310 129.191  21.297  1.00  0.00     0.119 HD
ATOM     22  H   UNL     1      44.654 129.106  21.100  1.00  0.00     0.119 HD
ENDBRANCH   7  20
TORSDOF 3
ENDMDL
MODEL 9
REMARK VINA RESULT:      -5.3      4.932      7.486
REMARK SMILES C=C[C@H]1CCC[C@@](F)(c2ccc3c(c2)[C@H](N)CC3)[C@@H]1Cl
REMARK SMILES IDX 9 1 10 2 11 3 12 4 13 5 14 6 15 7 17 8 18 9 7 10 3 11 4 12
REMARK SMILES IDX 19 13 5 14 6 15 20 16 8 17 2 18 1 19 16 20
REMARK H PARENT 16 21 16 22
ROOT
ATOM      1  C   UNL     1      43.903 127.585  23.271  1.00  0.00    -0.009 A 
ATOM      2  C   UNL     1      45.104 126.855  23.083  1.00  0.00     0.007 A 
ATOM      3  C   UNL     1      45.082 125.458  22.965  1.00  0.00     0.004 A 
ATOM      4  C   UNL     1      43.859 124.794  23.037  1.00  0.00    -0.043 A 
ATOM      5  C   UNL     1      42.690 125.481  23.229  1.00  0.00    -0.028 A 
ATOM      6  C   UNL     1      42.682 126.874  23.344  1.00  0.00     0.012 A 
ATOM      7  C   UNL     1      41.512 124.577  23.284  1.00  0.00     0.081 C 
ATOM      8  C   UNL     1      42.106 123.188  22.950  1.00  0.00     0.028 C 
ATOM      9  C   UNL     1      43.639 123.334  22.932  1.00  0.00     0.038 C 
ENDROOT
BRANCH   1  10
ATOM     10  C   UNL     1      43.924 129.109  23.393  1.00  0.00     0.152 C 
ATOM     11  C   UNL     1      44.009 131.324  22.110  1.00  0.00     0.033 C 
ATOM     12  C   UNL     1      42.720 131.774  22.825  1.00  0.00     0.009 C 
ATOM     13  C   UNL     1      44.077 129.779  21.999  1.00  0.00     0.130 C 
ATOM     14  C   UNL     1      42.597 131.123  24.205  1.00  0.00     0.004 C 
ATOM     15  C   UNL     1      42.634 129.595  24.091  1.00  0.00     0.048 C 
ATOM     16  Cl  UNL     1      45.631 129.286  21.249  1.00  0.00    -0.118 Cl
ATOM     17  F   UNL     1      45.000 129.502  24.180  1.00  0.00    -0.237 F 
BRANCH  11  18
ATOM     18  C   UNL     1      44.136 131.999  20.761  1.00  0.00    -0.030 C 
ATOM     19  C   UNL     1      43.153 132.007  19.851  1.00  0.00     0.004 C 
ENDBRANCH  11  18
ENDBRANCH   1  10
BRANCH   7  20
ATOM     20  N   UNL     1      40.927 124.585  24.625  1.00  0.00    -0.324 NA
ATOM     21  H   UNL     1      40.103 123.940  24.621  1.00  0.00     0.119 HD
ATOM     22  H   UNL     1      40.540 125.540  24.809  1.00  0.00     0.119 HD
ENDBRANCH   7  20
TORSDOF 3
ENDMDL


