MODEL 1
REMARK VINA RESULT:      -4.5      0.000      0.000
REMARK SMILES COC[N-]C(=O)[N-]c1c(N)cc(C)cc1-n1nc2ccccc2[nH+]1
REMARK SMILES IDX 5 1 6 2 4 3 3 4 2 5 1 6 7 7 8 8 9 9 15 10 11 11 14 12 12 13
REMARK SMILES IDX 13 14 10 15 16 18 17 19 24 20 18 21 23 22 19 23 22 24 20 25
REMARK SMILES IDX 21 26
REMARK H PARENT 10 16 10 17 24 27
ROOT
ATOM      1  C   UNL     1      45.496 129.085  21.426  1.00  0.00    -0.035 C 
ATOM      2  O   UNL     1      46.182 128.428  20.597  1.00  0.00    -0.341 OA
ENDROOT
BRANCH   1   3
ATOM      3  N   UNL     1      44.822 128.393  22.477  1.00  0.00    -0.648 NA
BRANCH   3   4
ATOM      4  C   UNL     1      45.250 127.089  22.960  1.00  0.00     0.048 C 
BRANCH   4   5
ATOM      5  O   UNL     1      44.866 126.108  22.022  1.00  0.00    -0.403 OA
ATOM      6  C   UNL     1      43.768 125.384  22.529  1.00  0.00     0.192 C 
ENDBRANCH   4   5
ENDBRANCH   3   4
ENDBRANCH   1   3
BRANCH   1   7
ATOM      7  N   UNL     1      45.406 130.511  21.325  1.00  0.00    -0.640 NA
BRANCH   7   8
ATOM      8  C   UNL     1      44.174 131.248  21.363  1.00  0.00    -0.080 A 
ATOM      9  C   UNL     1      43.556 131.483  22.607  1.00  0.00     0.019 A 
ATOM     10  C   UNL     1      43.577 131.739  20.178  1.00  0.00     0.115 A 
ATOM     11  C   UNL     1      42.390 132.259  22.669  1.00  0.00     0.027 A 
ATOM     12  C   UNL     1      42.418 132.525  20.265  1.00  0.00     0.036 A 
ATOM     13  C   UNL     1      41.834 132.805  21.507  1.00  0.00    -0.047 A 
ATOM     14  C   UNL     1      40.565 133.604  21.581  1.00  0.00     0.044 C 
BRANCH   9  15
ATOM     15  N   UNL     1      44.115 130.960  23.819  1.00  0.00    -0.400 N 
ATOM     16  H   UNL     1      45.082 131.204  24.127  1.00  0.00     0.156 HD
ATOM     17  H   UNL     1      43.563 130.312  24.424  1.00  0.00     0.156 HD
ENDBRANCH   9  15
BRANCH  10  18
ATOM     18  N   UNL     1      44.090 131.388  18.882  1.00  0.00    -0.014 N 
ATOM     19  N   UNL     1      43.453 131.646  17.740  1.00  0.00     0.053 NA
ATOM     20  N   UNL     1      45.267 130.798  18.678  1.00  0.00    -0.161 N 
ATOM     21  C   UNL     1      44.265 131.182  16.775  1.00  0.00     0.249 A 
ATOM     22  C   UNL     1      45.384 130.658  17.352  1.00  0.00     0.198 A 
ATOM     23  C   UNL     1      44.077 131.184  15.397  1.00  0.00     0.064 A 
ATOM     24  C   UNL     1      46.412 130.092  16.606  1.00  0.00     0.058 A 
ATOM     25  C   UNL     1      45.096 130.620  14.603  1.00  0.00     0.005 A 
ATOM     26  C   UNL     1      46.259 130.076  15.206  1.00  0.00     0.005 A 
ATOM     27  H   UNL     1      45.940 130.491  19.415  1.00  0.00     0.340 HD
ENDBRANCH  10  18
ENDBRANCH   7   8
ENDBRANCH   1   7
TORSDOF 7
ENDMDL
MODEL 2
REMARK VINA RESULT:      -4.2      0.491      1.283
REMARK SMILES COC[N-]C(=O)[N-]c1c(N)cc(C)cc1-n1nc2ccccc2[nH+]1
REMARK SMILES IDX 5 1 6 2 4 3 3 4 2 5 1 6 7 7 8 8 9 9 15 10 11 11 14 12 12 13
REMARK SMILES IDX 13 14 10 15 16 18 17 19 24 20 18 21 23 22 19 23 22 24 20 25
REMARK SMILES IDX 21 26
REMARK H PARENT 10 16 10 17 24 27
ROOT
ATOM      1  C   UNL     1      45.550 129.231  21.163  1.00  0.00    -0.035 C 
ATOM      2  O   UNL     1      46.093 128.555  20.248  1.00  0.00    -0.341 OA
ENDROOT
BRANCH   1   3
ATOM      3  N   UNL     1      45.069 128.566  22.331  1.00  0.00    -0.648 NA
BRANCH   3   4
ATOM      4  C   UNL     1      45.423 127.191  22.653  1.00  0.00     0.048 C 
BRANCH   4   5
ATOM      5  O   UNL     1      44.253 126.494  23.017  1.00  0.00    -0.403 OA
ATOM      6  C   UNL     1      44.608 125.305  23.686  1.00  0.00     0.192 C 
ENDBRANCH   4   5
ENDBRANCH   3   4
ENDBRANCH   1   3
BRANCH   1   7
ATOM      7  N   UNL     1      45.431 130.654  21.041  1.00  0.00    -0.640 NA
BRANCH   7   8
ATOM      8  C   UNL     1      44.186 131.368  21.095  1.00  0.00    -0.080 A 
ATOM      9  C   UNL     1      43.560 131.559  22.342  1.00  0.00     0.019 A 
ATOM     10  C   UNL     1      43.584 131.881  19.921  1.00  0.00     0.115 A 
ATOM     11  C   UNL     1      42.381 132.313  22.421  1.00  0.00     0.027 A 
ATOM     12  C   UNL     1      42.412 132.644  20.025  1.00  0.00     0.036 A 
ATOM     13  C   UNL     1      41.819 132.880  21.271  1.00  0.00    -0.047 A 
ATOM     14  C   UNL     1      40.537 133.655  21.363  1.00  0.00     0.044 C 
BRANCH   9  15
ATOM     15  N   UNL     1      44.125 131.013  23.542  1.00  0.00    -0.400 N 
ATOM     16  H   UNL     1      44.141 131.552  24.435  1.00  0.00     0.156 HD
ATOM     17  H   UNL     1      44.543 130.056  23.545  1.00  0.00     0.156 HD
ENDBRANCH   9  15
BRANCH  10  18
ATOM     18  N   UNL     1      44.107 131.573  18.618  1.00  0.00    -0.014 N 
ATOM     19  N   UNL     1      45.269 130.951  18.416  1.00  0.00     0.053 NA
ATOM     20  N   UNL     1      43.478 131.845  17.476  1.00  0.00    -0.161 N 
ATOM     21  C   UNL     1      45.377 130.841  17.080  1.00  0.00     0.249 A 
ATOM     22  C   UNL     1      44.274 131.392  16.500  1.00  0.00     0.198 A 
ATOM     23  C   UNL     1      46.407 130.283  16.329  1.00  0.00     0.064 A 
ATOM     24  C   UNL     1      44.100 131.435  15.121  1.00  0.00     0.058 A 
ATOM     25  C   UNL     1      46.270 130.305  14.926  1.00  0.00     0.005 A 
ATOM     26  C   UNL     1      45.121 130.879  14.325  1.00  0.00     0.005 A 
ATOM     27  H   UNL     1      42.560 132.333  17.377  1.00  0.00     0.340 HD
ENDBRANCH  10  18
ENDBRANCH   7   8
ENDBRANCH   1   7
TORSDOF 7
ENDMDL
MODEL 3
REMARK VINA RESULT:      -4.1      2.895      4.144
REMARK SMILES COC[N-]C(=O)[N-]c1c(N)cc(C)cc1-n1nc2ccccc2[nH+]1
REMARK SMILES IDX 5 1 6 2 4 3 3 4 2 5 1 6 7 7 8 8 9 9 15 10 11 11 14 12 12 13
REMARK SMILES IDX 13 14 10 15 16 18 17 19 24 20 18 21 23 22 19 23 22 24 20 25
REMARK SMILES IDX 21 26
REMARK H PARENT 10 16 10 17 24 27
ROOT
ATOM      1  C   UNL     1      47.376 132.228  21.039  1.00  0.00    -0.035 C 
ATOM      2  O   UNL     1      48.599 131.939  20.939  1.00  0.00    -0.341 OA
ENDROOT
BRANCH   1   3
ATOM      3  N   UNL     1      46.999 133.486  21.597  1.00  0.00    -0.648 NA
BRANCH   3   4
ATOM      4  C   UNL     1      47.969 134.429  22.136  1.00  0.00     0.048 C 
BRANCH   4   5
ATOM      5  O   UNL     1      47.769 135.685  21.528  1.00  0.00    -0.403 OA
ATOM      6  C   UNL     1      49.003 136.176  21.055  1.00  0.00     0.192 C 
ENDBRANCH   4   5
ENDBRANCH   3   4
ENDBRANCH   1   3
BRANCH   1   7
ATOM      7  N   UNL     1      46.375 131.310  20.582  1.00  0.00    -0.640 NA
BRANCH   7   8
ATOM      8  C   UNL     1      44.978 131.625  20.478  1.00  0.00    -0.080 A 
ATOM      9  C   UNL     1      44.226 131.802  21.656  1.00  0.00     0.019 A 
ATOM     10  C   UNL     1      44.350 131.764  19.217  1.00  0.00     0.115 A 
ATOM     11  C   UNL     1      42.878 132.178  21.572  1.00  0.00     0.027 A 
ATOM     12  C   UNL     1      43.004 132.154  19.156  1.00  0.00     0.036 A 
ATOM     13  C   UNL     1      42.271 132.383  20.327  1.00  0.00    -0.047 A 
ATOM     14  C   UNL     1      40.818 132.750  20.249  1.00  0.00     0.044 C 
BRANCH   9  15
ATOM     15  N   UNL     1      44.825 131.625  22.946  1.00  0.00    -0.400 N 
ATOM     16  H   UNL     1      45.683 132.149  23.229  1.00  0.00     0.156 HD
ATOM     17  H   UNL     1      44.416 130.957  23.636  1.00  0.00     0.156 HD
ENDBRANCH   9  15
BRANCH  10  18
ATOM     18  N   UNL     1      45.041 131.439  17.999  1.00  0.00    -0.014 N 
ATOM     19  N   UNL     1      45.143 132.272  16.962  1.00  0.00     0.053 NA
ATOM     20  N   UNL     1      45.681 130.291  17.785  1.00  0.00    -0.161 N 
ATOM     21  C   UNL     1      45.870 131.605  16.050  1.00  0.00     0.249 A 
ATOM     22  C   UNL     1      46.202 130.383  16.555  1.00  0.00     0.198 A 
ATOM     23  C   UNL     1      46.260 132.008  14.777  1.00  0.00     0.064 A 
ATOM     24  C   UNL     1      46.951 129.457  15.837  1.00  0.00     0.058 A 
ATOM     25  C   UNL     1      47.022 131.100  14.015  1.00  0.00     0.005 A 
ATOM     26  C   UNL     1      47.366 129.829  14.543  1.00  0.00     0.005 A 
ATOM     27  H   UNL     1      45.736 129.482  18.443  1.00  0.00     0.340 HD
ENDBRANCH  10  18
ENDBRANCH   7   8
ENDBRANCH   1   7
TORSDOF 7
ENDMDL
MODEL 4
REMARK VINA RESULT:      -4.1      1.022      1.176
REMARK SMILES COC[N-]C(=O)[N-]c1c(N)cc(C)cc1-n1nc2ccccc2[nH+]1
REMARK SMILES IDX 5 1 6 2 4 3 3 4 2 5 1 6 7 7 8 8 9 9 15 10 11 11 14 12 12 13
REMARK SMILES IDX 13 14 10 15 16 18 17 19 24 20 18 21 23 22 19 23 22 24 20 25
REMARK SMILES IDX 21 26
REMARK H PARENT 10 16 10 17 24 27
ROOT
ATOM      1  C   UNL     1      45.698 129.042  21.151  1.00  0.00    -0.035 C 
ATOM      2  O   UNL     1      45.952 128.364  20.119  1.00  0.00    -0.341 OA
ENDROOT
BRANCH   1   3
ATOM      3  N   UNL     1      45.508 128.372  22.396  1.00  0.00    -0.648 NA
BRANCH   3   4
ATOM      4  C   UNL     1      45.156 126.962  22.484  1.00  0.00     0.048 C 
BRANCH   4   5
ATOM      5  O   UNL     1      45.044 126.605  23.843  1.00  0.00    -0.403 OA
ATOM      6  C   UNL     1      44.915 127.773  24.623  1.00  0.00     0.192 C 
ENDBRANCH   4   5
ENDBRANCH   3   4
ENDBRANCH   1   3
BRANCH   1   7
ATOM      7  N   UNL     1      45.618 130.471  21.078  1.00  0.00    -0.640 NA
BRANCH   7   8
ATOM      8  C   UNL     1      44.388 131.206  20.989  1.00  0.00    -0.080 A 
ATOM      9  C   UNL     1      43.599 131.365  22.145  1.00  0.00     0.019 A 
ATOM     10  C   UNL     1      43.960 131.772  19.764  1.00  0.00     0.115 A 
ATOM     11  C   UNL     1      42.432 132.139  22.091  1.00  0.00     0.027 A 
ATOM     12  C   UNL     1      42.795 132.554  19.736  1.00  0.00     0.036 A 
ATOM     13  C   UNL     1      42.041 132.758  20.898  1.00  0.00    -0.047 A 
ATOM     14  C   UNL     1      40.770 133.554  20.842  1.00  0.00     0.044 C 
BRANCH   9  15
ATOM     15  N   UNL     1      43.987 130.767  23.389  1.00  0.00    -0.400 N 
ATOM     16  H   UNL     1      44.857 130.198  23.477  1.00  0.00     0.156 HD
ATOM     17  H   UNL     1      43.395 130.882  24.242  1.00  0.00     0.156 HD
ENDBRANCH   9  15
BRANCH  10  18
ATOM     18  N   UNL     1      44.652 131.501  18.534  1.00  0.00    -0.014 N 
ATOM     19  N   UNL     1      44.825 132.404  17.568  1.00  0.00     0.053 NA
ATOM     20  N   UNL     1      45.222 130.334  18.237  1.00  0.00    -0.161 N 
ATOM     21  C   UNL     1      45.526 131.766  16.615  1.00  0.00     0.249 A 
ATOM     22  C   UNL     1      45.771 130.490  17.026  1.00  0.00     0.198 A 
ATOM     23  C   UNL     1      45.964 132.242  15.384  1.00  0.00     0.064 A 
ATOM     24  C   UNL     1      46.474 129.577  16.247  1.00  0.00     0.058 A 
ATOM     25  C   UNL     1      46.682 131.349  14.563  1.00  0.00     0.005 A 
ATOM     26  C   UNL     1      46.935 130.022  14.993  1.00  0.00     0.005 A 
ATOM     27  H   UNL     1      45.214 129.474  18.830  1.00  0.00     0.340 HD
ENDBRANCH  10  18
ENDBRANCH   7   8
ENDBRANCH   1   7
TORSDOF 7
ENDMDL
MODEL 5
REMARK VINA RESULT:      -3.7      4.039      7.497
REMARK SMILES COC[N-]C(=O)[N-]c1c(N)cc(C)cc1-n1nc2ccccc2[nH+]1
REMARK SMILES IDX 5 1 6 2 4 3 3 4 2 5 1 6 7 7 8 8 9 9 15 10 11 11 14 12 12 13
REMARK SMILES IDX 13 14 10 15 16 18 17 19 24 20 18 21 23 22 19 23 22 24 20 25
REMARK SMILES IDX 21 26
REMARK H PARENT 10 16 10 17 24 27
ROOT
ATOM      1  C   UNL     1      43.067 124.443  22.019  1.00  0.00    -0.035 C 
ATOM      2  O   UNL     1      42.572 125.331  21.273  1.00  0.00    -0.341 OA
ENDROOT
BRANCH   1   3
ATOM      3  N   UNL     1      42.737 123.074  21.786  1.00  0.00    -0.648 NA
BRANCH   3   4
ATOM      4  C   UNL     1      41.611 122.416  22.433  1.00  0.00     0.048 C 
BRANCH   4   5
ATOM      5  O   UNL     1      41.086 123.279  23.417  1.00  0.00    -0.403 OA
ATOM      6  C   UNL     1      40.491 122.512  24.440  1.00  0.00     0.192 C 
ENDBRANCH   4   5
ENDBRANCH   3   4
ENDBRANCH   1   3
BRANCH   1   7
ATOM      7  N   UNL     1      43.963 124.802  23.077  1.00  0.00    -0.640 NA
BRANCH   7   8
ATOM      8  C   UNL     1      45.393 124.841  22.946  1.00  0.00    -0.080 A 
ATOM      9  C   UNL     1      46.115 123.632  22.955  1.00  0.00     0.019 A 
ATOM     10  C   UNL     1      46.082 126.069  22.805  1.00  0.00     0.115 A 
ATOM     11  C   UNL     1      47.503 123.648  22.758  1.00  0.00     0.027 A 
ATOM     12  C   UNL     1      47.469 126.061  22.595  1.00  0.00     0.036 A 
ATOM     13  C   UNL     1      48.180 124.855  22.550  1.00  0.00    -0.047 A 
ATOM     14  C   UNL     1      49.671 124.864  22.376  1.00  0.00     0.044 C 
BRANCH   9  15
ATOM     15  N   UNL     1      45.448 122.376  23.139  1.00  0.00    -0.400 N 
ATOM     16  H   UNL     1      45.044 122.099  24.061  1.00  0.00     0.156 HD
ATOM     17  H   UNL     1      45.357 121.701  22.348  1.00  0.00     0.156 HD
ENDBRANCH   9  15
BRANCH  10  18
ATOM     18  N   UNL     1      45.402 127.328  22.948  1.00  0.00    -0.014 N 
ATOM     19  N   UNL     1      44.803 127.721  24.072  1.00  0.00     0.053 NA
ATOM     20  N   UNL     1      45.322 128.248  21.988  1.00  0.00    -0.161 N 
ATOM     21  C   UNL     1      44.314 128.942  23.797  1.00  0.00     0.249 A 
ATOM     22  C   UNL     1      44.633 129.268  22.513  1.00  0.00     0.198 A 
ATOM     23  C   UNL     1      43.586 129.799  24.617  1.00  0.00     0.064 A 
ATOM     24  C   UNL     1      44.255 130.475  21.934  1.00  0.00     0.058 A 
ATOM     25  C   UNL     1      43.184 131.033  24.070  1.00  0.00     0.005 A 
ATOM     26  C   UNL     1      43.517 131.370  22.734  1.00  0.00     0.005 A 
ATOM     27  H   UNL     1      45.706 128.166  21.020  1.00  0.00     0.340 HD
ENDBRANCH  10  18
ENDBRANCH   7   8
ENDBRANCH   1   7
TORSDOF 7
ENDMDL
MODEL 6
REMARK VINA RESULT:      -3.7      2.709      3.869
REMARK SMILES COC[N-]C(=O)[N-]c1c(N)cc(C)cc1-n1nc2ccccc2[nH+]1
REMARK SMILES IDX 5 1 6 2 4 3 3 4 2 5 1 6 7 7 8 8 9 9 15 10 11 11 14 12 12 13
REMARK SMILES IDX 13 14 10 15 16 18 17 19 24 20 18 21 23 22 19 23 22 24 20 25
REMARK SMILES IDX 21 26
REMARK H PARENT 10 16 10 17 24 27
ROOT
ATOM      1  C   UNL     1      47.324 132.171  21.063  1.00  0.00    -0.035 C 
ATOM      2  O   UNL     1      48.510 131.922  20.716  1.00  0.00    -0.341 OA
ENDROOT
BRANCH   1   3
ATOM      3  N   UNL     1      47.041 133.383  21.761  1.00  0.00    -0.648 NA
BRANCH   3   4
ATOM      4  C   UNL     1      48.071 134.358  22.092  1.00  0.00     0.048 C 
BRANCH   4   5
ATOM      5  O   UNL     1      48.965 133.779  23.015  1.00  0.00    -0.403 OA
ATOM      6  C   UNL     1      48.702 134.290  24.302  1.00  0.00     0.192 C 
ENDBRANCH   4   5
ENDBRANCH   3   4
ENDBRANCH   1   3
BRANCH   1   7
ATOM      7  N   UNL     1      46.269 131.255  20.745  1.00  0.00    -0.640 NA
BRANCH   7   8
ATOM      8  C   UNL     1      44.883 131.621  20.658  1.00  0.00    -0.080 A 
ATOM      9  C   UNL     1      44.138 131.775  21.844  1.00  0.00     0.019 A 
ATOM     10  C   UNL     1      44.258 131.829  19.405  1.00  0.00     0.115 A 
ATOM     11  C   UNL     1      42.804 132.198  21.779  1.00  0.00     0.027 A 
ATOM     12  C   UNL     1      42.925 132.266  19.364  1.00  0.00     0.036 A 
ATOM     13  C   UNL     1      42.202 132.472  20.545  1.00  0.00    -0.047 A 
ATOM     14  C   UNL     1      40.762 132.890  20.485  1.00  0.00     0.044 C 
BRANCH   9  15
ATOM     15  N   UNL     1      44.734 131.528  23.125  1.00  0.00    -0.400 N 
ATOM     16  H   UNL     1      45.286 130.663  23.316  1.00  0.00     0.156 HD
ATOM     17  H   UNL     1      44.621 132.213  23.905  1.00  0.00     0.156 HD
ENDBRANCH   9  15
BRANCH  10  18
ATOM     18  N   UNL     1      44.936 131.530  18.173  1.00  0.00    -0.014 N 
ATOM     19  N   UNL     1      45.485 130.346  17.900  1.00  0.00     0.053 NA
ATOM     20  N   UNL     1      45.063 132.388  17.162  1.00  0.00    -0.161 N 
ATOM     21  C   UNL     1      45.991 130.475  16.661  1.00  0.00     0.249 A 
ATOM     22  C   UNL     1      45.732 131.733  16.206  1.00  0.00     0.198 A 
ATOM     23  C   UNL     1      46.684 129.541  15.898  1.00  0.00     0.064 A 
ATOM     24  C   UNL     1      46.142 132.170  14.951  1.00  0.00     0.058 A 
ATOM     25  C   UNL     1      47.116 129.942  14.619  1.00  0.00     0.005 A 
ATOM     26  C   UNL     1      46.846 131.252  14.147  1.00  0.00     0.005 A 
ATOM     27  H   UNL     1      44.724 133.375  17.143  1.00  0.00     0.340 HD
ENDBRANCH  10  18
ENDBRANCH   7   8
ENDBRANCH   1   7
TORSDOF 7
ENDMDL
MODEL 7
REMARK VINA RESULT:      -3.5      4.210      7.555
REMARK SMILES COC[N-]C(=O)[N-]c1c(N)cc(C)cc1-n1nc2ccccc2[nH+]1
REMARK SMILES IDX 5 1 6 2 4 3 3 4 2 5 1 6 7 7 8 8 9 9 15 10 11 11 14 12 12 13
REMARK SMILES IDX 13 14 10 15 16 18 17 19 24 20 18 21 23 22 19 23 22 24 20 25
REMARK SMILES IDX 21 26
REMARK H PARENT 10 16 10 17 24 27
ROOT
ATOM      1  C   UNL     1      41.480 125.344  23.601  1.00  0.00    -0.035 C 
ATOM      2  O   UNL     1      41.143 124.264  23.046  1.00  0.00    -0.341 OA
ENDROOT
BRANCH   1   3
ATOM      3  N   UNL     1      40.591 126.460  23.555  1.00  0.00    -0.648 NA
BRANCH   3   4
ATOM      4  C   UNL     1      39.175 126.350  23.875  1.00  0.00     0.048 C 
BRANCH   4   5
ATOM      5  O   UNL     1      38.967 125.169  24.618  1.00  0.00    -0.403 OA
ATOM      6  C   UNL     1      37.812 124.516  24.141  1.00  0.00     0.192 C 
ENDBRANCH   4   5
ENDBRANCH   3   4
ENDBRANCH   1   3
BRANCH   1   7
ATOM      7  N   UNL     1      42.734 125.446  24.286  1.00  0.00    -0.640 NA
BRANCH   7   8
ATOM      8  C   UNL     1      43.980 124.959  23.765  1.00  0.00    -0.080 A 
ATOM      9  C   UNL     1      44.279 123.587  23.874  1.00  0.00     0.019 A 
ATOM     10  C   UNL     1      44.905 125.832  23.143  1.00  0.00     0.115 A 
ATOM     11  C   UNL     1      45.459 123.083  23.309  1.00  0.00     0.027 A 
ATOM     12  C   UNL     1      46.073 125.304  22.572  1.00  0.00     0.036 A 
ATOM     13  C   UNL     1      46.344 123.932  22.633  1.00  0.00    -0.047 A 
ATOM     14  C   UNL     1      47.622 123.388  22.063  1.00  0.00     0.044 C 
BRANCH   9  15
ATOM     15  N   UNL     1      43.380 122.687  24.537  1.00  0.00    -0.400 N 
ATOM     16  H   UNL     1      43.680 121.734  24.838  1.00  0.00     0.156 HD
ATOM     17  H   UNL     1      42.393 122.968  24.728  1.00  0.00     0.156 HD
ENDBRANCH   9  15
BRANCH  10  18
ATOM     18  N   UNL     1      44.710 127.256  23.151  1.00  0.00    -0.014 N 
ATOM     19  N   UNL     1      44.461 127.961  24.255  1.00  0.00     0.053 NA
ATOM     20  N   UNL     1      44.788 128.027  22.069  1.00  0.00    -0.161 N 
ATOM     21  C   UNL     1      44.365 129.236  23.838  1.00  0.00     0.249 A 
ATOM     22  C   UNL     1      44.566 129.278  22.491  1.00  0.00     0.198 A 
ATOM     23  C   UNL     1      44.100 130.382  24.582  1.00  0.00     0.064 A 
ATOM     24  C   UNL     1      44.521 130.465  21.767  1.00  0.00     0.058 A 
ATOM     25  C   UNL     1      44.047 131.606  23.887  1.00  0.00     0.005 A 
ATOM     26  C   UNL     1      44.256 131.647  22.485  1.00  0.00     0.005 A 
ATOM     27  H   UNL     1      44.965 127.705  21.091  1.00  0.00     0.340 HD
ENDBRANCH  10  18
ENDBRANCH   7   8
ENDBRANCH   1   7
TORSDOF 7
ENDMDL
MODEL 8
REMARK VINA RESULT:      -3.5      3.964      7.298
REMARK SMILES COC[N-]C(=O)[N-]c1c(N)cc(C)cc1-n1nc2ccccc2[nH+]1
REMARK SMILES IDX 5 1 6 2 4 3 3 4 2 5 1 6 7 7 8 8 9 9 15 10 11 11 14 12 12 13
REMARK SMILES IDX 13 14 10 15 16 18 17 19 24 20 18 21 23 22 19 23 22 24 20 25
REMARK SMILES IDX 21 26
REMARK H PARENT 10 16 10 17 24 27
ROOT
ATOM      1  C   UNL     1      42.472 125.841  23.617  1.00  0.00    -0.035 C 
ATOM      2  O   UNL     1      43.124 126.240  24.620  1.00  0.00    -0.341 OA
ENDROOT
BRANCH   1   3
ATOM      3  N   UNL     1      41.047 125.819  23.675  1.00  0.00    -0.648 NA
BRANCH   3   4
ATOM      4  C   UNL     1      40.269 124.612  23.435  1.00  0.00     0.048 C 
BRANCH   4   5
ATOM      5  O   UNL     1      38.946 124.829  23.870  1.00  0.00    -0.403 OA
ATOM      6  C   UNL     1      38.350 123.591  24.187  1.00  0.00     0.192 C 
ENDBRANCH   4   5
ENDBRANCH   3   4
ENDBRANCH   1   3
BRANCH   1   7
ATOM      7  N   UNL     1      43.155 125.429  22.426  1.00  0.00    -0.640 NA
BRANCH   7   8
ATOM      8  C   UNL     1      44.571 125.205  22.344  1.00  0.00    -0.080 A 
ATOM      9  C   UNL     1      45.050 123.885  22.233  1.00  0.00     0.019 A 
ATOM     10  C   UNL     1      45.486 126.284  22.370  1.00  0.00     0.115 A 
ATOM     11  C   UNL     1      46.424 123.653  22.082  1.00  0.00     0.027 A 
ATOM     12  C   UNL     1      46.856 126.030  22.203  1.00  0.00     0.036 A 
ATOM     13  C   UNL     1      47.327 124.722  22.038  1.00  0.00    -0.047 A 
ATOM     14  C   UNL     1      48.800 124.460  21.912  1.00  0.00     0.044 C 
BRANCH   9  15
ATOM     15  N   UNL     1      44.149 122.770  22.247  1.00  0.00    -0.400 N 
ATOM     16  H   UNL     1      44.111 122.084  21.462  1.00  0.00     0.156 HD
ATOM     17  H   UNL     1      43.498 122.622  23.051  1.00  0.00     0.156 HD
ENDBRANCH   9  15
BRANCH  10  18
ATOM     18  N   UNL     1      45.050 127.627  22.639  1.00  0.00    -0.014 N 
ATOM     19  N   UNL     1      44.754 128.078  23.858  1.00  0.00     0.053 NA
ATOM     20  N   UNL     1      44.924 128.573  21.710  1.00  0.00    -0.161 N 
ATOM     21  C   UNL     1      44.414 129.366  23.680  1.00  0.00     0.249 A 
ATOM     22  C   UNL     1      44.518 129.672  22.356  1.00  0.00     0.198 A 
ATOM     23  C   UNL     1      44.004 130.302  24.625  1.00  0.00     0.064 A 
ATOM     24  C   UNL     1      44.223 130.937  21.858  1.00  0.00     0.058 A 
ATOM     25  C   UNL     1      43.696 131.597  24.162  1.00  0.00     0.005 A 
ATOM     26  C   UNL     1      43.805 131.913  22.784  1.00  0.00     0.005 A 
ATOM     27  H   UNL     1      45.091 128.459  20.685  1.00  0.00     0.340 HD
ENDBRANCH  10  18
ENDBRANCH   7   8
ENDBRANCH   1   7
TORSDOF 7
ENDMDL
MODEL 9
REMARK VINA RESULT:      -3.2      4.184      7.651
REMARK SMILES COC[N-]C(=O)[N-]c1c(N)cc(C)cc1-n1nc2ccccc2[nH+]1
REMARK SMILES IDX 5 1 6 2 4 3 3 4 2 5 1 6 7 7 8 8 9 9 15 10 11 11 14 12 12 13
REMARK SMILES IDX 13 14 10 15 16 18 17 19 24 20 18 21 23 22 19 23 22 24 20 25
REMARK SMILES IDX 21 26
REMARK H PARENT 10 16 10 17 24 27
ROOT
ATOM      1  C   UNL     1      48.297 125.291  23.152  1.00  0.00    -0.035 C 
ATOM      2  O   UNL     1      48.090 124.572  22.137  1.00  0.00    -0.341 OA
ENDROOT
BRANCH   1   3
ATOM      3  N   UNL     1      49.573 125.906  23.324  1.00  0.00    -0.648 NA
BRANCH   3   4
ATOM      4  C   UNL     1      50.577 125.939  22.270  1.00  0.00     0.048 C 
BRANCH   4   5
ATOM      5  O   UNL     1      51.816 125.536  22.810  1.00  0.00    -0.403 OA
ATOM      6  C   UNL     1      52.844 125.843  21.897  1.00  0.00     0.192 C 
ENDBRANCH   4   5
ENDBRANCH   3   4
ENDBRANCH   1   3
BRANCH   1   7
ATOM      7  N   UNL     1      47.256 125.502  24.114  1.00  0.00    -0.640 NA
BRANCH   7   8
ATOM      8  C   UNL     1      46.044 124.734  24.174  1.00  0.00    -0.080 A 
ATOM      9  C   UNL     1      46.123 123.347  24.405  1.00  0.00     0.019 A 
ATOM     10  C   UNL     1      44.780 125.348  24.007  1.00  0.00     0.115 A 
ATOM     11  C   UNL     1      44.948 122.595  24.536  1.00  0.00     0.027 A 
ATOM     12  C   UNL     1      43.616 124.578  24.156  1.00  0.00     0.036 A 
ATOM     13  C   UNL     1      43.693 123.209  24.440  1.00  0.00    -0.047 A 
ATOM     14  C   UNL     1      42.441 122.388  24.545  1.00  0.00     0.044 C 
BRANCH   9  15
ATOM     15  N   UNL     1      47.392 122.692  24.535  1.00  0.00    -0.400 N 
ATOM     16  H   UNL     1      47.471 121.716  24.894  1.00  0.00     0.156 HD
ATOM     17  H   UNL     1      48.274 123.187  24.276  1.00  0.00     0.156 HD
ENDBRANCH   9  15
BRANCH  10  18
ATOM     18  N   UNL     1      44.664 126.726  23.615  1.00  0.00    -0.014 N 
ATOM     19  N   UNL     1      45.148 127.212  22.472  1.00  0.00     0.053 NA
ATOM     20  N   UNL     1      44.035 127.657  24.330  1.00  0.00    -0.161 N 
ATOM     21  C   UNL     1      44.817 128.515  22.480  1.00  0.00     0.249 A 
ATOM     22  C   UNL     1      44.132 128.791  23.625  1.00  0.00     0.198 A 
ATOM     23  C   UNL     1      45.093 129.494  21.531  1.00  0.00     0.064 A 
ATOM     24  C   UNL     1      43.661 130.064  23.924  1.00  0.00     0.058 A 
ATOM     25  C   UNL     1      44.632 130.799  21.794  1.00  0.00     0.005 A 
ATOM     26  C   UNL     1      43.918 131.083  22.986  1.00  0.00     0.005 A 
ATOM     27  H   UNL     1      43.583 127.520  25.262  1.00  0.00     0.340 HD
ENDBRANCH  10  18
ENDBRANCH   7   8
ENDBRANCH   1   7
TORSDOF 7
ENDMDL


