REMARK SMILES O=C1[N-]Cc2[nH+]cc(-c3ccc4[nH]ccc4c3)cc21
REMARK SMILES IDX 1 1 2 2 3 3 4 4 5 5 6 6 7 7 8 8 18 9 19 10 9 12 10 13 17 14
REMARK SMILES IDX 11 15 16 16 12 17 15 18 13 19 14 20
REMARK H PARENT 6 11 13 21
ROOT
ATOM      1  O   UNL     1      -2.751   1.532  -3.733  1.00  0.00    -0.315 OA
ATOM      2  C   UNL     1      -2.763   0.377  -3.233  1.00  0.00     0.089 C 
ATOM      3  N   UNL     1      -3.438  -0.734  -3.817  1.00  0.00    -0.641 NA
ATOM      4  C   UNL     1      -3.220  -1.893  -2.943  1.00  0.00    -0.006 C 
ATOM      5  C   UNL     1      -2.375  -1.346  -1.831  1.00  0.00     0.171 A 
ATOM      6  N   UNL     1      -1.899  -2.019  -0.753  1.00  0.00    -0.215 N 
ATOM      7  C   UNL     1      -1.141  -1.363   0.176  1.00  0.00     0.315 A 
ATOM      8  C   UNL     1      -0.845   0.018   0.029  1.00  0.00     0.046 A 
ATOM      9  C   UNL     1      -1.348   0.702  -1.099  1.00  0.00     0.031 A 
ATOM     10  C   UNL     1      -2.112  -0.017  -2.011  1.00  0.00     0.065 A 
ATOM     11  H   UNL     1      -2.107  -3.036  -0.635  1.00  0.00     0.453 HD
ENDROOT
BRANCH   8  12
ATOM     12  C   UNL     1      -0.023   0.729   1.039  1.00  0.00    -0.012 A 
ATOM     13  C   UNL     1      -0.186   0.453   2.424  1.00  0.00     0.011 A 
ATOM     14  C   UNL     1       0.932   1.692   0.633  1.00  0.00     0.019 A 
ATOM     15  C   UNL     1       0.587   1.121   3.390  1.00  0.00     0.027 A 
ATOM     16  C   UNL     1       1.680   2.334   1.617  1.00  0.00    -0.000 A 
ATOM     17  C   UNL     1       1.515   2.059   2.946  1.00  0.00     0.045 A 
ATOM     18  C   UNL     1       2.664   3.293   1.513  1.00  0.00     0.028 A 
ATOM     19  N   UNL     1       2.348   2.801   3.694  1.00  0.00    -0.361 N 
ATOM     20  C   UNL     1       3.053   3.557   2.822  1.00  0.00     0.083 A 
ATOM     21  H   UNL     1       2.437   2.797   4.735  1.00  0.00     0.166 HD
ENDBRANCH   8  12
TORSDOF 1


