MODEL 1
REMARK VINA RESULT:      -8.4      0.000      0.000
REMARK SMILES C=C[C@@H]1CCC[C@H](c2ccc(C(C)=O)cc2)C1=C
REMARK SMILES IDX 3 1 4 2 5 3 6 4 7 5 17 6 18 7 2 8 1 9 8 10 9 11 16 12 10 13
REMARK SMILES IDX 15 14 11 15 12 16 13 17 14 18
REMARK H PARENT
ROOT
ATOM      1  C   UNL     1      44.353 130.937  21.488  1.00  0.00     0.037 C 
ATOM      2  C   UNL     1      42.839 130.880  21.196  1.00  0.00     0.012 C 
ATOM      3  C   UNL     1      42.371 132.079  20.381  1.00  0.00     0.002 C 
ATOM      4  C   UNL     1      43.034 132.033  19.010  1.00  0.00     0.013 C 
ATOM      5  C   UNL     1      44.568 132.170  19.107  1.00  0.00     0.045 C 
ATOM      6  C   UNL     1      45.187 131.559  20.367  1.00  0.00    -0.063 C 
ATOM      7  C   UNL     1      46.508 131.724  20.571  1.00  0.00     0.009 C 
ENDROOT
BRANCH   1   8
ATOM      8  C   UNL     1      44.856 129.549  21.819  1.00  0.00    -0.027 C 
ATOM      9  C   UNL     1      44.605 128.978  23.000  1.00  0.00     0.004 C 
ENDBRANCH   1   8
BRANCH   5  10
ATOM     10  C   UNL     1      45.212 131.610  17.853  1.00  0.00    -0.041 A 
ATOM     11  C   UNL     1      45.688 130.290  17.829  1.00  0.00     0.005 A 
ATOM     12  C   UNL     1      45.372 132.412  16.710  1.00  0.00     0.005 A 
ATOM     13  C   UNL     1      46.295 129.775  16.681  1.00  0.00     0.012 A 
ATOM     14  C   UNL     1      45.978 131.898  15.560  1.00  0.00     0.012 A 
ATOM     15  C   UNL     1      46.447 130.571  15.530  1.00  0.00     0.017 A 
BRANCH  15  16
ATOM     16  C   UNL     1      47.095 130.007  14.315  1.00  0.00     0.159 C 
ATOM     17  C   UNL     1      47.397 130.851  13.113  1.00  0.00     0.093 C 
ATOM     18  O   UNL     1      47.404 128.784  14.281  1.00  0.00    -0.295 OA
ENDBRANCH  15  16
ENDBRANCH   5  10
TORSDOF 3
ENDMDL
MODEL 2
REMARK VINA RESULT:      -8.3      0.082      1.144
REMARK SMILES C=C[C@@H]1CCC[C@H](c2ccc(C(C)=O)cc2)C1=C
REMARK SMILES IDX 3 1 4 2 5 3 6 4 7 5 17 6 18 7 2 8 1 9 8 10 9 11 16 12 10 13
REMARK SMILES IDX 15 14 11 15 12 16 13 17 14 18
REMARK H PARENT
ROOT
ATOM      1  C   UNL     1      44.323 130.973  21.465  1.00  0.00     0.037 C 
ATOM      2  C   UNL     1      42.814 130.891  21.155  1.00  0.00     0.012 C 
ATOM      3  C   UNL     1      42.337 132.076  20.324  1.00  0.00     0.002 C 
ATOM      4  C   UNL     1      43.018 132.028  18.962  1.00  0.00     0.013 C 
ATOM      5  C   UNL     1      44.549 132.190  19.077  1.00  0.00     0.045 C 
ATOM      6  C   UNL     1      45.162 131.599  20.350  1.00  0.00    -0.063 C 
ATOM      7  C   UNL     1      46.477 131.786  20.569  1.00  0.00     0.009 C 
ENDROOT
BRANCH   1   8
ATOM      8  C   UNL     1      44.842 129.596  21.815  1.00  0.00    -0.027 C 
ATOM      9  C   UNL     1      44.783 129.123  23.063  1.00  0.00     0.004 C 
ENDBRANCH   1   8
BRANCH   5  10
ATOM     10  C   UNL     1      45.217 131.628  17.836  1.00  0.00    -0.041 A 
ATOM     11  C   UNL     1      45.342 132.414  16.680  1.00  0.00     0.005 A 
ATOM     12  C   UNL     1      45.690 130.305  17.813  1.00  0.00     0.005 A 
ATOM     13  C   UNL     1      45.942 131.896  15.530  1.00  0.00     0.012 A 
ATOM     14  C   UNL     1      46.293 129.785  16.664  1.00  0.00     0.012 A 
ATOM     15  C   UNL     1      46.428 130.575  15.506  1.00  0.00     0.017 A 
BRANCH  15  16
ATOM     16  C   UNL     1      47.067 130.039  14.274  1.00  0.00     0.159 C 
ATOM     17  C   UNL     1      47.265 130.884  13.052  1.00  0.00     0.093 C 
ATOM     18  O   UNL     1      47.457 128.840  14.242  1.00  0.00    -0.295 OA
ENDBRANCH  15  16
ENDBRANCH   5  10
TORSDOF 3
ENDMDL
MODEL 3
REMARK VINA RESULT:      -6.9      2.234      3.893
REMARK SMILES C=C[C@@H]1CCC[C@H](c2ccc(C(C)=O)cc2)C1=C
REMARK SMILES IDX 3 1 4 2 5 3 6 4 7 5 17 6 18 7 2 8 1 9 8 10 9 11 16 12 10 13
REMARK SMILES IDX 15 14 11 15 12 16 13 17 14 18
REMARK H PARENT
ROOT
ATOM      1  C   UNL     1      43.007 128.986  23.932  1.00  0.00     0.037 C 
ATOM      2  C   UNL     1      42.148 130.155  24.456  1.00  0.00     0.012 C 
ATOM      3  C   UNL     1      42.964 131.431  24.625  1.00  0.00     0.002 C 
ATOM      4  C   UNL     1      43.451 131.889  23.255  1.00  0.00     0.013 C 
ATOM      5  C   UNL     1      44.410 130.864  22.613  1.00  0.00     0.045 C 
ATOM      6  C   UNL     1      44.111 129.403  22.959  1.00  0.00    -0.063 C 
ATOM      7  C   UNL     1      44.961 128.457  22.516  1.00  0.00     0.009 C 
ENDROOT
BRANCH   1   8
ATOM      8  C   UNL     1      42.110 127.942  23.305  1.00  0.00    -0.027 C 
ATOM      9  C   UNL     1      40.920 127.636  23.830  1.00  0.00     0.004 C 
ENDBRANCH   1   8
BRANCH   5  10
ATOM     10  C   UNL     1      44.451 131.074  21.111  1.00  0.00    -0.041 A 
ATOM     11  C   UNL     1      43.329 131.575  20.434  1.00  0.00     0.005 A 
ATOM     12  C   UNL     1      45.598 130.739  20.372  1.00  0.00     0.005 A 
ATOM     13  C   UNL     1      43.357 131.755  19.048  1.00  0.00     0.012 A 
ATOM     14  C   UNL     1      45.629 130.920  18.986  1.00  0.00     0.012 A 
ATOM     15  C   UNL     1      44.508 131.432  18.305  1.00  0.00     0.017 A 
BRANCH  15  16
ATOM     16  C   UNL     1      44.522 131.632  16.831  1.00  0.00     0.159 C 
ATOM     17  C   UNL     1      45.801 131.678  16.050  1.00  0.00     0.093 C 
ATOM     18  O   UNL     1      43.435 131.768  16.207  1.00  0.00    -0.295 OA
ENDBRANCH  15  16
ENDBRANCH   5  10
TORSDOF 3
ENDMDL
MODEL 4
REMARK VINA RESULT:      -6.9      2.267      3.813
REMARK SMILES C=C[C@@H]1CCC[C@H](c2ccc(C(C)=O)cc2)C1=C
REMARK SMILES IDX 3 1 4 2 5 3 6 4 7 5 17 6 18 7 2 8 1 9 8 10 9 11 16 12 10 13
REMARK SMILES IDX 15 14 11 15 12 16 13 17 14 18
REMARK H PARENT
ROOT
ATOM      1  C   UNL     1      42.937 129.187  24.043  1.00  0.00     0.037 C 
ATOM      2  C   UNL     1      42.125 130.412  24.513  1.00  0.00     0.012 C 
ATOM      3  C   UNL     1      42.991 131.661  24.624  1.00  0.00     0.002 C 
ATOM      4  C   UNL     1      43.493 132.037  23.236  1.00  0.00     0.013 C 
ATOM      5  C   UNL     1      44.410 130.947  22.641  1.00  0.00     0.045 C 
ATOM      6  C   UNL     1      44.055 129.516  23.052  1.00  0.00    -0.063 C 
ATOM      7  C   UNL     1      44.867 128.519  22.653  1.00  0.00     0.009 C 
ENDROOT
BRANCH   1   8
ATOM      8  C   UNL     1      41.998 128.152  23.463  1.00  0.00    -0.027 C 
ATOM      9  C   UNL     1      40.745 128.019  23.906  1.00  0.00     0.004 C 
ENDBRANCH   1   8
BRANCH   5  10
ATOM     10  C   UNL     1      44.457 131.087  21.131  1.00  0.00    -0.041 A 
ATOM     11  C   UNL     1      45.622 130.754  20.423  1.00  0.00     0.005 A 
ATOM     12  C   UNL     1      43.348 131.583  20.422  1.00  0.00     0.005 A 
ATOM     13  C   UNL     1      45.674 130.896  19.034  1.00  0.00     0.012 A 
ATOM     14  C   UNL     1      43.399 131.724  19.033  1.00  0.00     0.012 A 
ATOM     15  C   UNL     1      44.563 131.381  18.319  1.00  0.00     0.017 A 
BRANCH  15  16
ATOM     16  C   UNL     1      44.634 131.525  16.840  1.00  0.00     0.159 C 
ATOM     17  C   UNL     1      45.918 131.342  16.087  1.00  0.00     0.093 C 
ATOM     18  O   UNL     1      43.593 131.808  16.187  1.00  0.00    -0.295 OA
ENDBRANCH  15  16
ENDBRANCH   5  10
TORSDOF 3
ENDMDL
MODEL 5
REMARK VINA RESULT:      -6.9      1.634      2.076
REMARK SMILES C=C[C@@H]1CCC[C@H](c2ccc(C(C)=O)cc2)C1=C
REMARK SMILES IDX 3 1 4 2 5 3 6 4 7 5 17 6 18 7 2 8 1 9 8 10 9 11 16 12 10 13
REMARK SMILES IDX 15 14 11 15 12 16 13 17 14 18
REMARK H PARENT
ROOT
ATOM      1  C   UNL     1      44.500 130.414  22.323  1.00  0.00     0.037 C 
ATOM      2  C   UNL     1      42.981 130.482  22.588  1.00  0.00     0.012 C 
ATOM      3  C   UNL     1      42.406 131.854  22.256  1.00  0.00     0.002 C 
ATOM      4  C   UNL     1      42.553 132.101  20.760  1.00  0.00     0.013 C 
ATOM      5  C   UNL     1      44.034 132.156  20.327  1.00  0.00     0.045 C 
ATOM      6  C   UNL     1      44.969 131.247  21.130  1.00  0.00    -0.063 C 
ATOM      7  C   UNL     1      46.290 131.312  20.877  1.00  0.00     0.009 C 
ENDROOT
BRANCH   1   8
ATOM      8  C   UNL     1      44.920 128.970  22.164  1.00  0.00    -0.027 C 
ATOM      9  C   UNL     1      44.649 128.055  23.099  1.00  0.00     0.004 C 
ENDBRANCH   1   8
BRANCH   5  10
ATOM     10  C   UNL     1      44.142 131.877  18.840  1.00  0.00    -0.041 A 
ATOM     11  C   UNL     1      45.395 131.648  18.251  1.00  0.00     0.005 A 
ATOM     12  C   UNL     1      42.996 131.876  18.026  1.00  0.00     0.005 A 
ATOM     13  C   UNL     1      45.500 131.406  16.878  1.00  0.00     0.012 A 
ATOM     14  C   UNL     1      43.100 131.632  16.653  1.00  0.00     0.012 A 
ATOM     15  C   UNL     1      44.355 131.393  16.061  1.00  0.00     0.017 A 
BRANCH  15  16
ATOM     16  C   UNL     1      44.484 131.132  14.602  1.00  0.00     0.159 C 
ATOM     17  C   UNL     1      45.783 130.705  13.985  1.00  0.00     0.093 C 
ATOM     18  O   UNL     1      43.481 131.269  13.849  1.00  0.00    -0.295 OA
ENDBRANCH  15  16
ENDBRANCH   5  10
TORSDOF 3
ENDMDL
MODEL 6
REMARK VINA RESULT:      -6.7      1.056      1.502
REMARK SMILES C=C[C@@H]1CCC[C@H](c2ccc(C(C)=O)cc2)C1=C
REMARK SMILES IDX 3 1 4 2 5 3 6 4 7 5 17 6 18 7 2 8 1 9 8 10 9 11 16 12 10 13
REMARK SMILES IDX 15 14 11 15 12 16 13 17 14 18
REMARK H PARENT
ROOT
ATOM      1  C   UNL     1      44.194 131.147  22.327  1.00  0.00     0.037 C 
ATOM      2  C   UNL     1      42.655 131.093  22.235  1.00  0.00     0.012 C 
ATOM      3  C   UNL     1      42.091 132.262  21.436  1.00  0.00     0.002 C 
ATOM      4  C   UNL     1      42.573 132.151  19.994  1.00  0.00     0.013 C 
ATOM      5  C   UNL     1      44.108 132.276  19.888  1.00  0.00     0.045 C 
ATOM      6  C   UNL     1      44.880 131.712  21.084  1.00  0.00    -0.063 C 
ATOM      7  C   UNL     1      46.217 131.872  21.110  1.00  0.00     0.009 C 
ENDROOT
BRANCH   1   8
ATOM      8  C   UNL     1      44.728 129.769  22.651  1.00  0.00    -0.027 C 
ATOM      9  C   UNL     1      44.092 128.953  23.497  1.00  0.00     0.004 C 
ENDBRANCH   1   8
BRANCH   5  10
ATOM     10  C   UNL     1      44.583 131.657  18.587  1.00  0.00    -0.041 A 
ATOM     11  C   UNL     1      43.889 131.898  17.392  1.00  0.00     0.005 A 
ATOM     12  C   UNL     1      45.702 130.807  18.565  1.00  0.00     0.005 A 
ATOM     13  C   UNL     1      44.314 131.318  16.194  1.00  0.00     0.012 A 
ATOM     14  C   UNL     1      46.130 130.227  17.368  1.00  0.00     0.012 A 
ATOM     15  C   UNL     1      45.441 130.475  16.165  1.00  0.00     0.017 A 
BRANCH  15  16
ATOM     16  C   UNL     1      45.882 129.866  14.881  1.00  0.00     0.159 C 
ATOM     17  C   UNL     1      46.462 130.689  13.771  1.00  0.00     0.093 C 
ATOM     18  O   UNL     1      45.770 128.621  14.707  1.00  0.00    -0.295 OA
ENDBRANCH  15  16
ENDBRANCH   5  10
TORSDOF 3
ENDMDL
MODEL 7
REMARK VINA RESULT:      -6.3      1.606      2.246
REMARK SMILES C=C[C@@H]1CCC[C@H](c2ccc(C(C)=O)cc2)C1=C
REMARK SMILES IDX 3 1 4 2 5 3 6 4 7 5 17 6 18 7 2 8 1 9 8 10 9 11 16 12 10 13
REMARK SMILES IDX 15 14 11 15 12 16 13 17 14 18
REMARK H PARENT
ROOT
ATOM      1  C   UNL     1      44.631 130.082  22.331  1.00  0.00     0.037 C 
ATOM      2  C   UNL     1      43.119 130.142  22.628  1.00  0.00     0.012 C 
ATOM      3  C   UNL     1      42.545 131.533  22.386  1.00  0.00     0.002 C 
ATOM      4  C   UNL     1      42.665 131.864  20.903  1.00  0.00     0.013 C 
ATOM      5  C   UNL     1      44.137 131.936  20.446  1.00  0.00     0.045 C 
ATOM      6  C   UNL     1      45.083 130.979  21.178  1.00  0.00    -0.063 C 
ATOM      7  C   UNL     1      46.399 131.052  20.904  1.00  0.00     0.009 C 
ENDROOT
BRANCH   1   8
ATOM      8  C   UNL     1      45.040 128.647  22.082  1.00  0.00    -0.027 C 
ATOM      9  C   UNL     1      44.590 127.649  22.847  1.00  0.00     0.004 C 
ENDBRANCH   1   8
BRANCH   5  10
ATOM     10  C   UNL     1      44.216 131.742  18.944  1.00  0.00    -0.041 A 
ATOM     11  C   UNL     1      43.085 131.953  18.141  1.00  0.00     0.005 A 
ATOM     12  C   UNL     1      45.411 131.315  18.338  1.00  0.00     0.005 A 
ATOM     13  C   UNL     1      43.150 131.760  16.758  1.00  0.00     0.012 A 
ATOM     14  C   UNL     1      45.478 131.124  16.955  1.00  0.00     0.012 A 
ATOM     15  C   UNL     1      44.347 131.345  16.146  1.00  0.00     0.017 A 
BRANCH  15  16
ATOM     16  C   UNL     1      44.399 131.146  14.672  1.00  0.00     0.159 C 
ATOM     17  C   UNL     1      43.222 131.438  13.791  1.00  0.00     0.093 C 
ATOM     18  O   UNL     1      45.458 130.720  14.135  1.00  0.00    -0.295 OA
ENDBRANCH  15  16
ENDBRANCH   5  10
TORSDOF 3
ENDMDL


