MODEL 1
REMARK VINA RESULT:      -7.8      0.000      0.000
REMARK SMILES C=C1CC[C@@H]([NH2+]c2cccc(N=C=S)c2O)C[C@H]1F
REMARK SMILES IDX 15 1 11 2 10 3 9 4 8 5 7 6 16 7 12 9 13 10 14 11 6 12 5 15
REMARK SMILES IDX 4 16 17 17 3 18 18 19 2 20 19 21 1 22
REMARK H PARENT 16 8 6 13 6 14
ROOT
ATOM      1  C   UNL     1      43.457 131.608  19.478  1.00  0.00     0.204 A 
ATOM      2  C   UNL     1      43.708 131.659  20.865  1.00  0.00     0.122 A 
ATOM      3  C   UNL     1      44.972 131.271  21.352  1.00  0.00     0.033 A 
ATOM      4  C   UNL     1      45.966 130.842  20.474  1.00  0.00     0.009 A 
ATOM      5  C   UNL     1      45.717 130.792  19.104  1.00  0.00     0.072 A 
ATOM      6  C   UNL     1      44.467 131.172  18.589  1.00  0.00     0.174 A 
ENDROOT
BRANCH   1   7
ATOM      7  O   UNL     1      42.210 131.981  18.969  1.00  0.00    -0.501 OA
ATOM      8  H   UNL     1      41.958 132.946  18.793  1.00  0.00     0.293 HD
ENDBRANCH   1   7
BRANCH   2   9
ATOM      9  N   UNL     1      42.665 132.103  21.751  1.00  0.00    -0.191 NA
BRANCH   9  10
ATOM     10  C   UNL     1      42.664 131.902  23.009  1.00  0.00     0.064 C 
ATOM     11  S   UNL     1      42.660 131.650  24.601  1.00  0.00    -0.006 S 
ENDBRANCH   9  10
ENDBRANCH   2   9
BRANCH   6  12
ATOM     12  N   UNL     1      44.228 131.099  17.164  1.00  0.00    -0.308 N 
ATOM     13  H   UNL     1      43.670 130.249  16.916  1.00  0.00     0.352 HD
ATOM     14  H   UNL     1      43.644 131.926  16.894  1.00  0.00     0.352 HD
BRANCH  12  15
ATOM     15  C   UNL     1      45.492 131.120  16.392  1.00  0.00     0.191 C 
ATOM     16  C   UNL     1      45.418 132.207  15.298  1.00  0.00     0.070 C 
ATOM     17  C   UNL     1      45.776 129.746  15.736  1.00  0.00     0.107 C 
ATOM     18  C   UNL     1      46.719 132.287  14.491  1.00  0.00     0.039 C 
ATOM     19  C   UNL     1      47.082 129.758  14.928  1.00  0.00     0.198 C 
ATOM     20  C   UNL     1      47.109 130.927  13.965  1.00  0.00    -0.043 C 
ATOM     21  F   UNL     1      47.202 128.548  14.263  1.00  0.00    -0.242 F 
ATOM     22  C   UNL     1      47.650 130.810  12.741  1.00  0.00     0.011 C 
ENDBRANCH  12  15
ENDBRANCH   6  12
TORSDOF 5
ENDMDL
MODEL 2
REMARK VINA RESULT:      -7.6      1.213      1.729
REMARK SMILES C=C1CC[C@@H]([NH2+]c2cccc(N=C=S)c2O)C[C@H]1F
REMARK SMILES IDX 15 1 11 2 10 3 9 4 8 5 7 6 16 7 12 9 13 10 14 11 6 12 5 15
REMARK SMILES IDX 4 16 17 17 3 18 18 19 2 20 19 21 1 22
REMARK H PARENT 16 8 6 13 6 14
ROOT
ATOM      1  C   UNL     1      43.357 131.900  19.065  1.00  0.00     0.204 A 
ATOM      2  C   UNL     1      43.805 131.560  20.358  1.00  0.00     0.122 A 
ATOM      3  C   UNL     1      45.084 130.989  20.516  1.00  0.00     0.033 A 
ATOM      4  C   UNL     1      45.898 130.763  19.408  1.00  0.00     0.009 A 
ATOM      5  C   UNL     1      45.454 131.099  18.131  1.00  0.00     0.072 A 
ATOM      6  C   UNL     1      44.184 131.670  17.941  1.00  0.00     0.174 A 
ENDROOT
BRANCH   1   7
ATOM      7  O   UNL     1      42.090 132.462  18.878  1.00  0.00    -0.501 OA
ATOM      8  H   UNL     1      41.292 132.214  19.451  1.00  0.00     0.293 HD
ENDBRANCH   1   7
BRANCH   2   9
ATOM      9  N   UNL     1      42.945 131.801  21.486  1.00  0.00    -0.191 NA
BRANCH   9  10
ATOM     10  C   UNL     1      42.998 131.145  22.576  1.00  0.00     0.064 C 
ATOM     11  S   UNL     1      43.062 130.314  23.956  1.00  0.00    -0.006 S 
ENDBRANCH   9  10
ENDBRANCH   2   9
BRANCH   6  12
ATOM     12  N   UNL     1      43.741 131.999  16.604  1.00  0.00    -0.308 N 
ATOM     13  H   UNL     1      42.709 131.854  16.501  1.00  0.00     0.352 HD
ATOM     14  H   UNL     1      43.913 133.021  16.452  1.00  0.00     0.352 HD
BRANCH  12  15
ATOM     15  C   UNL     1      44.469 131.222  15.575  1.00  0.00     0.191 C 
ATOM     16  C   UNL     1      44.929 129.872  16.167  1.00  0.00     0.070 C 
ATOM     17  C   UNL     1      45.700 131.999  15.046  1.00  0.00     0.107 C 
ATOM     18  C   UNL     1      45.662 129.018  15.127  1.00  0.00     0.039 C 
ATOM     19  C   UNL     1      46.465 131.201  13.982  1.00  0.00     0.198 C 
ATOM     20  C   UNL     1      46.776 129.804  14.477  1.00  0.00    -0.043 C 
ATOM     21  F   UNL     1      47.621 131.893  13.655  1.00  0.00    -0.242 F 
ATOM     22  C   UNL     1      47.937 129.198  14.175  1.00  0.00     0.011 C 
ENDBRANCH  12  15
ENDBRANCH   6  12
TORSDOF 5
ENDMDL
MODEL 3
REMARK VINA RESULT:      -7.0      1.743      2.466
REMARK SMILES C=C1CC[C@@H]([NH2+]c2cccc(N=C=S)c2O)C[C@H]1F
REMARK SMILES IDX 15 1 11 2 10 3 9 4 8 5 7 6 16 7 12 9 13 10 14 11 6 12 5 15
REMARK SMILES IDX 4 16 17 17 3 18 18 19 2 20 19 21 1 22
REMARK H PARENT 16 8 6 13 6 14
ROOT
ATOM      1  C   UNL     1      44.575 131.820  19.760  1.00  0.00     0.204 A 
ATOM      2  C   UNL     1      43.585 131.415  20.680  1.00  0.00     0.122 A 
ATOM      3  C   UNL     1      42.246 131.315  20.252  1.00  0.00     0.033 A 
ATOM      4  C   UNL     1      41.901 131.612  18.935  1.00  0.00     0.009 A 
ATOM      5  C   UNL     1      42.880 132.012  18.027  1.00  0.00     0.072 A 
ATOM      6  C   UNL     1      44.223 132.121  18.424  1.00  0.00     0.174 A 
ENDROOT
BRANCH   1   7
ATOM      7  O   UNL     1      45.910 131.934  20.159  1.00  0.00    -0.501 OA
ATOM      8  H   UNL     1      46.397 132.822  20.192  1.00  0.00     0.293 HD
ENDBRANCH   1   7
BRANCH   2   9
ATOM      9  N   UNL     1      43.965 131.117  22.035  1.00  0.00    -0.191 NA
BRANCH   9  10
ATOM     10  C   UNL     1      43.295 130.367  22.816  1.00  0.00     0.064 C 
ATOM     11  S   UNL     1      42.444 129.418  23.803  1.00  0.00    -0.006 S 
ENDBRANCH   9  10
ENDBRANCH   2   9
BRANCH   6  12
ATOM     12  N   UNL     1      45.219 132.551  17.466  1.00  0.00    -0.308 N 
ATOM     13  H   UNL     1      44.985 133.493  17.075  1.00  0.00     0.352 HD
ATOM     14  H   UNL     1      46.128 132.658  17.976  1.00  0.00     0.352 HD
BRANCH  12  15
ATOM     15  C   UNL     1      45.387 131.571  16.369  1.00  0.00     0.191 C 
ATOM     16  C   UNL     1      46.047 130.285  16.912  1.00  0.00     0.070 C 
ATOM     17  C   UNL     1      46.253 132.150  15.222  1.00  0.00     0.107 C 
ATOM     18  C   UNL     1      46.214 129.227  15.816  1.00  0.00     0.039 C 
ATOM     19  C   UNL     1      46.438 131.140  14.081  1.00  0.00     0.198 C 
ATOM     20  C   UNL     1      46.920 129.807  14.614  1.00  0.00    -0.043 C 
ATOM     21  F   UNL     1      47.327 131.671  13.160  1.00  0.00    -0.242 F 
ATOM     22  C   UNL     1      47.807 129.062  13.933  1.00  0.00     0.011 C 
ENDBRANCH  12  15
ENDBRANCH   6  12
TORSDOF 5
ENDMDL
MODEL 4
REMARK VINA RESULT:      -6.9      1.108      1.556
REMARK SMILES C=C1CC[C@@H]([NH2+]c2cccc(N=C=S)c2O)C[C@H]1F
REMARK SMILES IDX 15 1 11 2 10 3 9 4 8 5 7 6 16 7 12 9 13 10 14 11 6 12 5 15
REMARK SMILES IDX 4 16 17 17 3 18 18 19 2 20 19 21 1 22
REMARK H PARENT 16 8 6 13 6 14
ROOT
ATOM      1  C   UNL     1      43.657 131.840  19.602  1.00  0.00     0.204 A 
ATOM      2  C   UNL     1      43.746 131.327  20.913  1.00  0.00     0.122 A 
ATOM      3  C   UNL     1      44.873 130.565  21.281  1.00  0.00     0.033 A 
ATOM      4  C   UNL     1      45.890 130.319  20.360  1.00  0.00     0.009 A 
ATOM      5  C   UNL     1      45.802 130.825  19.065  1.00  0.00     0.072 A 
ATOM      6  C   UNL     1      44.691 131.589  18.670  1.00  0.00     0.174 A 
ENDROOT
BRANCH   1   7
ATOM      7  O   UNL     1      42.549 132.594  19.209  1.00  0.00    -0.501 OA
ATOM      8  H   UNL     1      41.832 132.893  19.860  1.00  0.00     0.293 HD
ENDBRANCH   1   7
BRANCH   2   9
ATOM      9  N   UNL     1      42.682 131.593  21.845  1.00  0.00    -0.191 NA
BRANCH   9  10
ATOM     10  C   UNL     1      42.864 131.887  23.070  1.00  0.00     0.064 C 
ATOM     11  S   UNL     1      43.091 132.259  24.622  1.00  0.00    -0.006 S 
ENDBRANCH   9  10
ENDBRANCH   2   9
BRANCH   6  12
ATOM     12  N   UNL     1      44.616 132.093  17.315  1.00  0.00    -0.308 N 
ATOM     13  H   UNL     1      43.648 132.421  17.086  1.00  0.00     0.352 HD
ATOM     14  H   UNL     1      45.236 132.935  17.252  1.00  0.00     0.352 HD
BRANCH  12  15
ATOM     15  C   UNL     1      45.059 131.085  16.327  1.00  0.00     0.191 C 
ATOM     16  C   UNL     1      46.254 130.287  16.893  1.00  0.00     0.070 C 
ATOM     17  C   UNL     1      45.469 131.747  14.988  1.00  0.00     0.107 C 
ATOM     18  C   UNL     1      46.729 129.207  15.914  1.00  0.00     0.039 C 
ATOM     19  C   UNL     1      45.935 130.710  13.957  1.00  0.00     0.198 C 
ATOM     20  C   UNL     1      46.989 129.798  14.549  1.00  0.00    -0.043 C 
ATOM     21  F   UNL     1      46.412 131.379  12.840  1.00  0.00    -0.242 F 
ATOM     22  C   UNL     1      48.027 129.360  13.816  1.00  0.00     0.011 C 
ENDBRANCH  12  15
ENDBRANCH   6  12
TORSDOF 5
ENDMDL
MODEL 5
REMARK VINA RESULT:      -6.7      1.921      2.653
REMARK SMILES C=C1CC[C@@H]([NH2+]c2cccc(N=C=S)c2O)C[C@H]1F
REMARK SMILES IDX 15 1 11 2 10 3 9 4 8 5 7 6 16 7 12 9 13 10 14 11 6 12 5 15
REMARK SMILES IDX 4 16 17 17 3 18 18 19 2 20 19 21 1 22
REMARK H PARENT 16 8 6 13 6 14
ROOT
ATOM      1  C   UNL     1      44.188 131.213  21.089  1.00  0.00     0.204 A 
ATOM      2  C   UNL     1      43.080 131.783  21.748  1.00  0.00     0.122 A 
ATOM      3  C   UNL     1      42.085 132.430  20.988  1.00  0.00     0.033 A 
ATOM      4  C   UNL     1      42.193 132.507  19.601  1.00  0.00     0.009 A 
ATOM      5  C   UNL     1      43.289 131.943  18.951  1.00  0.00     0.072 A 
ATOM      6  C   UNL     1      44.297 131.291  19.682  1.00  0.00     0.174 A 
ENDROOT
BRANCH   1   7
ATOM      7  O   UNL     1      45.193 130.570  21.818  1.00  0.00    -0.501 OA
ATOM      8  H   UNL     1      46.123 130.415  21.448  1.00  0.00     0.293 HD
ENDBRANCH   1   7
BRANCH   2   9
ATOM      9  N   UNL     1      42.991 131.693  23.181  1.00  0.00    -0.191 NA
BRANCH   9  10
ATOM     10  C   UNL     1      42.613 130.652  23.809  1.00  0.00     0.064 C 
ATOM     11  S   UNL     1      42.133 129.333  24.602  1.00  0.00    -0.006 S 
ENDBRANCH   9  10
ENDBRANCH   2   9
BRANCH   6  12
ATOM     12  N   UNL     1      45.432 130.725  18.985  1.00  0.00    -0.308 N 
ATOM     13  H   UNL     1      46.316 131.228  19.230  1.00  0.00     0.352 HD
ATOM     14  H   UNL     1      45.551 129.738  19.317  1.00  0.00     0.352 HD
BRANCH  12  15
ATOM     15  C   UNL     1      45.235 130.726  17.518  1.00  0.00     0.191 C 
ATOM     16  C   UNL     1      45.786 129.416  16.915  1.00  0.00     0.070 C 
ATOM     17  C   UNL     1      45.937 131.936  16.854  1.00  0.00     0.107 C 
ATOM     18  C   UNL     1      45.576 129.358  15.397  1.00  0.00     0.039 C 
ATOM     19  C   UNL     1      45.743 131.944  15.331  1.00  0.00     0.198 C 
ATOM     20  C   UNL     1      46.114 130.603  14.734  1.00  0.00    -0.043 C 
ATOM     21  F   UNL     1      46.506 132.969  14.794  1.00  0.00    -0.242 F 
ATOM     22  C   UNL     1      46.730 130.516  13.542  1.00  0.00     0.011 C 
ENDBRANCH  12  15
ENDBRANCH   6  12
TORSDOF 5
ENDMDL
MODEL 6
REMARK VINA RESULT:      -6.6      4.284      7.450
REMARK SMILES C=C1CC[C@@H]([NH2+]c2cccc(N=C=S)c2O)C[C@H]1F
REMARK SMILES IDX 15 1 11 2 10 3 9 4 8 5 7 6 16 7 12 9 13 10 14 11 6 12 5 15
REMARK SMILES IDX 4 16 17 17 3 18 18 19 2 20 19 21 1 22
REMARK H PARENT 16 8 6 13 6 14
ROOT
ATOM      1  C   UNL     1      45.912 130.350  16.720  1.00  0.00     0.204 A 
ATOM      2  C   UNL     1      45.392 130.418  15.410  1.00  0.00     0.122 A 
ATOM      3  C   UNL     1      44.187 131.111  15.182  1.00  0.00     0.033 A 
ATOM      4  C   UNL     1      43.514 131.724  16.237  1.00  0.00     0.009 A 
ATOM      5  C   UNL     1      44.028 131.657  17.531  1.00  0.00     0.072 A 
ATOM      6  C   UNL     1      45.228 130.973  17.789  1.00  0.00     0.174 A 
ENDROOT
BRANCH   1   7
ATOM      7  O   UNL     1      47.103 129.665  16.976  1.00  0.00    -0.501 OA
ATOM      8  H   UNL     1      47.200 129.002  17.736  1.00  0.00     0.293 HD
ENDBRANCH   1   7
BRANCH   2   9
ATOM      9  N   UNL     1      46.104 129.775  14.338  1.00  0.00    -0.191 NA
BRANCH   9  10
ATOM     10  C   UNL     1      46.943 130.366  13.583  1.00  0.00     0.064 C 
ATOM     11  S   UNL     1      48.006 131.112  12.629  1.00  0.00    -0.006 S 
ENDBRANCH   9  10
ENDBRANCH   2   9
BRANCH   6  12
ATOM     12  N   UNL     1      45.735 130.906  19.143  1.00  0.00    -0.308 N 
ATOM     13  H   UNL     1      46.438 130.137  19.246  1.00  0.00     0.352 HD
ATOM     14  H   UNL     1      46.244 131.801  19.339  1.00  0.00     0.352 HD
BRANCH  12  15
ATOM     15  C   UNL     1      44.646 130.737  20.131  1.00  0.00     0.191 C 
ATOM     16  C   UNL     1      43.922 132.083  20.348  1.00  0.00     0.070 C 
ATOM     17  C   UNL     1      45.187 130.218  21.486  1.00  0.00     0.107 C 
ATOM     18  C   UNL     1      42.763 131.950  21.343  1.00  0.00     0.039 C 
ATOM     19  C   UNL     1      44.066 130.043  22.520  1.00  0.00     0.198 C 
ATOM     20  C   UNL     1      43.229 131.301  22.624  1.00  0.00    -0.043 C 
ATOM     21  F   UNL     1      44.637 129.710  23.739  1.00  0.00    -0.242 F 
ATOM     22  C   UNL     1      42.741 131.719  23.804  1.00  0.00     0.011 C 
ENDBRANCH  12  15
ENDBRANCH   6  12
TORSDOF 5
ENDMDL
MODEL 7
REMARK VINA RESULT:      -6.3      1.375      1.651
REMARK SMILES C=C1CC[C@@H]([NH2+]c2cccc(N=C=S)c2O)C[C@H]1F
REMARK SMILES IDX 15 1 11 2 10 3 9 4 8 5 7 6 16 7 12 9 13 10 14 11 6 12 5 15
REMARK SMILES IDX 4 16 17 17 3 18 18 19 2 20 19 21 1 22
REMARK H PARENT 16 8 6 13 6 14
ROOT
ATOM      1  C   UNL     1      43.535 131.858  20.105  1.00  0.00     0.204 A 
ATOM      2  C   UNL     1      43.879 131.381  21.388  1.00  0.00     0.122 A 
ATOM      3  C   UNL     1      45.003 130.544  21.533  1.00  0.00     0.033 A 
ATOM      4  C   UNL     1      45.768 130.189  20.424  1.00  0.00     0.009 A 
ATOM      5  C   UNL     1      45.428 130.660  19.157  1.00  0.00     0.072 A 
ATOM      6  C   UNL     1      44.313 131.498  18.981  1.00  0.00     0.174 A 
ENDROOT
BRANCH   1   7
ATOM      7  O   UNL     1      42.423 132.686  19.931  1.00  0.00    -0.501 OA
ATOM      8  H   UNL     1      41.503 132.325  19.703  1.00  0.00     0.293 HD
ENDBRANCH   1   7
BRANCH   2   9
ATOM      9  N   UNL     1      43.073 131.760  22.517  1.00  0.00    -0.191 NA
BRANCH   9  10
ATOM     10  C   UNL     1      42.729 130.962  23.448  1.00  0.00     0.064 C 
ATOM     11  S   UNL     1      42.293 129.950  24.625  1.00  0.00    -0.006 S 
ENDBRANCH   9  10
ENDBRANCH   2   9
BRANCH   6  12
ATOM     12  N   UNL     1      43.972 131.963  17.654  1.00  0.00    -0.308 N 
ATOM     13  H   UNL     1      42.935 132.020  17.527  1.00  0.00     0.352 HD
ATOM     14  H   UNL     1      44.336 132.941  17.555  1.00  0.00     0.352 HD
BRANCH  12  15
ATOM     15  C   UNL     1      44.568 131.111  16.600  1.00  0.00     0.191 C 
ATOM     16  C   UNL     1      46.103 131.069  16.768  1.00  0.00     0.070 C 
ATOM     17  C   UNL     1      44.218 131.633  15.185  1.00  0.00     0.107 C 
ATOM     18  C   UNL     1      46.763 130.171  15.715  1.00  0.00     0.039 C 
ATOM     19  C   UNL     1      44.835 130.758  14.085  1.00  0.00     0.198 C 
ATOM     20  C   UNL     1      46.317 130.556  14.326  1.00  0.00    -0.043 C 
ATOM     21  F   UNL     1      44.596 131.357  12.858  1.00  0.00    -0.242 F 
ATOM     22  C   UNL     1      47.191 130.520  13.306  1.00  0.00     0.011 C 
ENDBRANCH  12  15
ENDBRANCH   6  12
TORSDOF 5
ENDMDL
MODEL 8
REMARK VINA RESULT:      -6.2      1.632      2.195
REMARK SMILES C=C1CC[C@@H]([NH2+]c2cccc(N=C=S)c2O)C[C@H]1F
REMARK SMILES IDX 15 1 11 2 10 3 9 4 8 5 7 6 16 7 12 9 13 10 14 11 6 12 5 15
REMARK SMILES IDX 4 16 17 17 3 18 18 19 2 20 19 21 1 22
REMARK H PARENT 16 8 6 13 6 14
ROOT
ATOM      1  C   UNL     1      44.097 131.410  18.959  1.00  0.00     0.204 A 
ATOM      2  C   UNL     1      43.882 131.574  20.343  1.00  0.00     0.122 A 
ATOM      3  C   UNL     1      42.694 132.187  20.788  1.00  0.00     0.033 A 
ATOM      4  C   UNL     1      41.740 132.628  19.873  1.00  0.00     0.009 A 
ATOM      5  C   UNL     1      41.953 132.466  18.505  1.00  0.00     0.072 A 
ATOM      6  C   UNL     1      43.128 131.858  18.031  1.00  0.00     0.174 A 
ENDROOT
BRANCH   1   7
ATOM      7  O   UNL     1      45.268 130.810  18.489  1.00  0.00    -0.501 OA
ATOM      8  H   UNL     1      45.771 131.153  17.678  1.00  0.00     0.293 HD
ENDBRANCH   1   7
BRANCH   2   9
ATOM      9  N   UNL     1      44.882 131.112  21.268  1.00  0.00    -0.191 NA
BRANCH   9  10
ATOM     10  C   UNL     1      44.665 130.254  22.184  1.00  0.00     0.064 C 
ATOM     11  S   UNL     1      44.394 129.168  23.344  1.00  0.00    -0.006 S 
ENDBRANCH   9  10
ENDBRANCH   2   9
BRANCH   6  12
ATOM     12  N   UNL     1      43.332 131.713  16.606  1.00  0.00    -0.308 N 
ATOM     13  H   UNL     1      42.658 131.027  16.194  1.00  0.00     0.352 HD
ATOM     14  H   UNL     1      43.125 132.637  16.158  1.00  0.00     0.352 HD
BRANCH  12  15
ATOM     15  C   UNL     1      44.722 131.315  16.286  1.00  0.00     0.191 C 
ATOM     16  C   UNL     1      45.316 132.284  15.240  1.00  0.00     0.070 C 
ATOM     17  C   UNL     1      44.785 129.867  15.742  1.00  0.00     0.107 C 
ATOM     18  C   UNL     1      46.768 131.930  14.899  1.00  0.00     0.039 C 
ATOM     19  C   UNL     1      46.221 129.446  15.402  1.00  0.00     0.198 C 
ATOM     20  C   UNL     1      46.888 130.475  14.513  1.00  0.00    -0.043 C 
ATOM     21  F   UNL     1      46.186 128.199  14.798  1.00  0.00    -0.242 F 
ATOM     22  C   UNL     1      47.727 130.110  13.530  1.00  0.00     0.011 C 
ENDBRANCH  12  15
ENDBRANCH   6  12
TORSDOF 5
ENDMDL
MODEL 9
REMARK VINA RESULT:      -6.2      4.197      7.321
REMARK SMILES C=C1CC[C@@H]([NH2+]c2cccc(N=C=S)c2O)C[C@H]1F
REMARK SMILES IDX 15 1 11 2 10 3 9 4 8 5 7 6 16 7 12 9 13 10 14 11 6 12 5 15
REMARK SMILES IDX 4 16 17 17 3 18 18 19 2 20 19 21 1 22
REMARK H PARENT 16 8 6 13 6 14
ROOT
ATOM      1  C   UNL     1      45.747 130.379  17.133  1.00  0.00     0.204 A 
ATOM      2  C   UNL     1      45.059 130.470  15.905  1.00  0.00     0.122 A 
ATOM      3  C   UNL     1      43.854 131.198  15.843  1.00  0.00     0.033 A 
ATOM      4  C   UNL     1      43.345 131.821  16.981  1.00  0.00     0.009 A 
ATOM      5  C   UNL     1      44.026 131.730  18.194  1.00  0.00     0.072 A 
ATOM      6  C   UNL     1      45.230 131.012  18.287  1.00  0.00     0.174 A 
ENDROOT
BRANCH   1   7
ATOM      7  O   UNL     1      46.942 129.659  17.224  1.00  0.00    -0.501 OA
ATOM      8  H   UNL     1      47.171 129.078  18.023  1.00  0.00     0.293 HD
ENDBRANCH   1   7
BRANCH   2   9
ATOM      9  N   UNL     1      45.602 129.816  14.745  1.00  0.00    -0.191 NA
BRANCH   9  10
ATOM     10  C   UNL     1      46.513 130.313  14.006  1.00  0.00     0.064 C 
ATOM     11  S   UNL     1      47.665 130.941  13.070  1.00  0.00    -0.006 S 
ENDBRANCH   9  10
ENDBRANCH   2   9
BRANCH   6  12
ATOM     12  N   UNL     1      45.912 130.921  19.560  1.00  0.00    -0.308 N 
ATOM     13  H   UNL     1      46.808 130.388  19.472  1.00  0.00     0.352 HD
ATOM     14  H   UNL     1      46.172 131.892  19.854  1.00  0.00     0.352 HD
BRANCH  12  15
ATOM     15  C   UNL     1      45.055 130.309  20.601  1.00  0.00     0.191 C 
ATOM     16  C   UNL     1      44.791 131.331  21.729  1.00  0.00     0.070 C 
ATOM     17  C   UNL     1      45.710 129.039  21.198  1.00  0.00     0.107 C 
ATOM     18  C   UNL     1      43.881 130.751  22.817  1.00  0.00     0.039 C 
ATOM     19  C   UNL     1      44.832 128.400  22.282  1.00  0.00     0.198 C 
ATOM     20  C   UNL     1      44.413 129.428  23.312  1.00  0.00    -0.043 C 
ATOM     21  F   UNL     1      45.536 127.356  22.863  1.00  0.00    -0.242 F 
ATOM     22  C   UNL     1      44.323 129.114  24.616  1.00  0.00     0.011 C 
ENDBRANCH  12  15
ENDBRANCH   6  12
TORSDOF 5
ENDMDL


