REMARK SMILES CC(C)(C)c1cccc(NC(=O)/N=C(\O)c2ccc(-c3cc(F)cc(F)c3O)cc2)c1
REMARK SMILES IDX 14 1 15 2 13 4 11 5 10 6 12 7 9 9 8 10 31 11 7 12 5 13 6 14
REMARK SMILES IDX 2 15 1 16 3 17 4 18 16 19 17 20 30 21 18 22 29 23 19 24
REMARK SMILES IDX 20 25 21 26 27 27 22 28 25 29 24 30 23 31 26 32 28 33
REMARK H PARENT 15 3 10 8 28 34
ROOT
ATOM      1  C   UNL     1      -1.457   0.986  -0.247  1.00  0.00     0.223 C 
ENDROOT
BRANCH   1   2
ATOM      2  O   UNL     1      -0.281   1.398  -0.884  1.00  0.00    -0.493 OA
ATOM      3  H   UNL     1       0.065   0.980  -1.737  1.00  0.00     0.295 HD
ENDBRANCH   1   2
BRANCH   1   4
ATOM      4  N   UNL     1      -2.078  -0.105  -0.599  1.00  0.00    -0.157 NA
BRANCH   4   5
ATOM      5  C   UNL     1      -1.614  -1.091  -1.530  1.00  0.00     0.348 C 
ATOM      6  N   UNL     1      -0.233  -1.485  -1.556  1.00  0.00    -0.306 N 
ATOM      7  O   UNL     1      -2.459  -1.699  -2.240  1.00  0.00    -0.246 OA
ATOM      8  H   UNL     1       0.342  -1.285  -0.706  1.00  0.00     0.171 HD
BRANCH   6   9
ATOM      9  C   UNL     1       0.370  -2.235  -2.625  1.00  0.00     0.043 A 
ATOM     10  C   UNL     1      -0.064  -2.090  -3.951  1.00  0.00     0.026 A 
ATOM     11  C   UNL     1       1.452  -3.084  -2.344  1.00  0.00     0.030 A 
ATOM     12  C   UNL     1       0.551  -2.809  -4.972  1.00  0.00     0.002 A 
ATOM     13  C   UNL     1       2.091  -3.825  -3.368  1.00  0.00    -0.041 A 
ATOM     14  C   UNL     1       1.612  -3.670  -4.688  1.00  0.00     0.004 A 
BRANCH  13  15
ATOM     15  C   UNL     1       3.274  -4.778  -3.096  1.00  0.00    -0.013 C 
ATOM     16  C   UNL     1       3.676  -4.838  -1.603  1.00  0.00     0.016 C 
ATOM     17  C   UNL     1       2.894  -6.209  -3.537  1.00  0.00     0.016 C 
ATOM     18  C   UNL     1       4.508  -4.307  -3.896  1.00  0.00     0.016 C 
ENDBRANCH  13  15
ENDBRANCH   6   9
ENDBRANCH   4   5
ENDBRANCH   1   4
BRANCH   1  19
ATOM     19  C   UNL     1      -2.024   1.838   0.827  1.00  0.00     0.037 A 
ATOM     20  C   UNL     1      -3.214   1.476   1.489  1.00  0.00     0.014 A 
ATOM     21  C   UNL     1      -1.376   3.029   1.202  1.00  0.00     0.014 A 
ATOM     22  C   UNL     1      -3.738   2.286   2.501  1.00  0.00     0.010 A 
ATOM     23  C   UNL     1      -1.902   3.837   2.214  1.00  0.00     0.010 A 
ATOM     24  C   UNL     1      -3.080   3.466   2.878  1.00  0.00    -0.014 A 
BRANCH  24  25
ATOM     25  C   UNL     1      -3.646   4.336   3.932  1.00  0.00     0.029 A 
ATOM     26  C   UNL     1      -3.970   5.666   3.612  1.00  0.00     0.052 A 
ATOM     27  C   UNL     1      -3.890   3.861   5.244  1.00  0.00     0.159 A 
ATOM     28  C   UNL     1      -4.549   6.504   4.568  1.00  0.00     0.127 A 
ATOM     29  C   UNL     1      -4.483   4.710   6.189  1.00  0.00     0.168 A 
ATOM     30  C   UNL     1      -4.811   6.025   5.852  1.00  0.00     0.082 A 
ATOM     31  F   UNL     1      -4.865   7.783   4.245  1.00  0.00    -0.207 F 
ATOM     32  F   UNL     1      -4.726   4.261   7.446  1.00  0.00    -0.203 F 
BRANCH  27  33
ATOM     33  O   UNL     1      -3.533   2.571   5.643  1.00  0.00    -0.504 OA
ATOM     34  H   UNL     1      -3.016   1.934   5.051  1.00  0.00     0.293 HD
ENDBRANCH  27  33
ENDBRANCH  24  25
ENDBRANCH   1  19
TORSDOF 8


