REMARK SMILES Cc1ccc([C@@H]2CC[C@@H]3C=CN[C@]3(C=O)C2)c(F)c1F
REMARK SMILES IDX 6 1 7 2 8 3 9 4 10 5 11 6 12 7 13 8 16 9 5 11 2 12 3 13
REMARK SMILES IDX 19 14 4 15 17 16 1 17 20 18 18 19 14 20 15 21
REMARK H PARENT 12 10
ROOT
ATOM      1  C   UNL     1      -0.187   1.173  -0.793  1.00  0.00     0.025 C 
ATOM      2  C   UNL     1       0.561   2.219  -1.631  1.00  0.00     0.009 C 
ATOM      3  C   UNL     1      -0.251   3.509  -1.699  1.00  0.00     0.011 C 
ATOM      4  C   UNL     1      -0.618   4.077  -0.313  1.00  0.00     0.046 C 
ATOM      5  C   UNL     1       0.475   4.870   0.329  1.00  0.00    -0.003 C 
ATOM      6  C   UNL     1       0.468   4.670   1.631  1.00  0.00     0.074 C 
ATOM      7  N   UNL     1      -0.475   3.679   2.005  1.00  0.00    -0.379 N 
ATOM      8  C   UNL     1      -0.997   3.045   0.799  1.00  0.00     0.099 C 
ATOM      9  C   UNL     1      -0.297   1.661   0.659  1.00  0.00     0.045 C 
ATOM     10  H   UNL     1      -0.574   3.301   2.974  1.00  0.00     0.161 HD
ENDROOT
BRANCH   1  11
ATOM     11  C   UNL     1       0.496  -0.185  -0.862  1.00  0.00    -0.006 A 
ATOM     12  C   UNL     1       1.758  -2.710  -0.963  1.00  0.00    -0.012 A 
ATOM     13  C   UNL     1       2.467  -1.581  -0.530  1.00  0.00     0.007 A 
ATOM     14  C   UNL     1       0.418  -2.572  -1.358  1.00  0.00     0.162 A 
ATOM     15  C   UNL     1       1.842  -0.333  -0.474  1.00  0.00     0.007 A 
ATOM     16  C   UNL     1      -0.211  -1.322  -1.303  1.00  0.00     0.162 A 
ATOM     17  C   UNL     1       2.435  -4.048  -1.045  1.00  0.00     0.047 C 
ATOM     18  F   UNL     1      -0.281  -3.650  -1.796  1.00  0.00    -0.203 F 
ATOM     19  F   UNL     1      -1.511  -1.229  -1.683  1.00  0.00    -0.203 F 
ENDBRANCH   1  11
BRANCH   8  20
ATOM     20  C   UNL     1      -2.495   2.884   0.909  1.00  0.00     0.252 C 
ATOM     21  O   UNL     1      -3.149   2.477  -0.038  1.00  0.00    -0.301 OA
ENDBRANCH   8  20
TORSDOF 2


