MODEL 1
REMARK VINA RESULT:      -8.7      0.000      0.000
REMARK SMILES O=C([N-][C@H]1CC12CCC2)c1ccc(C(=O)N[C@@H]2C=CCC2)c(F)c1[O-]
REMARK SMILES IDX 10 1 11 2 12 3 13 4 22 5 23 6 24 7 25 8 2 9 1 10 3 11 4 12
REMARK SMILES IDX 5 13 6 14 7 15 9 16 8 17 14 18 16 19 15 20 17 22 18 23 21 24
REMARK SMILES IDX 19 25 20 26
REMARK H PARENT 16 21
ROOT
ATOM      1  C   UNL     1      43.892 131.469  20.605  1.00  0.00    -0.006 A 
ATOM      2  C   UNL     1      45.143 131.034  20.134  1.00  0.00     0.010 A 
ATOM      3  C   UNL     1      45.416 130.985  18.766  1.00  0.00     0.017 A 
ATOM      4  C   UNL     1      44.441 131.358  17.829  1.00  0.00     0.074 A 
ATOM      5  C   UNL     1      43.191 131.810  18.290  1.00  0.00     0.128 A 
ATOM      6  F   UNL     1      42.249 132.248  17.415  1.00  0.00    -0.207 F 
ATOM      7  C   UNL     1      42.915 131.864  19.662  1.00  0.00    -0.062 A 
ATOM      8  O   UNL     1      41.665 132.318  20.072  1.00  0.00    -0.870 OA
ENDROOT
BRANCH   1   9
ATOM      9  C   UNL     1      43.632 131.511  22.068  1.00  0.00     0.082 C 
ATOM     10  O   UNL     1      42.829 132.354  22.554  1.00  0.00    -0.315 OA
BRANCH   9  11
ATOM     11  N   UNL     1      44.300 130.596  22.943  1.00  0.00    -0.646 NA
BRANCH  11  12
ATOM     12  C   UNL     1      43.992 129.174  22.968  1.00  0.00    -0.100 C 
ATOM     13  C   UNL     1      44.163 128.542  24.356  1.00  0.00    -0.010 C 
ATOM     14  C   UNL     1      42.778 128.844  23.799  1.00  0.00    -0.044 C 
ATOM     15  C   UNL     1      41.871 129.712  24.622  1.00  0.00     0.006 C 
ATOM     16  C   UNL     1      41.812 127.702  23.683  1.00  0.00     0.006 C 
ATOM     17  C   UNL     1      40.846 128.562  24.527  1.00  0.00     0.001 C 
ENDBRANCH  11  12
ENDBRANCH   9  11
ENDBRANCH   1   9
BRANCH   4  18
ATOM     18  C   UNL     1      44.754 131.289  16.383  1.00  0.00     0.254 C 
ATOM     19  N   UNL     1      45.742 130.372  15.885  1.00  0.00    -0.346 N 
ATOM     20  O   UNL     1      44.165 132.069  15.585  1.00  0.00    -0.269 OA
ATOM     21  H   UNL     1      46.406 129.934  16.562  1.00  0.00     0.164 HD
BRANCH  19  22
ATOM     22  C   UNL     1      46.002 130.225  14.450  1.00  0.00     0.105 C 
ATOM     23  C   UNL     1      47.027 129.172  14.215  1.00  0.00    -0.007 C 
ATOM     24  C   UNL     1      46.629 131.502  13.868  1.00  0.00     0.033 C 
ATOM     25  C   UNL     1      48.115 129.649  13.638  1.00  0.00    -0.029 C 
ATOM     26  C   UNL     1      48.028 131.110  13.382  1.00  0.00     0.029 C 
ENDBRANCH  19  22
ENDBRANCH   4  18
TORSDOF 5
ENDMDL
MODEL 2
REMARK VINA RESULT:      -8.3      1.056      1.575
REMARK SMILES O=C([N-][C@H]1CC12CCC2)c1ccc(C(=O)N[C@@H]2C=CCC2)c(F)c1[O-]
REMARK SMILES IDX 10 1 11 2 12 3 13 4 22 5 23 6 24 7 25 8 2 9 1 10 3 11 4 12
REMARK SMILES IDX 5 13 6 14 7 15 9 16 8 17 14 18 16 19 15 20 17 22 18 23 21 24
REMARK SMILES IDX 19 25 20 26
REMARK H PARENT 16 21
ROOT
ATOM      1  C   UNL     1      43.773 131.599  20.379  1.00  0.00    -0.006 A 
ATOM      2  C   UNL     1      45.059 131.040  20.265  1.00  0.00     0.010 A 
ATOM      3  C   UNL     1      45.643 130.836  19.014  1.00  0.00     0.017 A 
ATOM      4  C   UNL     1      44.954 131.173  17.839  1.00  0.00     0.074 A 
ATOM      5  C   UNL     1      43.674 131.747  17.942  1.00  0.00     0.128 A 
ATOM      6  F   UNL     1      43.007 132.153  16.831  1.00  0.00    -0.207 F 
ATOM      7  C   UNL     1      43.086 131.957  19.196  1.00  0.00    -0.062 A 
ATOM      8  O   UNL     1      41.818 132.528  19.249  1.00  0.00    -0.870 OA
ENDROOT
BRANCH   1   9
ATOM      9  C   UNL     1      43.179 131.805  21.725  1.00  0.00     0.082 C 
ATOM     10  O   UNL     1      42.143 132.511  21.868  1.00  0.00    -0.315 OA
BRANCH   9  11
ATOM     11  N   UNL     1      43.784 131.208  22.877  1.00  0.00    -0.646 NA
BRANCH  11  12
ATOM     12  C   UNL     1      43.111 130.197  23.677  1.00  0.00    -0.100 C 
ATOM     13  C   UNL     1      42.494 129.071  22.837  1.00  0.00    -0.010 C 
ATOM     14  C   UNL     1      43.782 128.848  23.617  1.00  0.00    -0.044 C 
ATOM     15  C   UNL     1      44.984 128.369  22.856  1.00  0.00     0.006 C 
ATOM     16  C   UNL     1      43.801 127.735  24.623  1.00  0.00     0.006 C 
ATOM     17  C   UNL     1      45.041 127.207  23.870  1.00  0.00     0.001 C 
ENDBRANCH  11  12
ENDBRANCH   9  11
ENDBRANCH   1   9
BRANCH   4  18
ATOM     18  C   UNL     1      45.594 130.938  16.524  1.00  0.00     0.254 C 
ATOM     19  N   UNL     1      45.304 129.755  15.764  1.00  0.00    -0.346 N 
ATOM     20  O   UNL     1      46.428 131.776  16.084  1.00  0.00    -0.269 OA
ATOM     21  H   UNL     1      44.836 128.952  16.243  1.00  0.00     0.164 HD
BRANCH  19  22
ATOM     22  C   UNL     1      45.856 129.547  14.422  1.00  0.00     0.105 C 
ATOM     23  C   UNL     1      47.278 129.116  14.508  1.00  0.00    -0.007 C 
ATOM     24  C   UNL     1      45.905 130.865  13.634  1.00  0.00     0.033 C 
ATOM     25  C   UNL     1      48.100 129.978  13.937  1.00  0.00    -0.029 C 
ATOM     26  C   UNL     1      47.387 131.149  13.366  1.00  0.00     0.029 C 
ENDBRANCH  19  22
ENDBRANCH   4  18
TORSDOF 5
ENDMDL
MODEL 3
REMARK VINA RESULT:      -7.9      1.431      2.030
REMARK SMILES O=C([N-][C@H]1CC12CCC2)c1ccc(C(=O)N[C@@H]2C=CCC2)c(F)c1[O-]
REMARK SMILES IDX 10 1 11 2 12 3 13 4 22 5 23 6 24 7 25 8 2 9 1 10 3 11 4 12
REMARK SMILES IDX 5 13 6 14 7 15 9 16 8 17 14 18 16 19 15 20 17 22 18 23 21 24
REMARK SMILES IDX 19 25 20 26
REMARK H PARENT 16 21
ROOT
ATOM      1  C   UNL     1      42.956 132.034  19.709  1.00  0.00    -0.006 A 
ATOM      2  C   UNL     1      42.100 131.957  18.596  1.00  0.00     0.010 A 
ATOM      3  C   UNL     1      42.600 131.668  17.326  1.00  0.00     0.017 A 
ATOM      4  C   UNL     1      43.973 131.459  17.129  1.00  0.00     0.074 A 
ATOM      5  C   UNL     1      44.837 131.517  18.238  1.00  0.00     0.128 A 
ATOM      6  F   UNL     1      46.161 131.248  18.099  1.00  0.00    -0.207 F 
ATOM      7  C   UNL     1      44.338 131.803  19.515  1.00  0.00    -0.062 A 
ATOM      8  O   UNL     1      45.229 131.851  20.583  1.00  0.00    -0.870 OA
ENDROOT
BRANCH   1   9
ATOM      9  C   UNL     1      42.393 132.343  21.050  1.00  0.00     0.082 C 
ATOM     10  O   UNL     1      41.747 133.408  21.245  1.00  0.00    -0.315 OA
BRANCH   9  11
ATOM     11  N   UNL     1      42.586 131.432  22.137  1.00  0.00    -0.646 NA
BRANCH  11  12
ATOM     12  C   UNL     1      43.852 130.753  22.371  1.00  0.00    -0.100 C 
ATOM     13  C   UNL     1      44.187 130.591  23.859  1.00  0.00    -0.010 C 
ATOM     14  C   UNL     1      43.692 129.409  23.036  1.00  0.00    -0.044 C 
ATOM     15  C   UNL     1      42.473 128.681  23.525  1.00  0.00     0.006 C 
ATOM     16  C   UNL     1      44.566 128.191  22.972  1.00  0.00     0.006 C 
ATOM     17  C   UNL     1      43.336 127.403  23.473  1.00  0.00     0.001 C 
ENDBRANCH  11  12
ENDBRANCH   9  11
ENDBRANCH   1   9
BRANCH   4  18
ATOM     18  C   UNL     1      44.479 131.161  15.769  1.00  0.00     0.254 C 
ATOM     19  N   UNL     1      45.605 130.291  15.575  1.00  0.00    -0.346 N 
ATOM     20  O   UNL     1      43.930 131.706  14.773  1.00  0.00    -0.269 OA
ATOM     21  H   UNL     1      46.212 130.066  16.396  1.00  0.00     0.164 HD
BRANCH  19  22
ATOM     22  C   UNL     1      46.064 129.913  14.236  1.00  0.00     0.105 C 
ATOM     23  C   UNL     1      47.371 129.205  14.317  1.00  0.00    -0.007 C 
ATOM     24  C   UNL     1      46.358 131.156  13.381  1.00  0.00     0.033 C 
ATOM     25  C   UNL     1      48.335 129.854  13.688  1.00  0.00    -0.029 C 
ATOM     26  C   UNL     1      47.858 131.119  13.071  1.00  0.00     0.029 C 
ENDBRANCH  19  22
ENDBRANCH   4  18
TORSDOF 5
ENDMDL
MODEL 4
REMARK VINA RESULT:      -7.2      1.542      8.566
REMARK SMILES O=C([N-][C@H]1CC12CCC2)c1ccc(C(=O)N[C@@H]2C=CCC2)c(F)c1[O-]
REMARK SMILES IDX 10 1 11 2 12 3 13 4 22 5 23 6 24 7 25 8 2 9 1 10 3 11 4 12
REMARK SMILES IDX 5 13 6 14 7 15 9 16 8 17 14 18 16 19 15 20 17 22 18 23 21 24
REMARK SMILES IDX 19 25 20 26
REMARK H PARENT 16 21
ROOT
ATOM      1  C   UNL     1      43.882 131.439  16.742  1.00  0.00    -0.006 A 
ATOM      2  C   UNL     1      42.696 131.854  17.374  1.00  0.00     0.010 A 
ATOM      3  C   UNL     1      42.605 131.901  18.766  1.00  0.00     0.017 A 
ATOM      4  C   UNL     1      43.693 131.524  19.567  1.00  0.00     0.074 A 
ATOM      5  C   UNL     1      44.889 131.122  18.945  1.00  0.00     0.128 A 
ATOM      6  F   UNL     1      45.986 130.819  19.687  1.00  0.00    -0.207 F 
ATOM      7  C   UNL     1      44.986 131.077  17.549  1.00  0.00    -0.062 A 
ATOM      8  O   UNL     1      46.189 130.674  16.977  1.00  0.00    -0.870 OA
ENDROOT
BRANCH   1   9
ATOM      9  C   UNL     1      43.949 131.401  15.257  1.00  0.00     0.082 C 
ATOM     10  O   UNL     1      43.122 132.049  14.560  1.00  0.00    -0.315 OA
BRANCH   9  11
ATOM     11  N   UNL     1      44.954 130.618  14.604  1.00  0.00    -0.646 NA
BRANCH  11  12
ATOM     12  C   UNL     1      45.864 131.182  13.618  1.00  0.00    -0.100 C 
ATOM     13  C   UNL     1      47.081 131.875  14.244  1.00  0.00    -0.010 C 
ATOM     14  C   UNL     1      47.211 130.503  13.596  1.00  0.00    -0.044 C 
ATOM     15  C   UNL     1      47.776 129.388  14.429  1.00  0.00     0.006 C 
ATOM     16  C   UNL     1      48.197 130.354  12.475  1.00  0.00     0.006 C 
ATOM     17  C   UNL     1      48.810 129.200  13.298  1.00  0.00     0.001 C 
ENDBRANCH  11  12
ENDBRANCH   9  11
ENDBRANCH   1   9
BRANCH   4  18
ATOM     18  C   UNL     1      43.566 131.576  21.042  1.00  0.00     0.254 C 
ATOM     19  N   UNL     1      44.515 130.906  21.887  1.00  0.00    -0.346 N 
ATOM     20  O   UNL     1      42.593 132.191  21.557  1.00  0.00    -0.269 OA
ATOM     21  H   UNL     1      45.145 130.187  21.463  1.00  0.00     0.164 HD
BRANCH  19  22
ATOM     22  C   UNL     1      44.460 131.019  23.347  1.00  0.00     0.105 C 
ATOM     23  C   UNL     1      44.107 129.708  23.955  1.00  0.00    -0.007 C 
ATOM     24  C   UNL     1      43.326 131.960  23.786  1.00  0.00     0.033 C 
ATOM     25  C   UNL     1      42.967 129.753  24.621  1.00  0.00    -0.029 C 
ATOM     26  C   UNL     1      42.339 131.099  24.582  1.00  0.00     0.029 C 
ENDBRANCH  19  22
ENDBRANCH   4  18
TORSDOF 5
ENDMDL
MODEL 5
REMARK VINA RESULT:      -6.6      2.030      8.660
REMARK SMILES O=C([N-][C@H]1CC12CCC2)c1ccc(C(=O)N[C@@H]2C=CCC2)c(F)c1[O-]
REMARK SMILES IDX 10 1 11 2 12 3 13 4 22 5 23 6 24 7 25 8 2 9 1 10 3 11 4 12
REMARK SMILES IDX 5 13 6 14 7 15 9 16 8 17 14 18 16 19 15 20 17 22 18 23 21 24
REMARK SMILES IDX 19 25 20 26
REMARK H PARENT 16 21
ROOT
ATOM      1  C   UNL     1      44.153 131.225  16.745  1.00  0.00    -0.006 A 
ATOM      2  C   UNL     1      43.135 131.847  17.490  1.00  0.00     0.010 A 
ATOM      3  C   UNL     1      43.201 131.907  18.883  1.00  0.00     0.017 A 
ATOM      4  C   UNL     1      44.282 131.337  19.572  1.00  0.00     0.074 A 
ATOM      5  C   UNL     1      45.314 130.728  18.835  1.00  0.00     0.128 A 
ATOM      6  F   UNL     1      46.411 130.229  19.464  1.00  0.00    -0.207 F 
ATOM      7  C   UNL     1      45.253 130.668  17.438  1.00  0.00    -0.062 A 
ATOM      8  O   UNL     1      46.296 130.055  16.751  1.00  0.00    -0.870 OA
ENDROOT
BRANCH   1   9
ATOM      9  C   UNL     1      44.054 131.178  15.262  1.00  0.00     0.082 C 
ATOM     10  O   UNL     1      43.114 131.769  14.662  1.00  0.00    -0.315 OA
BRANCH   9  11
ATOM     11  N   UNL     1      45.025 130.452  14.500  1.00  0.00    -0.646 NA
BRANCH  11  12
ATOM     12  C   UNL     1      45.917 131.102  13.552  1.00  0.00    -0.100 C 
ATOM     13  C   UNL     1      47.104 131.807  14.222  1.00  0.00    -0.010 C 
ATOM     14  C   UNL     1      47.289 130.477  13.504  1.00  0.00    -0.044 C 
ATOM     15  C   UNL     1      47.892 129.343  14.280  1.00  0.00     0.006 C 
ATOM     16  C   UNL     1      48.286 130.426  12.383  1.00  0.00     0.006 C 
ATOM     17  C   UNL     1      48.939 129.254  13.149  1.00  0.00     0.001 C 
ENDBRANCH  11  12
ENDBRANCH   9  11
ENDBRANCH   1   9
BRANCH   4  18
ATOM     18  C   UNL     1      44.324 131.409  21.051  1.00  0.00     0.254 C 
ATOM     19  N   UNL     1      43.348 130.723  21.850  1.00  0.00    -0.346 N 
ATOM     20  O   UNL     1      45.213 132.108  21.611  1.00  0.00    -0.269 OA
ATOM     21  H   UNL     1      42.474 130.380  21.390  1.00  0.00     0.164 HD
BRANCH  19  22
ATOM     22  C   UNL     1      43.424 130.707  23.313  1.00  0.00     0.105 C 
ATOM     23  C   UNL     1      42.247 131.401  23.902  1.00  0.00    -0.007 C 
ATOM     24  C   UNL     1      44.632 131.517  23.813  1.00  0.00     0.033 C 
ATOM     25  C   UNL     1      42.590 132.465  24.607  1.00  0.00    -0.029 C 
ATOM     26  C   UNL     1      44.058 132.687  24.621  1.00  0.00     0.029 C 
ENDBRANCH  19  22
ENDBRANCH   4  18
TORSDOF 5
ENDMDL
MODEL 6
REMARK VINA RESULT:      -6.3      1.312      8.467
REMARK SMILES O=C([N-][C@H]1CC12CCC2)c1ccc(C(=O)N[C@@H]2C=CCC2)c(F)c1[O-]
REMARK SMILES IDX 10 1 11 2 12 3 13 4 22 5 23 6 24 7 25 8 2 9 1 10 3 11 4 12
REMARK SMILES IDX 5 13 6 14 7 15 9 16 8 17 14 18 16 19 15 20 17 22 18 23 21 24
REMARK SMILES IDX 19 25 20 26
REMARK H PARENT 16 21
ROOT
ATOM      1  C   UNL     1      44.312 131.219  17.112  1.00  0.00    -0.006 A 
ATOM      2  C   UNL     1      45.408 130.628  17.766  1.00  0.00     0.010 A 
ATOM      3  C   UNL     1      45.429 130.499  19.155  1.00  0.00     0.017 A 
ATOM      4  C   UNL     1      44.359 130.967  19.932  1.00  0.00     0.074 A 
ATOM      5  C   UNL     1      43.250 131.545  19.287  1.00  0.00     0.128 A 
ATOM      6  F   UNL     1      42.165 131.943  20.001  1.00  0.00    -0.207 F 
ATOM      7  C   UNL     1      43.224 131.673  17.893  1.00  0.00    -0.062 A 
ATOM      8  O   UNL     1      42.107 132.251  17.298  1.00  0.00    -0.870 OA
ENDROOT
BRANCH   1   9
ATOM      9  C   UNL     1      44.319 131.341  15.630  1.00  0.00     0.082 C 
ATOM     10  O   UNL     1      43.461 132.053  15.040  1.00  0.00    -0.315 OA
BRANCH   9  11
ATOM     11  N   UNL     1      45.301 130.642  14.857  1.00  0.00    -0.646 NA
BRANCH  11  12
ATOM     12  C   UNL     1      46.069 131.289  13.803  1.00  0.00    -0.100 C 
ATOM     13  C   UNL     1      47.360 131.944  14.310  1.00  0.00    -0.010 C 
ATOM     14  C   UNL     1      47.399 130.626  13.547  1.00  0.00    -0.044 C 
ATOM     15  C   UNL     1      48.072 129.457  14.207  1.00  0.00     0.006 C 
ATOM     16  C   UNL     1      48.224 130.573  12.294  1.00  0.00     0.006 C 
ATOM     17  C   UNL     1      48.943 129.366  12.936  1.00  0.00     0.001 C 
ENDBRANCH  11  12
ENDBRANCH   9  11
ENDBRANCH   1   9
BRANCH   4  18
ATOM     18  C   UNL     1      44.410 130.824  21.406  1.00  0.00     0.254 C 
ATOM     19  N   UNL     1      43.965 129.618  22.045  1.00  0.00    -0.346 N 
ATOM     20  O   UNL     1      44.821 131.790  22.106  1.00  0.00    -0.269 OA
ATOM     21  H   UNL     1      43.384 128.944  21.497  1.00  0.00     0.164 HD
BRANCH  19  22
ATOM     22  C   UNL     1      44.089 129.422  23.492  1.00  0.00     0.105 C 
ATOM     23  C   UNL     1      45.187 128.463  23.793  1.00  0.00    -0.007 C 
ATOM     24  C   UNL     1      42.832 128.753  24.070  1.00  0.00     0.033 C 
ATOM     25  C   UNL     1      44.752 127.375  24.402  1.00  0.00    -0.029 C 
ATOM     26  C   UNL     1      43.282 127.396  24.621  1.00  0.00     0.029 C 
ENDBRANCH  19  22
ENDBRANCH   4  18
TORSDOF 5
ENDMDL
MODEL 7
REMARK VINA RESULT:      -6.0      1.728      2.388
REMARK SMILES O=C([N-][C@H]1CC12CCC2)c1ccc(C(=O)N[C@@H]2C=CCC2)c(F)c1[O-]
REMARK SMILES IDX 10 1 11 2 12 3 13 4 22 5 23 6 24 7 25 8 2 9 1 10 3 11 4 12
REMARK SMILES IDX 5 13 6 14 7 15 9 16 8 17 14 18 16 19 15 20 17 22 18 23 21 24
REMARK SMILES IDX 19 25 20 26
REMARK H PARENT 16 21
ROOT
ATOM      1  C   UNL     1      43.147 132.054  19.467  1.00  0.00    -0.006 A 
ATOM      2  C   UNL     1      42.485 131.810  18.250  1.00  0.00     0.010 A 
ATOM      3  C   UNL     1      43.143 131.184  17.190  1.00  0.00     0.017 A 
ATOM      4  C   UNL     1      44.484 130.795  17.311  1.00  0.00     0.074 A 
ATOM      5  C   UNL     1      45.152 131.019  18.529  1.00  0.00     0.128 A 
ATOM      6  F   UNL     1      46.428 130.591  18.708  1.00  0.00    -0.207 F 
ATOM      7  C   UNL     1      44.495 131.644  19.597  1.00  0.00    -0.062 A 
ATOM      8  O   UNL     1      45.193 131.845  20.783  1.00  0.00    -0.870 OA
ENDROOT
BRANCH   1   9
ATOM      9  C   UNL     1      42.420 132.721  20.578  1.00  0.00     0.082 C 
ATOM     10  O   UNL     1      41.969 133.891  20.440  1.00  0.00    -0.315 OA
BRANCH   9  11
ATOM     11  N   UNL     1      42.230 132.041  21.824  1.00  0.00    -0.646 NA
BRANCH  11  12
ATOM     12  C   UNL     1      43.319 131.816  22.763  1.00  0.00    -0.100 C 
ATOM     13  C   UNL     1      42.846 131.683  24.217  1.00  0.00    -0.010 C 
ATOM     14  C   UNL     1      43.268 130.457  23.416  1.00  0.00    -0.044 C 
ATOM     15  C   UNL     1      42.282 129.332  23.294  1.00  0.00     0.006 C 
ATOM     16  C   UNL     1      44.377 129.613  23.972  1.00  0.00     0.006 C 
ATOM     17  C   UNL     1      43.395 128.426  23.862  1.00  0.00     0.001 C 
ENDBRANCH  11  12
ENDBRANCH   9  11
ENDBRANCH   1   9
BRANCH   4  18
ATOM     18  C   UNL     1      45.161 130.140  16.167  1.00  0.00     0.254 C 
ATOM     19  N   UNL     1      45.329 130.827  14.918  1.00  0.00    -0.346 N 
ATOM     20  O   UNL     1      45.565 128.951  16.287  1.00  0.00    -0.269 OA
ATOM     21  H   UNL     1      44.765 131.689  14.739  1.00  0.00     0.164 HD
BRANCH  19  22
ATOM     22  C   UNL     1      46.074 130.231  13.805  1.00  0.00     0.105 C 
ATOM     23  C   UNL     1      47.234 129.452  14.316  1.00  0.00    -0.007 C 
ATOM     24  C   UNL     1      46.706 131.317  12.919  1.00  0.00     0.033 C 
ATOM     25  C   UNL     1      48.389 129.935  13.895  1.00  0.00    -0.029 C 
ATOM     26  C   UNL     1      48.223 131.129  13.028  1.00  0.00     0.029 C 
ENDBRANCH  19  22
ENDBRANCH   4  18
TORSDOF 5
ENDMDL
MODEL 8
REMARK VINA RESULT:      -5.9      1.315      1.656
REMARK SMILES O=C([N-][C@H]1CC12CCC2)c1ccc(C(=O)N[C@@H]2C=CCC2)c(F)c1[O-]
REMARK SMILES IDX 10 1 11 2 12 3 13 4 22 5 23 6 24 7 25 8 2 9 1 10 3 11 4 12
REMARK SMILES IDX 5 13 6 14 7 15 9 16 8 17 14 18 16 19 15 20 17 22 18 23 21 24
REMARK SMILES IDX 19 25 20 26
REMARK H PARENT 16 21
ROOT
ATOM      1  C   UNL     1      43.674 131.598  19.564  1.00  0.00    -0.006 A 
ATOM      2  C   UNL     1      44.890 130.891  19.522  1.00  0.00     0.010 A 
ATOM      3  C   UNL     1      45.415 130.440  18.310  1.00  0.00     0.017 A 
ATOM      4  C   UNL     1      44.734 130.672  17.106  1.00  0.00     0.074 A 
ATOM      5  C   UNL     1      43.526 131.392  17.135  1.00  0.00     0.128 A 
ATOM      6  F   UNL     1      42.876 131.698  15.982  1.00  0.00    -0.207 F 
ATOM      7  C   UNL     1      42.997 131.849  18.348  1.00  0.00    -0.062 A 
ATOM      8  O   UNL     1      41.800 132.557  18.329  1.00  0.00    -0.870 OA
ENDROOT
BRANCH   1   9
ATOM      9  C   UNL     1      43.142 132.067  20.871  1.00  0.00     0.082 C 
ATOM     10  O   UNL     1      42.791 133.268  21.027  1.00  0.00    -0.315 OA
BRANCH   9  11
ATOM     11  N   UNL     1      43.029 131.155  21.969  1.00  0.00    -0.646 NA
BRANCH  11  12
ATOM     12  C   UNL     1      44.192 130.633  22.672  1.00  0.00    -0.100 C 
ATOM     13  C   UNL     1      44.040 130.661  24.198  1.00  0.00    -0.010 C 
ATOM     14  C   UNL     1      43.908 129.356  23.423  1.00  0.00    -0.044 C 
ATOM     15  C   UNL     1      42.643 128.566  23.597  1.00  0.00     0.006 C 
ATOM     16  C   UNL     1      44.829 128.231  23.794  1.00  0.00     0.006 C 
ATOM     17  C   UNL     1      43.553 127.381  23.985  1.00  0.00     0.001 C 
ENDBRANCH  11  12
ENDBRANCH   9  11
ENDBRANCH   1   9
BRANCH   4  18
ATOM     18  C   UNL     1      45.309 130.175  15.835  1.00  0.00     0.254 C 
ATOM     19  N   UNL     1      45.796 131.089  14.839  1.00  0.00    -0.346 N 
ATOM     20  O   UNL     1      45.342 128.933  15.614  1.00  0.00    -0.269 OA
ATOM     21  H   UNL     1      45.523 132.096  14.905  1.00  0.00     0.164 HD
BRANCH  19  22
ATOM     22  C   UNL     1      46.450 130.618  13.615  1.00  0.00     0.105 C 
ATOM     23  C   UNL     1      47.123 129.312  13.856  1.00  0.00    -0.007 C 
ATOM     24  C   UNL     1      47.589 131.562  13.198  1.00  0.00     0.033 C 
ATOM     25  C   UNL     1      48.430 129.380  13.679  1.00  0.00    -0.029 C 
ATOM     26  C   UNL     1      48.880 130.741  13.290  1.00  0.00     0.029 C 
ENDBRANCH  19  22
ENDBRANCH   4  18
TORSDOF 5
ENDMDL


