MODEL 1
REMARK VINA RESULT:      -7.7      0.000      0.000
REMARK SMILES Cc1ccc(-c2ccc([N-]/C(O)=C/[C@H]([NH3+])C(=O)[O-])c(C=O)c2)cc1
REMARK SMILES IDX 11 1 12 2 10 4 9 5 8 6 19 7 7 8 22 9 6 10 20 11 21 12 5 13
REMARK SMILES IDX 4 14 23 15 3 16 24 17 2 18 1 19 13 20 14 21 16 22 17 23
REMARK SMILES IDX 18 24 15 25
REMARK H PARENT 12 3 15 26 15 27 15 28
ROOT
ATOM      1  C   UNL     1      43.662 131.272  22.302  1.00  0.00     0.016 C 
ENDROOT
BRANCH   1   2
ATOM      2  O   UNL     1      45.012 130.986  22.513  1.00  0.00    -0.531 OA
ATOM      3  H   UNL     1      45.399 130.070  22.324  1.00  0.00     0.290 HD
ENDBRANCH   1   2
BRANCH   1   4
ATOM      4  N   UNL     1      43.188 131.664  21.007  1.00  0.00    -0.627 NA
BRANCH   4   5
ATOM      5  C   UNL     1      43.865 131.442  19.760  1.00  0.00    -0.123 A 
ATOM      6  C   UNL     1      45.176 130.942  19.738  1.00  0.00    -0.015 A 
ATOM      7  C   UNL     1      43.238 131.801  18.547  1.00  0.00     0.000 A 
ATOM      8  C   UNL     1      45.847 130.757  18.530  1.00  0.00     0.007 A 
ATOM      9  C   UNL     1      43.926 131.611  17.333  1.00  0.00     0.019 A 
ATOM     10  C   UNL     1      45.229 131.086  17.314  1.00  0.00    -0.018 A 
BRANCH   7  11
ATOM     11  C   UNL     1      41.866 132.357  18.542  1.00  0.00     0.258 C 
ATOM     12  O   UNL     1      41.333 132.781  19.601  1.00  0.00    -0.298 OA
ENDBRANCH   7  11
BRANCH  10  13
ATOM     13  C   UNL     1      45.946 130.888  16.028  1.00  0.00    -0.018 A 
ATOM     14  C   UNL     1      45.750 131.779  14.958  1.00  0.00     0.009 A 
ATOM     15  C   UNL     1      46.835 129.810  15.861  1.00  0.00     0.009 A 
ATOM     16  C   UNL     1      46.425 131.594  13.748  1.00  0.00     0.004 A 
ATOM     17  C   UNL     1      47.508 129.627  14.650  1.00  0.00     0.004 A 
ATOM     18  C   UNL     1      47.296 130.509  13.581  1.00  0.00    -0.051 A 
ATOM     19  C   UNL     1      48.049 130.333  12.296  1.00  0.00     0.044 C 
ENDBRANCH  10  13
ENDBRANCH   4   5
ENDBRANCH   1   4
BRANCH   1  20
ATOM     20  C   UNL     1      42.785 131.146  23.302  1.00  0.00     0.064 C 
BRANCH  20  21
ATOM     21  C   UNL     1      42.910 130.079  24.363  1.00  0.00     0.253 C 
BRANCH  21  22
ATOM     22  C   UNL     1      42.006 128.920  24.039  1.00  0.00     0.104 C 
ATOM     23  O   UNL     1      40.769 128.988  24.273  1.00  0.00    -0.544 OA
ATOM     24  O   UNL     1      42.538 127.753  23.505  1.00  0.00    -0.544 OA
ENDBRANCH  21  22
BRANCH  21  25
ATOM     25  N   UNL     1      44.303 129.630  24.486  1.00  0.00    -0.347 N 
ATOM     26  H   UNL     1      44.429 128.716  23.994  1.00  0.00     0.345 HD
ATOM     27  H   UNL     1      44.566 129.514  25.493  1.00  0.00     0.345 HD
ATOM     28  H   UNL     1      44.942 130.330  24.043  1.00  0.00     0.345 HD
ENDBRANCH  21  25
ENDBRANCH  20  21
ENDBRANCH   1  20
TORSDOF 9
ENDMDL
MODEL 2
REMARK VINA RESULT:      -7.7      1.335      2.081
REMARK SMILES Cc1ccc(-c2ccc([N-]/C(O)=C/[C@H]([NH3+])C(=O)[O-])c(C=O)c2)cc1
REMARK SMILES IDX 11 1 12 2 10 4 9 5 8 6 19 7 7 8 22 9 6 10 20 11 21 12 5 13
REMARK SMILES IDX 4 14 23 15 3 16 24 17 2 18 1 19 13 20 14 21 16 22 17 23
REMARK SMILES IDX 18 24 15 25
REMARK H PARENT 12 3 15 26 15 27 15 28
ROOT
ATOM      1  C   UNL     1      42.797 131.512  22.411  1.00  0.00     0.016 C 
ENDROOT
BRANCH   1   2
ATOM      2  O   UNL     1      42.675 132.196  23.621  1.00  0.00    -0.531 OA
ATOM      3  H   UNL     1      41.782 132.302  24.087  1.00  0.00     0.290 HD
ENDBRANCH   1   2
BRANCH   1   4
ATOM      4  N   UNL     1      42.677 132.204  21.161  1.00  0.00    -0.627 NA
BRANCH   4   5
ATOM      5  C   UNL     1      43.437 131.934  19.973  1.00  0.00    -0.123 A 
ATOM      6  C   UNL     1      42.808 131.887  18.718  1.00  0.00    -0.015 A 
ATOM      7  C   UNL     1      44.813 131.634  20.071  1.00  0.00     0.000 A 
ATOM      8  C   UNL     1      43.538 131.591  17.568  1.00  0.00     0.007 A 
ATOM      9  C   UNL     1      45.539 131.336  18.903  1.00  0.00     0.019 A 
ATOM     10  C   UNL     1      44.911 131.316  17.646  1.00  0.00    -0.018 A 
BRANCH   7  11
ATOM     11  C   UNL     1      45.496 131.648  21.385  1.00  0.00     0.258 C 
ATOM     12  O   UNL     1      45.525 132.691  22.092  1.00  0.00    -0.298 OA
ENDBRANCH   7  11
BRANCH  10  13
ATOM     13  C   UNL     1      45.687 131.000  16.419  1.00  0.00    -0.018 A 
ATOM     14  C   UNL     1      46.060 132.022  15.528  1.00  0.00     0.009 A 
ATOM     15  C   UNL     1      46.063 129.676  16.129  1.00  0.00     0.009 A 
ATOM     16  C   UNL     1      46.790 131.726  14.373  1.00  0.00     0.004 A 
ATOM     17  C   UNL     1      46.792 129.382  14.974  1.00  0.00     0.004 A 
ATOM     18  C   UNL     1      47.147 130.403  14.081  1.00  0.00    -0.051 A 
ATOM     19  C   UNL     1      47.963 130.090  12.862  1.00  0.00     0.044 C 
ENDBRANCH  10  13
ENDBRANCH   4   5
ENDBRANCH   1   4
BRANCH   1  20
ATOM     20  C   UNL     1      43.065 130.203  22.403  1.00  0.00     0.064 C 
BRANCH  20  21
ATOM     21  C   UNL     1      43.427 129.440  23.655  1.00  0.00     0.253 C 
BRANCH  21  22
ATOM     22  C   UNL     1      43.601 127.979  23.336  1.00  0.00     0.104 C 
ATOM     23  O   UNL     1      42.711 127.145  23.650  1.00  0.00    -0.544 OA
ATOM     24  O   UNL     1      44.764 127.538  22.717  1.00  0.00    -0.544 OA
ENDBRANCH  21  22
BRANCH  21  25
ATOM     25  N   UNL     1      44.647 129.987  24.261  1.00  0.00    -0.347 N 
ATOM     26  H   UNL     1      44.398 130.663  25.019  1.00  0.00     0.345 HD
ATOM     27  H   UNL     1      45.228 130.480  23.542  1.00  0.00     0.345 HD
ATOM     28  H   UNL     1      45.210 129.214  24.686  1.00  0.00     0.345 HD
ENDBRANCH  21  25
ENDBRANCH  20  21
ENDBRANCH   1  20
TORSDOF 9
ENDMDL
MODEL 3
REMARK VINA RESULT:      -7.0      0.860      1.081
REMARK SMILES Cc1ccc(-c2ccc([N-]/C(O)=C/[C@H]([NH3+])C(=O)[O-])c(C=O)c2)cc1
REMARK SMILES IDX 11 1 12 2 10 4 9 5 8 6 19 7 7 8 22 9 6 10 20 11 21 12 5 13
REMARK SMILES IDX 4 14 23 15 3 16 24 17 2 18 1 19 13 20 14 21 16 22 17 23
REMARK SMILES IDX 18 24 15 25
REMARK H PARENT 12 3 15 26 15 27 15 28
ROOT
ATOM      1  C   UNL     1      43.116 131.309  22.166  1.00  0.00     0.016 C 
ENDROOT
BRANCH   1   2
ATOM      2  O   UNL     1      42.441 130.191  21.672  1.00  0.00    -0.531 OA
ATOM      3  H   UNL     1      41.652 130.279  21.045  1.00  0.00     0.290 HD
ENDBRANCH   1   2
BRANCH   1   4
ATOM      4  N   UNL     1      43.801 132.204  21.281  1.00  0.00    -0.627 NA
BRANCH   4   5
ATOM      5  C   UNL     1      44.366 131.858  20.007  1.00  0.00    -0.123 A 
ATOM      6  C   UNL     1      45.713 131.476  19.902  1.00  0.00    -0.015 A 
ATOM      7  C   UNL     1      43.586 131.978  18.836  1.00  0.00     0.000 A 
ATOM      8  C   UNL     1      46.273 131.173  18.662  1.00  0.00     0.007 A 
ATOM      9  C   UNL     1      44.162 131.670  17.589  1.00  0.00     0.019 A 
ATOM     10  C   UNL     1      45.503 131.262  17.492  1.00  0.00    -0.018 A 
BRANCH   7  11
ATOM     11  C   UNL     1      42.171 132.407  18.913  1.00  0.00     0.258 C 
ATOM     12  O   UNL     1      41.234 131.568  18.858  1.00  0.00    -0.298 OA
ENDBRANCH   7  11
BRANCH  10  13
ATOM     13  C   UNL     1      46.102 130.939  16.171  1.00  0.00    -0.018 A 
ATOM     14  C   UNL     1      46.294 131.947  15.209  1.00  0.00     0.009 A 
ATOM     15  C   UNL     1      46.489 129.622  15.863  1.00  0.00     0.009 A 
ATOM     16  C   UNL     1      46.858 131.644  13.966  1.00  0.00     0.004 A 
ATOM     17  C   UNL     1      47.052 129.321  14.619  1.00  0.00     0.004 A 
ATOM     18  C   UNL     1      47.226 130.327  13.658  1.00  0.00    -0.051 A 
ATOM     19  C   UNL     1      47.866 130.009  12.339  1.00  0.00     0.044 C 
ENDBRANCH  10  13
ENDBRANCH   4   5
ENDBRANCH   1   4
BRANCH   1  20
ATOM     20  C   UNL     1      43.099 131.580  23.475  1.00  0.00     0.064 C 
BRANCH  20  21
ATOM     21  C   UNL     1      43.387 130.533  24.525  1.00  0.00     0.253 C 
BRANCH  21  22
ATOM     22  C   UNL     1      42.646 129.262  24.204  1.00  0.00     0.104 C 
ATOM     23  O   UNL     1      43.249 128.283  23.688  1.00  0.00    -0.544 OA
ATOM     24  O   UNL     1      41.282 129.174  24.449  1.00  0.00    -0.544 OA
ENDBRANCH  21  22
BRANCH  21  25
ATOM     25  N   UNL     1      44.830 130.281  24.624  1.00  0.00    -0.347 N 
ATOM     26  H   UNL     1      45.336 130.794  23.866  1.00  0.00     0.345 HD
ATOM     27  H   UNL     1      45.032 129.257  24.536  1.00  0.00     0.345 HD
ATOM     28  H   UNL     1      45.188 130.624  25.545  1.00  0.00     0.345 HD
ENDBRANCH  21  25
ENDBRANCH  20  21
ENDBRANCH   1  20
TORSDOF 9
ENDMDL
MODEL 4
REMARK VINA RESULT:      -6.5      1.018      1.449
REMARK SMILES Cc1ccc(-c2ccc([N-]/C(O)=C/[C@H]([NH3+])C(=O)[O-])c(C=O)c2)cc1
REMARK SMILES IDX 11 1 12 2 10 4 9 5 8 6 19 7 7 8 22 9 6 10 20 11 21 12 5 13
REMARK SMILES IDX 4 14 23 15 3 16 24 17 2 18 1 19 13 20 14 21 16 22 17 23
REMARK SMILES IDX 18 24 15 25
REMARK H PARENT 12 3 15 26 15 27 15 28
ROOT
ATOM      1  C   UNL     1      43.712 130.996  21.610  1.00  0.00     0.016 C 
ENDROOT
BRANCH   1   2
ATOM      2  O   UNL     1      44.672 129.993  21.747  1.00  0.00    -0.531 OA
ATOM      3  H   UNL     1      44.478 129.133  22.245  1.00  0.00     0.290 HD
ENDBRANCH   1   2
BRANCH   1   4
ATOM      4  N   UNL     1      43.540 131.684  20.364  1.00  0.00    -0.627 NA
BRANCH   4   5
ATOM      5  C   UNL     1      44.237 131.397  19.141  1.00  0.00    -0.123 A 
ATOM      6  C   UNL     1      45.550 130.899  19.167  1.00  0.00    -0.015 A 
ATOM      7  C   UNL     1      43.630 131.690  17.900  1.00  0.00     0.000 A 
ATOM      8  C   UNL     1      46.240 130.651  17.982  1.00  0.00     0.007 A 
ATOM      9  C   UNL     1      44.337 131.436  16.710  1.00  0.00     0.019 A 
ATOM     10  C   UNL     1      45.641 130.913  16.740  1.00  0.00    -0.018 A 
BRANCH   7  11
ATOM     11  C   UNL     1      42.258 132.243  17.844  1.00  0.00     0.258 C 
ATOM     12  O   UNL     1      41.284 131.617  18.340  1.00  0.00    -0.298 OA
ENDBRANCH   7  11
BRANCH  10  13
ATOM     13  C   UNL     1      46.379 130.649  15.478  1.00  0.00    -0.018 A 
ATOM     14  C   UNL     1      47.220 129.527  15.364  1.00  0.00     0.009 A 
ATOM     15  C   UNL     1      46.247 131.514  14.376  1.00  0.00     0.009 A 
ATOM     16  C   UNL     1      47.914 129.278  14.177  1.00  0.00     0.004 A 
ATOM     17  C   UNL     1      46.943 131.263  13.190  1.00  0.00     0.004 A 
ATOM     18  C   UNL     1      47.792 130.152  13.088  1.00  0.00    -0.051 A 
ATOM     19  C   UNL     1      48.507 129.864  11.802  1.00  0.00     0.044 C 
ENDBRANCH  10  13
ENDBRANCH   4   5
ENDBRANCH   1   4
BRANCH   1  20
ATOM     20  C   UNL     1      42.911 131.303  22.634  1.00  0.00     0.064 C 
BRANCH  20  21
ATOM     21  C   UNL     1      43.281 131.016  24.070  1.00  0.00     0.253 C 
BRANCH  21  22
ATOM     22  C   UNL     1      43.143 129.544  24.354  1.00  0.00     0.104 C 
ATOM     23  O   UNL     1      42.017 129.047  24.625  1.00  0.00    -0.544 OA
ATOM     24  O   UNL     1      44.267 128.728  24.347  1.00  0.00    -0.544 OA
ENDBRANCH  21  22
BRANCH  21  25
ATOM     25  N   UNL     1      44.647 131.473  24.355  1.00  0.00    -0.347 N 
ATOM     26  H   UNL     1      45.337 130.878  23.842  1.00  0.00     0.345 HD
ATOM     27  H   UNL     1      44.848 131.419  25.381  1.00  0.00     0.345 HD
ATOM     28  H   UNL     1      44.766 132.461  24.032  1.00  0.00     0.345 HD
ENDBRANCH  21  25
ENDBRANCH  20  21
ENDBRANCH   1  20
TORSDOF 9
ENDMDL
MODEL 5
REMARK VINA RESULT:      -6.1      1.260      2.137
REMARK SMILES Cc1ccc(-c2ccc([N-]/C(O)=C/[C@H]([NH3+])C(=O)[O-])c(C=O)c2)cc1
REMARK SMILES IDX 11 1 12 2 10 4 9 5 8 6 19 7 7 8 22 9 6 10 20 11 21 12 5 13
REMARK SMILES IDX 4 14 23 15 3 16 24 17 2 18 1 19 13 20 14 21 16 22 17 23
REMARK SMILES IDX 18 24 15 25
REMARK H PARENT 12 3 15 26 15 27 15 28
ROOT
ATOM      1  C   UNL     1      42.813 131.547  21.324  1.00  0.00     0.016 C 
ENDROOT
BRANCH   1   2
ATOM      2  O   UNL     1      41.910 130.487  21.423  1.00  0.00    -0.531 OA
ATOM      3  H   UNL     1      41.889 129.739  20.741  1.00  0.00     0.290 HD
ENDBRANCH   1   2
BRANCH   1   4
ATOM      4  N   UNL     1      42.942 132.292  20.106  1.00  0.00    -0.627 NA
BRANCH   4   5
ATOM      5  C   UNL     1      43.761 131.932  18.982  1.00  0.00    -0.123 A 
ATOM      6  C   UNL     1      43.224 131.913  17.685  1.00  0.00    -0.015 A 
ATOM      7  C   UNL     1      45.095 131.518  19.188  1.00  0.00     0.000 A 
ATOM      8  C   UNL     1      44.008 131.531  16.596  1.00  0.00     0.007 A 
ATOM      9  C   UNL     1      45.876 131.134  18.082  1.00  0.00     0.019 A 
ATOM     10  C   UNL     1      45.343 131.142  16.781  1.00  0.00    -0.018 A 
BRANCH   7  11
ATOM     11  C   UNL     1      45.678 131.501  20.549  1.00  0.00     0.258 C 
ATOM     12  O   UNL     1      46.068 132.563  21.102  1.00  0.00    -0.298 OA
ENDBRANCH   7  11
BRANCH  10  13
ATOM     13  C   UNL     1      46.176 130.735  15.620  1.00  0.00    -0.018 A 
ATOM     14  C   UNL     1      46.398 131.625  14.555  1.00  0.00     0.009 A 
ATOM     15  C   UNL     1      46.759 129.455  15.569  1.00  0.00     0.009 A 
ATOM     16  C   UNL     1      47.182 131.244  13.462  1.00  0.00     0.004 A 
ATOM     17  C   UNL     1      47.542 129.075  14.476  1.00  0.00     0.004 A 
ATOM     18  C   UNL     1      47.745 129.961  13.409  1.00  0.00    -0.051 A 
ATOM     19  C   UNL     1      48.618 129.565  12.254  1.00  0.00     0.044 C 
ENDBRANCH  10  13
ENDBRANCH   4   5
ENDBRANCH   1   4
BRANCH   1  20
ATOM     20  C   UNL     1      43.546 131.906  22.382  1.00  0.00     0.064 C 
BRANCH  20  21
ATOM     21  C   UNL     1      43.444 131.205  23.716  1.00  0.00     0.253 C 
BRANCH  21  22
ATOM     22  C   UNL     1      43.518 129.714  23.524  1.00  0.00     0.104 C 
ATOM     23  O   UNL     1      42.626 128.962  24.000  1.00  0.00    -0.544 OA
ATOM     24  O   UNL     1      44.591 129.156  22.841  1.00  0.00    -0.544 OA
ENDBRANCH  21  22
BRANCH  21  25
ATOM     25  N   UNL     1      44.502 131.663  24.625  1.00  0.00    -0.347 N 
ATOM     26  H   UNL     1      45.343 131.047  24.535  1.00  0.00     0.345 HD
ATOM     27  H   UNL     1      44.171 131.643  25.618  1.00  0.00     0.345 HD
ATOM     28  H   UNL     1      44.786 132.639  24.377  1.00  0.00     0.345 HD
ENDBRANCH  21  25
ENDBRANCH  20  21
ENDBRANCH   1  20
TORSDOF 9
ENDMDL
MODEL 6
REMARK VINA RESULT:      -6.1      1.446      1.536
REMARK SMILES Cc1ccc(-c2ccc([N-]/C(O)=C/[C@H]([NH3+])C(=O)[O-])c(C=O)c2)cc1
REMARK SMILES IDX 11 1 12 2 10 4 9 5 8 6 19 7 7 8 22 9 6 10 20 11 21 12 5 13
REMARK SMILES IDX 4 14 23 15 3 16 24 17 2 18 1 19 13 20 14 21 16 22 17 23
REMARK SMILES IDX 18 24 15 25
REMARK H PARENT 12 3 15 26 15 27 15 28
ROOT
ATOM      1  C   UNL     1      44.528 129.336  22.789  1.00  0.00     0.016 C 
ENDROOT
BRANCH   1   2
ATOM      2  O   UNL     1      44.978 128.111  22.295  1.00  0.00    -0.531 OA
ATOM      3  H   UNL     1      45.396 127.413  22.898  1.00  0.00     0.290 HD
ENDBRANCH   1   2
BRANCH   1   4
ATOM      4  N   UNL     1      44.488 130.497  21.949  1.00  0.00    -0.627 NA
BRANCH   4   5
ATOM      5  C   UNL     1      44.850 130.544  20.560  1.00  0.00    -0.123 A 
ATOM      6  C   UNL     1      45.924 129.781  20.076  1.00  0.00    -0.015 A 
ATOM      7  C   UNL     1      44.172 131.422  19.686  1.00  0.00     0.000 A 
ATOM      8  C   UNL     1      46.298 129.850  18.734  1.00  0.00     0.007 A 
ATOM      9  C   UNL     1      44.559 131.484  18.334  1.00  0.00     0.019 A 
ATOM     10  C   UNL     1      45.618 130.699  17.848  1.00  0.00    -0.018 A 
BRANCH   7  11
ATOM     11  C   UNL     1      43.054 132.260  20.176  1.00  0.00     0.258 C 
ATOM     12  O   UNL     1      41.934 132.251  19.600  1.00  0.00    -0.298 OA
ENDBRANCH   7  11
BRANCH  10  13
ATOM     13  C   UNL     1      46.019 130.772  16.419  1.00  0.00    -0.018 A 
ATOM     14  C   UNL     1      45.238 131.487  15.494  1.00  0.00     0.009 A 
ATOM     15  C   UNL     1      47.188 130.130  15.969  1.00  0.00     0.009 A 
ATOM     16  C   UNL     1      45.614 131.556  14.150  1.00  0.00     0.004 A 
ATOM     17  C   UNL     1      47.562 130.200  14.624  1.00  0.00     0.004 A 
ATOM     18  C   UNL     1      46.770 130.900  13.704  1.00  0.00    -0.051 A 
ATOM     19  C   UNL     1      47.195 131.006  12.269  1.00  0.00     0.044 C 
ENDBRANCH  10  13
ENDBRANCH   4   5
ENDBRANCH   1   4
BRANCH   1  20
ATOM     20  C   UNL     1      44.092 129.432  24.048  1.00  0.00     0.064 C 
BRANCH  20  21
ATOM     21  C   UNL     1      43.057 128.495  24.624  1.00  0.00     0.253 C 
BRANCH  21  22
ATOM     22  C   UNL     1      41.675 128.960  24.251  1.00  0.00     0.104 C 
ATOM     23  O   UNL     1      41.428 130.188  24.113  1.00  0.00    -0.544 OA
ATOM     24  O   UNL     1      40.653 128.034  24.086  1.00  0.00    -0.544 OA
ENDBRANCH  21  22
BRANCH  21  25
ATOM     25  N   UNL     1      43.285 127.121  24.157  1.00  0.00    -0.347 N 
ATOM     26  H   UNL     1      44.060 126.681  24.703  1.00  0.00     0.345 HD
ATOM     27  H   UNL     1      43.537 127.114  23.140  1.00  0.00     0.345 HD
ATOM     28  H   UNL     1      42.420 126.550  24.300  1.00  0.00     0.345 HD
ENDBRANCH  21  25
ENDBRANCH  20  21
ENDBRANCH   1  20
TORSDOF 9
ENDMDL
MODEL 7
REMARK VINA RESULT:      -6.0      1.521      2.328
REMARK SMILES Cc1ccc(-c2ccc([N-]/C(O)=C/[C@H]([NH3+])C(=O)[O-])c(C=O)c2)cc1
REMARK SMILES IDX 11 1 12 2 10 4 9 5 8 6 19 7 7 8 22 9 6 10 20 11 21 12 5 13
REMARK SMILES IDX 4 14 23 15 3 16 24 17 2 18 1 19 13 20 14 21 16 22 17 23
REMARK SMILES IDX 18 24 15 25
REMARK H PARENT 12 3 15 26 15 27 15 28
ROOT
ATOM      1  C   UNL     1      43.074 131.170  22.464  1.00  0.00     0.016 C 
ENDROOT
BRANCH   1   2
ATOM      2  O   UNL     1      43.043 131.779  23.720  1.00  0.00    -0.531 OA
ATOM      3  H   UNL     1      43.887 131.939  24.257  1.00  0.00     0.290 HD
ENDBRANCH   1   2
BRANCH   1   4
ATOM      4  N   UNL     1      42.765 131.915  21.279  1.00  0.00    -0.627 NA
BRANCH   4   5
ATOM      5  C   UNL     1      43.393 131.755  19.998  1.00  0.00    -0.123 A 
ATOM      6  C   UNL     1      42.618 131.598  18.837  1.00  0.00    -0.015 A 
ATOM      7  C   UNL     1      44.800 131.676  19.909  1.00  0.00     0.000 A 
ATOM      8  C   UNL     1      43.225 131.409  17.597  1.00  0.00     0.007 A 
ATOM      9  C   UNL     1      45.402 131.484  18.651  1.00  0.00     0.019 A 
ATOM     10  C   UNL     1      44.623 131.354  17.488  1.00  0.00    -0.018 A 
BRANCH   7  11
ATOM     11  C   UNL     1      45.641 131.810  21.120  1.00  0.00     0.258 C 
ATOM     12  O   UNL     1      46.696 131.135  21.257  1.00  0.00    -0.298 OA
ENDBRANCH   7  11
BRANCH  10  13
ATOM     13  C   UNL     1      45.268 131.152  16.165  1.00  0.00    -0.018 A 
ATOM     14  C   UNL     1      44.554 131.397  14.979  1.00  0.00     0.009 A 
ATOM     15  C   UNL     1      46.603 130.716  16.077  1.00  0.00     0.009 A 
ATOM     16  C   UNL     1      45.160 131.207  13.733  1.00  0.00     0.004 A 
ATOM     17  C   UNL     1      47.207 130.526  14.831  1.00  0.00     0.004 A 
ATOM     18  C   UNL     1      46.485 130.756  13.652  1.00  0.00    -0.051 A 
ATOM     19  C   UNL     1      47.147 130.590  12.316  1.00  0.00     0.044 C 
ENDBRANCH  10  13
ENDBRANCH   4   5
ENDBRANCH   1   4
BRANCH   1  20
ATOM     20  C   UNL     1      43.431 129.888  22.349  1.00  0.00     0.064 C 
BRANCH  20  21
ATOM     21  C   UNL     1      43.384 128.923  23.510  1.00  0.00     0.253 C 
BRANCH  21  22
ATOM     22  C   UNL     1      43.743 127.537  23.044  1.00  0.00     0.104 C 
ATOM     23  O   UNL     1      44.865 127.310  22.517  1.00  0.00    -0.544 OA
ATOM     24  O   UNL     1      42.823 126.504  23.169  1.00  0.00    -0.544 OA
ENDBRANCH  21  22
BRANCH  21  25
ATOM     25  N   UNL     1      44.286 129.359  24.583  1.00  0.00    -0.347 N 
ATOM     26  H   UNL     1      45.002 130.018  24.203  1.00  0.00     0.345 HD
ATOM     27  H   UNL     1      44.773 128.537  25.012  1.00  0.00     0.345 HD
ATOM     28  H   UNL     1      43.742 129.860  25.323  1.00  0.00     0.345 HD
ENDBRANCH  21  25
ENDBRANCH  20  21
ENDBRANCH   1  20
TORSDOF 9
ENDMDL
MODEL 8
REMARK VINA RESULT:      -5.6      1.077      1.639
REMARK SMILES Cc1ccc(-c2ccc([N-]/C(O)=C/[C@H]([NH3+])C(=O)[O-])c(C=O)c2)cc1
REMARK SMILES IDX 11 1 12 2 10 4 9 5 8 6 19 7 7 8 22 9 6 10 20 11 21 12 5 13
REMARK SMILES IDX 4 14 23 15 3 16 24 17 2 18 1 19 13 20 14 21 16 22 17 23
REMARK SMILES IDX 18 24 15 25
REMARK H PARENT 12 3 15 26 15 27 15 28
ROOT
ATOM      1  C   UNL     1      42.628 132.239  21.673  1.00  0.00     0.016 C 
ENDROOT
BRANCH   1   2
ATOM      2  O   UNL     1      42.300 133.297  20.823  1.00  0.00    -0.531 OA
ATOM      3  H   UNL     1      41.469 133.280  20.246  1.00  0.00     0.290 HD
ENDBRANCH   1   2
BRANCH   1   4
ATOM      4  N   UNL     1      43.637 131.289  21.307  1.00  0.00    -0.627 NA
BRANCH   4   5
ATOM      5  C   UNL     1      44.234 131.154  20.008  1.00  0.00    -0.123 A 
ATOM      6  C   UNL     1      45.577 130.767  19.876  1.00  0.00    -0.015 A 
ATOM      7  C   UNL     1      43.491 131.487  18.854  1.00  0.00     0.000 A 
ATOM      8  C   UNL     1      46.169 130.668  18.618  1.00  0.00     0.007 A 
ATOM      9  C   UNL     1      44.099 131.383  17.589  1.00  0.00     0.019 A 
ATOM     10  C   UNL     1      45.437 130.971  17.460  1.00  0.00    -0.018 A 
BRANCH   7  11
ATOM     11  C   UNL     1      42.081 131.925  18.965  1.00  0.00     0.258 C 
ATOM     12  O   UNL     1      41.484 132.448  17.987  1.00  0.00    -0.298 OA
ENDBRANCH   7  11
BRANCH  10  13
ATOM     13  C   UNL     1      46.069 130.865  16.120  1.00  0.00    -0.018 A 
ATOM     14  C   UNL     1      46.735 129.687  15.736  1.00  0.00     0.009 A 
ATOM     15  C   UNL     1      46.010 131.938  15.213  1.00  0.00     0.009 A 
ATOM     16  C   UNL     1      47.331 129.587  14.476  1.00  0.00     0.004 A 
ATOM     17  C   UNL     1      46.606 131.836  13.953  1.00  0.00     0.004 A 
ATOM     18  C   UNL     1      47.283 130.666  13.582  1.00  0.00    -0.051 A 
ATOM     19  C   UNL     1      47.889 130.544  12.215  1.00  0.00     0.044 C 
ENDBRANCH  10  13
ENDBRANCH   4   5
ENDBRANCH   1   4
BRANCH   1  20
ATOM     20  C   UNL     1      42.028 132.121  22.861  1.00  0.00     0.064 C 
BRANCH  20  21
ATOM     21  C   UNL     1      42.749 131.618  24.089  1.00  0.00     0.253 C 
BRANCH  21  22
ATOM     22  C   UNL     1      42.762 130.113  24.099  1.00  0.00     0.104 C 
ATOM     23  O   UNL     1      41.799 129.467  24.594  1.00  0.00    -0.544 OA
ATOM     24  O   UNL     1      43.854 129.425  23.587  1.00  0.00    -0.544 OA
ENDBRANCH  21  22
BRANCH  21  25
ATOM     25  N   UNL     1      44.117 132.148  24.142  1.00  0.00    -0.347 N 
ATOM     26  H   UNL     1      44.182 133.026  23.578  1.00  0.00     0.345 HD
ATOM     27  H   UNL     1      44.798 131.449  23.764  1.00  0.00     0.345 HD
ATOM     28  H   UNL     1      44.371 132.376  25.130  1.00  0.00     0.345 HD
ENDBRANCH  21  25
ENDBRANCH  20  21
ENDBRANCH   1  20
TORSDOF 9
ENDMDL
MODEL 9
REMARK VINA RESULT:      -5.4      2.039      2.734
REMARK SMILES Cc1ccc(-c2ccc([N-]/C(O)=C/[C@H]([NH3+])C(=O)[O-])c(C=O)c2)cc1
REMARK SMILES IDX 11 1 12 2 10 4 9 5 8 6 19 7 7 8 22 9 6 10 20 11 21 12 5 13
REMARK SMILES IDX 4 14 23 15 3 16 24 17 2 18 1 19 13 20 14 21 16 22 17 23
REMARK SMILES IDX 18 24 15 25
REMARK H PARENT 12 3 15 26 15 27 15 28
ROOT
ATOM      1  C   UNL     1      44.411 128.877  23.141  1.00  0.00     0.016 C 
ENDROOT
BRANCH   1   2
ATOM      2  O   UNL     1      45.002 128.529  24.357  1.00  0.00    -0.531 OA
ATOM      3  H   UNL     1      44.518 128.647  25.238  1.00  0.00     0.290 HD
ENDBRANCH   1   2
BRANCH   1   4
ATOM      4  N   UNL     1      44.754 130.102  22.481  1.00  0.00    -0.627 NA
BRANCH   4   5
ATOM      5  C   UNL     1      45.040 130.253  21.082  1.00  0.00    -0.123 A 
ATOM      6  C   UNL     1      45.971 129.415  20.448  1.00  0.00    -0.015 A 
ATOM      7  C   UNL     1      44.440 131.302  20.351  1.00  0.00     0.000 A 
ATOM      8  C   UNL     1      46.275 129.581  19.098  1.00  0.00     0.007 A 
ATOM      9  C   UNL     1      44.755 131.461  18.988  1.00  0.00     0.019 A 
ATOM     10  C   UNL     1      45.668 130.603  18.352  1.00  0.00    -0.018 A 
BRANCH   7  11
ATOM     11  C   UNL     1      43.476 132.219  21.001  1.00  0.00     0.258 C 
ATOM     12  O   UNL     1      42.237 131.998  20.956  1.00  0.00    -0.298 OA
ENDBRANCH   7  11
BRANCH  10  13
ATOM     13  C   UNL     1      45.994 130.779  16.913  1.00  0.00    -0.018 A 
ATOM     14  C   UNL     1      46.788 129.834  16.240  1.00  0.00     0.009 A 
ATOM     15  C   UNL     1      45.511 131.892  16.200  1.00  0.00     0.009 A 
ATOM     16  C   UNL     1      47.095 129.998  14.887  1.00  0.00     0.004 A 
ATOM     17  C   UNL     1      45.819 132.055  14.846  1.00  0.00     0.004 A 
ATOM     18  C   UNL     1      46.626 131.117  14.185  1.00  0.00    -0.051 A 
ATOM     19  C   UNL     1      46.923 131.274  12.723  1.00  0.00     0.044 C 
ENDBRANCH  10  13
ENDBRANCH   4   5
ENDBRANCH   1   4
BRANCH   1  20
ATOM     20  C   UNL     1      43.542 128.048  22.556  1.00  0.00     0.064 C 
BRANCH  20  21
ATOM     21  C   UNL     1      43.126 126.735  23.177  1.00  0.00     0.253 C 
BRANCH  21  22
ATOM     22  C   UNL     1      44.156 125.677  22.885  1.00  0.00     0.104 C 
ATOM     23  O   UNL     1      43.854 124.659  22.205  1.00  0.00    -0.544 OA
ATOM     24  O   UNL     1      45.443 125.804  23.391  1.00  0.00    -0.544 OA
ENDBRANCH  21  22
BRANCH  21  25
ATOM     25  N   UNL     1      42.933 126.884  24.625  1.00  0.00    -0.347 N 
ATOM     26  H   UNL     1      42.603 127.852  24.844  1.00  0.00     0.345 HD
ATOM     27  H   UNL     1      43.829 126.706  25.137  1.00  0.00     0.345 HD
ATOM     28  H   UNL     1      42.207 126.209  24.958  1.00  0.00     0.345 HD
ENDBRANCH  21  25
ENDBRANCH  20  21
ENDBRANCH   1  20
TORSDOF 9
ENDMDL


