REMARK SMILES C=Cc1cccc(-c2ccc3cc[nH+]c(O)c3c2)c1
REMARK SMILES IDX 8 1 9 2 10 3 11 4 12 5 13 6 14 7 15 8 17 9 18 10 7 12 3 13
REMARK SMILES IDX 4 14 19 15 5 16 6 17 2 18 1 19 16 20
REMARK H PARENT 14 11 16 21
ROOT
ATOM      1  C   UNL     1       0.743   0.307   0.339  1.00  0.00    -0.017 A 
ATOM      2  C   UNL     1       1.764   1.142   0.827  1.00  0.00     0.009 A 
ATOM      3  C   UNL     1       2.738   0.643   1.693  1.00  0.00     0.010 A 
ATOM      4  C   UNL     1       2.712  -0.701   2.087  1.00  0.00    -0.002 A 
ATOM      5  C   UNL     1       3.686  -1.209   2.955  1.00  0.00     0.079 A 
ATOM      6  C   UNL     1       3.637  -2.551   3.331  1.00  0.00     0.310 A 
ATOM      7  N   UNL     1       2.652  -3.362   2.859  1.00  0.00    -0.179 N 
ATOM      8  C   UNL     1       1.687  -2.903   2.013  1.00  0.00     0.371 A 
ATOM      9  C   UNL     1       1.693  -1.555   1.606  1.00  0.00     0.094 A 
ATOM     10  C   UNL     1       0.716  -1.043   0.734  1.00  0.00     0.028 A 
ATOM     11  H   UNL     1       2.643  -4.363   3.158  1.00  0.00     0.457 HD
ENDROOT
BRANCH   1  12
ATOM     12  C   UNL     1      -0.292   0.844  -0.581  1.00  0.00    -0.018 A 
ATOM     13  C   UNL     1      -2.632   0.990  -1.287  1.00  0.00    -0.026 A 
ATOM     14  C   UNL     1      -2.247   1.855  -2.330  1.00  0.00     0.008 A 
ATOM     15  C   UNL     1      -1.643   0.482  -0.426  1.00  0.00     0.016 A 
ATOM     16  C   UNL     1      -0.908   2.218  -2.488  1.00  0.00     0.001 A 
ATOM     17  C   UNL     1       0.064   1.721  -1.619  1.00  0.00     0.009 A 
BRANCH  13  18
ATOM     18  C   UNL     1      -4.039   0.567  -1.076  1.00  0.00     0.000 C 
ATOM     19  C   UNL     1      -5.097   1.198  -1.588  1.00  0.00     0.009 C 
ENDBRANCH  13  18
ENDBRANCH   1  12
BRANCH   8  20
ATOM     20  O   UNL     1       0.696  -3.772   1.555  1.00  0.00    -0.459 OA
ATOM     21  H   UNL     1       0.677  -4.745   1.838  1.00  0.00     0.300 HD
ENDBRANCH   8  20
TORSDOF 3


