REMARK SMILES Oc1ccc(Nc2cc3[nH]ccc3cc2F)c(F)c1
REMARK SMILES IDX 2 1 3 2 4 3 5 4 17 5 18 6 19 7 1 8 6 10 7 12 8 13 15 14 9 15
REMARK SMILES IDX 14 16 10 17 13 18 11 19 12 20 16 21
REMARK H PARENT 1 9 6 11 10 22
ROOT
ATOM      1  C   UNL     1       4.351   1.382  -1.510  1.00  0.00     0.118 A 
ATOM      2  C   UNL     1       3.758   0.382  -0.728  1.00  0.00     0.048 A 
ATOM      3  C   UNL     1       2.382   0.403  -0.487  1.00  0.00     0.033 A 
ATOM      4  C   UNL     1       1.582   1.434  -1.014  1.00  0.00     0.075 A 
ATOM      5  C   UNL     1       2.181   2.423  -1.813  1.00  0.00     0.150 A 
ATOM      6  F   UNL     1       1.431   3.420  -2.347  1.00  0.00    -0.205 F 
ATOM      7  C   UNL     1       3.559   2.399  -2.051  1.00  0.00     0.087 A 
ENDROOT
BRANCH   1   8
ATOM      8  O   UNL     1       5.722   1.373  -1.756  1.00  0.00    -0.508 OA
ATOM      9  H   UNL     1       6.323   0.649  -1.378  1.00  0.00     0.293 HD
ENDBRANCH   1   8
BRANCH   4  10
ATOM     10  N   UNL     1       0.160   1.456  -0.798  1.00  0.00    -0.351 N 
ATOM     11  H   UNL     1      -0.446   1.859  -1.548  1.00  0.00     0.167 HD
BRANCH  10  12
ATOM     12  C   UNL     1      -0.491   0.879   0.346  1.00  0.00     0.077 A 
ATOM     13  C   UNL     1      -1.707   0.186   0.165  1.00  0.00     0.055 A 
ATOM     14  C   UNL     1       0.038   1.045   1.657  1.00  0.00     0.147 A 
ATOM     15  C   UNL     1      -2.331  -0.352   1.288  1.00  0.00     0.048 A 
ATOM     16  C   UNL     1      -0.621   0.488   2.768  1.00  0.00     0.051 A 
ATOM     17  N   UNL     1      -3.478  -1.050   1.329  1.00  0.00    -0.361 N 
ATOM     18  C   UNL     1      -1.804  -0.209   2.543  1.00  0.00     0.002 A 
ATOM     19  C   UNL     1      -3.679  -1.353   2.632  1.00  0.00     0.083 A 
ATOM     20  C   UNL     1      -2.654  -0.843   3.422  1.00  0.00     0.028 A 
ATOM     21  F   UNL     1       1.163   1.776   1.861  1.00  0.00    -0.205 F 
ATOM     22  H   UNL     1      -4.091  -1.308   0.524  1.00  0.00     0.166 HD
ENDBRANCH  10  12
ENDBRANCH   4  10
TORSDOF 3


