REMARK SMILES N#CC1=CCCC[C@H]1OC(=O)c1cc(F)ccc1Nc1cc2ccccc2[n-]1
REMARK SMILES IDX 9 1 8 2 3 3 4 4 5 5 7 6 6 7 2 8 1 9 10 10 11 11 12 12 13 13
REMARK SMILES IDX 18 14 14 15 17 16 16 17 15 18 19 19 20 21 21 22 28 23 22 24
REMARK SMILES IDX 27 25 23 26 26 27 24 28 25 29
REMARK H PARENT 19 20
ROOT
ATOM      1  O   UNL     1      -0.265  -0.946  -0.533  1.00  0.00    -0.453 OA
ENDROOT
BRANCH   1   2
ATOM      2  C   UNL     1       0.666  -1.966  -0.893  1.00  0.00     0.217 C 
ATOM      3  C   UNL     1       2.046  -1.349  -0.939  1.00  0.00     0.066 C 
ATOM      4  C   UNL     1       2.914  -1.454   0.081  1.00  0.00    -0.008 C 
ATOM      5  C   UNL     1       2.677  -2.348   1.270  1.00  0.00     0.029 C 
ATOM      6  C   UNL     1       0.590  -3.129   0.110  1.00  0.00     0.051 C 
ATOM      7  C   UNL     1       1.201  -2.718   1.450  1.00  0.00     0.008 C 
BRANCH   3   8
ATOM      8  C   UNL     1       2.377  -0.494  -2.051  1.00  0.00     0.098 C 
ATOM      9  N   UNL     1       2.643   0.194  -2.942  1.00  0.00    -0.193 NA
ENDBRANCH   3   8
ENDBRANCH   1   2
BRANCH   1  10
ATOM     10  C   UNL     1      -1.639  -1.010  -0.783  1.00  0.00     0.339 C 
ATOM     11  O   UNL     1      -2.123  -1.991  -1.412  1.00  0.00    -0.246 OA
BRANCH  10  12
ATOM     12  C   UNL     1      -2.522   0.100  -0.350  1.00  0.00     0.066 A 
ATOM     13  C   UNL     1      -3.731   0.323  -1.037  1.00  0.00     0.055 A 
ATOM     14  C   UNL     1      -2.180   0.953   0.728  1.00  0.00    -0.029 A 
ATOM     15  C   UNL     1      -4.572   1.378  -0.673  1.00  0.00     0.124 A 
ATOM     16  C   UNL     1      -3.036   2.004   1.085  1.00  0.00     0.007 A 
ATOM     17  C   UNL     1      -4.223   2.219   0.384  1.00  0.00     0.039 A 
ATOM     18  F   UNL     1      -5.729   1.586  -1.349  1.00  0.00    -0.207 F 
BRANCH  14  19
ATOM     19  N   UNL     1      -1.012   0.721   1.523  1.00  0.00    -0.456 N 
ATOM     20  H   UNL     1      -1.102   0.125   2.376  1.00  0.00     0.026 HD
BRANCH  19  21
ATOM     21  C   UNL     1       0.257   1.309   1.217  1.00  0.00    -0.060 A 
ATOM     22  C   UNL     1       0.528   2.090   0.096  1.00  0.00     0.007 A 
ATOM     23  N   UNL     1       1.363   1.075   1.963  1.00  0.00    -0.436 NA
ATOM     24  C   UNL     1       1.875   2.338   0.174  1.00  0.00    -0.023 A 
ATOM     25  C   UNL     1       2.343   1.720   1.305  1.00  0.00    -0.034 A 
ATOM     26  C   UNL     1       2.719   3.035  -0.688  1.00  0.00     0.008 A 
ATOM     27  C   UNL     1       3.692   1.759   1.651  1.00  0.00     0.004 A 
ATOM     28  C   UNL     1       4.086   3.093  -0.362  1.00  0.00     0.001 A 
ATOM     29  C   UNL     1       4.571   2.458   0.802  1.00  0.00     0.000 A 
ENDBRANCH  19  21
ENDBRANCH  14  19
ENDBRANCH  10  12
ENDBRANCH   1  10
TORSDOF 6


