MODEL 1
REMARK VINA RESULT:      -6.9      0.000      0.000
REMARK SMILES Cc1cc([NH2+]N)c([O-])c([O-])c1F
REMARK SMILES IDX 5 1 4 4 2 5 3 6 11 7 9 8 7 9 1 10 12 11 10 12 8 13 6 14
REMARK H PARENT 5 2 5 3 6 15 6 16
ROOT
ATOM      1  N   UNL     1      45.643 130.290  18.495  1.00  0.00    -0.240 N 
ATOM      2  H   UNL     1      46.561 129.907  18.817  1.00  0.00     0.376 HD
ATOM      3  H   UNL     1      44.894 129.631  18.809  1.00  0.00     0.376 HD
ENDROOT
BRANCH   1   4
ATOM      4  C   UNL     1      45.630 130.442  17.056  1.00  0.00     0.140 A 
ATOM      5  C   UNL     1      46.726 130.126  14.897  1.00  0.00    -0.010 A 
ATOM      6  C   UNL     1      46.712 129.971  16.292  1.00  0.00     0.075 A 
ATOM      7  C   UNL     1      45.661 130.787  14.265  1.00  0.00     0.118 A 
ATOM      8  C   UNL     1      44.586 131.272  15.019  1.00  0.00    -0.074 A 
ATOM      9  C   UNL     1      44.568 131.104  16.409  1.00  0.00    -0.049 A 
ATOM     10  C   UNL     1      47.896 129.640  14.092  1.00  0.00     0.048 C 
ATOM     11  F   UNL     1      45.667 130.969  12.920  1.00  0.00    -0.207 F 
ATOM     12  O   UNL     1      43.536 131.925  14.385  1.00  0.00    -0.871 OA
ATOM     13  O   UNL     1      43.497 131.601  17.144  1.00  0.00    -0.869 OA
ENDBRANCH   1   4
BRANCH   1  14
ATOM     14  N   UNL     1      45.438 131.540  19.118  1.00  0.00    -0.178 NA
ATOM     15  H   UNL     1      44.837 132.138  18.502  1.00  0.00     0.183 HD
ATOM     16  H   UNL     1      46.361 132.019  19.240  1.00  0.00     0.183 HD
ENDBRANCH   1  14
TORSDOF 2
ENDMDL
MODEL 2
REMARK VINA RESULT:      -6.5      2.598      3.652
REMARK SMILES Cc1cc([NH2+]N)c([O-])c([O-])c1F
REMARK SMILES IDX 5 1 4 4 2 5 3 6 11 7 9 8 7 9 1 10 12 11 10 12 8 13 6 14
REMARK H PARENT 5 2 5 3 6 15 6 16
ROOT
ATOM      1  N   UNL     1      47.590 129.865  15.270  1.00  0.00    -0.240 N 
ATOM      2  H   UNL     1      48.144 129.453  16.056  1.00  0.00     0.376 HD
ATOM      3  H   UNL     1      48.191 130.574  14.792  1.00  0.00     0.376 HD
ENDROOT
BRANCH   1   4
ATOM      4  C   UNL     1      46.372 130.469  15.766  1.00  0.00     0.140 A 
ATOM      5  C   UNL     1      44.960 131.115  17.650  1.00  0.00    -0.010 A 
ATOM      6  C   UNL     1      46.144 130.550  17.150  1.00  0.00     0.075 A 
ATOM      7  C   UNL     1      43.982 131.574  16.752  1.00  0.00     0.118 A 
ATOM      8  C   UNL     1      44.195 131.484  15.373  1.00  0.00    -0.074 A 
ATOM      9  C   UNL     1      45.382 130.933  14.877  1.00  0.00    -0.049 A 
ATOM     10  C   UNL     1      44.715 131.178  19.129  1.00  0.00     0.048 C 
ATOM     11  F   UNL     1      42.820 132.102  17.215  1.00  0.00    -0.207 F 
ATOM     12  O   UNL     1      43.221 131.942  14.492  1.00  0.00    -0.871 OA
ATOM     13  O   UNL     1      45.572 130.842  13.502  1.00  0.00    -0.869 OA
ENDBRANCH   1   4
BRANCH   1  14
ATOM     14  N   UNL     1      47.285 128.836  14.353  1.00  0.00    -0.178 NA
ATOM     15  H   UNL     1      46.609 129.199  13.639  1.00  0.00     0.183 HD
ATOM     16  H   UNL     1      46.828 128.044  14.863  1.00  0.00     0.183 HD
ENDBRANCH   1  14
TORSDOF 2
ENDMDL
MODEL 3
REMARK VINA RESULT:      -6.4      3.483      4.737
REMARK SMILES Cc1cc([NH2+]N)c([O-])c([O-])c1F
REMARK SMILES IDX 5 1 4 4 2 5 3 6 11 7 9 8 7 9 1 10 12 11 10 12 8 13 6 14
REMARK H PARENT 5 2 5 3 6 15 6 16
ROOT
ATOM      1  N   UNL     1      46.346 130.248  17.012  1.00  0.00    -0.240 N 
ATOM      2  H   UNL     1      47.185 129.889  17.524  1.00  0.00     0.376 HD
ATOM      3  H   UNL     1      46.671 130.977  16.336  1.00  0.00     0.376 HD
ENDROOT
BRANCH   1   4
ATOM      4  C   UNL     1      45.379 130.795  17.938  1.00  0.00     0.140 A 
ATOM      5  C   UNL     1      44.682 131.237  20.236  1.00  0.00    -0.010 A 
ATOM      6  C   UNL     1      45.618 130.729  19.322  1.00  0.00     0.075 A 
ATOM      7  C   UNL     1      43.481 131.788  19.761  1.00  0.00     0.118 A 
ATOM      8  C   UNL     1      43.229 131.846  18.386  1.00  0.00    -0.074 A 
ATOM      9  C   UNL     1      44.169 131.350  17.475  1.00  0.00    -0.049 A 
ATOM     10  C   UNL     1      44.936 131.143  21.713  1.00  0.00     0.048 C 
ATOM     11  F   UNL     1      42.553 132.263  20.630  1.00  0.00    -0.207 F 
ATOM     12  O   UNL     1      42.037 132.393  17.925  1.00  0.00    -0.871 OA
ATOM     13  O   UNL     1      43.896 131.406  16.112  1.00  0.00    -0.869 OA
ENDBRANCH   1   4
BRANCH   1  14
ATOM     14  N   UNL     1      45.775 129.179  16.287  1.00  0.00    -0.178 NA
ATOM     15  H   UNL     1      46.362 128.321  16.419  1.00  0.00     0.183 HD
ATOM     16  H   UNL     1      45.770 129.420  15.268  1.00  0.00     0.183 HD
ENDBRANCH   1  14
TORSDOF 2
ENDMDL
MODEL 4
REMARK VINA RESULT:      -6.3      3.097      3.972
REMARK SMILES Cc1cc([NH2+]N)c([O-])c([O-])c1F
REMARK SMILES IDX 5 1 4 4 2 5 3 6 11 7 9 8 7 9 1 10 12 11 10 12 8 13 6 14
REMARK H PARENT 5 2 5 3 6 15 6 16
ROOT
ATOM      1  N   UNL     1      45.192 131.306  21.817  1.00  0.00    -0.240 N 
ATOM      2  H   UNL     1      44.973 132.184  22.342  1.00  0.00     0.376 HD
ATOM      3  H   UNL     1      46.230 131.181  21.823  1.00  0.00     0.376 HD
ENDROOT
BRANCH   1   4
ATOM      4  C   UNL     1      44.686 131.380  20.464  1.00  0.00     0.140 A 
ATOM      5  C   UNL     1      45.045 131.100  18.065  1.00  0.00    -0.010 A 
ATOM      6  C   UNL     1      45.512 131.016  19.386  1.00  0.00     0.075 A 
ATOM      7  C   UNL     1      43.750 131.584  17.820  1.00  0.00     0.118 A 
ATOM      8  C   UNL     1      42.927 131.962  18.885  1.00  0.00    -0.074 A 
ATOM      9  C   UNL     1      43.389 131.865  20.203  1.00  0.00    -0.049 A 
ATOM     10  C   UNL     1      45.942 130.729  16.919  1.00  0.00     0.048 C 
ATOM     11  F   UNL     1      43.289 131.696  16.548  1.00  0.00    -0.207 F 
ATOM     12  O   UNL     1      41.646 132.440  18.633  1.00  0.00    -0.871 OA
ATOM     13  O   UNL     1      42.560 132.256  21.249  1.00  0.00    -0.869 OA
ENDBRANCH   1   4
BRANCH   1  14
ATOM     14  N   UNL     1      44.601 130.220  22.499  1.00  0.00    -0.178 NA
ATOM     15  H   UNL     1      45.307 129.451  22.600  1.00  0.00     0.183 HD
ATOM     16  H   UNL     1      43.798 129.855  21.935  1.00  0.00     0.183 HD
ENDBRANCH   1  14
TORSDOF 2
ENDMDL
MODEL 5
REMARK VINA RESULT:      -6.0      3.403      4.496
REMARK SMILES Cc1cc([NH2+]N)c([O-])c([O-])c1F
REMARK SMILES IDX 5 1 4 4 2 5 3 6 11 7 9 8 7 9 1 10 12 11 10 12 8 13 6 14
REMARK H PARENT 5 2 5 3 6 15 6 16
ROOT
ATOM      1  N   UNL     1      45.908 131.022  15.910  1.00  0.00    -0.240 N 
ATOM      2  H   UNL     1      45.376 130.400  15.259  1.00  0.00     0.376 HD
ATOM      3  H   UNL     1      46.828 130.565  16.108  1.00  0.00     0.376 HD
ENDROOT
BRANCH   1   4
ATOM      4  C   UNL     1      45.164 131.238  17.131  1.00  0.00     0.140 A 
ATOM      5  C   UNL     1      45.053 131.164  19.570  1.00  0.00    -0.010 A 
ATOM      6  C   UNL     1      45.766 130.979  18.375  1.00  0.00     0.075 A 
ATOM      7  C   UNL     1      43.714 131.582  19.517  1.00  0.00     0.118 A 
ATOM      8  C   UNL     1      43.101 131.829  18.283  1.00  0.00    -0.074 A 
ATOM      9  C   UNL     1      43.818 131.657  17.093  1.00  0.00    -0.049 A 
ATOM     10  C   UNL     1      45.698 130.864  20.892  1.00  0.00     0.048 C 
ATOM     11  F   UNL     1      43.000 131.743  20.660  1.00  0.00    -0.207 F 
ATOM     12  O   UNL     1      41.775 132.242  18.241  1.00  0.00    -0.871 OA
ATOM     13  O   UNL     1      43.190 131.896  15.876  1.00  0.00    -0.869 OA
ENDBRANCH   1   4
BRANCH   1  14
ATOM     14  N   UNL     1      46.144 132.253  15.259  1.00  0.00    -0.178 NA
ATOM     15  H   UNL     1      46.546 132.935  15.946  1.00  0.00     0.183 HD
ATOM     16  H   UNL     1      45.235 132.637  14.910  1.00  0.00     0.183 HD
ENDBRANCH   1  14
TORSDOF 2
ENDMDL
MODEL 6
REMARK VINA RESULT:      -6.0      2.158      2.867
REMARK SMILES Cc1cc([NH2+]N)c([O-])c([O-])c1F
REMARK SMILES IDX 5 1 4 4 2 5 3 6 11 7 9 8 7 9 1 10 12 11 10 12 8 13 6 14
REMARK H PARENT 5 2 5 3 6 15 6 16
ROOT
ATOM      1  N   UNL     1      46.174 130.507  20.156  1.00  0.00    -0.240 N 
ATOM      2  H   UNL     1      47.133 130.206  19.866  1.00  0.00     0.376 HD
ATOM      3  H   UNL     1      45.743 129.722  20.698  1.00  0.00     0.376 HD
ENDROOT
BRANCH   1   4
ATOM      4  C   UNL     1      45.371 130.839  19.000  1.00  0.00     0.140 A 
ATOM      5  C   UNL     1      45.129 130.972  16.574  1.00  0.00    -0.010 A 
ATOM      6  C   UNL     1      45.886 130.637  17.708  1.00  0.00     0.075 A 
ATOM      7  C   UNL     1      43.857 131.544  16.737  1.00  0.00     0.118 A 
ATOM      8  C   UNL     1      43.342 131.762  18.020  1.00  0.00    -0.074 A 
ATOM      9  C   UNL     1      44.093 131.415  19.149  1.00  0.00    -0.049 A 
ATOM     10  C   UNL     1      45.696 130.773  15.198  1.00  0.00     0.048 C 
ATOM     11  F   UNL     1      43.120 131.897  15.653  1.00  0.00    -0.207 F 
ATOM     12  O   UNL     1      42.082 132.328  18.171  1.00  0.00    -0.871 OA
ATOM     13  O   UNL     1      43.570 131.648  20.417  1.00  0.00    -0.869 OA
ENDBRANCH   1   4
BRANCH   1  14
ATOM     14  N   UNL     1      46.296 131.629  21.004  1.00  0.00    -0.178 NA
ATOM     15  H   UNL     1      47.183 132.139  20.775  1.00  0.00     0.183 HD
ATOM     16  H   UNL     1      46.352 131.305  21.998  1.00  0.00     0.183 HD
ENDBRANCH   1  14
TORSDOF 2
ENDMDL
MODEL 7
REMARK VINA RESULT:      -6.0      3.074      4.194
REMARK SMILES Cc1cc([NH2+]N)c([O-])c([O-])c1F
REMARK SMILES IDX 5 1 4 4 2 5 3 6 11 7 9 8 7 9 1 10 12 11 10 12 8 13 6 14
REMARK H PARENT 5 2 5 3 6 15 6 16
ROOT
ATOM      1  N   UNL     1      46.371 129.785  15.924  1.00  0.00    -0.240 N 
ATOM      2  H   UNL     1      47.294 129.473  16.304  1.00  0.00     0.376 HD
ATOM      3  H   UNL     1      46.558 130.437  15.127  1.00  0.00     0.376 HD
ENDROOT
BRANCH   1   4
ATOM      4  C   UNL     1      45.588 130.434  16.952  1.00  0.00     0.140 A 
ATOM      5  C   UNL     1      45.261 131.001  19.304  1.00  0.00    -0.010 A 
ATOM      6  C   UNL     1      46.017 130.394  18.290  1.00  0.00     0.075 A 
ATOM      7  C   UNL     1      44.047 131.627  18.979  1.00  0.00     0.118 A 
ATOM      8  C   UNL     1      43.604 131.659  17.652  1.00  0.00    -0.074 A 
ATOM      9  C   UNL     1      44.367 131.065  16.640  1.00  0.00    -0.049 A 
ATOM     10  C   UNL     1      45.716 130.935  20.733  1.00  0.00     0.048 C 
ATOM     11  F   UNL     1      43.289 132.199  19.949  1.00  0.00    -0.207 F 
ATOM     12  O   UNL     1      42.401 132.282  17.340  1.00  0.00    -0.871 OA
ATOM     13  O   UNL     1      43.907 131.097  15.328  1.00  0.00    -0.869 OA
ENDBRANCH   1   4
BRANCH   1  14
ATOM     14  N   UNL     1      45.686 128.653  15.431  1.00  0.00    -0.178 NA
ATOM     15  H   UNL     1      46.376 127.885  15.246  1.00  0.00     0.183 HD
ATOM     16  H   UNL     1      45.220 128.899  14.527  1.00  0.00     0.183 HD
ENDBRANCH   1  14
TORSDOF 2
ENDMDL
MODEL 8
REMARK VINA RESULT:      -6.0      3.224      3.914
REMARK SMILES Cc1cc([NH2+]N)c([O-])c([O-])c1F
REMARK SMILES IDX 5 1 4 4 2 5 3 6 11 7 9 8 7 9 1 10 12 11 10 12 8 13 6 14
REMARK H PARENT 5 2 5 3 6 15 6 16
ROOT
ATOM      1  N   UNL     1      41.674 132.395  18.673  1.00  0.00    -0.240 N 
ATOM      2  H   UNL     1      41.115 131.634  19.122  1.00  0.00     0.376 HD
ATOM      3  H   UNL     1      41.126 132.755  17.857  1.00  0.00     0.376 HD
ENDROOT
BRANCH   1   4
ATOM      4  C   UNL     1      42.965 131.900  18.250  1.00  0.00     0.140 A 
ATOM      5  C   UNL     1      44.496 131.282  16.452  1.00  0.00    -0.010 A 
ATOM      6  C   UNL     1      43.256 131.779  16.881  1.00  0.00     0.075 A 
ATOM      7  C   UNL     1      45.443 130.872  17.405  1.00  0.00     0.118 A 
ATOM      8  C   UNL     1      45.157 130.976  18.770  1.00  0.00    -0.074 A 
ATOM      9  C   UNL     1      43.924 131.485  19.196  1.00  0.00    -0.049 A 
ATOM     10  C   UNL     1      44.789 131.135  14.987  1.00  0.00     0.048 C 
ATOM     11  F   UNL     1      46.639 130.366  17.010  1.00  0.00    -0.207 F 
ATOM     12  O   UNL     1      46.100 130.568  19.707  1.00  0.00    -0.871 OA
ATOM     13  O   UNL     1      43.653 131.570  20.558  1.00  0.00    -0.869 OA
ENDBRANCH   1   4
BRANCH   1  14
ATOM     14  N   UNL     1      41.835 133.441  19.607  1.00  0.00    -0.178 NA
ATOM     15  H   UNL     1      42.031 133.032  20.552  1.00  0.00     0.183 HD
ATOM     16  H   UNL     1      40.945 133.990  19.666  1.00  0.00     0.183 HD
ENDBRANCH   1  14
TORSDOF 2
ENDMDL
MODEL 9
REMARK VINA RESULT:      -5.9      3.945      5.409
REMARK SMILES Cc1cc([NH2+]N)c([O-])c([O-])c1F
REMARK SMILES IDX 5 1 4 4 2 5 3 6 11 7 9 8 7 9 1 10 12 11 10 12 8 13 6 14
REMARK H PARENT 5 2 5 3 6 15 6 16
ROOT
ATOM      1  N   UNL     1      44.057 131.377  15.730  1.00  0.00    -0.240 N 
ATOM      2  H   UNL     1      43.173 131.778  15.342  1.00  0.00     0.376 HD
ATOM      3  H   UNL     1      44.131 130.387  15.400  1.00  0.00     0.376 HD
ENDROOT
BRANCH   1   4
ATOM      4  C   UNL     1      44.056 131.442  17.175  1.00  0.00     0.140 A 
ATOM      5  C   UNL     1      42.962 132.120  19.250  1.00  0.00    -0.010 A 
ATOM      6  C   UNL     1      42.972 132.030  17.850  1.00  0.00     0.075 A 
ATOM      7  C   UNL     1      44.064 131.645  19.980  1.00  0.00     0.118 A 
ATOM      8  C   UNL     1      45.153 131.071  19.317  1.00  0.00    -0.074 A 
ATOM      9  C   UNL     1      45.155 130.970  17.920  1.00  0.00    -0.049 A 
ATOM     10  C   UNL     1      41.810 132.769  19.960  1.00  0.00     0.048 C 
ATOM     11  F   UNL     1      44.084 131.745  21.334  1.00  0.00    -0.207 F 
ATOM     12  O   UNL     1      46.239 130.603  20.048  1.00  0.00    -0.871 OA
ATOM     13  O   UNL     1      46.252 130.406  17.277  1.00  0.00    -0.869 OA
ENDBRANCH   1   4
BRANCH   1  14
ATOM     14  N   UNL     1      45.146 132.110  15.210  1.00  0.00    -0.178 NA
ATOM     15  H   UNL     1      45.239 133.011  15.738  1.00  0.00     0.183 HD
ATOM     16  H   UNL     1      44.958 132.338  14.205  1.00  0.00     0.183 HD
ENDBRANCH   1  14
TORSDOF 2
ENDMDL


