MODEL 1
REMARK VINA RESULT:      -2.7      0.000      0.000
REMARK SMILES C=CCOC(=O)Oc1c([NH2+]c2ccc(C)c(F)c2)ccc([C@@H]2O[C@H]2c2ccccc2)c1N
REMARK SMILES IDX 5 1 6 2 4 3 3 4 2 5 1 6 7 7 8 8 9 9 31 10 19 11 21 12 20 13
REMARK SMILES IDX 10 14 11 17 12 18 18 19 13 20 16 21 14 22 17 23 15 24 32 25
REMARK SMILES IDX 22 28 23 29 24 30 25 31 26 32 30 33 27 34 29 35 28 36
REMARK H PARENT 10 15 10 16 32 26 32 27
ROOT
ATOM      1  C   UNL     1      44.009 131.936  23.474  1.00  0.00     0.514 C 
ATOM      2  O   UNL     1      44.895 132.831  23.563  1.00  0.00    -0.203 OA
ENDROOT
BRANCH   1   3
ATOM      3  O   UNL     1      43.431 131.391  24.625  1.00  0.00    -0.430 OA
BRANCH   3   4
ATOM      4  C   UNL     1      42.290 130.535  24.597  1.00  0.00     0.264 C 
BRANCH   4   5
ATOM      5  C   UNL     1      41.166 131.171  23.829  1.00  0.00     0.006 C 
ATOM      6  C   UNL     1      41.174 132.473  23.535  1.00  0.00     0.007 C 
ENDBRANCH   4   5
ENDBRANCH   3   4
ENDBRANCH   1   3
BRANCH   1   7
ATOM      7  O   UNL     1      43.612 131.448  22.225  1.00  0.00    -0.386 OA
BRANCH   7   8
ATOM      8  C   UNL     1      44.468 130.756  21.358  1.00  0.00     0.218 A 
ATOM      9  C   UNL     1      45.143 129.609  21.835  1.00  0.00     0.180 A 
ATOM     10  C   UNL     1      44.639 131.174  20.016  1.00  0.00     0.087 A 
ATOM     11  C   UNL     1      46.014 128.920  20.977  1.00  0.00     0.073 A 
ATOM     12  C   UNL     1      45.571 130.503  19.190  1.00  0.00     0.011 A 
ATOM     13  C   UNL     1      46.231 129.365  19.676  1.00  0.00     0.015 A 
BRANCH   9  14
ATOM     14  N   UNL     1      44.977 129.155  23.198  1.00  0.00    -0.278 N 
ATOM     15  H   UNL     1      45.828 129.363  23.772  1.00  0.00     0.358 HD
ATOM     16  H   UNL     1      44.190 129.679  23.648  1.00  0.00     0.358 HD
BRANCH  14  17
ATOM     17  C   UNL     1      44.699 127.739  23.217  1.00  0.00     0.137 A 
ATOM     18  C   UNL     1      43.424 127.259  22.863  1.00  0.00     0.068 A 
ATOM     19  C   UNL     1      45.706 126.816  23.550  1.00  0.00     0.107 A 
ATOM     20  C   UNL     1      43.165 125.887  22.842  1.00  0.00     0.012 A 
ATOM     21  C   UNL     1      45.448 125.443  23.528  1.00  0.00     0.132 A 
ATOM     22  C   UNL     1      44.168 124.969  23.188  1.00  0.00    -0.015 A 
ATOM     23  F   UNL     1      46.448 124.575  23.832  1.00  0.00    -0.206 F 
ATOM     24  C   UNL     1      43.891 123.497  23.118  1.00  0.00     0.047 C 
ENDBRANCH  14  17
ENDBRANCH   9  14
BRANCH  10  25
ATOM     25  N   UNL     1      43.817 132.224  19.478  1.00  0.00    -0.395 N 
ATOM     26  H   UNL     1      43.412 132.966  20.085  1.00  0.00     0.156 HD
ATOM     27  H   UNL     1      43.694 132.356  18.451  1.00  0.00     0.156 HD
ENDBRANCH  10  25
BRANCH  12  28
ATOM     28  C   UNL     1      45.835 130.960  17.778  1.00  0.00     0.185 C 
ATOM     29  O   UNL     1      44.698 130.808  16.957  1.00  0.00    -0.359 OA
ATOM     30  C   UNL     1      45.754 129.900  16.737  1.00  0.00     0.183 C 
BRANCH  30  31
ATOM     31  C   UNL     1      46.463 130.183  15.443  1.00  0.00    -0.016 A 
ATOM     32  C   UNL     1      46.449 131.480  14.907  1.00  0.00     0.006 A 
ATOM     33  C   UNL     1      47.214 129.182  14.802  1.00  0.00     0.006 A 
ATOM     34  C   UNL     1      47.144 131.763  13.727  1.00  0.00     0.000 A 
ATOM     35  C   UNL     1      47.909 129.469  13.623  1.00  0.00     0.000 A 
ATOM     36  C   UNL     1      47.875 130.759  13.087  1.00  0.00     0.000 A 
ENDBRANCH  30  31
ENDBRANCH  12  28
ENDBRANCH   7   8
ENDBRANCH   1   7
TORSDOF 10
ENDMDL
MODEL 2
REMARK VINA RESULT:      -2.7      4.145      7.036
REMARK SMILES C=CCOC(=O)Oc1c([NH2+]c2ccc(C)c(F)c2)ccc([C@@H]2O[C@H]2c2ccccc2)c1N
REMARK SMILES IDX 5 1 6 2 4 3 3 4 2 5 1 6 7 7 8 8 9 9 31 10 19 11 21 12 20 13
REMARK SMILES IDX 10 14 11 17 12 18 18 19 13 20 16 21 14 22 17 23 15 24 32 25
REMARK SMILES IDX 22 28 23 29 24 30 25 31 26 32 30 33 27 34 29 35 28 36
REMARK H PARENT 10 15 10 16 32 26 32 27
ROOT
ATOM      1  C   UNL     1      44.183 130.163  23.212  1.00  0.00     0.514 C 
ATOM      2  O   UNL     1      44.297 130.089  24.468  1.00  0.00    -0.203 OA
ENDROOT
BRANCH   1   3
ATOM      3  O   UNL     1      44.136 131.408  22.576  1.00  0.00    -0.430 OA
BRANCH   3   4
ATOM      4  C   UNL     1      44.667 131.640  21.272  1.00  0.00     0.264 C 
BRANCH   4   5
ATOM      5  C   UNL     1      43.610 132.192  20.358  1.00  0.00     0.006 C 
ATOM      6  C   UNL     1      42.503 132.763  20.839  1.00  0.00     0.007 C 
ENDBRANCH   4   5
ENDBRANCH   3   4
ENDBRANCH   1   3
BRANCH   1   7
ATOM      7  O   UNL     1      44.071 129.006  22.437  1.00  0.00    -0.386 OA
BRANCH   7   8
ATOM      8  C   UNL     1      44.450 127.734  22.888  1.00  0.00     0.218 A 
ATOM      9  C   UNL     1      43.519 126.961  23.618  1.00  0.00     0.180 A 
ATOM     10  C   UNL     1      45.735 127.212  22.598  1.00  0.00     0.087 A 
ATOM     11  C   UNL     1      43.898 125.693  24.086  1.00  0.00     0.073 A 
ATOM     12  C   UNL     1      46.116 125.960  23.135  1.00  0.00     0.011 A 
ATOM     13  C   UNL     1      45.181 125.203  23.855  1.00  0.00     0.015 A 
BRANCH   9  14
ATOM     14  N   UNL     1      42.198 127.467  23.919  1.00  0.00    -0.278 N 
ATOM     15  H   UNL     1      42.154 127.855  24.889  1.00  0.00     0.358 HD
ATOM     16  H   UNL     1      41.974 128.263  23.277  1.00  0.00     0.358 HD
BRANCH  14  17
ATOM     17  C   UNL     1      41.220 126.418  23.759  1.00  0.00     0.137 A 
ATOM     18  C   UNL     1      40.111 126.341  24.623  1.00  0.00     0.068 A 
ATOM     19  C   UNL     1      41.337 125.482  22.717  1.00  0.00     0.107 A 
ATOM     20  C   UNL     1      39.143 125.350  24.445  1.00  0.00     0.012 A 
ATOM     21  C   UNL     1      40.368 124.491  22.538  1.00  0.00     0.132 A 
ATOM     22  C   UNL     1      39.270 124.410  23.412  1.00  0.00    -0.015 A 
ATOM     23  F   UNL     1      40.496 123.615  21.507  1.00  0.00    -0.206 F 
ATOM     24  C   UNL     1      38.200 123.379  23.204  1.00  0.00     0.047 C 
ENDBRANCH  14  17
ENDBRANCH   9  14
BRANCH  10  25
ATOM     25  N   UNL     1      46.613 127.915  21.703  1.00  0.00    -0.395 N 
ATOM     26  H   UNL     1      46.604 128.954  21.634  1.00  0.00     0.156 HD
ATOM     27  H   UNL     1      47.374 127.428  21.182  1.00  0.00     0.156 HD
ENDBRANCH  10  25
BRANCH  12  28
ATOM     28  C   UNL     1      47.498 125.402  22.910  1.00  0.00     0.185 C 
ATOM     29  O   UNL     1      47.516 123.994  23.005  1.00  0.00    -0.359 OA
ATOM     30  C   UNL     1      48.102 124.701  24.076  1.00  0.00     0.183 C 
BRANCH  30  31
ATOM     31  C   UNL     1      49.597 124.567  24.070  1.00  0.00    -0.016 A 
ATOM     32  C   UNL     1      50.393 125.633  23.620  1.00  0.00     0.006 A 
ATOM     33  C   UNL     1      50.218 123.418  24.590  1.00  0.00     0.006 A 
ATOM     34  C   UNL     1      51.788 125.535  23.655  1.00  0.00     0.000 A 
ATOM     35  C   UNL     1      51.613 123.324  24.624  1.00  0.00     0.000 A 
ATOM     36  C   UNL     1      52.397 124.383  24.158  1.00  0.00     0.000 A 
ENDBRANCH  30  31
ENDBRANCH  12  28
ENDBRANCH   7   8
ENDBRANCH   1   7
TORSDOF 10
ENDMDL
MODEL 3
REMARK VINA RESULT:      -1.4      4.271      7.251
REMARK SMILES C=CCOC(=O)Oc1c([NH2+]c2ccc(C)c(F)c2)ccc([C@@H]2O[C@H]2c2ccccc2)c1N
REMARK SMILES IDX 5 1 6 2 4 3 3 4 2 5 1 6 7 7 8 8 9 9 31 10 19 11 21 12 20 13
REMARK SMILES IDX 10 14 11 17 12 18 18 19 13 20 16 21 14 22 17 23 15 24 32 25
REMARK SMILES IDX 22 28 23 29 24 30 25 31 26 32 30 33 27 34 29 35 28 36
REMARK H PARENT 10 15 10 16 32 26 32 27
ROOT
ATOM      1  C   UNL     1      43.459 129.864  23.076  1.00  0.00     0.514 C 
ATOM      2  O   UNL     1      44.539 129.220  23.188  1.00  0.00    -0.203 OA
ENDROOT
BRANCH   1   3
ATOM      3  O   UNL     1      42.372 129.579  23.908  1.00  0.00    -0.430 OA
BRANCH   3   4
ATOM      4  C   UNL     1      41.224 128.852  23.474  1.00  0.00     0.264 C 
BRANCH   4   5
ATOM      5  C   UNL     1      40.908 127.736  24.429  1.00  0.00     0.006 C 
ATOM      6  C   UNL     1      39.666 127.264  24.562  1.00  0.00     0.007 C 
ENDBRANCH   4   5
ENDBRANCH   3   4
ENDBRANCH   1   3
BRANCH   1   7
ATOM      7  O   UNL     1      43.317 130.852  22.097  1.00  0.00    -0.386 OA
BRANCH   7   8
ATOM      8  C   UNL     1      44.398 131.561  21.554  1.00  0.00     0.218 A 
ATOM      9  C   UNL     1      44.482 131.709  20.150  1.00  0.00     0.180 A 
ATOM     10  C   UNL     1      45.378 132.148  22.391  1.00  0.00     0.087 A 
ATOM     11  C   UNL     1      45.570 132.404  19.599  1.00  0.00     0.073 A 
ATOM     12  C   UNL     1      46.498 132.788  21.810  1.00  0.00     0.011 A 
ATOM     13  C   UNL     1      46.567 132.929  20.416  1.00  0.00     0.015 A 
BRANCH   9  14
ATOM     14  N   UNL     1      43.489 131.128  19.275  1.00  0.00    -0.278 N 
ATOM     15  H   UNL     1      43.181 130.190  19.622  1.00  0.00     0.358 HD
ATOM     16  H   UNL     1      42.633 131.730  19.269  1.00  0.00     0.358 HD
BRANCH  14  17
ATOM     17  C   UNL     1      44.018 131.013  17.937  1.00  0.00     0.137 A 
ATOM     18  C   UNL     1      43.498 131.804  16.895  1.00  0.00     0.068 A 
ATOM     19  C   UNL     1      45.084 130.139  17.661  1.00  0.00     0.107 A 
ATOM     20  C   UNL     1      44.035 131.723  15.609  1.00  0.00     0.012 A 
ATOM     21  C   UNL     1      45.623 130.058  16.374  1.00  0.00     0.132 A 
ATOM     22  C   UNL     1      45.090 130.840  15.334  1.00  0.00    -0.015 A 
ATOM     23  F   UNL     1      46.668 129.222  16.143  1.00  0.00    -0.206 F 
ATOM     24  C   UNL     1      45.688 130.795  13.959  1.00  0.00     0.047 C 
ENDBRANCH  14  17
ENDBRANCH   9  14
BRANCH  10  25
ATOM     25  N   UNL     1      45.195 132.158  23.817  1.00  0.00    -0.395 N 
ATOM     26  H   UNL     1      44.249 132.102  24.247  1.00  0.00     0.156 HD
ATOM     27  H   UNL     1      46.002 132.097  24.475  1.00  0.00     0.156 HD
ENDBRANCH  10  25
BRANCH  12  28
ATOM     28  C   UNL     1      47.599 133.362  22.664  1.00  0.00     0.185 C 
ATOM     29  O   UNL     1      47.128 134.397  23.500  1.00  0.00    -0.359 OA
ATOM     30  C   UNL     1      47.927 134.791  22.407  1.00  0.00     0.183 C 
BRANCH  30  31
ATOM     31  C   UNL     1      49.283 135.253  22.856  1.00  0.00    -0.016 A 
ATOM     32  C   UNL     1      49.702 135.015  24.175  1.00  0.00     0.006 A 
ATOM     33  C   UNL     1      50.177 135.849  21.948  1.00  0.00     0.006 A 
ATOM     34  C   UNL     1      50.981 135.401  24.589  1.00  0.00     0.000 A 
ATOM     35  C   UNL     1      51.456 136.232  22.366  1.00  0.00     0.000 A 
ATOM     36  C   UNL     1      51.858 136.006  23.685  1.00  0.00     0.000 A 
ENDBRANCH  30  31
ENDBRANCH  12  28
ENDBRANCH   7   8
ENDBRANCH   1   7
TORSDOF 10
ENDMDL
MODEL 4
REMARK VINA RESULT:      -0.2      3.853      8.654
REMARK SMILES C=CCOC(=O)Oc1c([NH2+]c2ccc(C)c(F)c2)ccc([C@@H]2O[C@H]2c2ccccc2)c1N
REMARK SMILES IDX 5 1 6 2 4 3 3 4 2 5 1 6 7 7 8 8 9 9 31 10 19 11 21 12 20 13
REMARK SMILES IDX 10 14 11 17 12 18 18 19 13 20 16 21 14 22 17 23 15 24 32 25
REMARK SMILES IDX 22 28 23 29 24 30 25 31 26 32 30 33 27 34 29 35 28 36
REMARK H PARENT 10 15 10 16 32 26 32 27
ROOT
ATOM      1  C   UNL     1      45.057 131.874  17.757  1.00  0.00     0.514 C 
ATOM      2  O   UNL     1      45.576 132.563  16.836  1.00  0.00    -0.203 OA
ENDROOT
BRANCH   1   3
ATOM      3  O   UNL     1      45.200 130.483  17.770  1.00  0.00    -0.430 OA
BRANCH   3   4
ATOM      4  C   UNL     1      44.956 129.661  16.630  1.00  0.00     0.264 C 
BRANCH   4   5
ATOM      5  C   UNL     1      45.673 130.197  15.423  1.00  0.00     0.006 C 
ATOM      6  C   UNL     1      46.896 129.773  15.095  1.00  0.00     0.007 C 
ENDBRANCH   4   5
ENDBRANCH   3   4
ENDBRANCH   1   3
BRANCH   1   7
ATOM      7  O   UNL     1      44.303 132.483  18.765  1.00  0.00    -0.386 OA
BRANCH   7   8
ATOM      8  C   UNL     1      44.449 132.182  20.126  1.00  0.00     0.218 A 
ATOM      9  C   UNL     1      45.510 132.774  20.848  1.00  0.00     0.180 A 
ATOM     10  C   UNL     1      43.535 131.323  20.784  1.00  0.00     0.087 A 
ATOM     11  C   UNL     1      45.671 132.465  22.207  1.00  0.00     0.073 A 
ATOM     12  C   UNL     1      43.755 130.976  22.138  1.00  0.00     0.011 A 
ATOM     13  C   UNL     1      44.811 131.573  22.841  1.00  0.00     0.015 A 
BRANCH   9  14
ATOM     14  N   UNL     1      46.451 133.663  20.202  1.00  0.00    -0.278 N 
ATOM     15  H   UNL     1      46.884 133.211  19.364  1.00  0.00     0.358 HD
ATOM     16  H   UNL     1      45.946 134.509  19.847  1.00  0.00     0.358 HD
BRANCH  14  17
ATOM     17  C   UNL     1      47.476 134.060  21.137  1.00  0.00     0.137 A 
ATOM     18  C   UNL     1      47.935 133.158  22.116  1.00  0.00     0.068 A 
ATOM     19  C   UNL     1      48.061 135.336  21.060  1.00  0.00     0.107 A 
ATOM     20  C   UNL     1      48.955 133.527  22.996  1.00  0.00     0.012 A 
ATOM     21  C   UNL     1      49.083 135.705  21.939  1.00  0.00     0.132 A 
ATOM     22  C   UNL     1      49.527 134.806  22.925  1.00  0.00    -0.015 A 
ATOM     23  F   UNL     1      49.644 136.937  21.824  1.00  0.00    -0.206 F 
ATOM     24  C   UNL     1      50.653 135.174  23.845  1.00  0.00     0.047 C 
ENDBRANCH  14  17
ENDBRANCH   9  14
BRANCH  10  25
ATOM     25  N   UNL     1      42.353 130.869  20.101  1.00  0.00    -0.395 N 
ATOM     26  H   UNL     1      42.211 131.040  19.084  1.00  0.00     0.156 HD
ATOM     27  H   UNL     1      41.655 130.248  20.563  1.00  0.00     0.156 HD
ENDBRANCH  10  25
BRANCH  12  28
ATOM     28  C   UNL     1      42.847 130.008  22.853  1.00  0.00     0.185 C 
ATOM     29  O   UNL     1      43.069 130.016  24.247  1.00  0.00    -0.359 OA
ATOM     30  C   UNL     1      43.531 128.883  23.546  1.00  0.00     0.183 C 
BRANCH  30  31
ATOM     31  C   UNL     1      42.691 127.673  23.840  1.00  0.00    -0.016 A 
ATOM     32  C   UNL     1      41.409 127.829  24.391  1.00  0.00     0.006 A 
ATOM     33  C   UNL     1      43.138 126.386  23.491  1.00  0.00     0.006 A 
ATOM     34  C   UNL     1      40.602 126.711  24.625  1.00  0.00     0.000 A 
ATOM     35  C   UNL     1      42.327 125.271  23.726  1.00  0.00     0.000 A 
ATOM     36  C   UNL     1      41.059 125.434  24.291  1.00  0.00     0.000 A 
ENDBRANCH  30  31
ENDBRANCH  12  28
ENDBRANCH   7   8
ENDBRANCH   1   7
TORSDOF 10
ENDMDL


