REMARK SMILES CCNC(=O)CCOc1ccc(C(=O)[N-][C@H]2CC23CCC3)c(C)c1
REMARK SMILES IDX 7 1 6 2 4 3 3 4 5 6 2 7 1 8 8 9 9 10 10 11 24 12 11 13 22 14
REMARK SMILES IDX 12 15 23 16 13 17 14 18 15 19 16 20 17 21 18 22 19 23 21 24
REMARK SMILES IDX 20 25
REMARK H PARENT 3 5
ROOT
ATOM      1  C   UNL     1      -3.478  -0.641   1.468  1.00  0.00     0.239 C 
ENDROOT
BRANCH   1   2
ATOM      2  C   UNL     1      -2.856  -1.083   2.793  1.00  0.00     0.141 C 
BRANCH   2   3
ATOM      3  C   UNL     1      -3.360  -0.228   3.916  1.00  0.00     0.223 C 
ATOM      4  N   UNL     1      -2.654   0.962   4.288  1.00  0.00    -0.356 N 
ATOM      5  H   UNL     1      -1.766   1.196   3.786  1.00  0.00     0.163 HD
ATOM      6  O   UNL     1      -4.436  -0.539   4.498  1.00  0.00    -0.275 OA
BRANCH   4   7
ATOM      7  C   UNL     1      -3.155   1.848   5.338  1.00  0.00     0.112 C 
ATOM      8  C   UNL     1      -2.206   3.022   5.561  1.00  0.00     0.027 C 
ENDBRANCH   4   7
ENDBRANCH   2   3
ENDBRANCH   1   2
BRANCH   1   9
ATOM      9  O   UNL     1      -2.947  -1.405   0.385  1.00  0.00    -0.493 OA
BRANCH   9  10
ATOM     10  C   UNL     1      -1.691  -1.210  -0.213  1.00  0.00     0.119 A 
ATOM     11  C   UNL     1      -0.823  -0.171   0.161  1.00  0.00     0.047 A 
ATOM     12  C   UNL     1      -1.302  -2.087  -1.228  1.00  0.00     0.050 A 
ATOM     13  C   UNL     1       0.413  -0.024  -0.469  1.00  0.00     0.014 A 
ATOM     14  C   UNL     1      -0.066  -1.945  -1.884  1.00  0.00    -0.038 A 
ATOM     15  C   UNL     1       0.818  -0.906  -1.487  1.00  0.00     0.002 A 
ATOM     16  C   UNL     1       0.271  -2.906  -2.995  1.00  0.00     0.045 C 
BRANCH  15  17
ATOM     17  C   UNL     1       2.157  -0.708  -2.101  1.00  0.00     0.082 C 
ATOM     18  O   UNL     1       2.783  -1.679  -2.606  1.00  0.00    -0.315 OA
BRANCH  17  19
ATOM     19  N   UNL     1       2.764   0.589  -2.084  1.00  0.00    -0.646 NA
BRANCH  19  20
ATOM     20  C   UNL     1       4.066   0.847  -2.683  1.00  0.00    -0.100 C 
ATOM     21  C   UNL     1       4.852   1.965  -1.984  1.00  0.00    -0.010 C 
ATOM     22  C   UNL     1       5.218   0.503  -1.772  1.00  0.00    -0.044 C 
ATOM     23  C   UNL     1       5.258  -0.022  -0.366  1.00  0.00     0.006 C 
ATOM     24  C   UNL     1       6.606   0.061  -2.127  1.00  0.00     0.006 C 
ATOM     25  C   UNL     1       6.690  -0.498  -0.691  1.00  0.00     0.001 C 
ENDBRANCH  19  20
ENDBRANCH  17  19
ENDBRANCH  15  17
ENDBRANCH   9  10
ENDBRANCH   1   9
TORSDOF 8


