REMARK SMILES O/C(CCF)=N\c1cc(F)c(F)cc1Nc1ccc(F)cc1
REMARK SMILES IDX 6 1 2 2 1 3 3 5 4 6 5 7 7 8 8 9 14 10 9 11 13 12 11 13 10 14
REMARK SMILES IDX 12 15 15 16 16 18 17 19 22 20 18 21 21 22 19 23 20 24
REMARK H PARENT 1 4 15 17
ROOT
ATOM      1  N   UNL     1       0.934  -1.394   1.192  1.00  0.00    -0.216 NA
ENDROOT
BRANCH   1   2
ATOM      2  C   UNL     1       1.942  -1.599   1.991  1.00  0.00     0.188 C 
BRANCH   2   3
ATOM      3  O   UNL     1       2.696  -2.775   1.956  1.00  0.00    -0.496 OA
ATOM      4  H   UNL     1       2.605  -3.467   1.224  1.00  0.00     0.294 HD
ENDBRANCH   2   3
BRANCH   2   5
ATOM      5  C   UNL     1       2.318  -0.531   2.970  1.00  0.00     0.131 C 
BRANCH   5   6
ATOM      6  C   UNL     1       1.443  -0.601   4.218  1.00  0.00     0.224 C 
ATOM      7  F   UNL     1       0.124  -0.334   3.897  1.00  0.00    -0.251 F 
ENDBRANCH   5   6
ENDBRANCH   2   5
ENDBRANCH   1   2
BRANCH   1   8
ATOM      8  C   UNL     1       0.358  -2.328   0.267  1.00  0.00     0.093 A 
ATOM      9  C   UNL     1       0.056  -3.642   0.667  1.00  0.00     0.073 A 
ATOM     10  C   UNL     1       0.012  -1.904  -1.036  1.00  0.00     0.068 A 
ATOM     11  C   UNL     1      -0.506  -4.546  -0.238  1.00  0.00     0.161 A 
ATOM     12  C   UNL     1      -0.525  -2.829  -1.943  1.00  0.00     0.070 A 
ATOM     13  C   UNL     1      -0.785  -4.143  -1.546  1.00  0.00     0.161 A 
ATOM     14  F   UNL     1      -0.780  -5.814   0.156  1.00  0.00    -0.204 F 
ATOM     15  F   UNL     1      -1.321  -5.022  -2.428  1.00  0.00    -0.204 F 
BRANCH  10  16
ATOM     16  N   UNL     1       0.265  -0.560  -1.480  1.00  0.00    -0.354 N 
ATOM     17  H   UNL     1       0.673  -0.432  -2.434  1.00  0.00     0.167 HD
BRANCH  16  18
ATOM     18  C   UNL     1      -0.083   0.617  -0.730  1.00  0.00     0.039 A 
ATOM     19  C   UNL     1      -1.132   0.604   0.209  1.00  0.00     0.029 A 
ATOM     20  C   UNL     1       0.613   1.814  -0.961  1.00  0.00     0.029 A 
ATOM     21  C   UNL     1      -1.450   1.762   0.926  1.00  0.00     0.041 A 
ATOM     22  C   UNL     1       0.291   2.969  -0.243  1.00  0.00     0.041 A 
ATOM     23  C   UNL     1      -0.738   2.943   0.703  1.00  0.00     0.123 A 
ATOM     24  F   UNL     1      -1.048   4.064   1.399  1.00  0.00    -0.207 F 
ENDBRANCH  16  18
ENDBRANCH  10  16
ENDBRANCH   1   8
TORSDOF 7


