MODEL 1
REMARK VINA RESULT:      -4.3      0.000      0.000
REMARK SMILES N/N=c1\cc(-c2ccc3[nH]ccc3c2)n(C(=O)[C@H]2C3CCN2CC3)[n-]c1=O
REMARK SMILES IDX 5 1 4 2 3 3 26 4 27 5 25 6 15 7 6 8 7 9 8 10 14 11 9 12
REMARK SMILES IDX 13 13 10 14 12 15 11 16 16 18 17 19 18 20 22 21 19 22 21 23
REMARK SMILES IDX 23 24 20 25 24 26 2 27 1 28
REMARK H PARENT 10 17 1 29 1 30
ROOT
ATOM      1  C   UNL     1      43.345 126.287  23.635  1.00  0.00     0.040 A 
ATOM      2  C   UNL     1      42.442 125.247  23.898  1.00  0.00     0.058 A 
ATOM      3  C   UNL     1      41.111 125.541  24.233  1.00  0.00     0.111 A 
ATOM      4  C   UNL     1      40.735 126.887  24.299  1.00  0.00     0.118 A 
ATOM      5  O   UNL     1      39.558 127.212  24.607  1.00  0.00    -0.312 OA
ATOM      6  N   UNL     1      41.642 127.855  24.021  1.00  0.00    -0.551 NA
ATOM      7  N   UNL     1      42.911 127.593  23.696  1.00  0.00    -0.383 N 
ENDROOT
BRANCH   1   8
ATOM      8  C   UNL     1      44.750 125.927  23.333  1.00  0.00    -0.002 A 
ATOM      9  C   UNL     1      45.074 125.259  22.124  1.00  0.00     0.012 A 
ATOM     10  C   UNL     1      46.406 124.914  21.831  1.00  0.00     0.027 A 
ATOM     11  C   UNL     1      45.775 126.272  24.241  1.00  0.00     0.020 A 
ATOM     12  C   UNL     1      47.387 125.260  22.757  1.00  0.00     0.045 A 
ATOM     13  C   UNL     1      47.081 125.917  23.918  1.00  0.00     0.000 A 
ATOM     14  N   UNL     1      48.708 125.030  22.671  1.00  0.00    -0.361 N 
ATOM     15  C   UNL     1      48.261 126.113  24.603  1.00  0.00     0.028 A 
ATOM     16  C   UNL     1      49.246 125.548  23.798  1.00  0.00     0.083 A 
ATOM     17  H   UNL     1      49.218 124.550  21.896  1.00  0.00     0.166 HD
ENDBRANCH   1   8
BRANCH   7  18
ATOM     18  C   UNL     1      43.756 128.713  23.353  1.00  0.00     0.231 C 
ATOM     19  O   UNL     1      44.555 128.630  22.380  1.00  0.00    -0.274 OA
BRANCH  18  20
ATOM     20  C   UNL     1      43.583 130.065  24.035  1.00  0.00     0.149 C 
ATOM     21  N   UNL     1      42.320 130.729  23.701  1.00  0.00    -0.292 NA
ATOM     22  C   UNL     1      44.513 131.174  23.595  1.00  0.00     0.018 C 
ATOM     23  C   UNL     1      42.536 131.113  22.280  1.00  0.00     0.085 C 
ATOM     24  C   UNL     1      42.459 131.972  24.498  1.00  0.00     0.085 C 
ATOM     25  C   UNL     1      44.041 131.418  22.157  1.00  0.00     0.021 C 
ATOM     26  C   UNL     1      43.965 132.316  24.461  1.00  0.00     0.021 C 
ENDBRANCH  18  20
ENDBRANCH   7  18
BRANCH   3  27
ATOM     27  N   UNL     1      40.220 124.623  24.499  1.00  0.00    -0.181 NA
BRANCH  27  28
ATOM     28  N   UNL     1      39.000 124.434  23.828  1.00  0.00    -0.323 N 
ATOM     29  H   UNL     1      38.415 125.269  23.600  1.00  0.00     0.179 HD
ATOM     30  H   UNL     1      38.690 123.513  23.451  1.00  0.00     0.179 HD
ENDBRANCH  27  28
ENDBRANCH   3  27
TORSDOF 5
ENDMDL
MODEL 2
REMARK VINA RESULT:      -2.1      1.862      5.515
REMARK SMILES N/N=c1\cc(-c2ccc3[nH]ccc3c2)n(C(=O)[C@H]2C3CCN2CC3)[n-]c1=O
REMARK SMILES IDX 5 1 4 2 3 3 26 4 27 5 25 6 15 7 6 8 7 9 8 10 14 11 9 12
REMARK SMILES IDX 13 13 10 14 12 15 11 16 16 18 17 19 18 20 22 21 19 22 21 23
REMARK SMILES IDX 23 24 20 25 24 26 2 27 1 28
REMARK H PARENT 10 17 1 29 1 30
ROOT
ATOM      1  C   UNL     1      44.754 125.752  22.875  1.00  0.00     0.040 A 
ATOM      2  C   UNL     1      45.640 124.695  22.622  1.00  0.00     0.058 A 
ATOM      3  C   UNL     1      47.021 124.938  22.548  1.00  0.00     0.111 A 
ATOM      4  C   UNL     1      47.464 126.252  22.727  1.00  0.00     0.118 A 
ATOM      5  O   UNL     1      48.690 126.533  22.659  1.00  0.00    -0.312 OA
ATOM      6  N   UNL     1      46.569 127.237  22.984  1.00  0.00    -0.551 NA
ATOM      7  N   UNL     1      45.252 127.023  23.062  1.00  0.00    -0.383 N 
ENDROOT
BRANCH   1   8
ATOM      8  C   UNL     1      43.304 125.454  22.895  1.00  0.00    -0.002 A 
ATOM      9  C   UNL     1      42.756 124.501  21.999  1.00  0.00     0.012 A 
ATOM     10  C   UNL     1      41.380 124.212  22.012  1.00  0.00     0.027 A 
ATOM     11  C   UNL     1      42.466 126.102  23.829  1.00  0.00     0.020 A 
ATOM     12  C   UNL     1      40.583 124.881  22.939  1.00  0.00     0.045 A 
ATOM     13  C   UNL     1      41.109 125.791  23.815  1.00  0.00     0.000 A 
ATOM     14  N   UNL     1      39.259 124.752  23.120  1.00  0.00    -0.361 N 
ATOM     15  C   UNL     1      40.072 126.263  24.590  1.00  0.00     0.028 A 
ATOM     16  C   UNL     1      38.941 125.596  24.129  1.00  0.00     0.083 A 
ATOM     17  H   UNL     1      38.605 124.130  22.594  1.00  0.00     0.166 HD
ENDBRANCH   1   8
BRANCH   7  18
ATOM     18  C   UNL     1      44.415 128.146  23.413  1.00  0.00     0.231 C 
ATOM     19  O   UNL     1      44.176 128.403  24.625  1.00  0.00    -0.274 OA
BRANCH  18  20
ATOM     20  C   UNL     1      43.950 129.139  22.356  1.00  0.00     0.149 C 
ATOM     21  N   UNL     1      44.984 130.100  21.962  1.00  0.00    -0.292 NA
ATOM     22  C   UNL     1      42.899 130.142  22.779  1.00  0.00     0.018 C 
ATOM     23  C   UNL     1      45.096 130.952  23.175  1.00  0.00     0.085 C 
ATOM     24  C   UNL     1      44.236 130.894  20.957  1.00  0.00     0.085 C 
ATOM     25  C   UNL     1      43.680 131.001  23.780  1.00  0.00     0.021 C 
ATOM     26  C   UNL     1      42.781 130.945  21.476  1.00  0.00     0.021 C 
ENDBRANCH  18  20
ENDBRANCH   7  18
BRANCH   3  27
ATOM     27  N   UNL     1      47.900 124.002  22.306  1.00  0.00    -0.181 NA
BRANCH  27  28
ATOM     28  N   UNL     1      47.626 122.720  21.800  1.00  0.00    -0.323 N 
ATOM     29  H   UNL     1      48.064 122.429  20.898  1.00  0.00     0.179 HD
ATOM     30  H   UNL     1      47.088 121.999  22.326  1.00  0.00     0.179 HD
ENDBRANCH  27  28
ENDBRANCH   3  27
TORSDOF 5
ENDMDL
MODEL 3
REMARK VINA RESULT:      -2.1      4.247      7.629
REMARK SMILES N/N=c1\cc(-c2ccc3[nH]ccc3c2)n(C(=O)[C@H]2C3CCN2CC3)[n-]c1=O
REMARK SMILES IDX 5 1 4 2 3 3 26 4 27 5 25 6 15 7 6 8 7 9 8 10 14 11 9 12
REMARK SMILES IDX 13 13 10 14 12 15 11 16 16 18 17 19 18 20 22 21 19 22 21 23
REMARK SMILES IDX 23 24 20 25 24 26 2 27 1 28
REMARK H PARENT 10 17 1 29 1 30
ROOT
ATOM      1  C   UNL     1      45.827 132.156  21.055  1.00  0.00     0.040 A 
ATOM      2  C   UNL     1      47.029 132.845  21.268  1.00  0.00     0.058 A 
ATOM      3  C   UNL     1      47.257 133.502  22.488  1.00  0.00     0.111 A 
ATOM      4  C   UNL     1      46.251 133.445  23.457  1.00  0.00     0.118 A 
ATOM      5  O   UNL     1      46.393 134.026  24.566  1.00  0.00    -0.312 OA
ATOM      6  N   UNL     1      45.112 132.753  23.210  1.00  0.00    -0.551 NA
ATOM      7  N   UNL     1      44.882 132.119  22.056  1.00  0.00    -0.383 N 
ENDROOT
BRANCH   1   8
ATOM      8  C   UNL     1      45.614 131.521  19.735  1.00  0.00    -0.002 A 
ATOM      9  C   UNL     1      46.183 130.254  19.449  1.00  0.00     0.012 A 
ATOM     10  C   UNL     1      45.986 129.644  18.197  1.00  0.00     0.027 A 
ATOM     11  C   UNL     1      44.820 132.169  18.762  1.00  0.00     0.020 A 
ATOM     12  C   UNL     1      45.207 130.320  17.260  1.00  0.00     0.045 A 
ATOM     13  C   UNL     1      44.645 131.537  17.535  1.00  0.00     0.000 A 
ATOM     14  N   UNL     1      44.894 129.918  16.017  1.00  0.00    -0.361 N 
ATOM     15  C   UNL     1      43.941 131.927  16.416  1.00  0.00     0.028 A 
ATOM     16  C   UNL     1      44.121 130.898  15.496  1.00  0.00     0.083 A 
ATOM     17  H   UNL     1      45.185 129.032  15.546  1.00  0.00     0.166 HD
ENDBRANCH   1   8
BRANCH   7  18
ATOM     18  C   UNL     1      43.658 131.359  21.947  1.00  0.00     0.231 C 
ATOM     19  O   UNL     1      42.649 131.861  21.380  1.00  0.00    -0.274 OA
BRANCH  18  20
ATOM     20  C   UNL     1      43.608 129.891  22.350  1.00  0.00     0.149 C 
ATOM     21  N   UNL     1      42.408 129.536  23.114  1.00  0.00    -0.292 NA
ATOM     22  C   UNL     1      44.632 129.427  23.364  1.00  0.00     0.018 C 
ATOM     23  C   UNL     1      42.653 130.216  24.413  1.00  0.00     0.085 C 
ATOM     24  C   UNL     1      42.660 128.092  23.341  1.00  0.00     0.085 C 
ATOM     25  C   UNL     1      44.178 130.175  24.622  1.00  0.00     0.021 C 
ATOM     26  C   UNL     1      44.190 127.964  23.512  1.00  0.00     0.021 C 
ENDBRANCH  18  20
ENDBRANCH   7  18
BRANCH   3  27
ATOM     27  N   UNL     1      48.349 134.169  22.748  1.00  0.00    -0.181 NA
BRANCH  27  28
ATOM     28  N   UNL     1      48.658 135.463  22.292  1.00  0.00    -0.323 N 
ATOM     29  H   UNL     1      48.003 135.934  21.630  1.00  0.00     0.179 HD
ATOM     30  H   UNL     1      49.456 136.024  22.659  1.00  0.00     0.179 HD
ENDBRANCH  27  28
ENDBRANCH   3  27
TORSDOF 5
ENDMDL
MODEL 4
REMARK VINA RESULT:      -1.5      1.028      1.072
REMARK SMILES N/N=c1\cc(-c2ccc3[nH]ccc3c2)n(C(=O)[C@H]2C3CCN2CC3)[n-]c1=O
REMARK SMILES IDX 5 1 4 2 3 3 26 4 27 5 25 6 15 7 6 8 7 9 8 10 14 11 9 12
REMARK SMILES IDX 13 13 10 14 12 15 11 16 16 18 17 19 18 20 22 21 19 22 21 23
REMARK SMILES IDX 23 24 20 25 24 26 2 27 1 28
REMARK H PARENT 10 17 1 29 1 30
ROOT
ATOM      1  C   UNL     1      43.456 126.599  23.365  1.00  0.00     0.040 A 
ATOM      2  C   UNL     1      42.453 125.666  23.066  1.00  0.00     0.058 A 
ATOM      3  C   UNL     1      41.114 125.946  23.384  1.00  0.00     0.111 A 
ATOM      4  C   UNL     1      40.833 127.167  24.006  1.00  0.00     0.118 A 
ATOM      5  O   UNL     1      39.652 127.469  24.327  1.00  0.00    -0.312 OA
ATOM      6  N   UNL     1      41.836 128.043  24.260  1.00  0.00    -0.551 NA
ATOM      7  N   UNL     1      43.114 127.793  23.960  1.00  0.00    -0.383 N 
ENDROOT
BRANCH   1   8
ATOM      8  C   UNL     1      44.857 126.236  23.053  1.00  0.00    -0.002 A 
ATOM      9  C   UNL     1      45.359 126.383  21.735  1.00  0.00     0.012 A 
ATOM     10  C   UNL     1      46.689 126.040  21.431  1.00  0.00     0.027 A 
ATOM     11  C   UNL     1      45.706 125.765  24.079  1.00  0.00     0.020 A 
ATOM     12  C   UNL     1      47.492 125.567  22.467  1.00  0.00     0.045 A 
ATOM     13  C   UNL     1      47.016 125.436  23.743  1.00  0.00     0.000 A 
ATOM     14  N   UNL     1      48.779 125.191  22.394  1.00  0.00    -0.361 N 
ATOM     15  C   UNL     1      48.049 124.955  24.519  1.00  0.00     0.028 A 
ATOM     16  C   UNL     1      49.124 124.814  23.647  1.00  0.00     0.083 A 
ATOM     17  H   UNL     1      49.391 125.188  21.548  1.00  0.00     0.166 HD
ENDBRANCH   1   8
BRANCH   7  18
ATOM     18  C   UNL     1      44.075 128.840  24.219  1.00  0.00     0.231 C 
ATOM     19  O   UNL     1      45.234 128.549  24.623  1.00  0.00    -0.274 OA
BRANCH  18  20
ATOM     20  C   UNL     1      43.778 130.288  23.848  1.00  0.00     0.149 C 
ATOM     21  N   UNL     1      42.647 130.434  22.927  1.00  0.00    -0.292 NA
ATOM     22  C   UNL     1      44.813 131.001  23.005  1.00  0.00     0.018 C 
ATOM     23  C   UNL     1      43.203 129.887  21.661  1.00  0.00     0.085 C 
ATOM     24  C   UNL     1      42.624 131.910  22.774  1.00  0.00     0.085 C 
ATOM     25  C   UNL     1      44.701 130.245  21.677  1.00  0.00     0.021 C 
ATOM     26  C   UNL     1      44.104 132.351  22.829  1.00  0.00     0.021 C 
ENDBRANCH  18  20
ENDBRANCH   7  18
BRANCH   3  27
ATOM     27  N   UNL     1      40.133 125.119  23.143  1.00  0.00    -0.181 NA
BRANCH  27  28
ATOM     28  N   UNL     1      40.228 123.718  23.078  1.00  0.00    -0.323 N 
ATOM     29  H   UNL     1      39.935 123.233  22.201  1.00  0.00     0.179 HD
ATOM     30  H   UNL     1      40.672 123.140  23.822  1.00  0.00     0.179 HD
ENDBRANCH  27  28
ENDBRANCH   3  27
TORSDOF 5
ENDMDL


