REMARK SMILES CC(F)(F)COC(=O)N(c1cc2cccc(F)c2[nH]1)c1cn2ccccc2[nH+]1
REMARK SMILES IDX 6 1 5 2 2 3 1 4 3 5 4 6 7 7 8 8 9 9 10 10 11 11 19 12 12 13
REMARK SMILES IDX 18 14 13 15 16 16 14 17 15 18 17 20 20 21 21 22 28 23 22 24
REMARK SMILES IDX 27 25 23 26 26 27 24 28 25 29
REMARK H PARENT 19 19 28 30
ROOT
ATOM      1  O   UNL     1      -1.808   1.532   0.381  1.00  0.00    -0.431 OA
ENDROOT
BRANCH   1   2
ATOM      2  C   UNL     1      -2.262   2.873   0.228  1.00  0.00     0.312 C 
BRANCH   2   3
ATOM      3  C   UNL     1      -3.631   3.029   0.892  1.00  0.00     0.278 C 
ATOM      4  C   UNL     1      -4.152   4.456   0.742  1.00  0.00     0.091 C 
ATOM      5  F   UNL     1      -4.529   2.154   0.304  1.00  0.00    -0.203 F 
ATOM      6  F   UNL     1      -3.526   2.724   2.238  1.00  0.00    -0.203 F 
ENDBRANCH   2   3
ENDBRANCH   1   2
BRANCH   1   7
ATOM      7  C   UNL     1      -0.595   1.076  -0.143  1.00  0.00     0.482 C 
ATOM      8  O   UNL     1       0.172   1.879  -0.745  1.00  0.00    -0.207 OA
BRANCH   7   9
ATOM      9  N   UNL     1      -0.200  -0.295   0.043  1.00  0.00    -0.141 N 
BRANCH   9  10
ATOM     10  C   UNL     1      -1.166  -1.307   0.398  1.00  0.00     0.182 A 
ATOM     11  C   UNL     1      -0.876  -2.510   1.045  1.00  0.00     0.073 A 
ATOM     12  N   UNL     1      -2.482  -1.236   0.074  1.00  0.00    -0.326 N 
ATOM     13  C   UNL     1      -2.082  -3.170   1.123  1.00  0.00     0.006 A 
ATOM     14  C   UNL     1      -3.028  -2.376   0.528  1.00  0.00     0.084 A 
ATOM     15  C   UNL     1      -2.400  -4.415   1.661  1.00  0.00     0.010 A 
ATOM     16  C   UNL     1      -4.361  -2.778   0.428  1.00  0.00     0.147 A 
ATOM     17  C   UNL     1      -3.737  -4.845   1.580  1.00  0.00     0.004 A 
ATOM     18  C   UNL     1      -4.714  -4.030   0.965  1.00  0.00     0.041 A 
ATOM     19  H   UNL     1      -2.972  -0.485  -0.460  1.00  0.00     0.170 HD
ATOM     20  F   UNL     1      -5.289  -1.989  -0.167  1.00  0.00    -0.205 F 
ENDBRANCH   9  10
BRANCH   9  21
ATOM     21  C   UNL     1       1.176  -0.654  -0.151  1.00  0.00     0.270 A 
ATOM     22  C   UNL     1       2.058  -1.054   0.842  1.00  0.00     0.249 A 
ATOM     23  N   UNL     1       1.818  -0.563  -1.338  1.00  0.00    -0.243 N 
ATOM     24  N   UNL     1       3.252  -1.226   0.249  1.00  0.00    -0.233 N 
ATOM     25  C   UNL     1       3.082  -0.927  -1.052  1.00  0.00     0.230 A 
ATOM     26  C   UNL     1       4.441  -1.608   0.780  1.00  0.00     0.168 A 
ATOM     27  C   UNL     1       4.147  -0.998  -1.949  1.00  0.00     0.081 A 
ATOM     28  C   UNL     1       5.548  -1.699  -0.076  1.00  0.00     0.035 A 
ATOM     29  C   UNL     1       5.397  -1.392  -1.443  1.00  0.00     0.010 A 
ATOM     30  H   UNL     1       1.424  -0.272  -2.260  1.00  0.00     0.267 HD
ENDBRANCH   9  21
ENDBRANCH   7   9
ENDBRANCH   1   7
TORSDOF 6


