MODEL 1
REMARK VINA RESULT:      -5.8      0.000      0.000
REMARK SMILES CC(F)(F)COC(=O)N(c1cc2cccc(F)c2[nH]1)c1cn2ccccc2[nH+]1
REMARK SMILES IDX 6 1 5 2 2 3 1 4 3 5 4 6 7 7 8 8 9 9 10 10 11 11 19 12 12 13
REMARK SMILES IDX 18 14 13 15 16 16 14 17 15 18 17 20 20 21 21 22 28 23 22 24
REMARK SMILES IDX 27 25 23 26 26 27 24 28 25 29
REMARK H PARENT 19 19 28 30
ROOT
ATOM      1  O   UNL     1      46.558 133.026  21.255  1.00  0.00    -0.431 OA
ENDROOT
BRANCH   1   2
ATOM      2  C   UNL     1      47.901 133.067  21.727  1.00  0.00     0.312 C 
BRANCH   2   3
ATOM      3  C   UNL     1      48.131 134.363  22.507  1.00  0.00     0.278 C 
ATOM      4  C   UNL     1      49.522 134.383  23.135  1.00  0.00     0.091 C 
ATOM      5  F   UNL     1      48.005 135.443  21.649  1.00  0.00    -0.203 F 
ATOM      6  F   UNL     1      47.180 134.472  23.506  1.00  0.00    -0.203 F 
ENDBRANCH   2   3
ENDBRANCH   1   2
BRANCH   1   7
ATOM      7  C   UNL     1      45.610 132.122  21.740  1.00  0.00     0.482 C 
ATOM      8  O   UNL     1      45.042 132.338  22.848  1.00  0.00    -0.207 OA
BRANCH   7   9
ATOM      9  N   UNL     1      45.246 130.970  20.958  1.00  0.00    -0.141 N 
BRANCH   9  10
ATOM     10  C   UNL     1      45.159 131.044  19.519  1.00  0.00     0.182 A 
ATOM     11  C   UNL     1      44.115 131.632  18.802  1.00  0.00     0.073 A 
ATOM     12  N   UNL     1      46.064 130.478  18.681  1.00  0.00    -0.326 N 
ATOM     13  C   UNL     1      44.430 131.418  17.478  1.00  0.00     0.006 A 
ATOM     14  C   UNL     1      45.609 130.720  17.441  1.00  0.00     0.084 A 
ATOM     15  C   UNL     1      43.752 131.778  16.316  1.00  0.00     0.010 A 
ATOM     16  C   UNL     1      46.189 130.329  16.233  1.00  0.00     0.147 A 
ATOM     17  C   UNL     1      44.314 131.403  15.083  1.00  0.00     0.004 A 
ATOM     18  C   UNL     1      45.528 130.680  15.041  1.00  0.00     0.041 A 
ATOM     19  H   UNL     1      46.912 129.924  18.932  1.00  0.00     0.170 HD
ATOM     20  F   UNL     1      47.352 129.633  16.205  1.00  0.00    -0.205 F 
ENDBRANCH   9  10
BRANCH   9  21
ATOM     21  C   UNL     1      44.990 129.728  21.629  1.00  0.00     0.270 A 
ATOM     22  C   UNL     1      44.116 129.544  22.690  1.00  0.00     0.249 A 
ATOM     23  N   UNL     1      45.645 128.576  21.357  1.00  0.00    -0.243 N 
ATOM     24  N   UNL     1      44.228 128.257  23.061  1.00  0.00    -0.233 N 
ATOM     25  C   UNL     1      45.146 127.701  22.250  1.00  0.00     0.230 A 
ATOM     26  C   UNL     1      43.592 127.577  24.049  1.00  0.00     0.168 A 
ATOM     27  C   UNL     1      45.502 126.359  22.383  1.00  0.00     0.081 A 
ATOM     28  C   UNL     1      43.909 126.223  24.229  1.00  0.00     0.035 A 
ATOM     29  C   UNL     1      44.867 125.616  23.392  1.00  0.00     0.010 A 
ATOM     30  H   UNL     1      46.373 128.408  20.628  1.00  0.00     0.267 HD
ENDBRANCH   9  21
ENDBRANCH   7   9
ENDBRANCH   1   7
TORSDOF 6
ENDMDL
MODEL 2
REMARK VINA RESULT:      -5.7      1.010      1.591
REMARK SMILES CC(F)(F)COC(=O)N(c1cc2cccc(F)c2[nH]1)c1cn2ccccc2[nH+]1
REMARK SMILES IDX 6 1 5 2 2 3 1 4 3 5 4 6 7 7 8 8 9 9 10 10 11 11 19 12 12 13
REMARK SMILES IDX 18 14 13 15 16 16 14 17 15 18 17 20 20 21 21 22 28 23 22 24
REMARK SMILES IDX 27 25 23 26 26 27 24 28 25 29
REMARK H PARENT 19 19 28 30
ROOT
ATOM      1  O   UNL     1      46.557 133.142  21.383  1.00  0.00    -0.431 OA
ENDROOT
BRANCH   1   2
ATOM      2  C   UNL     1      47.939 133.162  21.728  1.00  0.00     0.312 C 
BRANCH   2   3
ATOM      3  C   UNL     1      48.288 134.509  22.363  1.00  0.00     0.278 C 
ATOM      4  C   UNL     1      48.431 134.378  23.878  1.00  0.00     0.091 C 
ATOM      5  F   UNL     1      49.482 134.970  21.834  1.00  0.00    -0.203 F 
ATOM      6  F   UNL     1      47.290 135.424  22.079  1.00  0.00    -0.203 F 
ENDBRANCH   2   3
ENDBRANCH   1   2
BRANCH   1   7
ATOM      7  C   UNL     1      45.617 132.356  22.056  1.00  0.00     0.482 C 
ATOM      8  O   UNL     1      45.339 132.603  23.264  1.00  0.00    -0.207 OA
BRANCH   7   9
ATOM      9  N   UNL     1      44.935 131.297  21.362  1.00  0.00    -0.141 N 
BRANCH   9  10
ATOM     10  C   UNL     1      44.887 131.262  19.920  1.00  0.00     0.182 A 
ATOM     11  C   UNL     1      43.861 131.788  19.132  1.00  0.00     0.073 A 
ATOM     12  N   UNL     1      45.816 130.638  19.152  1.00  0.00    -0.326 N 
ATOM     13  C   UNL     1      44.213 131.476  17.837  1.00  0.00     0.006 A 
ATOM     14  C   UNL     1      45.395 130.782  17.885  1.00  0.00     0.084 A 
ATOM     15  C   UNL     1      43.566 131.743  16.633  1.00  0.00     0.010 A 
ATOM     16  C   UNL     1      46.008 130.304  16.726  1.00  0.00     0.147 A 
ATOM     17  C   UNL     1      44.163 131.278  15.448  1.00  0.00     0.004 A 
ATOM     18  C   UNL     1      45.379 130.561  15.494  1.00  0.00     0.041 A 
ATOM     19  H   UNL     1      46.658 130.108  19.467  1.00  0.00     0.170 HD
ATOM     20  F   UNL     1      47.174 129.614  16.783  1.00  0.00    -0.205 F 
ENDBRANCH   9  10
BRANCH   9  21
ATOM     21  C   UNL     1      44.313 130.253  22.126  1.00  0.00     0.270 A 
ATOM     22  C   UNL     1      44.822 128.977  22.321  1.00  0.00     0.249 A 
ATOM     23  N   UNL     1      43.089 130.360  22.691  1.00  0.00    -0.243 N 
ATOM     24  N   UNL     1      43.902 128.301  23.030  1.00  0.00    -0.233 N 
ATOM     25  C   UNL     1      42.877 129.149  23.238  1.00  0.00     0.230 A 
ATOM     26  C   UNL     1      43.915 127.019  23.475  1.00  0.00     0.168 A 
ATOM     27  C   UNL     1      41.745 128.745  23.945  1.00  0.00     0.081 A 
ATOM     28  C   UNL     1      42.803 126.558  24.195  1.00  0.00     0.035 A 
ATOM     29  C   UNL     1      41.717 127.426  24.427  1.00  0.00     0.010 A 
ATOM     30  H   UNL     1      42.454 131.189  22.695  1.00  0.00     0.267 HD
ENDBRANCH   9  21
ENDBRANCH   7   9
ENDBRANCH   1   7
TORSDOF 6
ENDMDL
MODEL 3
REMARK VINA RESULT:      -4.4      1.546      2.236
REMARK SMILES CC(F)(F)COC(=O)N(c1cc2cccc(F)c2[nH]1)c1cn2ccccc2[nH+]1
REMARK SMILES IDX 6 1 5 2 2 3 1 4 3 5 4 6 7 7 8 8 9 9 10 10 11 11 19 12 12 13
REMARK SMILES IDX 18 14 13 15 16 16 14 17 15 18 17 20 20 21 21 22 28 23 22 24
REMARK SMILES IDX 27 25 23 26 26 27 24 28 25 29
REMARK H PARENT 19 19 28 30
ROOT
ATOM      1  O   UNL     1      45.756 133.420  20.822  1.00  0.00    -0.431 OA
ENDROOT
BRANCH   1   2
ATOM      2  C   UNL     1      46.979 132.920  21.353  1.00  0.00     0.312 C 
BRANCH   2   3
ATOM      3  C   UNL     1      47.719 134.043  22.081  1.00  0.00     0.278 C 
ATOM      4  C   UNL     1      47.130 134.274  23.471  1.00  0.00     0.091 C 
ATOM      5  F   UNL     1      49.056 133.708  22.205  1.00  0.00    -0.203 F 
ATOM      6  F   UNL     1      47.617 135.212  21.347  1.00  0.00    -0.203 F 
ENDBRANCH   2   3
ENDBRANCH   1   2
BRANCH   1   7
ATOM      7  C   UNL     1      44.696 132.590  20.447  1.00  0.00     0.482 C 
ATOM      8  O   UNL     1      43.511 133.028  20.481  1.00  0.00    -0.207 OA
BRANCH   7   9
ATOM      9  N   UNL     1      44.957 131.255  19.979  1.00  0.00    -0.141 N 
BRANCH   9  10
ATOM     10  C   UNL     1      45.184 130.987  18.579  1.00  0.00     0.182 A 
ATOM     11  C   UNL     1      46.271 130.284  18.056  1.00  0.00     0.073 A 
ATOM     12  N   UNL     1      44.388 131.458  17.585  1.00  0.00    -0.326 N 
ATOM     13  C   UNL     1      46.097 130.326  16.691  1.00  0.00     0.006 A 
ATOM     14  C   UNL     1      44.955 131.042  16.441  1.00  0.00     0.084 A 
ATOM     15  C   UNL     1      46.874 129.799  15.662  1.00  0.00     0.010 A 
ATOM     16  C   UNL     1      44.513 131.281  15.138  1.00  0.00     0.147 A 
ATOM     17  C   UNL     1      46.452 130.019  14.338  1.00  0.00     0.004 A 
ATOM     18  C   UNL     1      45.276 130.758  14.077  1.00  0.00     0.041 A 
ATOM     19  H   UNL     1      43.541 132.060  17.673  1.00  0.00     0.170 HD
ATOM     20  F   UNL     1      43.385 131.994  14.900  1.00  0.00    -0.205 F 
ENDBRANCH   9  10
BRANCH   9  21
ATOM     21  C   UNL     1      45.010 130.183  20.932  1.00  0.00     0.270 A 
ATOM     22  C   UNL     1      45.645 128.963  20.746  1.00  0.00     0.249 A 
ATOM     23  N   UNL     1      44.364 130.197  22.120  1.00  0.00    -0.243 N 
ATOM     24  N   UNL     1      45.396 128.229  21.844  1.00  0.00    -0.233 N 
ATOM     25  C   UNL     1      44.629 128.989  22.649  1.00  0.00     0.230 A 
ATOM     26  C   UNL     1      45.786 126.967  22.156  1.00  0.00     0.168 A 
ATOM     27  C   UNL     1      44.185 128.507  23.880  1.00  0.00     0.081 A 
ATOM     28  C   UNL     1      45.371 126.431  23.383  1.00  0.00     0.035 A 
ATOM     29  C   UNL     1      44.568 127.206  24.244  1.00  0.00     0.010 A 
ATOM     30  H   UNL     1      43.787 130.967  22.527  1.00  0.00     0.267 HD
ENDBRANCH   9  21
ENDBRANCH   7   9
ENDBRANCH   1   7
TORSDOF 6
ENDMDL
MODEL 4
REMARK VINA RESULT:      -4.3      2.096      6.090
REMARK SMILES CC(F)(F)COC(=O)N(c1cc2cccc(F)c2[nH]1)c1cn2ccccc2[nH+]1
REMARK SMILES IDX 6 1 5 2 2 3 1 4 3 5 4 6 7 7 8 8 9 9 10 10 11 11 19 12 12 13
REMARK SMILES IDX 18 14 13 15 16 16 14 17 15 18 17 20 20 21 21 22 28 23 22 24
REMARK SMILES IDX 27 25 23 26 26 27 24 28 25 29
REMARK H PARENT 19 19 28 30
ROOT
ATOM      1  O   UNL     1      46.674 133.011  22.166  1.00  0.00    -0.431 OA
ENDROOT
BRANCH   1   2
ATOM      2  C   UNL     1      47.144 134.353  22.104  1.00  0.00     0.312 C 
BRANCH   2   3
ATOM      3  C   UNL     1      48.508 134.450  22.790  1.00  0.00     0.278 C 
ATOM      4  C   UNL     1      49.408 135.456  22.077  1.00  0.00     0.091 C 
ATOM      5  F   UNL     1      48.334 134.849  24.105  1.00  0.00    -0.203 F 
ATOM      6  F   UNL     1      49.118 133.208  22.777  1.00  0.00    -0.203 F 
ENDBRANCH   2   3
ENDBRANCH   1   2
BRANCH   1   7
ATOM      7  C   UNL     1      46.836 132.099  21.119  1.00  0.00     0.482 C 
ATOM      8  O   UNL     1      47.968 131.963  20.573  1.00  0.00    -0.207 OA
BRANCH   7   9
ATOM      9  N   UNL     1      45.729 131.285  20.694  1.00  0.00    -0.141 N 
BRANCH   9  10
ATOM     10  C   UNL     1      44.862 130.646  21.654  1.00  0.00     0.182 A 
ATOM     11  C   UNL     1      44.857 129.283  21.957  1.00  0.00     0.073 A 
ATOM     12  N   UNL     1      43.886 131.297  22.336  1.00  0.00    -0.326 N 
ATOM     13  C   UNL     1      43.842 129.127  22.874  1.00  0.00     0.006 A 
ATOM     14  C   UNL     1      43.277 130.359  23.080  1.00  0.00     0.084 A 
ATOM     15  C   UNL     1      43.374 127.987  23.523  1.00  0.00     0.010 A 
ATOM     16  C   UNL     1      42.199 130.533  23.949  1.00  0.00     0.147 A 
ATOM     17  C   UNL     1      42.292 128.131  24.410  1.00  0.00     0.004 A 
ATOM     18  C   UNL     1      41.705 129.399  24.622  1.00  0.00     0.041 A 
ATOM     19  H   UNL     1      43.619 132.304  22.269  1.00  0.00     0.170 HD
ATOM     20  F   UNL     1      41.643 131.754  24.142  1.00  0.00    -0.205 F 
ENDBRANCH   9  10
BRANCH   9  21
ATOM     21  C   UNL     1      45.479 131.131  19.289  1.00  0.00     0.270 A 
ATOM     22  C   UNL     1      44.508 131.800  18.559  1.00  0.00     0.249 A 
ATOM     23  N   UNL     1      46.118 130.233  18.504  1.00  0.00    -0.243 N 
ATOM     24  N   UNL     1      44.566 131.315  17.307  1.00  0.00    -0.233 N 
ATOM     25  C   UNL     1      45.535 130.382  17.300  1.00  0.00     0.230 A 
ATOM     26  C   UNL     1      43.827 131.635  16.214  1.00  0.00     0.168 A 
ATOM     27  C   UNL     1      45.843 129.676  16.138  1.00  0.00     0.081 A 
ATOM     28  C   UNL     1      44.094 130.958  15.015  1.00  0.00     0.035 A 
ATOM     29  C   UNL     1      45.104 129.976  14.981  1.00  0.00     0.010 A 
ATOM     30  H   UNL     1      46.882 129.575  18.774  1.00  0.00     0.267 HD
ENDBRANCH   9  21
ENDBRANCH   7   9
ENDBRANCH   1   7
TORSDOF 6
ENDMDL
MODEL 5
REMARK VINA RESULT:      -4.2      1.453      1.864
REMARK SMILES CC(F)(F)COC(=O)N(c1cc2cccc(F)c2[nH]1)c1cn2ccccc2[nH+]1
REMARK SMILES IDX 6 1 5 2 2 3 1 4 3 5 4 6 7 7 8 8 9 9 10 10 11 11 19 12 12 13
REMARK SMILES IDX 18 14 13 15 16 16 14 17 15 18 17 20 20 21 21 22 28 23 22 24
REMARK SMILES IDX 27 25 23 26 26 27 24 28 25 29
REMARK H PARENT 19 19 28 30
ROOT
ATOM      1  O   UNL     1      46.383 133.718  21.560  1.00  0.00    -0.431 OA
ENDROOT
BRANCH   1   2
ATOM      2  C   UNL     1      47.333 134.490  22.287  1.00  0.00     0.312 C 
BRANCH   2   3
ATOM      3  C   UNL     1      47.111 134.294  23.787  1.00  0.00     0.278 C 
ATOM      4  C   UNL     1      48.415 133.919  24.488  1.00  0.00     0.091 C 
ATOM      5  F   UNL     1      46.622 135.467  24.336  1.00  0.00    -0.203 F 
ATOM      6  F   UNL     1      46.184 133.287  23.987  1.00  0.00    -0.203 F 
ENDBRANCH   2   3
ENDBRANCH   1   2
BRANCH   1   7
ATOM      7  C   UNL     1      46.669 132.450  21.044  1.00  0.00     0.482 C 
ATOM      8  O   UNL     1      47.857 132.022  21.051  1.00  0.00    -0.207 OA
BRANCH   7   9
ATOM      9  N   UNL     1      45.605 131.617  20.549  1.00  0.00    -0.141 N 
BRANCH   9  10
ATOM     10  C   UNL     1      45.372 131.471  19.132  1.00  0.00     0.182 A 
ATOM     11  C   UNL     1      44.257 131.952  18.443  1.00  0.00     0.073 A 
ATOM     12  N   UNL     1      46.190 130.773  18.304  1.00  0.00    -0.326 N 
ATOM     13  C   UNL     1      44.437 131.534  17.143  1.00  0.00     0.006 A 
ATOM     14  C   UNL     1      45.610 130.827  17.094  1.00  0.00     0.084 A 
ATOM     15  C   UNL     1      43.642 131.718  16.014  1.00  0.00     0.010 A 
ATOM     16  C   UNL     1      46.066 130.249  15.908  1.00  0.00     0.147 A 
ATOM     17  C   UNL     1      44.078 131.152  14.802  1.00  0.00     0.004 A 
ATOM     18  C   UNL     1      45.286 130.420  14.749  1.00  0.00     0.041 A 
ATOM     19  H   UNL     1      47.063 130.256  18.550  1.00  0.00     0.170 HD
ATOM     20  F   UNL     1      47.225 129.546  15.869  1.00  0.00    -0.205 F 
ENDBRANCH   9  10
BRANCH   9  21
ATOM     21  C   UNL     1      44.783 130.909  21.488  1.00  0.00     0.270 A 
ATOM     22  C   UNL     1      43.687 131.428  22.160  1.00  0.00     0.249 A 
ATOM     23  N   UNL     1      45.033 129.647  21.906  1.00  0.00    -0.243 N 
ATOM     24  N   UNL     1      43.251 130.463  22.988  1.00  0.00    -0.233 N 
ATOM     25  C   UNL     1      44.071 129.410  22.817  1.00  0.00     0.230 A 
ATOM     26  C   UNL     1      42.212 130.469  23.862  1.00  0.00     0.168 A 
ATOM     27  C   UNL     1      43.891 128.235  23.546  1.00  0.00     0.081 A 
ATOM     28  C   UNL     1      41.981 129.313  24.621  1.00  0.00     0.035 A 
ATOM     29  C   UNL     1      42.825 128.195  24.461  1.00  0.00     0.010 A 
ATOM     30  H   UNL     1      45.799 129.008  21.596  1.00  0.00     0.267 HD
ENDBRANCH   9  21
ENDBRANCH   7   9
ENDBRANCH   1   7
TORSDOF 6
ENDMDL
MODEL 6
REMARK VINA RESULT:      -3.9      2.814      6.596
REMARK SMILES CC(F)(F)COC(=O)N(c1cc2cccc(F)c2[nH]1)c1cn2ccccc2[nH+]1
REMARK SMILES IDX 6 1 5 2 2 3 1 4 3 5 4 6 7 7 8 8 9 9 10 10 11 11 19 12 12 13
REMARK SMILES IDX 18 14 13 15 16 16 14 17 15 18 17 20 20 21 21 22 28 23 22 24
REMARK SMILES IDX 27 25 23 26 26 27 24 28 25 29
REMARK H PARENT 19 19 28 30
ROOT
ATOM      1  O   UNL     1      44.570 133.025  20.872  1.00  0.00    -0.431 OA
ENDROOT
BRANCH   1   2
ATOM      2  C   UNL     1      43.503 133.003  19.929  1.00  0.00     0.312 C 
BRANCH   2   3
ATOM      3  C   UNL     1      42.284 132.322  20.551  1.00  0.00     0.278 C 
ATOM      4  C   UNL     1      42.420 132.236  22.069  1.00  0.00     0.091 C 
ATOM      5  F   UNL     1      41.144 133.044  20.238  1.00  0.00    -0.203 F 
ATOM      6  F   UNL     1      42.158 131.044  20.034  1.00  0.00    -0.203 F 
ENDBRANCH   2   3
ENDBRANCH   1   2
BRANCH   1   7
ATOM      7  C   UNL     1      45.654 132.144  20.813  1.00  0.00     0.482 C 
ATOM      8  O   UNL     1      46.771 132.488  21.292  1.00  0.00    -0.207 OA
BRANCH   7   9
ATOM      9  N   UNL     1      45.486 130.832  20.248  1.00  0.00    -0.141 N 
BRANCH   9  10
ATOM     10  C   UNL     1      45.284 129.678  21.092  1.00  0.00     0.182 A 
ATOM     11  C   UNL     1      44.426 129.621  22.193  1.00  0.00     0.073 A 
ATOM     12  N   UNL     1      45.971 128.516  20.954  1.00  0.00    -0.326 N 
ATOM     13  C   UNL     1      44.602 128.359  22.715  1.00  0.00     0.006 A 
ATOM     14  C   UNL     1      45.540 127.720  21.946  1.00  0.00     0.084 A 
ATOM     15  C   UNL     1      44.013 127.745  23.817  1.00  0.00     0.010 A 
ATOM     16  C   UNL     1      45.956 126.419  22.232  1.00  0.00     0.147 A 
ATOM     17  C   UNL     1      44.408 126.431  24.128  1.00  0.00     0.004 A 
ATOM     18  C   UNL     1      45.377 125.771  23.339  1.00  0.00     0.041 A 
ATOM     19  H   UNL     1      46.717 128.291  20.259  1.00  0.00     0.170 HD
ATOM     20  F   UNL     1      46.888 125.796  21.470  1.00  0.00    -0.205 F 
ENDBRANCH   9  10
BRANCH   9  21
ATOM     21  C   UNL     1      45.499 130.682  18.821  1.00  0.00     0.270 A 
ATOM     22  C   UNL     1      46.175 129.698  18.115  1.00  0.00     0.249 A 
ATOM     23  N   UNL     1      44.912 131.551  17.967  1.00  0.00    -0.243 N 
ATOM     24  N   UNL     1      45.983 129.960  16.811  1.00  0.00    -0.233 N 
ATOM     25  C   UNL     1      45.225 131.071  16.749  1.00  0.00     0.230 A 
ATOM     26  C   UNL     1      46.435 129.301  15.714  1.00  0.00     0.168 A 
ATOM     27  C   UNL     1      44.852 131.617  15.522  1.00  0.00     0.081 A 
ATOM     28  C   UNL     1      46.088 129.804  14.451  1.00  0.00     0.035 A 
ATOM     29  C   UNL     1      45.295 130.965  14.359  1.00  0.00     0.010 A 
ATOM     30  H   UNL     1      44.350 132.399  18.200  1.00  0.00     0.267 HD
ENDBRANCH   9  21
ENDBRANCH   7   9
ENDBRANCH   1   7
TORSDOF 6
ENDMDL
MODEL 7
REMARK VINA RESULT:      -3.8      1.433      1.844
REMARK SMILES CC(F)(F)COC(=O)N(c1cc2cccc(F)c2[nH]1)c1cn2ccccc2[nH+]1
REMARK SMILES IDX 6 1 5 2 2 3 1 4 3 5 4 6 7 7 8 8 9 9 10 10 11 11 19 12 12 13
REMARK SMILES IDX 18 14 13 15 16 16 14 17 15 18 17 20 20 21 21 22 28 23 22 24
REMARK SMILES IDX 27 25 23 26 26 27 24 28 25 29
REMARK H PARENT 19 19 28 30
ROOT
ATOM      1  O   UNL     1      46.260 133.160  20.742  1.00  0.00    -0.431 OA
ENDROOT
BRANCH   1   2
ATOM      2  C   UNL     1      46.869 133.052  22.025  1.00  0.00     0.312 C 
BRANCH   2   3
ATOM      3  C   UNL     1      47.568 134.368  22.372  1.00  0.00     0.278 C 
ATOM      4  C   UNL     1      49.073 134.163  22.525  1.00  0.00     0.091 C 
ATOM      5  F   UNL     1      47.336 135.291  21.366  1.00  0.00    -0.203 F 
ATOM      6  F   UNL     1      47.055 134.862  23.559  1.00  0.00    -0.203 F 
ENDBRANCH   2   3
ENDBRANCH   1   2
BRANCH   1   7
ATOM      7  C   UNL     1      45.116 132.442  20.382  1.00  0.00     0.482 C 
ATOM      8  O   UNL     1      43.980 132.987  20.464  1.00  0.00    -0.207 OA
BRANCH   7   9
ATOM      9  N   UNL     1      45.238 131.101  19.875  1.00  0.00    -0.141 N 
BRANCH   9  10
ATOM     10  C   UNL     1      45.410 130.851  18.464  1.00  0.00     0.182 A 
ATOM     11  C   UNL     1      46.415 130.063  17.899  1.00  0.00     0.073 A 
ATOM     12  N   UNL     1      44.643 131.421  17.500  1.00  0.00    -0.326 N 
ATOM     13  C   UNL     1      46.219 130.158  16.540  1.00  0.00     0.006 A 
ATOM     14  C   UNL     1      45.145 130.985  16.333  1.00  0.00     0.084 A 
ATOM     15  C   UNL     1      46.922 129.587  15.481  1.00  0.00     0.010 A 
ATOM     16  C   UNL     1      44.702 131.300  15.047  1.00  0.00     0.147 A 
ATOM     17  C   UNL     1      46.495 129.882  14.173  1.00  0.00     0.004 A 
ATOM     18  C   UNL     1      45.390 130.736  13.957  1.00  0.00     0.041 A 
ATOM     19  H   UNL     1      43.859 132.099  17.622  1.00  0.00     0.170 HD
ATOM     20  F   UNL     1      43.643 132.122  14.852  1.00  0.00    -0.205 F 
ENDBRANCH   9  10
BRANCH   9  21
ATOM     21  C   UNL     1      45.206 130.003  20.799  1.00  0.00     0.270 A 
ATOM     22  C   UNL     1      44.639 130.024  22.065  1.00  0.00     0.249 A 
ATOM     23  N   UNL     1      45.812 128.815  20.577  1.00  0.00    -0.243 N 
ATOM     24  N   UNL     1      44.888 128.825  22.617  1.00  0.00    -0.233 N 
ATOM     25  C   UNL     1      45.589 128.121  21.709  1.00  0.00     0.230 A 
ATOM     26  C   UNL     1      44.551 128.342  23.840  1.00  0.00     0.168 A 
ATOM     27  C   UNL     1      46.016 126.822  21.983  1.00  0.00     0.081 A 
ATOM     28  C   UNL     1      44.952 127.040  24.170  1.00  0.00     0.035 A 
ATOM     29  C   UNL     1      45.687 126.281  23.237  1.00  0.00     0.010 A 
ATOM     30  H   UNL     1      46.336 128.510  19.727  1.00  0.00     0.267 HD
ENDBRANCH   9  21
ENDBRANCH   7   9
ENDBRANCH   1   7
TORSDOF 6
ENDMDL
MODEL 8
REMARK VINA RESULT:      -3.6      1.717      5.978
REMARK SMILES CC(F)(F)COC(=O)N(c1cc2cccc(F)c2[nH]1)c1cn2ccccc2[nH+]1
REMARK SMILES IDX 6 1 5 2 2 3 1 4 3 5 4 6 7 7 8 8 9 9 10 10 11 11 19 12 12 13
REMARK SMILES IDX 18 14 13 15 16 16 14 17 15 18 17 20 20 21 21 22 28 23 22 24
REMARK SMILES IDX 27 25 23 26 26 27 24 28 25 29
REMARK H PARENT 19 19 28 30
ROOT
ATOM      1  O   UNL     1      47.210 132.626  21.270  1.00  0.00    -0.431 OA
ENDROOT
BRANCH   1   2
ATOM      2  C   UNL     1      47.391 132.993  22.634  1.00  0.00     0.312 C 
BRANCH   2   3
ATOM      3  C   UNL     1      48.122 134.334  22.711  1.00  0.00     0.278 C 
ATOM      4  C   UNL     1      48.127 134.872  24.140  1.00  0.00     0.091 C 
ATOM      5  F   UNL     1      49.429 134.170  22.284  1.00  0.00    -0.203 F 
ATOM      6  F   UNL     1      47.492 135.248  21.884  1.00  0.00    -0.203 F 
ENDBRANCH   2   3
ENDBRANCH   1   2
BRANCH   1   7
ATOM      7  C   UNL     1      45.953 132.548  20.664  1.00  0.00     0.482 C 
ATOM      8  O   UNL     1      45.276 133.599  20.479  1.00  0.00    -0.207 OA
BRANCH   7   9
ATOM      9  N   UNL     1      45.449 131.278  20.211  1.00  0.00    -0.141 N 
BRANCH   9  10
ATOM     10  C   UNL     1      45.074 130.248  21.149  1.00  0.00     0.182 A 
ATOM     11  C   UNL     1      44.188 130.410  22.216  1.00  0.00     0.073 A 
ATOM     12  N   UNL     1      45.604 128.999  21.145  1.00  0.00    -0.326 N 
ATOM     13  C   UNL     1      44.181 129.192  22.858  1.00  0.00     0.006 A 
ATOM     14  C   UNL     1      45.045 128.365  22.189  1.00  0.00     0.084 A 
ATOM     15  C   UNL     1      43.487 128.768  23.990  1.00  0.00     0.010 A 
ATOM     16  C   UNL     1      45.277 127.054  22.610  1.00  0.00     0.147 A 
ATOM     17  C   UNL     1      43.695 127.450  24.435  1.00  0.00     0.004 A 
ATOM     18  C   UNL     1      44.588 126.597  23.748  1.00  0.00     0.041 A 
ATOM     19  H   UNL     1      46.332 128.612  20.504  1.00  0.00     0.170 HD
ATOM     20  F   UNL     1      46.138 126.245  21.945  1.00  0.00    -0.205 F 
ENDBRANCH   9  10
BRANCH   9  21
ATOM     21  C   UNL     1      45.303 131.052  18.801  1.00  0.00     0.270 A 
ATOM     22  C   UNL     1      46.096 130.219  18.026  1.00  0.00     0.249 A 
ATOM     23  N   UNL     1      44.408 131.703  18.023  1.00  0.00    -0.243 N 
ATOM     24  N   UNL     1      45.667 130.350  16.759  1.00  0.00    -0.233 N 
ATOM     25  C   UNL     1      44.659 131.241  16.784  1.00  0.00     0.230 A 
ATOM     26  C   UNL     1      46.112 129.755  15.623  1.00  0.00     0.168 A 
ATOM     27  C   UNL     1      43.997 131.608  15.613  1.00  0.00     0.081 A 
ATOM     28  C   UNL     1      45.482 130.084  14.414  1.00  0.00     0.035 A 
ATOM     29  C   UNL     1      44.423 131.014  14.413  1.00  0.00     0.010 A 
ATOM     30  H   UNL     1      43.693 132.405  18.317  1.00  0.00     0.267 HD
ENDBRANCH   9  21
ENDBRANCH   7   9
ENDBRANCH   1   7
TORSDOF 6
ENDMDL
MODEL 9
REMARK VINA RESULT:      -3.6      2.312      3.207
REMARK SMILES CC(F)(F)COC(=O)N(c1cc2cccc(F)c2[nH]1)c1cn2ccccc2[nH+]1
REMARK SMILES IDX 6 1 5 2 2 3 1 4 3 5 4 6 7 7 8 8 9 9 10 10 11 11 19 12 12 13
REMARK SMILES IDX 18 14 13 15 16 16 14 17 15 18 17 20 20 21 21 22 28 23 22 24
REMARK SMILES IDX 27 25 23 26 26 27 24 28 25 29
REMARK H PARENT 19 19 28 30
ROOT
ATOM      1  O   UNL     1      44.011 132.428  21.797  1.00  0.00    -0.431 OA
ENDROOT
BRANCH   1   2
ATOM      2  C   UNL     1      43.033 131.603  22.422  1.00  0.00     0.312 C 
BRANCH   2   3
ATOM      3  C   UNL     1      43.045 131.849  23.931  1.00  0.00     0.278 C 
ATOM      4  C   UNL     1      44.082 130.967  24.621  1.00  0.00     0.091 C 
ATOM      5  F   UNL     1      43.344 133.179  24.178  1.00  0.00    -0.203 F 
ATOM      6  F   UNL     1      41.793 131.569  24.452  1.00  0.00    -0.203 F 
ENDBRANCH   2   3
ENDBRANCH   1   2
BRANCH   1   7
ATOM      7  C   UNL     1      45.212 131.929  21.284  1.00  0.00     0.482 C 
ATOM      8  O   UNL     1      46.290 132.556  21.482  1.00  0.00    -0.207 OA
BRANCH   7   9
ATOM      9  N   UNL     1      45.225 130.679  20.570  1.00  0.00    -0.141 N 
BRANCH   9  10
ATOM     10  C   UNL     1      45.252 130.646  19.128  1.00  0.00     0.182 A 
ATOM     11  C   UNL     1      46.267 130.083  18.351  1.00  0.00     0.073 A 
ATOM     12  N   UNL     1      44.310 131.231  18.345  1.00  0.00    -0.326 N 
ATOM     13  C   UNL     1      45.895 130.332  17.048  1.00  0.00     0.006 A 
ATOM     14  C   UNL     1      44.713 131.026  17.080  1.00  0.00     0.084 A 
ATOM     15  C   UNL     1      46.525 130.008  15.849  1.00  0.00     0.010 A 
ATOM     16  C   UNL     1      44.081 131.447  15.909  1.00  0.00     0.147 A 
ATOM     17  C   UNL     1      45.909 130.415  14.651  1.00  0.00     0.004 A 
ATOM     18  C   UNL     1      44.692 131.132  14.681  1.00  0.00     0.041 A 
ATOM     19  H   UNL     1      43.471 131.774  18.647  1.00  0.00     0.170 HD
ATOM     20  F   UNL     1      42.916 132.138  15.950  1.00  0.00    -0.205 F 
ENDBRANCH   9  10
BRANCH   9  21
ATOM     21  C   UNL     1      45.234 129.453  21.316  1.00  0.00     0.270 A 
ATOM     22  C   UNL     1      46.037 128.352  21.058  1.00  0.00     0.249 A 
ATOM     23  N   UNL     1      44.382 129.184  22.332  1.00  0.00    -0.243 N 
ATOM     24  N   UNL     1      45.681 127.402  21.941  1.00  0.00    -0.233 N 
ATOM     25  C   UNL     1      44.692 127.924  22.690  1.00  0.00     0.230 A 
ATOM     26  C   UNL     1      46.160 126.143  22.104  1.00  0.00     0.168 A 
ATOM     27  C   UNL     1      44.092 127.178  23.703  1.00  0.00     0.081 A 
ATOM     28  C   UNL     1      45.595 125.347  23.111  1.00  0.00     0.035 A 
ATOM     29  C   UNL     1      44.558 125.869  23.910  1.00  0.00     0.010 A 
ATOM     30  H   UNL     1      43.650 129.808  22.739  1.00  0.00     0.267 HD
ENDBRANCH   9  21
ENDBRANCH   7   9
ENDBRANCH   1   7
TORSDOF 6
ENDMDL


