MODEL 1
REMARK VINA RESULT:      -3.5      0.000      0.000
REMARK SMILES CC(C)[C@@H](N)C(=O)N(c1ccc2cc[nH]c2c1)c1cccc2cnoc12
REMARK SMILES IDX 6 1 7 2 4 3 2 4 1 5 3 6 5 7 8 10 9 11 10 12 17 13 11 14
REMARK SMILES IDX 16 15 12 16 15 17 13 18 14 19 18 21 19 22 26 23 20 24 25 25
REMARK SMILES IDX 22 26 21 27 24 28 23 29
REMARK H PARENT 5 8 5 9 15 20
ROOT
ATOM      1  C   UNL     1      45.793 132.312  21.934  1.00  0.00     0.248 C 
ATOM      2  O   UNL     1      45.335 132.713  23.041  1.00  0.00    -0.272 OA
ENDROOT
BRANCH   1   3
ATOM      3  C   UNL     1      46.942 133.077  21.296  1.00  0.00     0.144 C 
BRANCH   3   4
ATOM      4  C   UNL     1      47.367 134.284  22.177  1.00  0.00     0.009 C 
ATOM      5  C   UNL     1      47.868 135.456  21.314  1.00  0.00     0.009 C 
ATOM      6  C   UNL     1      48.469 133.888  23.174  1.00  0.00     0.009 C 
ENDBRANCH   3   4
BRANCH   3   7
ATOM      7  N   UNL     1      48.079 132.180  21.058  1.00  0.00    -0.320 NA
ATOM      8  H   UNL     1      48.163 131.977  20.035  1.00  0.00     0.119 HD
ATOM      9  H   UNL     1      48.958 132.659  21.362  1.00  0.00     0.119 HD
ENDBRANCH   3   7
ENDBRANCH   1   3
BRANCH   1  10
ATOM     10  N   UNL     1      45.169 131.188  21.274  1.00  0.00    -0.276 N 
BRANCH  10  11
ATOM     11  C   UNL     1      44.969 131.198  19.842  1.00  0.00     0.051 A 
ATOM     12  C   UNL     1      43.831 131.836  19.274  1.00  0.00     0.027 A 
ATOM     13  C   UNL     1      45.920 130.592  18.986  1.00  0.00     0.053 A 
ATOM     14  C   UNL     1      43.641 131.865  17.881  1.00  0.00     0.012 A 
ATOM     15  C   UNL     1      45.700 130.641  17.612  1.00  0.00     0.047 A 
ATOM     16  C   UNL     1      44.601 131.256  17.081  1.00  0.00    -0.000 A 
ATOM     17  N   UNL     1      46.477 130.130  16.643  1.00  0.00    -0.361 N 
ATOM     18  C   UNL     1      44.679 131.132  15.711  1.00  0.00     0.028 A 
ATOM     19  C   UNL     1      45.857 130.428  15.477  1.00  0.00     0.083 A 
ATOM     20  H   UNL     1      47.375 129.611  16.760  1.00  0.00     0.166 HD
ENDBRANCH  10  11
BRANCH  10  21
ATOM     21  C   UNL     1      44.702 130.061  22.039  1.00  0.00     0.095 A 
ATOM     22  C   UNL     1      45.358 128.810  21.983  1.00  0.00     0.031 A 
ATOM     23  C   UNL     1      43.594 130.166  22.882  1.00  0.00     0.190 A 
ATOM     24  C   UNL     1      44.888 127.720  22.751  1.00  0.00     0.003 A 
ATOM     25  O   UNL     1      42.824 131.202  23.107  1.00  0.00    -0.354 OA
ATOM     26  C   UNL     1      43.147 129.112  23.620  1.00  0.00     0.044 A 
ATOM     27  C   UNL     1      43.763 127.864  23.587  1.00  0.00     0.014 A 
ATOM     28  N   UNL     1      41.885 130.888  23.962  1.00  0.00    -0.087 NA
ATOM     29  C   UNL     1      42.055 129.589  24.305  1.00  0.00     0.166 A 
ENDBRANCH  10  21
ENDBRANCH   1  10
TORSDOF 6
ENDMDL
MODEL 2
REMARK VINA RESULT:      -3.3      1.450      2.250
REMARK SMILES CC(C)[C@@H](N)C(=O)N(c1ccc2cc[nH]c2c1)c1cccc2cnoc12
REMARK SMILES IDX 6 1 7 2 4 3 2 4 1 5 3 6 5 7 8 10 9 11 10 12 17 13 11 14
REMARK SMILES IDX 16 15 12 16 15 17 13 18 14 19 18 21 19 22 26 23 20 24 25 25
REMARK SMILES IDX 22 26 21 27 24 28 23 29
REMARK H PARENT 5 8 5 9 15 20
ROOT
ATOM      1  C   UNL     1      45.996 132.734  22.345  1.00  0.00     0.248 C 
ATOM      2  O   UNL     1      45.831 133.118  23.537  1.00  0.00    -0.272 OA
ENDROOT
BRANCH   1   3
ATOM      3  C   UNL     1      47.101 133.371  21.516  1.00  0.00     0.144 C 
BRANCH   3   4
ATOM      4  C   UNL     1      47.697 134.611  22.238  1.00  0.00     0.009 C 
ATOM      5  C   UNL     1      47.968 135.757  21.248  1.00  0.00     0.009 C 
ATOM      6  C   UNL     1      49.004 134.260  22.968  1.00  0.00     0.009 C 
ENDBRANCH   3   4
BRANCH   3   7
ATOM      7  N   UNL     1      48.148 132.386  21.224  1.00  0.00    -0.320 NA
ATOM      8  H   UNL     1      48.794 132.299  22.043  1.00  0.00     0.119 HD
ATOM      9  H   UNL     1      47.702 131.452  21.069  1.00  0.00     0.119 HD
ENDBRANCH   3   7
ENDBRANCH   1   3
BRANCH   1  10
ATOM     10  N   UNL     1      45.090 131.759  21.783  1.00  0.00    -0.276 N 
BRANCH  10  11
ATOM     11  C   UNL     1      45.128 131.455  20.369  1.00  0.00     0.051 A 
ATOM     12  C   UNL     1      46.132 130.598  19.839  1.00  0.00     0.027 A 
ATOM     13  C   UNL     1      44.148 131.992  19.500  1.00  0.00     0.053 A 
ATOM     14  C   UNL     1      46.164 130.284  18.469  1.00  0.00     0.012 A 
ATOM     15  C   UNL     1      44.209 131.660  18.148  1.00  0.00     0.047 A 
ATOM     16  C   UNL     1      45.182 130.835  17.654  1.00  0.00    -0.000 A 
ATOM     17  N   UNL     1      43.380 132.062  17.171  1.00  0.00    -0.361 N 
ATOM     18  C   UNL     1      44.963 130.706  16.299  1.00  0.00     0.028 A 
ATOM     19  C   UNL     1      43.838 131.481  16.037  1.00  0.00     0.083 A 
ATOM     20  H   UNL     1      42.553 132.692  17.263  1.00  0.00     0.166 HD
ENDBRANCH  10  11
BRANCH  10  21
ATOM     21  C   UNL     1      44.114 131.106  22.615  1.00  0.00     0.095 A 
ATOM     22  C   UNL     1      43.064 131.829  23.224  1.00  0.00     0.031 A 
ATOM     23  C   UNL     1      44.156 129.729  22.837  1.00  0.00     0.190 A 
ATOM     24  C   UNL     1      42.110 131.166  24.031  1.00  0.00     0.003 A 
ATOM     25  O   UNL     1      45.017 128.847  22.393  1.00  0.00    -0.354 OA
ATOM     26  C   UNL     1      43.233 129.095  23.614  1.00  0.00     0.044 A 
ATOM     27  C   UNL     1      42.189 129.775  24.235  1.00  0.00     0.014 A 
ATOM     28  N   UNL     1      44.711 127.655  22.836  1.00  0.00    -0.087 NA
ATOM     29  C   UNL     1      43.601 127.771  23.603  1.00  0.00     0.166 A 
ENDBRANCH  10  21
ENDBRANCH   1  10
TORSDOF 6
ENDMDL
MODEL 3
REMARK VINA RESULT:      -3.1      1.097      1.247
REMARK SMILES CC(C)[C@@H](N)C(=O)N(c1ccc2cc[nH]c2c1)c1cccc2cnoc12
REMARK SMILES IDX 6 1 7 2 4 3 2 4 1 5 3 6 5 7 8 10 9 11 10 12 17 13 11 14
REMARK SMILES IDX 16 15 12 16 15 17 13 18 14 19 18 21 19 22 26 23 20 24 25 25
REMARK SMILES IDX 22 26 21 27 24 28 23 29
REMARK H PARENT 5 8 5 9 15 20
ROOT
ATOM      1  C   UNL     1      45.790 132.649  21.289  1.00  0.00     0.248 C 
ATOM      2  O   UNL     1      45.895 133.652  20.528  1.00  0.00    -0.272 OA
ENDROOT
BRANCH   1   3
ATOM      3  C   UNL     1      46.382 132.726  22.688  1.00  0.00     0.144 C 
BRANCH   3   4
ATOM      4  C   UNL     1      47.266 133.993  22.852  1.00  0.00     0.009 C 
ATOM      5  C   UNL     1      48.677 133.766  22.283  1.00  0.00     0.009 C 
ATOM      6  C   UNL     1      47.381 134.407  24.329  1.00  0.00     0.009 C 
ENDBRANCH   3   4
BRANCH   3   7
ATOM      7  N   UNL     1      45.313 132.703  23.693  1.00  0.00    -0.320 NA
ATOM      8  H   UNL     1      44.729 131.843  23.571  1.00  0.00     0.119 HD
ATOM      9  H   UNL     1      45.744 132.664  24.646  1.00  0.00     0.119 HD
ENDBRANCH   3   7
ENDBRANCH   1   3
BRANCH   1  10
ATOM     10  N   UNL     1      45.179 131.439  20.788  1.00  0.00    -0.276 N 
BRANCH  10  11
ATOM     11  C   UNL     1      45.026 131.232  19.365  1.00  0.00     0.051 A 
ATOM     12  C   UNL     1      43.885 131.733  18.679  1.00  0.00     0.027 A 
ATOM     13  C   UNL     1      46.026 130.546  18.634  1.00  0.00     0.053 A 
ATOM     14  C   UNL     1      43.738 131.551  17.293  1.00  0.00     0.012 A 
ATOM     15  C   UNL     1      45.848 130.384  17.262  1.00  0.00     0.047 A 
ATOM     16  C   UNL     1      44.745 130.871  16.617  1.00  0.00    -0.000 A 
ATOM     17  N   UNL     1      46.674 129.769  16.399  1.00  0.00    -0.361 N 
ATOM     18  C   UNL     1      44.872 130.551  15.282  1.00  0.00     0.028 A 
ATOM     19  C   UNL     1      46.081 129.868  15.187  1.00  0.00     0.083 A 
ATOM     20  H   UNL     1      47.585 129.309  16.615  1.00  0.00     0.166 HD
ENDBRANCH  10  11
BRANCH  10  21
ATOM     21  C   UNL     1      44.681 130.443  21.700  1.00  0.00     0.095 A 
ATOM     22  C   UNL     1      45.276 129.165  21.792  1.00  0.00     0.031 A 
ATOM     23  C   UNL     1      43.600 130.709  22.543  1.00  0.00     0.190 A 
ATOM     24  C   UNL     1      44.775 128.205  22.702  1.00  0.00     0.003 A 
ATOM     25  O   UNL     1      42.884 131.801  22.648  1.00  0.00    -0.354 OA
ATOM     26  C   UNL     1      43.123 129.780  23.418  1.00  0.00     0.044 A 
ATOM     27  C   UNL     1      43.680 128.509  23.533  1.00  0.00     0.014 A 
ATOM     28  N   UNL     1      41.954 131.645  23.553  1.00  0.00    -0.087 NA
ATOM     29  C   UNL     1      42.072 130.394  24.057  1.00  0.00     0.166 A 
ENDBRANCH  10  21
ENDBRANCH   1  10
TORSDOF 6
ENDMDL
MODEL 4
REMARK VINA RESULT:      -2.9      1.363      1.867
REMARK SMILES CC(C)[C@@H](N)C(=O)N(c1ccc2cc[nH]c2c1)c1cccc2cnoc12
REMARK SMILES IDX 6 1 7 2 4 3 2 4 1 5 3 6 5 7 8 10 9 11 10 12 17 13 11 14
REMARK SMILES IDX 16 15 12 16 15 17 13 18 14 19 18 21 19 22 26 23 20 24 25 25
REMARK SMILES IDX 22 26 21 27 24 28 23 29
REMARK H PARENT 5 8 5 9 15 20
ROOT
ATOM      1  C   UNL     1      45.875 132.701  20.914  1.00  0.00     0.248 C 
ATOM      2  O   UNL     1      45.593 133.748  20.266  1.00  0.00    -0.272 OA
ENDROOT
BRANCH   1   3
ATOM      3  C   UNL     1      46.782 132.813  22.129  1.00  0.00     0.144 C 
BRANCH   3   4
ATOM      4  C   UNL     1      47.999 133.733  21.836  1.00  0.00     0.009 C 
ATOM      5  C   UNL     1      49.078 133.597  22.924  1.00  0.00     0.009 C 
ATOM      6  C   UNL     1      47.573 135.207  21.733  1.00  0.00     0.009 C 
ENDBRANCH   3   4
BRANCH   3   7
ATOM      7  N   UNL     1      46.024 133.304  23.285  1.00  0.00    -0.320 NA
ATOM      8  H   UNL     1      46.378 134.248  23.567  1.00  0.00     0.119 HD
ATOM      9  H   UNL     1      45.019 133.408  23.012  1.00  0.00     0.119 HD
ENDBRANCH   3   7
ENDBRANCH   1   3
BRANCH   1  10
ATOM     10  N   UNL     1      45.391 131.424  20.442  1.00  0.00    -0.276 N 
BRANCH  10  11
ATOM     11  C   UNL     1      45.327 131.144  19.025  1.00  0.00     0.051 A 
ATOM     12  C   UNL     1      46.192 130.179  18.437  1.00  0.00     0.027 A 
ATOM     13  C   UNL     1      44.383 131.813  18.209  1.00  0.00     0.053 A 
ATOM     14  C   UNL     1      46.123 129.889  17.063  1.00  0.00     0.012 A 
ATOM     15  C   UNL     1      44.341 131.500  16.852  1.00  0.00     0.047 A 
ATOM     16  C   UNL     1      45.181 130.571  16.302  1.00  0.00    -0.000 A 
ATOM     17  N   UNL     1      43.525 132.020  15.920  1.00  0.00    -0.361 N 
ATOM     18  C   UNL     1      44.887 130.495  14.958  1.00  0.00     0.028 A 
ATOM     19  C   UNL     1      43.856 131.408  14.759  1.00  0.00     0.083 A 
ATOM     20  H   UNL     1      42.788 132.745  16.059  1.00  0.00     0.166 HD
ENDBRANCH  10  11
BRANCH  10  21
ATOM     21  C   UNL     1      44.930 130.430  21.375  1.00  0.00     0.095 A 
ATOM     22  C   UNL     1      45.485 129.131  21.403  1.00  0.00     0.031 A 
ATOM     23  C   UNL     1      43.928 130.717  22.304  1.00  0.00     0.190 A 
ATOM     24  C   UNL     1      45.023 128.173  22.336  1.00  0.00     0.003 A 
ATOM     25  O   UNL     1      43.261 131.831  22.480  1.00  0.00    -0.354 OA
ATOM     26  C   UNL     1      43.488 129.791  23.201  1.00  0.00     0.044 A 
ATOM     27  C   UNL     1      44.007 128.500  23.254  1.00  0.00     0.014 A 
ATOM     28  N   UNL     1      42.398 131.692  23.453  1.00  0.00    -0.087 NA
ATOM     29  C   UNL     1      42.511 130.429  23.928  1.00  0.00     0.166 A 
ENDBRANCH  10  21
ENDBRANCH   1  10
TORSDOF 6
ENDMDL
MODEL 5
REMARK VINA RESULT:      -2.6      1.712      5.146
REMARK SMILES CC(C)[C@@H](N)C(=O)N(c1ccc2cc[nH]c2c1)c1cccc2cnoc12
REMARK SMILES IDX 6 1 7 2 4 3 2 4 1 5 3 6 5 7 8 10 9 11 10 12 17 13 11 14
REMARK SMILES IDX 16 15 12 16 15 17 13 18 14 19 18 21 19 22 26 23 20 24 25 25
REMARK SMILES IDX 22 26 21 27 24 28 23 29
REMARK H PARENT 5 8 5 9 15 20
ROOT
ATOM      1  C   UNL     1      44.250 131.772  20.436  1.00  0.00     0.248 C 
ATOM      2  O   UNL     1      43.444 132.666  20.052  1.00  0.00    -0.272 OA
ENDROOT
BRANCH   1   3
ATOM      3  C   UNL     1      44.835 130.820  19.404  1.00  0.00     0.144 C 
BRANCH   3   4
ATOM      4  C   UNL     1      44.927 131.497  18.008  1.00  0.00     0.009 C 
ATOM      5  C   UNL     1      43.545 131.585  17.337  1.00  0.00     0.009 C 
ATOM      6  C   UNL     1      45.888 130.736  17.080  1.00  0.00     0.009 C 
ENDBRANCH   3   4
BRANCH   3   7
ATOM      7  N   UNL     1      46.152 130.344  19.841  1.00  0.00    -0.320 NA
ATOM      8  H   UNL     1      46.276 130.530  20.863  1.00  0.00     0.119 HD
ATOM      9  H   UNL     1      46.204 129.310  19.696  1.00  0.00     0.119 HD
ENDBRANCH   3   7
ENDBRANCH   1   3
BRANCH   1  10
ATOM     10  N   UNL     1      44.536 131.634  21.845  1.00  0.00    -0.276 N 
BRANCH  10  11
ATOM     11  C   UNL     1      45.555 132.450  22.468  1.00  0.00     0.051 A 
ATOM     12  C   UNL     1      45.464 132.794  23.846  1.00  0.00     0.027 A 
ATOM     13  C   UNL     1      46.668 132.897  21.716  1.00  0.00     0.053 A 
ATOM     14  C   UNL     1      46.460 133.573  24.462  1.00  0.00     0.012 A 
ATOM     15  C   UNL     1      47.635 133.666  22.359  1.00  0.00     0.047 A 
ATOM     16  C   UNL     1      47.534 133.989  23.684  1.00  0.00    -0.000 A 
ATOM     17  N   UNL     1      48.755 134.180  21.825  1.00  0.00    -0.361 N 
ATOM     18  C   UNL     1      48.639 134.745  24.010  1.00  0.00     0.028 A 
ATOM     19  C   UNL     1      49.373 134.842  22.831  1.00  0.00     0.083 A 
ATOM     20  H   UNL     1      49.085 134.090  20.839  1.00  0.00     0.166 HD
ENDBRANCH  10  11
BRANCH  10  21
ATOM     21  C   UNL     1      43.839 130.655  22.638  1.00  0.00     0.095 A 
ATOM     22  C   UNL     1      42.698 130.999  23.397  1.00  0.00     0.031 A 
ATOM     23  C   UNL     1      44.253 129.323  22.672  1.00  0.00     0.190 A 
ATOM     24  C   UNL     1      42.023 130.019  24.161  1.00  0.00     0.003 A 
ATOM     25  O   UNL     1      45.267 128.757  22.065  1.00  0.00    -0.354 OA
ATOM     26  C   UNL     1      43.597 128.382  23.409  1.00  0.00     0.044 A 
ATOM     27  C   UNL     1      42.474 128.685  24.173  1.00  0.00     0.014 A 
ATOM     28  N   UNL     1      45.318 127.485  22.361  1.00  0.00    -0.087 NA
ATOM     29  C   UNL     1      44.290 127.214  23.199  1.00  0.00     0.166 A 
ENDBRANCH  10  21
ENDBRANCH   1  10
TORSDOF 6
ENDMDL
MODEL 6
REMARK VINA RESULT:      -2.6      1.677      2.293
REMARK SMILES CC(C)[C@@H](N)C(=O)N(c1ccc2cc[nH]c2c1)c1cccc2cnoc12
REMARK SMILES IDX 6 1 7 2 4 3 2 4 1 5 3 6 5 7 8 10 9 11 10 12 17 13 11 14
REMARK SMILES IDX 16 15 12 16 15 17 13 18 14 19 18 21 19 22 26 23 20 24 25 25
REMARK SMILES IDX 22 26 21 27 24 28 23 29
REMARK H PARENT 5 8 5 9 15 20
ROOT
ATOM      1  C   UNL     1      46.220 132.367  21.463  1.00  0.00     0.248 C 
ATOM      2  O   UNL     1      47.302 131.784  21.176  1.00  0.00    -0.272 OA
ENDROOT
BRANCH   1   3
ATOM      3  C   UNL     1      46.274 133.667  22.251  1.00  0.00     0.144 C 
BRANCH   3   4
ATOM      4  C   UNL     1      46.670 133.408  23.730  1.00  0.00     0.009 C 
ATOM      5  C   UNL     1      45.425 133.262  24.624  1.00  0.00     0.009 C 
ATOM      6  C   UNL     1      47.553 134.540  24.281  1.00  0.00     0.009 C 
ENDBRANCH   3   4
BRANCH   3   7
ATOM      7  N   UNL     1      47.208 134.606  21.619  1.00  0.00    -0.320 NA
ATOM      8  H   UNL     1      48.132 134.571  22.109  1.00  0.00     0.119 HD
ATOM      9  H   UNL     1      47.363 134.313  20.626  1.00  0.00     0.119 HD
ENDBRANCH   3   7
ENDBRANCH   1   3
BRANCH   1  10
ATOM     10  N   UNL     1      44.964 131.751  21.100  1.00  0.00    -0.276 N 
BRANCH  10  11
ATOM     11  C   UNL     1      44.557 131.680  19.715  1.00  0.00     0.051 A 
ATOM     12  C   UNL     1      43.218 131.978  19.338  1.00  0.00     0.027 A 
ATOM     13  C   UNL     1      45.496 131.336  18.713  1.00  0.00     0.053 A 
ATOM     14  C   UNL     1      42.819 131.928  17.990  1.00  0.00     0.012 A 
ATOM     15  C   UNL     1      45.067 131.298  17.388  1.00  0.00     0.047 A 
ATOM     16  C   UNL     1      43.776 131.585  17.042  1.00  0.00    -0.000 A 
ATOM     17  N   UNL     1      45.798 130.997  16.302  1.00  0.00    -0.361 N 
ATOM     18  C   UNL     1      43.678 131.461  15.673  1.00  0.00     0.028 A 
ATOM     19  C   UNL     1      44.953 131.095  15.250  1.00  0.00     0.083 A 
ATOM     20  H   UNL     1      46.809 130.740  16.272  1.00  0.00     0.166 HD
ENDBRANCH  10  11
BRANCH  10  21
ATOM     21  C   UNL     1      44.086 131.234  22.117  1.00  0.00     0.095 A 
ATOM     22  C   UNL     1      43.078 132.036  22.697  1.00  0.00     0.031 A 
ATOM     23  C   UNL     1      44.185 129.912  22.556  1.00  0.00     0.190 A 
ATOM     24  C   UNL     1      42.220 131.504  23.688  1.00  0.00     0.003 A 
ATOM     25  O   UNL     1      45.024 128.978  22.182  1.00  0.00    -0.354 OA
ATOM     26  C   UNL     1      43.354 129.405  23.510  1.00  0.00     0.044 A 
ATOM     27  C   UNL     1      42.354 130.167  24.108  1.00  0.00     0.014 A 
ATOM     28  N   UNL     1      44.792 127.873  22.840  1.00  0.00    -0.087 NA
ATOM     29  C   UNL     1      43.754 128.101  23.680  1.00  0.00     0.166 A 
ENDBRANCH  10  21
ENDBRANCH   1  10
TORSDOF 6
ENDMDL
MODEL 7
REMARK VINA RESULT:      -2.5      4.805      8.191
REMARK SMILES CC(C)[C@@H](N)C(=O)N(c1ccc2cc[nH]c2c1)c1cccc2cnoc12
REMARK SMILES IDX 6 1 7 2 4 3 2 4 1 5 3 6 5 7 8 10 9 11 10 12 17 13 11 14
REMARK SMILES IDX 16 15 12 16 15 17 13 18 14 19 18 21 19 22 26 23 20 24 25 25
REMARK SMILES IDX 22 26 21 27 24 28 23 29
REMARK H PARENT 5 8 5 9 15 20
ROOT
ATOM      1  C   UNL     1      45.708 124.402  23.242  1.00  0.00     0.248 C 
ATOM      2  O   UNL     1      46.073 123.772  24.274  1.00  0.00    -0.272 OA
ENDROOT
BRANCH   1   3
ATOM      3  C   UNL     1      44.525 123.877  22.443  1.00  0.00     0.144 C 
BRANCH   3   4
ATOM      4  C   UNL     1      43.250 123.787  23.327  1.00  0.00     0.009 C 
ATOM      5  C   UNL     1      43.249 124.870  24.420  1.00  0.00     0.009 C 
ATOM      6  C   UNL     1      43.126 122.405  23.990  1.00  0.00     0.009 C 
ENDBRANCH   3   4
BRANCH   3   7
ATOM      7  N   UNL     1      44.287 124.726  21.271  1.00  0.00    -0.320 NA
ATOM      8  H   UNL     1      43.358 124.496  20.848  1.00  0.00     0.119 HD
ATOM      9  H   UNL     1      44.260 125.727  21.577  1.00  0.00     0.119 HD
ENDBRANCH   3   7
ENDBRANCH   1   3
BRANCH   1  10
ATOM     10  N   UNL     1      46.463 125.556  22.812  1.00  0.00    -0.276 N 
BRANCH  10  11
ATOM     11  C   UNL     1      45.829 126.852  22.717  1.00  0.00     0.051 A 
ATOM     12  C   UNL     1      45.901 127.607  21.513  1.00  0.00     0.027 A 
ATOM     13  C   UNL     1      45.109 127.375  23.818  1.00  0.00     0.053 A 
ATOM     14  C   UNL     1      45.272 128.860  21.408  1.00  0.00     0.012 A 
ATOM     15  C   UNL     1      44.497 128.618  23.679  1.00  0.00     0.047 A 
ATOM     16  C   UNL     1      44.577 129.333  22.515  1.00  0.00    -0.000 A 
ATOM     17  N   UNL     1      43.775 129.280  24.598  1.00  0.00    -0.361 N 
ATOM     18  C   UNL     1      43.873 130.503  22.701  1.00  0.00     0.028 A 
ATOM     19  C   UNL     1      43.390 130.433  24.005  1.00  0.00     0.083 A 
ATOM     20  H   UNL     1      43.553 128.970  25.570  1.00  0.00     0.166 HD
ENDBRANCH  10  11
BRANCH  10  21
ATOM     21  C   UNL     1      47.846 125.422  22.434  1.00  0.00     0.095 A 
ATOM     22  C   UNL     1      48.863 126.154  23.088  1.00  0.00     0.031 A 
ATOM     23  C   UNL     1      48.238 124.548  21.419  1.00  0.00     0.190 A 
ATOM     24  C   UNL     1      50.216 125.999  22.707  1.00  0.00     0.003 A 
ATOM     25  O   UNL     1      47.499 123.768  20.670  1.00  0.00    -0.354 OA
ATOM     26  C   UNL     1      49.544 124.402  21.057  1.00  0.00     0.044 A 
ATOM     27  C   UNL     1      50.571 125.110  21.674  1.00  0.00     0.014 A 
ATOM     28  N   UNL     1      48.249 123.108  19.827  1.00  0.00    -0.087 NA
ATOM     29  C   UNL     1      49.534 123.478  20.039  1.00  0.00     0.166 A 
ENDBRANCH  10  21
ENDBRANCH   1  10
TORSDOF 6
ENDMDL
MODEL 8
REMARK VINA RESULT:      -2.3      1.513      2.163
REMARK SMILES CC(C)[C@@H](N)C(=O)N(c1ccc2cc[nH]c2c1)c1cccc2cnoc12
REMARK SMILES IDX 6 1 7 2 4 3 2 4 1 5 3 6 5 7 8 10 9 11 10 12 17 13 11 14
REMARK SMILES IDX 16 15 12 16 15 17 13 18 14 19 18 21 19 22 26 23 20 24 25 25
REMARK SMILES IDX 22 26 21 27 24 28 23 29
REMARK H PARENT 5 8 5 9 15 20
ROOT
ATOM      1  C   UNL     1      45.213 132.189  22.847  1.00  0.00     0.248 C 
ATOM      2  O   UNL     1      44.985 132.360  24.077  1.00  0.00    -0.272 OA
ENDROOT
BRANCH   1   3
ATOM      3  C   UNL     1      46.233 133.083  22.158  1.00  0.00     0.144 C 
BRANCH   3   4
ATOM      4  C   UNL     1      47.217 133.702  23.188  1.00  0.00     0.009 C 
ATOM      5  C   UNL     1      46.551 134.838  23.985  1.00  0.00     0.009 C 
ATOM      6  C   UNL     1      48.479 134.247  22.498  1.00  0.00     0.009 C 
ENDBRANCH   3   4
BRANCH   3   7
ATOM      7  N   UNL     1      46.960 132.327  21.132  1.00  0.00    -0.320 NA
ATOM      8  H   UNL     1      47.491 131.543  21.578  1.00  0.00     0.119 HD
ATOM      9  H   UNL     1      46.269 131.907  20.467  1.00  0.00     0.119 HD
ENDBRANCH   3   7
ENDBRANCH   1   3
BRANCH   1  10
ATOM     10  N   UNL     1      44.450 131.203  22.115  1.00  0.00    -0.276 N 
BRANCH  10  11
ATOM     11  C   UNL     1      44.303 131.308  20.681  1.00  0.00     0.051 A 
ATOM     12  C   UNL     1      43.152 131.924  20.115  1.00  0.00     0.027 A 
ATOM     13  C   UNL     1      45.317 130.819  19.823  1.00  0.00     0.053 A 
ATOM     14  C   UNL     1      43.010 132.045  18.721  1.00  0.00     0.012 A 
ATOM     15  C   UNL     1      45.144 130.957  18.448  1.00  0.00     0.047 A 
ATOM     16  C   UNL     1      44.031 131.550  17.918  1.00  0.00    -0.000 A 
ATOM     17  N   UNL     1      45.984 130.562  17.476  1.00  0.00    -0.361 N 
ATOM     18  C   UNL     1      44.167 131.531  16.547  1.00  0.00     0.028 A 
ATOM     19  C   UNL     1      45.390 130.911  16.311  1.00  0.00     0.083 A 
ATOM     20  H   UNL     1      46.904 130.085  17.592  1.00  0.00     0.166 HD
ENDBRANCH  10  11
BRANCH  10  21
ATOM     21  C   UNL     1      43.796 130.126  22.811  1.00  0.00     0.095 A 
ATOM     22  C   UNL     1      42.604 130.335  23.539  1.00  0.00     0.031 A 
ATOM     23  C   UNL     1      44.305 128.826  22.776  1.00  0.00     0.190 A 
ATOM     24  C   UNL     1      41.972 129.260  24.207  1.00  0.00     0.003 A 
ATOM     25  O   UNL     1      45.381 128.377  22.180  1.00  0.00    -0.354 OA
ATOM     26  C   UNL     1      43.691 127.794  23.421  1.00  0.00     0.044 A 
ATOM     27  C   UNL     1      42.519 127.964  24.152  1.00  0.00     0.014 A 
ATOM     28  N   UNL     1      45.514 127.094  22.395  1.00  0.00    -0.087 NA
ATOM     29  C   UNL     1      44.476 126.694  23.167  1.00  0.00     0.166 A 
ENDBRANCH  10  21
ENDBRANCH   1  10
TORSDOF 6
ENDMDL
MODEL 9
REMARK VINA RESULT:      -2.2      1.742      2.548
REMARK SMILES CC(C)[C@@H](N)C(=O)N(c1ccc2cc[nH]c2c1)c1cccc2cnoc12
REMARK SMILES IDX 6 1 7 2 4 3 2 4 1 5 3 6 5 7 8 10 9 11 10 12 17 13 11 14
REMARK SMILES IDX 16 15 12 16 15 17 13 18 14 19 18 21 19 22 26 23 20 24 25 25
REMARK SMILES IDX 22 26 21 27 24 28 23 29
REMARK H PARENT 5 8 5 9 15 20
ROOT
ATOM      1  C   UNL     1      46.094 133.101  21.250  1.00  0.00     0.248 C 
ATOM      2  O   UNL     1      46.110 134.135  20.526  1.00  0.00    -0.272 OA
ENDROOT
BRANCH   1   3
ATOM      3  C   UNL     1      47.017 133.036  22.458  1.00  0.00     0.144 C 
BRANCH   3   4
ATOM      4  C   UNL     1      48.366 133.749  22.168  1.00  0.00     0.009 C 
ATOM      5  C   UNL     1      49.257 133.790  23.422  1.00  0.00     0.009 C 
ATOM      6  C   UNL     1      48.145 135.184  21.663  1.00  0.00     0.009 C 
ENDBRANCH   3   4
BRANCH   3   7
ATOM      7  N   UNL     1      46.359 133.623  23.631  1.00  0.00    -0.320 NA
ATOM      8  H   UNL     1      46.987 134.335  24.071  1.00  0.00     0.119 HD
ATOM      9  H   UNL     1      45.488 134.113  23.321  1.00  0.00     0.119 HD
ENDBRANCH   3   7
ENDBRANCH   1   3
BRANCH   1  10
ATOM     10  N   UNL     1      45.257 131.985  20.873  1.00  0.00    -0.276 N 
BRANCH  10  11
ATOM     11  C   UNL     1      45.250 131.504  19.509  1.00  0.00     0.051 A 
ATOM     12  C   UNL     1      46.132 130.464  19.103  1.00  0.00     0.027 A 
ATOM     13  C   UNL     1      44.346 132.050  18.567  1.00  0.00     0.053 A 
ATOM     14  C   UNL     1      46.117 129.980  17.783  1.00  0.00     0.012 A 
ATOM     15  C   UNL     1      44.358 131.546  17.268  1.00  0.00     0.047 A 
ATOM     16  C   UNL     1      45.213 130.547  16.893  1.00  0.00    -0.000 A 
ATOM     17  N   UNL     1      43.585 131.927  16.238  1.00  0.00    -0.361 N 
ATOM     18  C   UNL     1      44.975 130.278  15.562  1.00  0.00     0.028 A 
ATOM     19  C   UNL     1      43.959 131.154  15.191  1.00  0.00     0.083 A 
ATOM     20  H   UNL     1      42.848 132.665  16.240  1.00  0.00     0.166 HD
ENDBRANCH  10  11
BRANCH  10  21
ATOM     21  C   UNL     1      44.392 131.363  21.841  1.00  0.00     0.095 A 
ATOM     22  C   UNL     1      43.347 132.081  22.464  1.00  0.00     0.031 A 
ATOM     23  C   UNL     1      44.540 130.019  22.188  1.00  0.00     0.190 A 
ATOM     24  C   UNL     1      42.502 131.448  23.405  1.00  0.00     0.003 A 
ATOM     25  O   UNL     1      45.420 129.148  21.759  1.00  0.00    -0.354 OA
ATOM     26  C   UNL     1      43.723 129.413  23.094  1.00  0.00     0.044 A 
ATOM     27  C   UNL     1      42.687 130.090  23.732  1.00  0.00     0.014 A 
ATOM     28  N   UNL     1      45.227 127.990  22.335  1.00  0.00    -0.087 NA
ATOM     29  C   UNL     1      44.174 128.118  23.177  1.00  0.00     0.166 A 
ENDBRANCH  10  21
ENDBRANCH   1  10
TORSDOF 6
ENDMDL


