MODEL 1
REMARK VINA RESULT:      -4.3      0.000      0.000
REMARK SMILES C/C=C(\C)C(=O)N1CC[C@H](C)[C@H](F)[C@H]1c1ccc(C(C)=O)cc1
REMARK SMILES IDX 7 1 8 2 9 3 10 4 11 5 12 6 13 7 14 8 5 9 6 10 3 11 4 12 2 13
REMARK SMILES IDX 1 14 15 15 16 16 23 17 17 18 22 19 18 20 19 21 21 22 20 23
REMARK H PARENT
ROOT
ATOM      1  N   UNL     1      44.493 124.877  22.528  1.00  0.00    -0.329 N 
ATOM      2  C   UNL     1      44.893 123.503  22.194  1.00  0.00     0.121 C 
ATOM      3  C   UNL     1      46.111 123.485  21.271  1.00  0.00     0.028 C 
ATOM      4  C   UNL     1      47.268 124.325  21.835  1.00  0.00     0.024 C 
ATOM      5  C   UNL     1      47.916 123.669  23.067  1.00  0.00     0.011 C 
ATOM      6  C   UNL     1      46.792 125.765  22.106  1.00  0.00     0.196 C 
ATOM      7  F   UNL     1      47.815 126.500  22.689  1.00  0.00    -0.245 F 
ATOM      8  C   UNL     1      45.531 125.820  23.001  1.00  0.00     0.150 C 
ENDROOT
BRANCH   1   9
ATOM      9  C   UNL     1      43.130 125.045  22.968  1.00  0.00     0.249 C 
ATOM     10  O   UNL     1      42.655 126.207  23.074  1.00  0.00    -0.269 OA
BRANCH   9  11
ATOM     11  C   UNL     1      42.285 123.874  23.316  1.00  0.00     0.010 C 
ATOM     12  C   UNL     1      42.533 123.159  24.624  1.00  0.00     0.050 C 
BRANCH  11  13
ATOM     13  C   UNL     1      41.266 123.519  22.510  1.00  0.00    -0.021 C 
ATOM     14  C   UNL     1      39.862 124.018  22.679  1.00  0.00     0.036 C 
ENDBRANCH  11  13
ENDBRANCH   9  11
ENDBRANCH   1   9
BRANCH   8  15
ATOM     15  C   UNL     1      45.011 127.250  23.039  1.00  0.00    -0.022 A 
ATOM     16  C   UNL     1      45.248 128.130  21.970  1.00  0.00     0.007 A 
ATOM     17  C   UNL     1      44.304 127.716  24.158  1.00  0.00     0.007 A 
ATOM     18  C   UNL     1      44.776 129.445  22.013  1.00  0.00     0.012 A 
ATOM     19  C   UNL     1      43.828 129.030  24.201  1.00  0.00     0.012 A 
ATOM     20  C   UNL     1      44.055 129.912  23.128  1.00  0.00     0.017 A 
BRANCH  20  21
ATOM     21  C   UNL     1      43.539 131.306  23.188  1.00  0.00     0.159 C 
ATOM     22  O   UNL     1      42.800 131.739  22.262  1.00  0.00    -0.295 OA
ATOM     23  C   UNL     1      43.860 132.225  24.329  1.00  0.00     0.093 C 
ENDBRANCH  20  21
ENDBRANCH   8  15
TORSDOF 5
ENDMDL
MODEL 2
REMARK VINA RESULT:      -4.1      3.967      6.654
REMARK SMILES C/C=C(\C)C(=O)N1CC[C@H](C)[C@H](F)[C@H]1c1ccc(C(C)=O)cc1
REMARK SMILES IDX 7 1 8 2 9 3 10 4 11 5 12 6 13 7 14 8 5 9 6 10 3 11 4 12 2 13
REMARK SMILES IDX 1 14 15 15 16 16 23 17 17 18 22 19 18 20 19 21 21 22 20 23
REMARK H PARENT
ROOT
ATOM      1  N   UNL     1      44.484 130.163  22.537  1.00  0.00    -0.329 N 
ATOM      2  C   UNL     1      44.450 130.092  24.004  1.00  0.00     0.121 C 
ATOM      3  C   UNL     1      44.230 131.470  24.625  1.00  0.00     0.028 C 
ATOM      4  C   UNL     1      43.001 132.176  24.031  1.00  0.00     0.024 C 
ATOM      5  C   UNL     1      41.682 131.521  24.478  1.00  0.00     0.011 C 
ATOM      6  C   UNL     1      43.134 132.267  22.499  1.00  0.00     0.196 C 
ATOM      7  F   UNL     1      41.987 132.832  21.957  1.00  0.00    -0.245 F 
ATOM      8  C   UNL     1      43.403 130.893  21.839  1.00  0.00     0.150 C 
ENDROOT
BRANCH   1   9
ATOM      9  C   UNL     1      45.145 129.068  21.870  1.00  0.00     0.249 C 
ATOM     10  O   UNL     1      45.877 129.306  20.872  1.00  0.00    -0.269 OA
BRANCH   9  11
ATOM     11  C   UNL     1      44.961 127.667  22.326  1.00  0.00     0.010 C 
ATOM     12  C   UNL     1      43.697 127.302  23.070  1.00  0.00     0.050 C 
BRANCH  11  13
ATOM     13  C   UNL     1      45.873 126.731  22.003  1.00  0.00    -0.021 C 
ATOM     14  C   UNL     1      46.568 125.865  23.011  1.00  0.00     0.036 C 
ENDBRANCH  11  13
ENDBRANCH   9  11
ENDBRANCH   1   9
BRANCH   8  15
ATOM     15  C   UNL     1      43.730 131.105  20.368  1.00  0.00    -0.022 A 
ATOM     16  C   UNL     1      45.062 131.220  19.936  1.00  0.00     0.007 A 
ATOM     17  C   UNL     1      42.699 131.210  19.422  1.00  0.00     0.007 A 
ATOM     18  C   UNL     1      45.357 131.422  18.585  1.00  0.00     0.012 A 
ATOM     19  C   UNL     1      42.992 131.409  18.070  1.00  0.00     0.012 A 
ATOM     20  C   UNL     1      44.326 131.515  17.632  1.00  0.00     0.017 A 
BRANCH  20  21
ATOM     21  C   UNL     1      44.622 131.724  16.189  1.00  0.00     0.159 C 
ATOM     22  O   UNL     1      43.674 131.781  15.359  1.00  0.00    -0.295 OA
ATOM     23  C   UNL     1      46.024 131.880  15.678  1.00  0.00     0.093 C 
ENDBRANCH  20  21
ENDBRANCH   8  15
TORSDOF 5
ENDMDL
MODEL 3
REMARK VINA RESULT:      -3.9      3.976      6.582
REMARK SMILES C/C=C(\C)C(=O)N1CC[C@H](C)[C@H](F)[C@H]1c1ccc(C(C)=O)cc1
REMARK SMILES IDX 7 1 8 2 9 3 10 4 11 5 12 6 13 7 14 8 5 9 6 10 3 11 4 12 2 13
REMARK SMILES IDX 1 14 15 15 16 16 23 17 17 18 22 19 18 20 19 21 21 22 20 23
REMARK H PARENT
ROOT
ATOM      1  N   UNL     1      44.498 130.233  22.555  1.00  0.00    -0.329 N 
ATOM      2  C   UNL     1      44.465 130.188  24.023  1.00  0.00     0.121 C 
ATOM      3  C   UNL     1      44.235 131.576  24.619  1.00  0.00     0.028 C 
ATOM      4  C   UNL     1      43.000 132.261  24.014  1.00  0.00     0.024 C 
ATOM      5  C   UNL     1      41.686 131.603  24.474  1.00  0.00     0.011 C 
ATOM      6  C   UNL     1      43.130 132.325  22.480  1.00  0.00     0.196 C 
ATOM      7  F   UNL     1      41.979 132.871  21.930  1.00  0.00    -0.245 F 
ATOM      8  C   UNL     1      43.410 130.942  21.844  1.00  0.00     0.150 C 
ENDROOT
BRANCH   1   9
ATOM      9  C   UNL     1      45.167 129.132  21.907  1.00  0.00     0.249 C 
ATOM     10  O   UNL     1      45.942 129.364  20.941  1.00  0.00    -0.269 OA
BRANCH   9  11
ATOM     11  C   UNL     1      44.941 127.731  22.345  1.00  0.00     0.010 C 
ATOM     12  C   UNL     1      45.916 126.663  21.907  1.00  0.00     0.050 C 
BRANCH  11  13
ATOM     13  C   UNL     1      43.928 127.447  23.186  1.00  0.00    -0.021 C 
ATOM     14  C   UNL     1      42.980 126.302  22.987  1.00  0.00     0.036 C 
ENDBRANCH  11  13
ENDBRANCH   9  11
ENDBRANCH   1   9
BRANCH   8  15
ATOM     15  C   UNL     1      43.734 131.130  20.369  1.00  0.00    -0.022 A 
ATOM     16  C   UNL     1      45.066 131.183  19.926  1.00  0.00     0.007 A 
ATOM     17  C   UNL     1      42.700 131.275  19.431  1.00  0.00     0.007 A 
ATOM     18  C   UNL     1      45.359 131.363  18.572  1.00  0.00     0.012 A 
ATOM     19  C   UNL     1      42.991 131.452  18.075  1.00  0.00     0.012 A 
ATOM     20  C   UNL     1      44.324 131.496  17.626  1.00  0.00     0.017 A 
BRANCH  20  21
ATOM     21  C   UNL     1      44.617 131.682  16.179  1.00  0.00     0.159 C 
ATOM     22  O   UNL     1      43.672 131.670  15.344  1.00  0.00    -0.295 OA
ATOM     23  C   UNL     1      46.012 131.896  15.671  1.00  0.00     0.093 C 
ENDBRANCH  20  21
ENDBRANCH   8  15
TORSDOF 5
ENDMDL
MODEL 4
REMARK VINA RESULT:      -3.7      3.993      6.706
REMARK SMILES C/C=C(\C)C(=O)N1CC[C@H](C)[C@H](F)[C@H]1c1ccc(C(C)=O)cc1
REMARK SMILES IDX 7 1 8 2 9 3 10 4 11 5 12 6 13 7 14 8 5 9 6 10 3 11 4 12 2 13
REMARK SMILES IDX 1 14 15 15 16 16 23 17 17 18 22 19 18 20 19 21 21 22 20 23
REMARK H PARENT
ROOT
ATOM      1  N   UNL     1      44.443 130.277  22.585  1.00  0.00    -0.329 N 
ATOM      2  C   UNL     1      44.341 130.250  24.050  1.00  0.00     0.121 C 
ATOM      3  C   UNL     1      44.138 131.651  24.622  1.00  0.00     0.028 C 
ATOM      4  C   UNL     1      42.960 132.377  23.954  1.00  0.00     0.024 C 
ATOM      5  C   UNL     1      41.601 131.776  24.358  1.00  0.00     0.011 C 
ATOM      6  C   UNL     1      43.164 132.420  22.428  1.00  0.00     0.196 C 
ATOM      7  F   UNL     1      42.061 133.004  21.819  1.00  0.00    -0.245 F 
ATOM      8  C   UNL     1      43.418 131.020  21.818  1.00  0.00     0.150 C 
ENDROOT
BRANCH   1   9
ATOM      9  C   UNL     1      45.098 129.144  21.979  1.00  0.00     0.249 C 
ATOM     10  O   UNL     1      45.905 129.334  21.029  1.00  0.00    -0.269 OA
BRANCH   9  11
ATOM     11  C   UNL     1      44.822 127.760  22.441  1.00  0.00     0.010 C 
ATOM     12  C   UNL     1      43.567 127.494  23.237  1.00  0.00     0.050 C 
BRANCH  11  13
ATOM     13  C   UNL     1      45.643 126.756  22.077  1.00  0.00    -0.021 C 
ATOM     14  C   UNL     1      45.470 125.337  22.530  1.00  0.00     0.036 C 
ENDBRANCH  11  13
ENDBRANCH   9  11
ENDBRANCH   1   9
BRANCH   8  15
ATOM     15  C   UNL     1      43.818 131.180  20.358  1.00  0.00    -0.022 A 
ATOM     16  C   UNL     1      42.846 131.385  19.365  1.00  0.00     0.007 A 
ATOM     17  C   UNL     1      45.167 131.102  19.982  1.00  0.00     0.007 A 
ATOM     18  C   UNL     1      43.217 131.524  18.025  1.00  0.00     0.012 A 
ATOM     19  C   UNL     1      45.540 131.244  18.642  1.00  0.00     0.012 A 
ATOM     20  C   UNL     1      44.571 131.459  17.645  1.00  0.00     0.017 A 
BRANCH  20  21
ATOM     21  C   UNL     1      44.985 131.611  16.224  1.00  0.00     0.159 C 
ATOM     22  O   UNL     1      46.015 132.282  15.942  1.00  0.00    -0.295 OA
ATOM     23  C   UNL     1      44.217 130.980  15.100  1.00  0.00     0.093 C 
ENDBRANCH  20  21
ENDBRANCH   8  15
TORSDOF 5
ENDMDL
MODEL 5
REMARK VINA RESULT:      -3.3      5.960      8.624
REMARK SMILES C/C=C(\C)C(=O)N1CC[C@H](C)[C@H](F)[C@H]1c1ccc(C(C)=O)cc1
REMARK SMILES IDX 7 1 8 2 9 3 10 4 11 5 12 6 13 7 14 8 5 9 6 10 3 11 4 12 2 13
REMARK SMILES IDX 1 14 15 15 16 16 23 17 17 18 22 19 18 20 19 21 21 22 20 23
REMARK H PARENT
ROOT
ATOM      1  N   UNL     1      44.337 131.324  19.490  1.00  0.00    -0.329 N 
ATOM      2  C   UNL     1      43.508 131.800  20.605  1.00  0.00     0.121 C 
ATOM      3  C   UNL     1      42.672 133.013  20.201  1.00  0.00     0.028 C 
ATOM      4  C   UNL     1      41.861 132.749  18.924  1.00  0.00     0.024 C 
ATOM      5  C   UNL     1      40.708 131.757  19.161  1.00  0.00     0.011 C 
ATOM      6  C   UNL     1      42.800 132.311  17.783  1.00  0.00     0.196 C 
ATOM      7  F   UNL     1      42.058 131.996  16.653  1.00  0.00    -0.245 F 
ATOM      8  C   UNL     1      43.697 131.112  18.173  1.00  0.00     0.150 C 
ENDROOT
BRANCH   1   9
ATOM      9  C   UNL     1      45.487 130.532  19.855  1.00  0.00     0.249 C 
ATOM     10  O   UNL     1      46.525 130.589  19.143  1.00  0.00    -0.269 OA
BRANCH   9  11
ATOM     11  C   UNL     1      45.458 129.638  21.040  1.00  0.00     0.010 C 
ATOM     12  C   UNL     1      44.767 130.113  22.296  1.00  0.00     0.050 C 
BRANCH  11  13
ATOM     13  C   UNL     1      45.971 128.395  20.954  1.00  0.00    -0.021 C 
ATOM     14  C   UNL     1      45.646 127.294  21.919  1.00  0.00     0.036 C 
ENDBRANCH  11  13
ENDBRANCH   9  11
ENDBRANCH   1   9
BRANCH   8  15
ATOM     15  C   UNL     1      44.729 130.887  17.078  1.00  0.00    -0.022 A 
ATOM     16  C   UNL     1      45.406 131.971  16.493  1.00  0.00     0.007 A 
ATOM     17  C   UNL     1      45.005 129.589  16.621  1.00  0.00     0.007 A 
ATOM     18  C   UNL     1      46.348 131.760  15.483  1.00  0.00     0.012 A 
ATOM     19  C   UNL     1      45.949 129.376  15.613  1.00  0.00     0.012 A 
ATOM     20  C   UNL     1      46.636 130.459  15.031  1.00  0.00     0.017 A 
BRANCH  20  21
ATOM     21  C   UNL     1      47.640 130.215  13.961  1.00  0.00     0.159 C 
ATOM     22  O   UNL     1      48.389 129.202  14.026  1.00  0.00    -0.295 OA
ATOM     23  C   UNL     1      47.792 131.137  12.787  1.00  0.00     0.093 C 
ENDBRANCH  20  21
ENDBRANCH   8  15
TORSDOF 5
ENDMDL
MODEL 6
REMARK VINA RESULT:      -3.3      5.649      8.568
REMARK SMILES C/C=C(\C)C(=O)N1CC[C@H](C)[C@H](F)[C@H]1c1ccc(C(C)=O)cc1
REMARK SMILES IDX 7 1 8 2 9 3 10 4 11 5 12 6 13 7 14 8 5 9 6 10 3 11 4 12 2 13
REMARK SMILES IDX 1 14 15 15 16 16 23 17 17 18 22 19 18 20 19 21 21 22 20 23
REMARK H PARENT
ROOT
ATOM      1  N   UNL     1      45.623 132.401  22.394  1.00  0.00    -0.329 N 
ATOM      2  C   UNL     1      45.530 132.661  23.837  1.00  0.00     0.121 C 
ATOM      3  C   UNL     1      44.075 132.760  24.293  1.00  0.00     0.028 C 
ATOM      4  C   UNL     1      43.253 131.539  23.852  1.00  0.00     0.024 C 
ATOM      5  C   UNL     1      43.640 130.266  24.624  1.00  0.00     0.011 C 
ATOM      6  C   UNL     1      43.349 131.363  22.324  1.00  0.00     0.196 C 
ATOM      7  F   UNL     1      42.672 130.215  21.936  1.00  0.00    -0.245 F 
ATOM      8  C   UNL     1      44.811 131.305  21.819  1.00  0.00     0.150 C 
ENDROOT
BRANCH   1   9
ATOM      9  C   UNL     1      46.874 132.758  21.770  1.00  0.00     0.249 C 
ATOM     10  O   UNL     1      47.370 131.992  20.901  1.00  0.00    -0.269 OA
BRANCH   9  11
ATOM     11  C   UNL     1      47.594 133.999  22.151  1.00  0.00     0.010 C 
ATOM     12  C   UNL     1      47.254 135.288  21.439  1.00  0.00     0.050 C 
BRANCH  11  13
ATOM     13  C   UNL     1      48.473 133.978  23.171  1.00  0.00    -0.021 C 
ATOM     14  C   UNL     1      49.799 134.679  23.139  1.00  0.00     0.036 C 
ENDBRANCH  11  13
ENDBRANCH   9  11
ENDBRANCH   1   9
BRANCH   8  15
ATOM     15  C   UNL     1      44.812 131.346  20.298  1.00  0.00    -0.022 A 
ATOM     16  C   UNL     1      43.901 132.155  19.599  1.00  0.00     0.007 A 
ATOM     17  C   UNL     1      45.715 130.556  19.570  1.00  0.00     0.007 A 
ATOM     18  C   UNL     1      43.901 132.184  18.202  1.00  0.00     0.012 A 
ATOM     19  C   UNL     1      45.719 130.586  18.172  1.00  0.00     0.012 A 
ATOM     20  C   UNL     1      44.814 131.402  17.468  1.00  0.00     0.017 A 
BRANCH  20  21
ATOM     21  C   UNL     1      44.833 131.425  15.981  1.00  0.00     0.159 C 
ATOM     22  O   UNL     1      43.790 131.127  15.338  1.00  0.00    -0.295 OA
ATOM     23  C   UNL     1      46.061 131.805  15.206  1.00  0.00     0.093 C 
ENDBRANCH  20  21
ENDBRANCH   8  15
TORSDOF 5
ENDMDL
MODEL 7
REMARK VINA RESULT:      -3.2      3.963      6.529
REMARK SMILES C/C=C(\C)C(=O)N1CC[C@H](C)[C@H](F)[C@H]1c1ccc(C(C)=O)cc1
REMARK SMILES IDX 7 1 8 2 9 3 10 4 11 5 12 6 13 7 14 8 5 9 6 10 3 11 4 12 2 13
REMARK SMILES IDX 1 14 15 15 16 16 23 17 17 18 22 19 18 20 19 21 21 22 20 23
REMARK H PARENT
ROOT
ATOM      1  N   UNL     1      44.423 130.118  22.593  1.00  0.00    -0.329 N 
ATOM      2  C   UNL     1      44.325 130.099  24.059  1.00  0.00     0.121 C 
ATOM      3  C   UNL     1      44.139 131.506  24.625  1.00  0.00     0.028 C 
ATOM      4  C   UNL     1      42.966 132.240  23.957  1.00  0.00     0.024 C 
ATOM      5  C   UNL     1      41.603 131.656  24.369  1.00  0.00     0.011 C 
ATOM      6  C   UNL     1      43.165 132.273  22.430  1.00  0.00     0.196 C 
ATOM      7  F   UNL     1      42.067 132.866  21.822  1.00  0.00    -0.245 F 
ATOM      8  C   UNL     1      43.403 130.868  21.826  1.00  0.00     0.150 C 
ENDROOT
BRANCH   1   9
ATOM      9  C   UNL     1      45.063 128.975  21.991  1.00  0.00     0.249 C 
ATOM     10  O   UNL     1      45.915 129.155  21.080  1.00  0.00    -0.269 OA
BRANCH   9  11
ATOM     11  C   UNL     1      44.721 127.593  22.412  1.00  0.00     0.010 C 
ATOM     12  C   UNL     1      45.690 126.475  22.103  1.00  0.00     0.050 C 
BRANCH  11  13
ATOM     13  C   UNL     1      43.603 127.368  23.128  1.00  0.00    -0.021 C 
ATOM     14  C   UNL     1      43.236 126.028  23.696  1.00  0.00     0.036 C 
ENDBRANCH  11  13
ENDBRANCH   9  11
ENDBRANCH   1   9
BRANCH   8  15
ATOM     15  C   UNL     1      43.798 131.015  20.365  1.00  0.00    -0.022 A 
ATOM     16  C   UNL     1      42.831 131.274  19.380  1.00  0.00     0.007 A 
ATOM     17  C   UNL     1      45.140 130.874  19.977  1.00  0.00     0.007 A 
ATOM     18  C   UNL     1      43.197 131.401  18.038  1.00  0.00     0.012 A 
ATOM     19  C   UNL     1      45.509 131.004  18.635  1.00  0.00     0.012 A 
ATOM     20  C   UNL     1      44.544 131.272  17.647  1.00  0.00     0.017 A 
BRANCH  20  21
ATOM     21  C   UNL     1      44.954 131.411  16.223  1.00  0.00     0.159 C 
ATOM     22  O   UNL     1      44.577 130.554  15.378  1.00  0.00    -0.295 OA
ATOM     23  C   UNL     1      45.802 132.554  15.747  1.00  0.00     0.093 C 
ENDBRANCH  20  21
ENDBRANCH   8  15
TORSDOF 5
ENDMDL
MODEL 8
REMARK VINA RESULT:      -3.0      6.436      9.123
REMARK SMILES C/C=C(\C)C(=O)N1CC[C@H](C)[C@H](F)[C@H]1c1ccc(C(C)=O)cc1
REMARK SMILES IDX 7 1 8 2 9 3 10 4 11 5 12 6 13 7 14 8 5 9 6 10 3 11 4 12 2 13
REMARK SMILES IDX 1 14 15 15 16 16 23 17 17 18 22 19 18 20 19 21 21 22 20 23
REMARK H PARENT
ROOT
ATOM      1  N   UNL     1      44.404 131.387  18.879  1.00  0.00    -0.329 N 
ATOM      2  C   UNL     1      43.546 131.856  19.975  1.00  0.00     0.121 C 
ATOM      3  C   UNL     1      42.644 133.004  19.525  1.00  0.00     0.028 C 
ATOM      4  C   UNL     1      41.853 132.647  18.258  1.00  0.00     0.024 C 
ATOM      5  C   UNL     1      40.757 131.601  18.530  1.00  0.00     0.011 C 
ATOM      6  C   UNL     1      42.819 132.222  17.135  1.00  0.00     0.196 C 
ATOM      7  F   UNL     1      42.099 131.824  16.017  1.00  0.00    -0.245 F 
ATOM      8  C   UNL     1      43.781 131.090  17.570  1.00  0.00     0.150 C 
ENDROOT
BRANCH   1   9
ATOM      9  C   UNL     1      45.595 130.676  19.274  1.00  0.00     0.249 C 
ATOM     10  O   UNL     1      46.319 130.147  18.388  1.00  0.00    -0.269 OA
BRANCH   9  11
ATOM     11  C   UNL     1      45.969 130.538  20.704  1.00  0.00     0.010 C 
ATOM     12  C   UNL     1      46.539 131.736  21.427  1.00  0.00     0.050 C 
BRANCH  11  13
ATOM     13  C   UNL     1      45.721 129.385  21.354  1.00  0.00    -0.021 C 
ATOM     14  C   UNL     1      44.724 129.257  22.467  1.00  0.00     0.036 C 
ENDBRANCH  11  13
ENDBRANCH   9  11
ENDBRANCH   1   9
BRANCH   8  15
ATOM     15  C   UNL     1      44.828 130.885  16.485  1.00  0.00    -0.022 A 
ATOM     16  C   UNL     1      45.069 129.608  15.950  1.00  0.00     0.007 A 
ATOM     17  C   UNL     1      45.584 131.970  16.017  1.00  0.00     0.007 A 
ATOM     18  C   UNL     1      46.037 129.423  14.959  1.00  0.00     0.012 A 
ATOM     19  C   UNL     1      46.550 131.787  15.023  1.00  0.00     0.012 A 
ATOM     20  C   UNL     1      46.789 130.512  14.479  1.00  0.00     0.017 A 
BRANCH  20  21
ATOM     21  C   UNL     1      47.818 130.334  13.420  1.00  0.00     0.159 C 
ATOM     22  O   UNL     1      48.619 129.362  13.484  1.00  0.00    -0.295 OA
ATOM     23  C   UNL     1      47.935 131.276  12.257  1.00  0.00     0.093 C 
ENDBRANCH  20  21
ENDBRANCH   8  15
TORSDOF 5
ENDMDL
MODEL 9
REMARK VINA RESULT:      -3.0      5.396      8.364
REMARK SMILES C/C=C(\C)C(=O)N1CC[C@H](C)[C@H](F)[C@H]1c1ccc(C(C)=O)cc1
REMARK SMILES IDX 7 1 8 2 9 3 10 4 11 5 12 6 13 7 14 8 5 9 6 10 3 11 4 12 2 13
REMARK SMILES IDX 1 14 15 15 16 16 23 17 17 18 22 19 18 20 19 21 21 22 20 23
REMARK H PARENT
ROOT
ATOM      1  N   UNL     1      45.221 132.259  22.639  1.00  0.00    -0.329 N 
ATOM      2  C   UNL     1      44.979 132.449  24.075  1.00  0.00     0.121 C 
ATOM      3  C   UNL     1      43.491 132.361  24.407  1.00  0.00     0.028 C 
ATOM      4  C   UNL     1      42.858 131.072  23.860  1.00  0.00     0.024 C 
ATOM      5  C   UNL     1      43.329 129.822  24.625  1.00  0.00     0.011 C 
ATOM      6  C   UNL     1      43.100 130.969  22.341  1.00  0.00     0.196 C 
ATOM      7  F   UNL     1      42.598 129.767  21.863  1.00  0.00    -0.245 F 
ATOM      8  C   UNL     1      44.595 131.101  21.963  1.00  0.00     0.150 C 
ENDROOT
BRANCH   1   9
ATOM      9  C   UNL     1      46.468 132.783  22.137  1.00  0.00     0.249 C 
ATOM     10  O   UNL     1      47.039 132.201  21.176  1.00  0.00    -0.269 OA
BRANCH   9  11
ATOM     11  C   UNL     1      47.098 133.982  22.746  1.00  0.00     0.010 C 
ATOM     12  C   UNL     1      46.940 134.214  24.231  1.00  0.00     0.050 C 
BRANCH  11  13
ATOM     13  C   UNL     1      47.862 134.795  21.991  1.00  0.00    -0.021 C 
ATOM     14  C   UNL     1      49.308 135.074  22.274  1.00  0.00     0.036 C 
ENDBRANCH  11  13
ENDBRANCH   9  11
ENDBRANCH   1   9
BRANCH   8  15
ATOM     15  C   UNL     1      44.717 131.202  20.450  1.00  0.00    -0.022 A 
ATOM     16  C   UNL     1      45.660 130.431  19.750  1.00  0.00     0.007 A 
ATOM     17  C   UNL     1      43.899 132.089  19.732  1.00  0.00     0.007 A 
ATOM     18  C   UNL     1      45.773 130.532  18.361  1.00  0.00     0.012 A 
ATOM     19  C   UNL     1      44.009 132.190  18.342  1.00  0.00     0.012 A 
ATOM     20  C   UNL     1      44.946 131.412  17.637  1.00  0.00     0.017 A 
BRANCH  20  21
ATOM     21  C   UNL     1      45.048 131.528  16.157  1.00  0.00     0.159 C 
ATOM     22  O   UNL     1      46.181 131.663  15.618  1.00  0.00    -0.295 OA
ATOM     23  C   UNL     1      43.840 131.481  15.270  1.00  0.00     0.093 C 
ENDBRANCH  20  21
ENDBRANCH   8  15
TORSDOF 5
ENDMDL


