MODEL 1
REMARK VINA RESULT:      -6.7      0.000      0.000
REMARK SMILES C[C@@H]1CC[C@H](c2ccc3[nH+]cccc3c2)[C@H](F)N1C(=O)Oc1ccc([N+](=O)[O-])cc1
REMARK SMILES IDX 19 1 20 2 18 3 2 4 3 5 4 6 16 7 5 8 1 9 17 10 6 11 7 12
REMARK SMILES IDX 15 13 8 14 14 15 9 16 13 17 10 18 12 19 11 20 21 22 22 23
REMARK SMILES IDX 23 24 30 25 24 26 29 27 25 28 26 29 27 30 28 31
REMARK H PARENT 10 21
ROOT
ATOM      1  C   UNL     1      43.634 131.516  20.196  1.00  0.00     0.417 C 
ATOM      2  O   UNL     1      42.454 131.554  19.749  1.00  0.00    -0.224 OA
ENDROOT
BRANCH   1   3
ATOM      3  N   UNL     1      43.896 130.965  21.505  1.00  0.00    -0.274 N 
ATOM      4  C   UNL     1      44.009 131.882  22.658  1.00  0.00     0.088 C 
ATOM      5  C   UNL     1      43.567 131.201  23.970  1.00  0.00     0.026 C 
ATOM      6  C   UNL     1      44.185 129.811  24.142  1.00  0.00     0.015 C 
ATOM      7  C   UNL     1      44.362 129.570  21.625  1.00  0.00     0.275 C 
ATOM      8  C   UNL     1      43.850 128.931  22.928  1.00  0.00     0.075 C 
ATOM      9  C   UNL     1      45.430 132.454  22.756  1.00  0.00     0.031 C 
ATOM     10  F   UNL     1      45.745 129.545  21.564  1.00  0.00    -0.223 F 
BRANCH   8  11
ATOM     11  C   UNL     1      44.354 127.506  23.091  1.00  0.00    -0.039 A 
ATOM     12  C   UNL     1      43.612 126.591  23.860  1.00  0.00     0.011 A 
ATOM     13  C   UNL     1      45.535 127.065  22.461  1.00  0.00     0.019 A 
ATOM     14  C   UNL     1      44.043 125.271  24.013  1.00  0.00     0.080 A 
ATOM     15  C   UNL     1      45.971 125.742  22.611  1.00  0.00     0.047 A 
ATOM     16  C   UNL     1      45.222 124.835  23.395  1.00  0.00     0.210 A 
ATOM     17  C   UNL     1      47.147 125.294  21.995  1.00  0.00     0.021 A 
ATOM     18  N   UNL     1      45.649 123.547  23.540  1.00  0.00    -0.211 N 
ATOM     19  C   UNL     1      47.558 123.972  22.161  1.00  0.00     0.071 A 
ATOM     20  C   UNL     1      46.791 123.106  22.943  1.00  0.00     0.306 A 
ATOM     21  H   UNL     1      45.098 122.873  24.118  1.00  0.00     0.453 HD
ENDBRANCH   8  11
ENDBRANCH   1   3
BRANCH   1  22
ATOM     22  O   UNL     1      44.686 132.055  19.442  1.00  0.00    -0.410 OA
BRANCH  22  23
ATOM     23  C   UNL     1      45.154 131.546  18.221  1.00  0.00     0.133 A 
ATOM     24  C   UNL     1      45.815 130.309  18.125  1.00  0.00     0.054 A 
ATOM     25  C   UNL     1      44.993 132.324  17.070  1.00  0.00     0.054 A 
ATOM     26  C   UNL     1      46.275 129.849  16.888  1.00  0.00     0.089 A 
ATOM     27  C   UNL     1      45.451 131.865  15.831  1.00  0.00     0.089 A 
ATOM     28  C   UNL     1      46.094 130.619  15.726  1.00  0.00     0.269 A 
BRANCH  28  29
ATOM     29  N   UNL     1      46.566 130.149  14.450  1.00  0.00     0.062 N 
ATOM     30  O   UNL     1      46.274 130.758  13.400  1.00  0.00    -0.258 OA
ATOM     31  O   UNL     1      47.353 129.023  14.367  1.00  0.00    -0.258 OA
ENDBRANCH  28  29
ENDBRANCH  22  23
ENDBRANCH   1  22
TORSDOF 5
ENDMDL
MODEL 2
REMARK VINA RESULT:      -6.5      1.278      1.574
REMARK SMILES C[C@@H]1CC[C@H](c2ccc3[nH+]cccc3c2)[C@H](F)N1C(=O)Oc1ccc([N+](=O)[O-])cc1
REMARK SMILES IDX 19 1 20 2 18 3 2 4 3 5 4 6 16 7 5 8 1 9 17 10 6 11 7 12
REMARK SMILES IDX 15 13 8 14 14 15 9 16 13 17 10 18 12 19 11 20 21 22 22 23
REMARK SMILES IDX 23 24 30 25 24 26 29 27 25 28 26 29 27 30 28 31
REMARK H PARENT 10 21
ROOT
ATOM      1  C   UNL     1      43.588 131.491  20.753  1.00  0.00     0.417 C 
ATOM      2  O   UNL     1      42.696 132.137  20.137  1.00  0.00    -0.224 OA
ENDROOT
BRANCH   1   3
ATOM      3  N   UNL     1      43.316 130.955  22.067  1.00  0.00    -0.274 N 
ATOM      4  C   UNL     1      43.034 131.890  23.177  1.00  0.00     0.088 C 
ATOM      5  C   UNL     1      42.103 131.253  24.230  1.00  0.00     0.026 C 
ATOM      6  C   UNL     1      42.547 129.843  24.624  1.00  0.00     0.015 C 
ATOM      7  C   UNL     1      43.639 129.545  22.356  1.00  0.00     0.275 C 
ATOM      8  C   UNL     1      42.648 128.954  23.375  1.00  0.00     0.075 C 
ATOM      9  C   UNL     1      44.340 132.403  23.797  1.00  0.00     0.031 C 
ATOM     10  F   UNL     1      44.942 129.460  22.816  1.00  0.00    -0.223 F 
BRANCH   8  11
ATOM     11  C   UNL     1      42.987 127.512  23.718  1.00  0.00    -0.039 A 
ATOM     12  C   UNL     1      41.953 126.608  24.019  1.00  0.00     0.011 A 
ATOM     13  C   UNL     1      44.318 127.047  23.710  1.00  0.00     0.019 A 
ATOM     14  C   UNL     1      42.235 125.274  24.321  1.00  0.00     0.080 A 
ATOM     15  C   UNL     1      44.606 125.709  24.013  1.00  0.00     0.047 A 
ATOM     16  C   UNL     1      43.558 124.813  24.324  1.00  0.00     0.210 A 
ATOM     17  C   UNL     1      45.925 125.236  24.014  1.00  0.00     0.021 A 
ATOM     18  N   UNL     1      43.841 123.511  24.618  1.00  0.00    -0.211 N 
ATOM     19  C   UNL     1      46.183 123.900  24.319  1.00  0.00     0.071 A 
ATOM     20  C   UNL     1      45.121 123.045  24.621  1.00  0.00     0.306 A 
ATOM     21  H   UNL     1      43.069 122.844  24.848  1.00  0.00     0.453 HD
ENDBRANCH   8  11
ENDBRANCH   1   3
BRANCH   1  22
ATOM     22  O   UNL     1      44.860 131.335  20.186  1.00  0.00    -0.410 OA
BRANCH  22  23
ATOM     23  C   UNL     1      45.119 131.087  18.829  1.00  0.00     0.133 A 
ATOM     24  C   UNL     1      46.169 130.253  18.404  1.00  0.00     0.054 A 
ATOM     25  C   UNL     1      44.328 131.729  17.871  1.00  0.00     0.054 A 
ATOM     26  C   UNL     1      46.397 130.045  17.041  1.00  0.00     0.089 A 
ATOM     27  C   UNL     1      44.553 131.522  16.507  1.00  0.00     0.089 A 
ATOM     28  C   UNL     1      45.588 130.673  16.076  1.00  0.00     0.269 A 
BRANCH  28  29
ATOM     29  N   UNL     1      45.819 130.462  14.672  1.00  0.00     0.062 N 
ATOM     30  O   UNL     1      46.640 129.604  14.283  1.00  0.00    -0.258 OA
ATOM     31  O   UNL     1      45.133 131.197  13.731  1.00  0.00    -0.258 OA
ENDBRANCH  28  29
ENDBRANCH  22  23
ENDBRANCH   1  22
TORSDOF 5
ENDMDL
MODEL 3
REMARK VINA RESULT:      -5.8      2.208      3.170
REMARK SMILES C[C@@H]1CC[C@H](c2ccc3[nH+]cccc3c2)[C@H](F)N1C(=O)Oc1ccc([N+](=O)[O-])cc1
REMARK SMILES IDX 19 1 20 2 18 3 2 4 3 5 4 6 16 7 5 8 1 9 17 10 6 11 7 12
REMARK SMILES IDX 15 13 8 14 14 15 9 16 13 17 10 18 12 19 11 20 21 22 22 23
REMARK SMILES IDX 23 24 30 25 24 26 29 27 25 28 26 29 27 30 28 31
REMARK H PARENT 10 21
ROOT
ATOM      1  C   UNL     1      42.501 132.218  20.746  1.00  0.00     0.417 C 
ATOM      2  O   UNL     1      42.194 133.442  20.734  1.00  0.00    -0.224 OA
ENDROOT
BRANCH   1   3
ATOM      3  N   UNL     1      42.985 131.604  21.962  1.00  0.00    -0.274 N 
ATOM      4  C   UNL     1      43.932 132.353  22.813  1.00  0.00     0.088 C 
ATOM      5  C   UNL     1      43.790 131.960  24.299  1.00  0.00     0.026 C 
ATOM      6  C   UNL     1      43.746 130.444  24.500  1.00  0.00     0.015 C 
ATOM      7  C   UNL     1      42.795 130.156  22.168  1.00  0.00     0.275 C 
ATOM      8  C   UNL     1      42.612 129.834  23.662  1.00  0.00     0.075 C 
ATOM      9  C   UNL     1      45.369 132.178  22.306  1.00  0.00     0.031 C 
ATOM     10  F   UNL     1      43.878 129.474  21.637  1.00  0.00    -0.223 F 
BRANCH   8  11
ATOM     11  C   UNL     1      42.457 128.341  23.901  1.00  0.00    -0.039 A 
ATOM     12  C   UNL     1      43.595 127.558  24.167  1.00  0.00     0.011 A 
ATOM     13  C   UNL     1      41.191 127.721  23.895  1.00  0.00     0.019 A 
ATOM     14  C   UNL     1      43.480 126.187  24.407  1.00  0.00     0.080 A 
ATOM     15  C   UNL     1      41.070 126.345  24.135  1.00  0.00     0.047 A 
ATOM     16  C   UNL     1      42.223 125.569  24.391  1.00  0.00     0.210 A 
ATOM     17  C   UNL     1      39.818 125.717  24.126  1.00  0.00     0.021 A 
ATOM     18  N   UNL     1      42.103 124.229  24.625  1.00  0.00    -0.211 N 
ATOM     19  C   UNL     1      39.727 124.346  24.368  1.00  0.00     0.071 A 
ATOM     20  C   UNL     1      40.889 123.613  24.618  1.00  0.00     0.306 A 
ATOM     21  H   UNL     1      42.953 123.651  24.816  1.00  0.00     0.453 HD
ENDBRANCH   8  11
ENDBRANCH   1   3
BRANCH   1  22
ATOM     22  O   UNL     1      42.420 131.463  19.568  1.00  0.00    -0.410 OA
BRANCH  22  23
ATOM     23  C   UNL     1      43.436 131.347  18.607  1.00  0.00     0.133 A 
ATOM     24  C   UNL     1      44.759 131.014  18.946  1.00  0.00     0.054 A 
ATOM     25  C   UNL     1      43.122 131.616  17.270  1.00  0.00     0.054 A 
ATOM     26  C   UNL     1      45.740 130.922  17.955  1.00  0.00     0.089 A 
ATOM     27  C   UNL     1      44.101 131.524  16.277  1.00  0.00     0.089 A 
ATOM     28  C   UNL     1      45.421 131.171  16.608  1.00  0.00     0.269 A 
BRANCH  28  29
ATOM     29  N   UNL     1      46.428 131.078  15.584  1.00  0.00     0.062 N 
ATOM     30  O   UNL     1      47.097 130.033  15.442  1.00  0.00    -0.258 OA
ATOM     31  O   UNL     1      46.667 132.138  14.738  1.00  0.00    -0.258 OA
ENDBRANCH  28  29
ENDBRANCH  22  23
ENDBRANCH   1  22
TORSDOF 5
ENDMDL
MODEL 4
REMARK VINA RESULT:      -4.8      3.264      8.011
REMARK SMILES C[C@@H]1CC[C@H](c2ccc3[nH+]cccc3c2)[C@H](F)N1C(=O)Oc1ccc([N+](=O)[O-])cc1
REMARK SMILES IDX 19 1 20 2 18 3 2 4 3 5 4 6 16 7 5 8 1 9 17 10 6 11 7 12
REMARK SMILES IDX 15 13 8 14 14 15 9 16 13 17 10 18 12 19 11 20 21 22 22 23
REMARK SMILES IDX 23 24 30 25 24 26 29 27 25 28 26 29 27 30 28 31
REMARK H PARENT 10 21
ROOT
ATOM      1  C   UNL     1      44.692 132.492  21.205  1.00  0.00     0.417 C 
ATOM      2  O   UNL     1      45.754 133.166  21.312  1.00  0.00    -0.224 OA
ENDROOT
BRANCH   1   3
ATOM      3  N   UNL     1      44.172 132.161  19.899  1.00  0.00    -0.274 N 
ATOM      4  C   UNL     1      42.715 132.247  19.666  1.00  0.00     0.088 C 
ATOM      5  C   UNL     1      42.396 132.582  18.194  1.00  0.00     0.026 C 
ATOM      6  C   UNL     1      43.193 131.720  17.213  1.00  0.00     0.015 C 
ATOM      7  C   UNL     1      45.031 131.445  18.936  1.00  0.00     0.275 C 
ATOM      8  C   UNL     1      44.698 131.858  17.491  1.00  0.00     0.075 C 
ATOM      9  C   UNL     1      42.018 130.960  20.127  1.00  0.00     0.031 C 
ATOM     10  F   UNL     1      44.879 130.080  19.116  1.00  0.00    -0.223 F 
BRANCH   8  11
ATOM     11  C   UNL     1      45.544 131.101  16.481  1.00  0.00    -0.039 A 
ATOM     12  C   UNL     1      45.718 129.713  16.623  1.00  0.00     0.011 A 
ATOM     13  C   UNL     1      46.134 131.752  15.378  1.00  0.00     0.019 A 
ATOM     14  C   UNL     1      46.476 128.989  15.699  1.00  0.00     0.080 A 
ATOM     15  C   UNL     1      46.896 131.030  14.449  1.00  0.00     0.047 A 
ATOM     16  C   UNL     1      47.072 129.637  14.609  1.00  0.00     0.210 A 
ATOM     17  C   UNL     1      47.492 131.667  13.353  1.00  0.00     0.021 A 
ATOM     18  N   UNL     1      47.814 128.936  13.703  1.00  0.00    -0.211 N 
ATOM     19  C   UNL     1      48.245 130.925  12.443  1.00  0.00     0.071 A 
ATOM     20  C   UNL     1      48.396 129.550  12.636  1.00  0.00     0.306 A 
ATOM     21  H   UNL     1      47.946 127.905  13.817  1.00  0.00     0.453 HD
ENDBRANCH   8  11
ENDBRANCH   1   3
BRANCH   1  22
ATOM     22  O   UNL     1      43.988 132.105  22.354  1.00  0.00    -0.410 OA
BRANCH  22  23
ATOM     23  C   UNL     1      43.791 130.783  22.780  1.00  0.00     0.133 A 
ATOM     24  C   UNL     1      42.659 130.389  23.515  1.00  0.00     0.054 A 
ATOM     25  C   UNL     1      44.782 129.837  22.497  1.00  0.00     0.054 A 
ATOM     26  C   UNL     1      42.512 129.062  23.928  1.00  0.00     0.089 A 
ATOM     27  C   UNL     1      44.637 128.509  22.908  1.00  0.00     0.089 A 
ATOM     28  C   UNL     1      43.497 128.105  23.625  1.00  0.00     0.269 A 
BRANCH  28  29
ATOM     29  N   UNL     1      43.350 126.738  24.048  1.00  0.00     0.062 N 
ATOM     30  O   UNL     1      44.287 125.924  23.912  1.00  0.00    -0.258 OA
ATOM     31  O   UNL     1      42.174 126.305  24.618  1.00  0.00    -0.258 OA
ENDBRANCH  28  29
ENDBRANCH  22  23
ENDBRANCH   1  22
TORSDOF 5
ENDMDL


