REMARK SMILES C=CC(=O)N1CCC[C@@H](c2ccc3ccc(C)c(F)c3n2)[C@@H]1F
REMARK SMILES IDX 5 1 6 2 7 3 8 4 9 5 22 6 23 7 3 8 4 9 2 10 1 11 10 12 11 13
REMARK SMILES IDX 21 14 12 15 20 16 13 17 18 18 14 19 16 20 15 21 19 22 17 23
REMARK H PARENT
ROOT
ATOM      1  N   UNL     1       0.050  -1.374   1.774  1.00  0.00    -0.308 N 
ATOM      2  C   UNL     1       0.355  -0.486   2.905  1.00  0.00     0.123 C 
ATOM      3  C   UNL     1       0.039   0.968   2.549  1.00  0.00     0.022 C 
ATOM      4  C   UNL     1       0.744   1.371   1.251  1.00  0.00     0.017 C 
ATOM      5  C   UNL     1       0.336   0.430   0.104  1.00  0.00     0.093 C 
ATOM      6  C   UNL     1       0.630  -1.041   0.461  1.00  0.00     0.274 C 
ATOM      7  F   UNL     1       0.089  -1.852  -0.526  1.00  0.00    -0.223 F 
ENDROOT
BRANCH   1   8
ATOM      8  C   UNL     1      -0.383  -2.721   2.043  1.00  0.00     0.248 C 
ATOM      9  O   UNL     1       0.207  -3.690   1.490  1.00  0.00    -0.270 OA
BRANCH   8  10
ATOM     10  C   UNL     1      -1.529  -2.969   2.941  1.00  0.00     0.063 C 
ATOM     11  C   UNL     1      -1.911  -4.197   3.289  1.00  0.00     0.014 C 
ENDBRANCH   8  10
ENDBRANCH   1   8
BRANCH   5  12
ATOM     12  C   UNL     1       0.999   0.829  -1.195  1.00  0.00     0.049 A 
ATOM     13  C   UNL     1       2.397   0.824  -1.343  1.00  0.00     0.025 A 
ATOM     14  N   UNL     1       0.217   1.201  -2.247  1.00  0.00    -0.249 NA
ATOM     15  C   UNL     1       2.965   1.199  -2.562  1.00  0.00     0.012 A 
ATOM     16  C   UNL     1       0.742   1.571  -3.446  1.00  0.00     0.106 A 
ATOM     17  C   UNL     1       2.141   1.578  -3.628  1.00  0.00     0.003 A 
ATOM     18  C   UNL     1      -0.103   1.947  -4.499  1.00  0.00     0.152 A 
ATOM     19  C   UNL     1       2.681   1.963  -4.862  1.00  0.00     0.011 A 
ATOM     20  C   UNL     1       0.441   2.322  -5.740  1.00  0.00    -0.013 A 
ATOM     21  C   UNL     1       1.835   2.337  -5.910  1.00  0.00     0.007 A 
ATOM     22  F   UNL     1      -1.449   1.947  -4.315  1.00  0.00    -0.204 F 
ATOM     23  C   UNL     1      -0.463   2.747  -6.861  1.00  0.00     0.047 C 
ENDBRANCH   5  12
TORSDOF 3


