MODEL 1
REMARK VINA RESULT:      -6.5      0.000      0.000
REMARK SMILES Cc1cc(-c2cccc3ncoc23)cc(OC(=S)/N=C(\O)COc2ccc(Cl)cc2)c1F
REMARK SMILES IDX 20 1 21 2 19 4 17 5 18 6 16 7 15 8 14 9 31 10 4 11 2 12 3 13
REMARK SMILES IDX 32 14 1 15 5 16 6 17 13 18 7 19 12 20 9 21 8 22 11 23 10 24
REMARK SMILES IDX 22 25 23 26 24 27 25 28 30 29 26 30 29 31 27 32 28 33
REMARK H PARENT 21 3
ROOT
ATOM      1  C   UNL     1      43.714 131.893  17.720  1.00  0.00     0.228 C 
ENDROOT
BRANCH   1   2
ATOM      2  O   UNL     1      42.473 132.024  17.104  1.00  0.00    -0.494 OA
ATOM      3  H   UNL     1      42.319 131.696  16.158  1.00  0.00     0.295 HD
ENDBRANCH   1   2
BRANCH   1   4
ATOM      4  N   UNL     1      43.818 131.588  18.981  1.00  0.00    -0.168 NA
BRANCH   4   5
ATOM      5  C   UNL     1      44.983 131.243  19.752  1.00  0.00     0.292 C 
ATOM      6  S   UNL     1      46.347 130.638  19.073  1.00  0.00    -0.016 S 
BRANCH   5   7
ATOM      7  O   UNL     1      44.944 131.370  21.144  1.00  0.00    -0.427 OA
BRANCH   7   8
ATOM      8  C   UNL     1      44.420 130.393  22.001  1.00  0.00     0.166 A 
ATOM      9  C   UNL     1      44.910 129.077  21.992  1.00  0.00     0.059 A 
ATOM     10  C   UNL     1      43.362 130.731  22.852  1.00  0.00     0.168 A 
ATOM     11  C   UNL     1      44.347 128.094  22.825  1.00  0.00    -0.010 A 
ATOM     12  C   UNL     1      42.815 129.772  23.719  1.00  0.00    -0.011 A 
ATOM     13  C   UNL     1      43.294 128.453  23.683  1.00  0.00     0.015 A 
ATOM     14  F   UNL     1      42.881 132.000  22.843  1.00  0.00    -0.203 F 
ATOM     15  C   UNL     1      41.673 130.133  24.625  1.00  0.00     0.048 C 
BRANCH  11  16
ATOM     16  C   UNL     1      44.845 126.693  22.775  1.00  0.00     0.027 A 
ATOM     17  C   UNL     1      46.232 126.404  22.745  1.00  0.00     0.013 A 
ATOM     18  C   UNL     1      43.976 125.592  22.763  1.00  0.00     0.162 A 
ATOM     19  C   UNL     1      46.692 125.068  22.708  1.00  0.00     0.003 A 
ATOM     20  O   UNL     1      42.670 125.568  22.796  1.00  0.00    -0.443 OA
ATOM     21  C   UNL     1      44.425 124.306  22.729  1.00  0.00     0.110 A 
ATOM     22  C   UNL     1      45.780 123.998  22.701  1.00  0.00     0.032 A 
ATOM     23  C   UNL     1      42.325 124.292  22.781  1.00  0.00     0.309 A 
ATOM     24  N   UNL     1      43.390 123.450  22.739  1.00  0.00    -0.217 NA
ENDBRANCH  11  16
ENDBRANCH   7   8
ENDBRANCH   5   7
ENDBRANCH   4   5
ENDBRANCH   1   4
BRANCH   1  25
ATOM     25  C   UNL     1      44.961 132.153  16.915  1.00  0.00     0.326 C 
BRANCH  25  26
ATOM     26  O   UNL     1      44.902 131.556  15.616  1.00  0.00    -0.484 OA
BRANCH  26  27
ATOM     27  C   UNL     1      45.974 130.929  14.955  1.00  0.00     0.120 A 
ATOM     28  C   UNL     1      46.390 129.617  15.257  1.00  0.00     0.048 A 
ATOM     29  C   UNL     1      46.638 131.640  13.948  1.00  0.00     0.048 A 
ATOM     30  C   UNL     1      47.426 129.022  14.531  1.00  0.00     0.024 A 
ATOM     31  C   UNL     1      47.682 131.046  13.231  1.00  0.00     0.024 A 
ATOM     32  C   UNL     1      48.068 129.734  13.514  1.00  0.00     0.041 A 
ATOM     33  Cl  UNL     1      49.360 128.982  12.595  1.00  0.00    -0.084 Cl
ENDBRANCH  26  27
ENDBRANCH  25  26
ENDBRANCH   1  25
TORSDOF 9
ENDMDL


