REMARK SMILES CC(=O)c1c(-c2c[nH+]c3c(c2)C(=O)[N-]C3)cc(/C(O)=N/[C@@H]2C=CCC2)c(F)c1[O-]
REMARK SMILES IDX 17 1 16 2 5 3 4 4 28 5 29 6 26 7 27 8 18 9 19 10 20 12 21 13
REMARK SMILES IDX 22 14 25 15 23 16 24 17 6 18 11 19 7 20 10 21 8 22 9 23
REMARK SMILES IDX 12 24 15 25 14 26 13 28 2 29 3 30 1 31
REMARK H PARENT 19 11 8 27
ROOT
ATOM      1  C   UNL     1      -0.661  -0.277  -1.301  1.00  0.00     0.072 A 
ATOM      2  C   UNL     1       0.173   0.252  -0.299  1.00  0.00     0.026 A 
ATOM      3  C   UNL     1       1.565   0.318  -0.468  1.00  0.00    -0.001 A 
ATOM      4  C   UNL     1       2.150  -0.184  -1.657  1.00  0.00     0.020 A 
ATOM      5  C   UNL     1       1.315  -0.701  -2.665  1.00  0.00    -0.059 A 
ATOM      6  O   UNL     1       1.862  -1.199  -3.844  1.00  0.00    -0.870 OA
ATOM      7  C   UNL     1      -0.072  -0.744  -2.492  1.00  0.00     0.128 A 
ATOM      8  F   UNL     1      -0.831  -1.262  -3.491  1.00  0.00    -0.207 F 
ENDROOT
BRANCH   1   9
ATOM      9  C   UNL     1      -2.135  -0.325  -1.100  1.00  0.00     0.217 C 
BRANCH   9  10
ATOM     10  O   UNL     1      -2.956  -0.782  -2.137  1.00  0.00    -0.493 OA
ATOM     11  H   UNL     1      -3.962  -0.854  -2.064  1.00  0.00     0.295 HD
ENDBRANCH   9  10
BRANCH   9  12
ATOM     12  N   UNL     1      -2.639   0.058   0.040  1.00  0.00    -0.244 NA
BRANCH  12  13
ATOM     13  C   UNL     1      -4.058   0.088   0.398  1.00  0.00     0.132 C 
ATOM     14  C   UNL     1      -4.738   1.234  -0.271  1.00  0.00    -0.005 C 
ATOM     15  C   UNL     1      -4.218   0.386   1.896  1.00  0.00     0.036 C 
ATOM     16  C   UNL     1      -5.145   2.150   0.589  1.00  0.00    -0.029 C 
ATOM     17  C   UNL     1      -4.817   1.793   1.992  1.00  0.00     0.029 C 
ENDBRANCH  12  13
ENDBRANCH   9  12
ENDBRANCH   1   9
BRANCH   3  18
ATOM     18  C   UNL     1       2.369   0.972   0.591  1.00  0.00     0.047 A 
ATOM     19  C   UNL     1       3.181   2.084   0.288  1.00  0.00     0.031 A 
ATOM     20  C   UNL     1       2.310   0.506   1.927  1.00  0.00     0.315 A 
ATOM     21  C   UNL     1       3.907   2.658   1.325  1.00  0.00     0.065 A 
ATOM     22  N   UNL     1       3.044   1.111   2.909  1.00  0.00    -0.215 N 
ATOM     23  C   UNL     1       3.833   2.172   2.602  1.00  0.00     0.171 A 
ATOM     24  C   UNL     1       4.816   3.773   1.353  1.00  0.00     0.089 C 
ATOM     25  C   UNL     1       4.702   2.958   3.537  1.00  0.00    -0.006 C 
ATOM     26  N   UNL     1       5.311   3.978   2.672  1.00  0.00    -0.641 NA
ATOM     27  H   UNL     1       2.998   0.756   3.890  1.00  0.00     0.453 HD
ATOM     28  O   UNL     1       5.141   4.481   0.364  1.00  0.00    -0.315 OA
ENDBRANCH   3  18
BRANCH   4  29
ATOM     29  C   UNL     1       3.620  -0.220  -1.853  1.00  0.00     0.159 C 
ATOM     30  O   UNL     1       4.116   0.232  -2.920  1.00  0.00    -0.295 OA
ATOM     31  C   UNL     1       4.535  -0.801  -0.819  1.00  0.00     0.093 C 
ENDBRANCH   4  29
TORSDOF 6


