REMARK SMILES Cc1cc(-c2cccc3[nH+]coc23)cc(OC(=S)NC(=O)COc2ccc(Cl)cc2)c1F
REMARK SMILES IDX 17 1 18 2 19 3 20 4 21 5 16 7 15 8 2 9 3 10 31 11 4 12 14 13
REMARK SMILES IDX 1 14 32 15 5 16 6 17 13 18 7 19 12 20 9 21 8 22 11 23 10 24
REMARK SMILES IDX 22 26 23 27 24 28 25 29 30 30 26 31 29 32 27 33 28 34
REMARK H PARENT 19 6 10 25
ROOT
ATOM      1  C   UNL     1       2.216  -0.512   2.111  1.00  0.00     0.269 C 
ATOM      2  S   UNL     1       3.384   0.637   2.025  1.00  0.00    -0.018 S 
ATOM      3  N   UNL     1       2.549  -1.879   1.845  1.00  0.00    -0.284 N 
ATOM      4  C   UNL     1       1.556  -2.912   1.804  1.00  0.00     0.265 C 
ATOM      5  O   UNL     1       0.539  -2.850   2.546  1.00  0.00    -0.271 OA
ATOM      6  H   UNL     1       3.511  -2.100   1.503  1.00  0.00     0.174 HD
ENDROOT
BRANCH   1   7
ATOM      7  O   UNL     1       0.903  -0.158   2.443  1.00  0.00    -0.428 OA
BRANCH   7   8
ATOM      8  C   UNL     1       0.168   0.843   1.792  1.00  0.00     0.166 A 
ATOM      9  C   UNL     1      -1.681   2.423   1.833  1.00  0.00    -0.011 A 
ATOM     10  C   UNL     1      -1.365   2.820   0.524  1.00  0.00     0.015 A 
ATOM     11  C   UNL     1      -0.907   1.436   2.463  1.00  0.00     0.168 A 
ATOM     12  C   UNL     1      -0.305   2.216  -0.172  1.00  0.00    -0.010 A 
ATOM     13  C   UNL     1       0.458   1.228   0.472  1.00  0.00     0.059 A 
ATOM     14  C   UNL     1      -2.805   3.088   2.575  1.00  0.00     0.048 C 
ATOM     15  F   UNL     1      -1.189   1.056   3.736  1.00  0.00    -0.203 F 
BRANCH  12  16
ATOM     16  C   UNL     1       0.012   2.614  -1.567  1.00  0.00     0.032 A 
ATOM     17  C   UNL     1       1.351   2.736  -2.014  1.00  0.00     0.013 A 
ATOM     18  C   UNL     1      -0.992   2.873  -2.510  1.00  0.00     0.212 A 
ATOM     19  C   UNL     1       1.638   3.109  -3.347  1.00  0.00     0.008 A 
ATOM     20  O   UNL     1      -2.295   2.800  -2.375  1.00  0.00    -0.403 OA
ATOM     21  C   UNL     1      -0.707   3.238  -3.793  1.00  0.00     0.249 A 
ATOM     22  C   UNL     1       0.597   3.366  -4.257  1.00  0.00     0.083 A 
ATOM     23  C   UNL     1      -2.808   3.119  -3.553  1.00  0.00     0.521 A 
ATOM     24  N   UNL     1      -1.853   3.401  -4.470  1.00  0.00    -0.176 N 
ATOM     25  H   UNL     1      -1.981   3.669  -5.471  1.00  0.00     0.457 HD
ENDBRANCH  12  16
ENDBRANCH   7   8
ENDBRANCH   1   7
BRANCH   4  26
ATOM     26  C   UNL     1       1.708  -4.066   0.862  1.00  0.00     0.329 C 
BRANCH  26  27
ATOM     27  O   UNL     1       0.590  -4.130  -0.025  1.00  0.00    -0.484 OA
BRANCH  27  28
ATOM     28  C   UNL     1       0.292  -3.189  -1.025  1.00  0.00     0.120 A 
ATOM     29  C   UNL     1      -0.919  -3.321  -1.717  1.00  0.00     0.048 A 
ATOM     30  C   UNL     1       1.158  -2.127  -1.357  1.00  0.00     0.048 A 
ATOM     31  C   UNL     1      -1.268  -2.411  -2.719  1.00  0.00     0.024 A 
ATOM     32  C   UNL     1       0.805  -1.217  -2.359  1.00  0.00     0.024 A 
ATOM     33  C   UNL     1      -0.406  -1.359  -3.042  1.00  0.00     0.041 A 
ATOM     34  Cl  UNL     1      -0.837  -0.233  -4.315  1.00  0.00    -0.084 Cl
ENDBRANCH  27  28
ENDBRANCH  26  27
ENDBRANCH   4  26
TORSDOF 6


