REMARK SMILES C=Cc1cc(-c2c[nH+]c3ccnn3c2)ccc1CC[NH3+]
REMARK SMILES IDX 18 1 17 2 3 3 4 4 5 5 16 6 15 7 2 8 1 9 6 10 7 11 14 12 8 13
REMARK SMILES IDX 13 14 9 15 12 16 10 17 11 18 19 20 20 21
REMARK H PARENT 8 19 20 22 20 23 20 24
ROOT
ATOM      1  C   UNL     1      -1.233   1.914   4.119  1.00  0.00     0.097 C 
ENDROOT
BRANCH   1   2
ATOM      2  C   UNL     1      -0.931   1.357   2.742  1.00  0.00    -0.035 A 
ATOM      3  C   UNL     1      -1.829   0.500   2.051  1.00  0.00    -0.022 A 
ATOM      4  C   UNL     1      -1.459  -0.001   0.786  1.00  0.00     0.017 A 
ATOM      5  C   UNL     1      -0.215   0.310   0.214  1.00  0.00    -0.010 A 
ATOM      6  C   UNL     1       0.314   1.656   2.163  1.00  0.00     0.005 A 
ATOM      7  C   UNL     1       0.667   1.141   0.917  1.00  0.00     0.009 A 
BRANCH   3   8
ATOM      8  C   UNL     1      -3.158   0.153   2.620  1.00  0.00     0.000 C 
ATOM      9  C   UNL     1      -3.743  -1.029   2.429  1.00  0.00     0.009 C 
ENDBRANCH   3   8
BRANCH   5  10
ATOM     10  C   UNL     1       0.160  -0.232  -1.117  1.00  0.00     0.063 A 
ATOM     11  C   UNL     1      -0.168  -1.561  -1.486  1.00  0.00     0.210 A 
ATOM     12  C   UNL     1       0.856   0.561  -2.054  1.00  0.00     0.245 A 
ATOM     13  N   UNL     1       0.179  -2.052  -2.712  1.00  0.00    -0.245 N 
ATOM     14  N   UNL     1       1.168   0.010  -3.250  1.00  0.00    -0.104 N 
ATOM     15  C   UNL     1       0.846  -1.245  -3.572  1.00  0.00     0.306 A 
ATOM     16  N   UNL     1       1.807   0.588  -4.252  1.00  0.00    -0.086 NA
ATOM     17  C   UNL     1       1.286  -1.528  -4.843  1.00  0.00     0.125 A 
ATOM     18  C   UNL     1       1.891  -0.337  -5.239  1.00  0.00     0.167 A 
ATOM     19  H   UNL     1      -0.062  -3.033  -2.977  1.00  0.00     0.312 HD
ENDBRANCH   5  10
ENDBRANCH   1   2
BRANCH   1  20
ATOM     20  C   UNL     1      -1.079   0.854   5.222  1.00  0.00     0.263 C 
BRANCH  20  21
ATOM     21  N   UNL     1       0.308   0.402   5.352  1.00  0.00    -0.357 N 
ATOM     22  H   UNL     1       0.943   1.218   5.509  1.00  0.00     0.344 HD
ATOM     23  H   UNL     1       0.380  -0.243   6.172  1.00  0.00     0.344 HD
ATOM     24  H   UNL     1       0.601  -0.118   4.493  1.00  0.00     0.344 HD
ENDBRANCH  20  21
ENDBRANCH   1  20
TORSDOF 5


