MODEL 1
REMARK VINA RESULT:      -8.6      0.000      0.000
REMARK SMILES Cc1cc(-c2c[nH+]c3c(c2)C(=O)[N-]C3)c(N)c2cc[nH]c12
REMARK SMILES IDX 1 1 2 2 3 3 4 4 15 5 17 6 18 7 19 8 20 9 21 10 5 12 6 13
REMARK SMILES IDX 10 14 7 15 9 16 8 17 11 18 14 19 13 20 12 22 16 23
REMARK H PARENT 20 11 7 21 16 24 16 25
ROOT
ATOM      1  C   UNL     1      41.059 133.257  20.669  1.00  0.00     0.046 C 
ATOM      2  C   UNL     1      42.318 132.441  20.699  1.00  0.00    -0.026 A 
ATOM      3  C   UNL     1      43.018 132.135  19.515  1.00  0.00     0.016 A 
ATOM      4  C   UNL     1      44.204 131.358  19.543  1.00  0.00     0.012 A 
ATOM      5  C   UNL     1      44.714 130.891  20.787  1.00  0.00     0.049 A 
ATOM      6  C   UNL     1      43.987 131.204  21.943  1.00  0.00     0.023 A 
ATOM      7  C   UNL     1      44.223 130.899  23.270  1.00  0.00     0.030 A 
ATOM      8  C   UNL     1      43.179 131.482  23.976  1.00  0.00     0.083 A 
ATOM      9  N   UNL     1      42.335 132.121  23.138  1.00  0.00    -0.361 N 
ATOM     10  C   UNL     1      42.835 131.949  21.901  1.00  0.00     0.050 A 
ATOM     11  H   UNL     1      41.473 132.645  23.409  1.00  0.00     0.166 HD
ENDROOT
BRANCH   4  12
ATOM     12  C   UNL     1      44.864 131.033  18.260  1.00  0.00     0.048 A 
ATOM     13  C   UNL     1      46.124 130.387  18.246  1.00  0.00     0.315 A 
ATOM     14  C   UNL     1      44.270 131.404  17.037  1.00  0.00     0.031 A 
ATOM     15  N   UNL     1      46.749 130.106  17.063  1.00  0.00    -0.215 N 
ATOM     16  C   UNL     1      44.950 131.092  15.866  1.00  0.00     0.065 A 
ATOM     17  C   UNL     1      46.161 130.456  15.891  1.00  0.00     0.171 A 
ATOM     18  C   UNL     1      44.629 131.324  14.482  1.00  0.00     0.089 C 
ATOM     19  C   UNL     1      46.695 130.239  14.506  1.00  0.00    -0.006 C 
ATOM     20  N   UNL     1      45.662 130.820  13.640  1.00  0.00    -0.641 NA
ATOM     21  H   UNL     1      47.677 129.624  17.063  1.00  0.00     0.453 HD
ATOM     22  O   UNL     1      43.590 131.890  14.054  1.00  0.00    -0.315 OA
ENDBRANCH   4  12
BRANCH   5  23
ATOM     23  N   UNL     1      45.951 130.167  20.875  1.00  0.00    -0.398 N 
ATOM     24  H   UNL     1      46.827 130.617  21.215  1.00  0.00     0.156 HD
ATOM     25  H   UNL     1      45.994 129.147  20.660  1.00  0.00     0.156 HD
ENDBRANCH   5  23
TORSDOF 2
ENDMDL
MODEL 2
REMARK VINA RESULT:      -7.7      2.288      6.864
REMARK SMILES Cc1cc(-c2c[nH+]c3c(c2)C(=O)[N-]C3)c(N)c2cc[nH]c12
REMARK SMILES IDX 1 1 2 2 3 3 4 4 15 5 17 6 18 7 19 8 20 9 21 10 5 12 6 13
REMARK SMILES IDX 10 14 7 15 9 16 8 17 11 18 14 19 13 20 12 22 16 23
REMARK H PARENT 20 11 7 21 16 24 16 25
ROOT
ATOM      1  C   UNL     1      43.213 131.860  13.823  1.00  0.00     0.046 C 
ATOM      2  C   UNL     1      43.965 131.481  15.065  1.00  0.00    -0.026 A 
ATOM      3  C   UNL     1      43.410 131.682  16.345  1.00  0.00     0.016 A 
ATOM      4  C   UNL     1      44.124 131.331  17.518  1.00  0.00     0.012 A 
ATOM      5  C   UNL     1      45.417 130.746  17.411  1.00  0.00     0.049 A 
ATOM      6  C   UNL     1      45.942 130.570  16.124  1.00  0.00     0.023 A 
ATOM      7  C   UNL     1      47.147 130.038  15.704  1.00  0.00     0.030 A 
ATOM      8  C   UNL     1      47.118 130.103  14.317  1.00  0.00     0.083 A 
ATOM      9  N   UNL     1      45.957 130.644  13.890  1.00  0.00    -0.361 N 
ATOM     10  C   UNL     1      45.245 130.923  14.997  1.00  0.00     0.050 A 
ATOM     11  H   UNL     1      45.677 130.803  12.896  1.00  0.00     0.166 HD
ENDROOT
BRANCH   4  12
ATOM     12  C   UNL     1      43.505 131.613  18.831  1.00  0.00     0.048 A 
ATOM     13  C   UNL     1      42.336 132.408  18.917  1.00  0.00     0.315 A 
ATOM     14  C   UNL     1      44.097 131.134  20.018  1.00  0.00     0.031 A 
ATOM     15  N   UNL     1      41.773 132.691  20.130  1.00  0.00    -0.215 N 
ATOM     16  C   UNL     1      43.480 131.452  21.223  1.00  0.00     0.065 A 
ATOM     17  C   UNL     1      42.344 132.213  21.265  1.00  0.00     0.171 A 
ATOM     18  C   UNL     1      43.817 131.128  22.584  1.00  0.00     0.089 C 
ATOM     19  C   UNL     1      41.879 132.424  22.675  1.00  0.00    -0.006 C 
ATOM     20  N   UNL     1      42.870 131.700  23.481  1.00  0.00    -0.641 NA
ATOM     21  H   UNL     1      40.908 133.275  20.183  1.00  0.00     0.453 HD
ATOM     22  O   UNL     1      44.805 130.439  22.953  1.00  0.00    -0.315 OA
ENDBRANCH   4  12
BRANCH   5  23
ATOM     23  N   UNL     1      46.147 130.302  18.565  1.00  0.00    -0.398 N 
ATOM     24  H   UNL     1      45.870 129.447  19.095  1.00  0.00     0.156 HD
ATOM     25  H   UNL     1      47.017 130.788  18.872  1.00  0.00     0.156 HD
ENDBRANCH   5  23
TORSDOF 2
ENDMDL
MODEL 3
REMARK VINA RESULT:      -7.5      1.561      1.792
REMARK SMILES Cc1cc(-c2c[nH+]c3c(c2)C(=O)[N-]C3)c(N)c2cc[nH]c12
REMARK SMILES IDX 1 1 2 2 3 3 4 4 15 5 17 6 18 7 19 8 20 9 21 10 5 12 6 13
REMARK SMILES IDX 10 14 7 15 9 16 8 17 11 18 14 19 13 20 12 22 16 23
REMARK H PARENT 20 11 7 21 16 24 16 25
ROOT
ATOM      1  C   UNL     1      41.311 133.101  20.436  1.00  0.00     0.046 C 
ATOM      2  C   UNL     1      42.587 132.326  20.281  1.00  0.00    -0.026 A 
ATOM      3  C   UNL     1      43.283 132.304  19.056  1.00  0.00     0.016 A 
ATOM      4  C   UNL     1      44.485 131.566  18.908  1.00  0.00     0.012 A 
ATOM      5  C   UNL     1      45.014 130.848  20.017  1.00  0.00     0.049 A 
ATOM      6  C   UNL     1      44.291 130.883  21.216  1.00  0.00     0.023 A 
ATOM      7  C   UNL     1      44.544 130.299  22.443  1.00  0.00     0.030 A 
ATOM      8  C   UNL     1      43.495 130.690  23.264  1.00  0.00     0.083 A 
ATOM      9  N   UNL     1      42.630 131.479  22.589  1.00  0.00    -0.361 N 
ATOM     10  C   UNL     1      43.124 131.594  21.343  1.00  0.00     0.050 A 
ATOM     11  H   UNL     1      41.760 131.912  22.972  1.00  0.00     0.166 HD
ENDROOT
BRANCH   4  12
ATOM     12  C   UNL     1      45.141 131.545  17.583  1.00  0.00     0.048 A 
ATOM     13  C   UNL     1      45.414 132.755  16.899  1.00  0.00     0.315 A 
ATOM     14  C   UNL     1      45.458 130.320  16.962  1.00  0.00     0.031 A 
ATOM     15  N   UNL     1      45.998 132.740  15.664  1.00  0.00    -0.215 N 
ATOM     16  C   UNL     1      46.052 130.366  15.706  1.00  0.00     0.065 A 
ATOM     17  C   UNL     1      46.312 131.555  15.081  1.00  0.00     0.171 A 
ATOM     18  C   UNL     1      46.493 129.322  14.818  1.00  0.00     0.089 C 
ATOM     19  C   UNL     1      46.945 131.341  13.738  1.00  0.00    -0.006 C 
ATOM     20  N   UNL     1      47.036 129.880  13.625  1.00  0.00    -0.641 NA
ATOM     21  H   UNL     1      46.200 133.638  15.169  1.00  0.00     0.453 HD
ATOM     22  O   UNL     1      46.419 128.086  15.043  1.00  0.00    -0.315 OA
ENDBRANCH   4  12
BRANCH   5  23
ATOM     23  N   UNL     1      46.267 130.150  19.939  1.00  0.00    -0.398 N 
ATOM     24  H   UNL     1      46.320 129.147  19.660  1.00  0.00     0.156 HD
ATOM     25  H   UNL     1      47.171 130.645  20.100  1.00  0.00     0.156 HD
ENDBRANCH   5  23
TORSDOF 2
ENDMDL
MODEL 4
REMARK VINA RESULT:      -7.5      1.819      6.695
REMARK SMILES Cc1cc(-c2c[nH+]c3c(c2)C(=O)[N-]C3)c(N)c2cc[nH]c12
REMARK SMILES IDX 1 1 2 2 3 3 4 4 15 5 17 6 18 7 19 8 20 9 21 10 5 12 6 13
REMARK SMILES IDX 10 14 7 15 9 16 8 17 11 18 14 19 13 20 12 22 16 23
REMARK H PARENT 20 11 7 21 16 24 16 25
ROOT
ATOM      1  C   UNL     1      43.184 132.046  14.025  1.00  0.00     0.046 C 
ATOM      2  C   UNL     1      44.205 131.517  14.988  1.00  0.00    -0.026 A 
ATOM      3  C   UNL     1      43.978 131.541  16.379  1.00  0.00     0.016 A 
ATOM      4  C   UNL     1      44.947 131.048  17.289  1.00  0.00     0.012 A 
ATOM      5  C   UNL     1      46.164 130.498  16.798  1.00  0.00     0.049 A 
ATOM      6  C   UNL     1      46.361 130.499  15.411  1.00  0.00     0.023 A 
ATOM      7  C   UNL     1      47.419 130.043  14.647  1.00  0.00     0.030 A 
ATOM      8  C   UNL     1      47.058 130.289  13.329  1.00  0.00     0.083 A 
ATOM      9  N   UNL     1      45.839 130.867  13.268  1.00  0.00    -0.361 N 
ATOM     10  C   UNL     1      45.420 130.989  14.541  1.00  0.00     0.050 A 
ATOM     11  H   UNL     1      45.331 131.151  12.401  1.00  0.00     0.166 HD
ENDROOT
BRANCH   4  12
ATOM     12  C   UNL     1      44.667 131.147  18.738  1.00  0.00     0.048 A 
ATOM     13  C   UNL     1      45.525 130.524  19.678  1.00  0.00     0.315 A 
ATOM     14  C   UNL     1      43.518 131.821  19.200  1.00  0.00     0.031 A 
ATOM     15  N   UNL     1      45.257 130.592  21.017  1.00  0.00    -0.215 N 
ATOM     16  C   UNL     1      43.297 131.859  20.572  1.00  0.00     0.065 A 
ATOM     17  C   UNL     1      44.155 131.256  21.450  1.00  0.00     0.171 A 
ATOM     18  C   UNL     1      42.245 132.451  21.354  1.00  0.00     0.089 C 
ATOM     19  C   UNL     1      43.697 131.429  22.868  1.00  0.00    -0.006 C 
ATOM     20  N   UNL     1      42.460 132.208  22.742  1.00  0.00    -0.641 NA
ATOM     21  H   UNL     1      45.898 130.134  21.703  1.00  0.00     0.453 HD
ATOM     22  O   UNL     1      41.264 133.095  20.900  1.00  0.00    -0.315 OA
ENDBRANCH   4  12
BRANCH   5  23
ATOM     23  N   UNL     1      47.141 129.916  17.674  1.00  0.00    -0.398 N 
ATOM     24  H   UNL     1      47.627 129.024  17.439  1.00  0.00     0.156 HD
ATOM     25  H   UNL     1      47.442 130.404  18.546  1.00  0.00     0.156 HD
ENDBRANCH   5  23
TORSDOF 2
ENDMDL
MODEL 5
REMARK VINA RESULT:      -7.3      1.502      1.951
REMARK SMILES Cc1cc(-c2c[nH+]c3c(c2)C(=O)[N-]C3)c(N)c2cc[nH]c12
REMARK SMILES IDX 1 1 2 2 3 3 4 4 15 5 17 6 18 7 19 8 20 9 21 10 5 12 6 13
REMARK SMILES IDX 10 14 7 15 9 16 8 17 11 18 14 19 13 20 12 22 16 23
REMARK H PARENT 20 11 7 21 16 24 16 25
ROOT
ATOM      1  C   UNL     1      41.141 133.261  20.846  1.00  0.00     0.046 C 
ATOM      2  C   UNL     1      42.370 132.462  20.526  1.00  0.00    -0.026 A 
ATOM      3  C   UNL     1      42.838 132.343  19.202  1.00  0.00     0.016 A 
ATOM      4  C   UNL     1      43.996 131.581  18.900  1.00  0.00     0.012 A 
ATOM      5  C   UNL     1      44.714 130.940  19.947  1.00  0.00     0.049 A 
ATOM      6  C   UNL     1      44.214 131.070  21.249  1.00  0.00     0.023 A 
ATOM      7  C   UNL     1      44.681 130.574  22.452  1.00  0.00     0.030 A 
ATOM      8  C   UNL     1      43.793 131.036  23.414  1.00  0.00     0.083 A 
ATOM      9  N   UNL     1      42.822 131.784  22.846  1.00  0.00    -0.361 N 
ATOM     10  C   UNL     1      43.087 131.802  21.528  1.00  0.00     0.050 A 
ATOM     11  H   UNL     1      42.033 132.254  23.344  1.00  0.00     0.166 HD
ENDROOT
BRANCH   4  12
ATOM     12  C   UNL     1      44.407 131.456  17.484  1.00  0.00     0.048 A 
ATOM     13  C   UNL     1      43.585 131.969  16.451  1.00  0.00     0.315 A 
ATOM     14  C   UNL     1      45.598 130.784  17.143  1.00  0.00     0.031 A 
ATOM     15  N   UNL     1      43.948 131.835  15.140  1.00  0.00    -0.215 N 
ATOM     16  C   UNL     1      45.918 130.678  15.794  1.00  0.00     0.065 A 
ATOM     17  C   UNL     1      45.105 131.197  14.824  1.00  0.00     0.171 A 
ATOM     18  C   UNL     1      47.035 130.070  15.122  1.00  0.00     0.089 C 
ATOM     19  C   UNL     1      45.660 130.949  13.453  1.00  0.00    -0.006 C 
ATOM     20  N   UNL     1      46.907 130.217  13.710  1.00  0.00    -0.641 NA
ATOM     21  H   UNL     1      43.338 132.220  14.385  1.00  0.00     0.453 HD
ATOM     22  O   UNL     1      47.999 129.484  15.680  1.00  0.00    -0.315 OA
ENDBRANCH   4  12
BRANCH   5  23
ATOM     23  N   UNL     1      45.934 130.223  19.701  1.00  0.00    -0.398 N 
ATOM     24  H   UNL     1      46.853 130.709  19.639  1.00  0.00     0.156 HD
ATOM     25  H   UNL     1      45.943 129.181  19.641  1.00  0.00     0.156 HD
ENDBRANCH   5  23
TORSDOF 2
ENDMDL
MODEL 6
REMARK VINA RESULT:      -6.6      1.179      2.257
REMARK SMILES Cc1cc(-c2c[nH+]c3c(c2)C(=O)[N-]C3)c(N)c2cc[nH]c12
REMARK SMILES IDX 1 1 2 2 3 3 4 4 15 5 17 6 18 7 19 8 20 9 21 10 5 12 6 13
REMARK SMILES IDX 10 14 7 15 9 16 8 17 11 18 14 19 13 20 12 22 16 23
REMARK H PARENT 20 11 7 21 16 24 16 25
ROOT
ATOM      1  C   UNL     1      44.458 130.713  23.126  1.00  0.00     0.046 C 
ATOM      2  C   UNL     1      43.915 131.191  21.811  1.00  0.00    -0.026 A 
ATOM      3  C   UNL     1      44.556 130.873  20.597  1.00  0.00     0.016 A 
ATOM      4  C   UNL     1      44.047 131.332  19.356  1.00  0.00     0.012 A 
ATOM      5  C   UNL     1      42.856 132.110  19.324  1.00  0.00     0.049 A 
ATOM      6  C   UNL     1      42.250 132.416  20.550  1.00  0.00     0.023 A 
ATOM      7  C   UNL     1      41.107 133.138  20.840  1.00  0.00     0.030 A 
ATOM      8  C   UNL     1      40.984 133.099  22.222  1.00  0.00     0.083 A 
ATOM      9  N   UNL     1      41.993 132.389  22.771  1.00  0.00    -0.361 N 
ATOM     10  C   UNL     1      42.759 131.974  21.745  1.00  0.00     0.050 A 
ATOM     11  H   UNL     1      42.136 132.202  23.788  1.00  0.00     0.166 HD
ENDROOT
BRANCH   4  12
ATOM     12  C   UNL     1      44.794 131.003  18.123  1.00  0.00     0.048 A 
ATOM     13  C   UNL     1      46.059 130.370  18.198  1.00  0.00     0.315 A 
ATOM     14  C   UNL     1      44.280 131.359  16.859  1.00  0.00     0.031 A 
ATOM     15  N   UNL     1      46.765 130.087  17.062  1.00  0.00    -0.215 N 
ATOM     16  C   UNL     1      45.041 131.045  15.739  1.00  0.00     0.065 A 
ATOM     17  C   UNL     1      46.253 130.422  15.850  1.00  0.00     0.171 A 
ATOM     18  C   UNL     1      44.810 131.264  14.335  1.00  0.00     0.089 C 
ATOM     19  C   UNL     1      46.881 130.200  14.506  1.00  0.00    -0.006 C 
ATOM     20  N   UNL     1      45.902 130.764  13.568  1.00  0.00    -0.641 NA
ATOM     21  H   UNL     1      47.695 129.616  17.128  1.00  0.00     0.453 HD
ATOM     22  O   UNL     1      43.796 131.816  13.834  1.00  0.00    -0.315 OA
ENDBRANCH   4  12
BRANCH   5  23
ATOM     23  N   UNL     1      42.258 132.532  18.089  1.00  0.00    -0.398 N 
ATOM     24  H   UNL     1      42.835 132.804  17.265  1.00  0.00     0.156 HD
ATOM     25  H   UNL     1      41.223 132.517  17.958  1.00  0.00     0.156 HD
ENDBRANCH   5  23
TORSDOF 2
ENDMDL
MODEL 7
REMARK VINA RESULT:      -6.5      2.210      6.908
REMARK SMILES Cc1cc(-c2c[nH+]c3c(c2)C(=O)[N-]C3)c(N)c2cc[nH]c12
REMARK SMILES IDX 1 1 2 2 3 3 4 4 15 5 17 6 18 7 19 8 20 9 21 10 5 12 6 13
REMARK SMILES IDX 10 14 7 15 9 16 8 17 11 18 14 19 13 20 12 22 16 23
REMARK H PARENT 20 11 7 21 16 24 16 25
ROOT
ATOM      1  C   UNL     1      47.493 129.746  15.337  1.00  0.00     0.046 C 
ATOM      2  C   UNL     1      46.258 130.345  15.943  1.00  0.00    -0.026 A 
ATOM      3  C   UNL     1      46.089 130.411  17.341  1.00  0.00     0.016 A 
ATOM      4  C   UNL     1      44.918 130.970  17.913  1.00  0.00     0.012 A 
ATOM      5  C   UNL     1      43.899 131.493  17.069  1.00  0.00     0.049 A 
ATOM      6  C   UNL     1      44.095 131.401  15.685  1.00  0.00     0.023 A 
ATOM      7  C   UNL     1      43.302 131.812  14.629  1.00  0.00     0.030 A 
ATOM      8  C   UNL     1      44.008 131.477  13.482  1.00  0.00     0.083 A 
ATOM      9  N   UNL     1      45.182 130.889  13.799  1.00  0.00    -0.361 N 
ATOM     10  C   UNL     1      45.228 130.849  15.143  1.00  0.00     0.050 A 
ATOM     11  H   UNL     1      45.904 130.545  13.127  1.00  0.00     0.166 HD
ENDROOT
BRANCH   4  12
ATOM     12  C   UNL     1      44.782 130.965  19.385  1.00  0.00     0.048 A 
ATOM     13  C   UNL     1      45.724 130.279  20.191  1.00  0.00     0.315 A 
ATOM     14  C   UNL     1      43.688 131.603  20.004  1.00  0.00     0.031 A 
ATOM     15  N   UNL     1      45.589 130.251  21.550  1.00  0.00    -0.215 N 
ATOM     16  C   UNL     1      43.602 131.544  21.390  1.00  0.00     0.065 A 
ATOM     17  C   UNL     1      44.539 130.881  22.136  1.00  0.00     0.171 A 
ATOM     18  C   UNL     1      42.635 132.077  22.312  1.00  0.00     0.089 C 
ATOM     19  C   UNL     1      44.223 130.953  23.601  1.00  0.00    -0.006 C 
ATOM     20  N   UNL     1      42.983 131.738  23.651  1.00  0.00    -0.641 NA
ATOM     21  H   UNL     1      46.292 129.747  22.136  1.00  0.00     0.453 HD
ATOM     22  O   UNL     1      41.618 132.751  22.002  1.00  0.00    -0.315 OA
ENDBRANCH   4  12
BRANCH   5  23
ATOM     23  N   UNL     1      42.731 132.138  17.600  1.00  0.00    -0.398 N 
ATOM     24  H   UNL     1      42.776 133.087  18.031  1.00  0.00     0.156 HD
ATOM     25  H   UNL     1      41.788 131.701  17.514  1.00  0.00     0.156 HD
ENDBRANCH   5  23
TORSDOF 2
ENDMDL
MODEL 8
REMARK VINA RESULT:      -6.3      2.629      6.964
REMARK SMILES Cc1cc(-c2c[nH+]c3c(c2)C(=O)[N-]C3)c(N)c2cc[nH]c12
REMARK SMILES IDX 1 1 2 2 3 3 4 4 15 5 17 6 18 7 19 8 20 9 21 10 5 12 6 13
REMARK SMILES IDX 10 14 7 15 9 16 8 17 11 18 14 19 13 20 12 22 16 23
REMARK H PARENT 20 11 7 21 16 24 16 25
ROOT
ATOM      1  C   UNL     1      47.173 129.788  15.894  1.00  0.00     0.046 C 
ATOM      2  C   UNL     1      45.976 130.458  16.502  1.00  0.00    -0.026 A 
ATOM      3  C   UNL     1      45.869 130.637  17.895  1.00  0.00     0.016 A 
ATOM      4  C   UNL     1      44.734 131.263  18.470  1.00  0.00     0.012 A 
ATOM      5  C   UNL     1      43.689 131.740  17.630  1.00  0.00     0.049 A 
ATOM      6  C   UNL     1      43.822 131.535  16.251  1.00  0.00     0.023 A 
ATOM      7  C   UNL     1      42.991 131.878  15.200  1.00  0.00     0.030 A 
ATOM      8  C   UNL     1      43.641 131.439  14.055  1.00  0.00     0.083 A 
ATOM      9  N   UNL     1      44.817 130.854  14.368  1.00  0.00    -0.361 N 
ATOM     10  C   UNL     1      44.921 130.918  15.708  1.00  0.00     0.050 A 
ATOM     11  H   UNL     1      45.503 130.443  13.696  1.00  0.00     0.166 HD
ENDROOT
BRANCH   4  12
ATOM     12  C   UNL     1      44.662 131.378  19.943  1.00  0.00     0.048 A 
ATOM     13  C   UNL     1      45.564 132.218  20.641  1.00  0.00     0.315 A 
ATOM     14  C   UNL     1      43.728 130.616  20.674  1.00  0.00     0.031 A 
ATOM     15  N   UNL     1      45.517 132.309  22.004  1.00  0.00    -0.215 N 
ATOM     16  C   UNL     1      43.726 130.750  22.058  1.00  0.00     0.065 A 
ATOM     17  C   UNL     1      44.604 131.581  22.697  1.00  0.00     0.171 A 
ATOM     18  C   UNL     1      42.919 130.131  23.076  1.00  0.00     0.089 C 
ATOM     19  C   UNL     1      44.409 131.544  24.184  1.00  0.00    -0.006 C 
ATOM     20  N   UNL     1      43.308 130.591  24.367  1.00  0.00    -0.641 NA
ATOM     21  H   UNL     1      46.183 132.935  22.510  1.00  0.00     0.453 HD
ATOM     22  O   UNL     1      41.996 129.298  22.878  1.00  0.00    -0.315 OA
ENDBRANCH   4  12
BRANCH   5  23
ATOM     23  N   UNL     1      42.556 132.449  18.157  1.00  0.00    -0.398 N 
ATOM     24  H   UNL     1      42.395 133.457  17.950  1.00  0.00     0.156 HD
ATOM     25  H   UNL     1      41.824 131.956  18.714  1.00  0.00     0.156 HD
ENDBRANCH   5  23
TORSDOF 2
ENDMDL
MODEL 9
REMARK VINA RESULT:      -6.1      1.863      2.955
REMARK SMILES Cc1cc(-c2c[nH+]c3c(c2)C(=O)[N-]C3)c(N)c2cc[nH]c12
REMARK SMILES IDX 1 1 2 2 3 3 4 4 15 5 17 6 18 7 19 8 20 9 21 10 5 12 6 13
REMARK SMILES IDX 10 14 7 15 9 16 8 17 11 18 14 19 13 20 12 22 16 23
REMARK H PARENT 20 11 7 21 16 24 16 25
ROOT
ATOM      1  C   UNL     1      45.169 128.737  23.029  1.00  0.00     0.046 C 
ATOM      2  C   UNL     1      44.413 129.838  22.345  1.00  0.00    -0.026 A 
ATOM      3  C   UNL     1      44.500 130.027  20.951  1.00  0.00     0.016 A 
ATOM      4  C   UNL     1      43.792 131.072  20.306  1.00  0.00     0.012 A 
ATOM      5  C   UNL     1      42.960 131.938  21.069  1.00  0.00     0.049 A 
ATOM      6  C   UNL     1      42.905 131.729  22.453  1.00  0.00     0.023 A 
ATOM      7  C   UNL     1      42.201 132.392  23.441  1.00  0.00     0.030 A 
ATOM      8  C   UNL     1      42.519 131.740  24.625  1.00  0.00     0.083 A 
ATOM      9  N   UNL     1      43.376 130.721  24.392  1.00  0.00    -0.361 N 
ATOM     10  C   UNL     1      43.604 130.720  23.067  1.00  0.00     0.050 A 
ATOM     11  H   UNL     1      43.769 130.068  25.107  1.00  0.00     0.166 HD
ENDROOT
BRANCH   4  12
ATOM     12  C   UNL     1      43.964 131.245  18.847  1.00  0.00     0.048 A 
ATOM     13  C   UNL     1      42.970 131.901  18.080  1.00  0.00     0.315 A 
ATOM     14  C   UNL     1      45.097 130.718  18.194  1.00  0.00     0.031 A 
ATOM     15  N   UNL     1      43.114 132.042  16.729  1.00  0.00    -0.215 N 
ATOM     16  C   UNL     1      45.191 130.892  16.818  1.00  0.00     0.065 A 
ATOM     17  C   UNL     1      44.215 131.542  16.112  1.00  0.00     0.171 A 
ATOM     18  C   UNL     1      46.194 130.487  15.869  1.00  0.00     0.089 C 
ATOM     19  C   UNL     1      44.541 131.594  14.649  1.00  0.00    -0.006 C 
ATOM     20  N   UNL     1      45.829 130.897  14.554  1.00  0.00    -0.641 NA
ATOM     21  H   UNL     1      42.377 132.532  16.172  1.00  0.00     0.453 HD
ATOM     22  O   UNL     1      47.250 129.858  16.140  1.00  0.00    -0.315 OA
ENDBRANCH   4  12
BRANCH   5  23
ATOM     23  N   UNL     1      42.163 132.962  20.453  1.00  0.00    -0.398 N 
ATOM     24  H   UNL     1      41.270 133.292  20.877  1.00  0.00     0.156 HD
ATOM     25  H   UNL     1      42.488 133.452  19.591  1.00  0.00     0.156 HD
ENDBRANCH   5  23
TORSDOF 2
ENDMDL


