REMARK SMILES C/C=C/C(=O)[N+]1=C(O)c2cc(-c3ccc4[nH]ccc4c3)cnc2C1
REMARK SMILES IDX 7 1 6 2 4 3 5 4 24 5 23 6 22 7 21 8 11 9 10 10 9 11 8 12
REMARK SMILES IDX 3 14 2 15 1 16 12 17 13 18 20 19 14 20 19 21 15 22 18 23
REMARK SMILES IDX 16 24 17 25
REMARK H PARENT 8 13 16 26
ROOT
ATOM      1  C   UNL     1       0.916   1.843   1.812  1.00  0.00     0.378 C 
ATOM      2  N   UNL     1      -0.044   2.491   2.414  1.00  0.00    -0.119 N 
ATOM      3  C   UNL     1       0.122   3.688   3.205  1.00  0.00     0.415 C 
ATOM      4  O   UNL     1       1.271   4.189   3.357  1.00  0.00    -0.215 OA
ATOM      5  C   UNL     1      -1.335   1.824   2.172  1.00  0.00     0.423 C 
ATOM      6  C   UNL     1      -0.942   0.672   1.317  1.00  0.00     0.123 A 
ATOM      7  N   UNL     1      -1.738  -0.288   0.786  1.00  0.00    -0.253 NA
ATOM      8  C   UNL     1      -1.185  -1.271   0.015  1.00  0.00     0.120 A 
ATOM      9  C   UNL     1       0.214  -1.297  -0.234  1.00  0.00     0.001 A 
ATOM     10  C   UNL     1       1.023  -0.286   0.331  1.00  0.00     0.031 A 
ATOM     11  C   UNL     1       0.403   0.687   1.107  1.00  0.00     0.115 A 
ENDROOT
BRANCH   1  12
ATOM     12  O   UNL     1       2.256   2.225   1.850  1.00  0.00    -0.459 OA
ATOM     13  H   UNL     1       2.967   1.690   1.367  1.00  0.00     0.300 HD
ENDBRANCH   1  12
BRANCH   3  14
ATOM     14  C   UNL     1      -1.044   4.338   3.843  1.00  0.00     0.123 C 
BRANCH  14  15
ATOM     15  C   UNL     1      -0.928   5.446   4.582  1.00  0.00    -0.020 C 
ATOM     16  C   UNL     1      -2.128   6.077   5.213  1.00  0.00     0.036 C 
ENDBRANCH  14  15
ENDBRANCH   3  14
BRANCH   9  17
ATOM     17  C   UNL     1       0.814  -2.365  -1.073  1.00  0.00    -0.016 A 
ATOM     18  C   UNL     1       2.069  -2.935  -0.723  1.00  0.00     0.011 A 
ATOM     19  C   UNL     1       0.142  -2.826  -2.231  1.00  0.00     0.019 A 
ATOM     20  C   UNL     1       2.648  -3.946  -1.511  1.00  0.00     0.027 A 
ATOM     21  C   UNL     1       0.746  -3.828  -2.987  1.00  0.00    -0.000 A 
ATOM     22  C   UNL     1       1.954  -4.369  -2.641  1.00  0.00     0.045 A 
ATOM     23  C   UNL     1       0.330  -4.453  -4.143  1.00  0.00     0.028 A 
ATOM     24  N   UNL     1       2.325  -5.311  -3.523  1.00  0.00    -0.361 N 
ATOM     25  C   UNL     1       1.336  -5.366  -4.444  1.00  0.00     0.083 A 
ATOM     26  H   UNL     1       3.198  -5.884  -3.506  1.00  0.00     0.166 HD
ENDBRANCH   9  17
TORSDOF 4


