REMARK SMILES C#Cc1c[nH+]cc(Nc2cc(C=C)cc(-c3ccc4cc[nH]c(=O)c4c3)c2O)c1
REMARK SMILES IDX 8 1 7 3 3 4 4 5 29 6 5 7 6 8 2 10 1 11 9 12 10 13 27 14
REMARK SMILES IDX 11 15 15 16 14 17 28 18 12 20 13 21 16 22 17 23 26 24 18 25
REMARK SMILES IDX 25 26 19 27 23 28 20 29 22 30 21 31 24 32
REMARK H PARENT 8 2 5 9 28 19 22 33
ROOT
ATOM      1  N   UNL     1       3.328  -0.879  -1.093  1.00  0.00    -0.348 N 
ATOM      2  H   UNL     1       4.122  -1.537  -0.922  1.00  0.00     0.167 HD
ENDROOT
BRANCH   1   3
ATOM      3  C   UNL     1       3.575   0.299  -1.883  1.00  0.00     0.105 A 
ATOM      4  C   UNL     1       2.816   2.157  -3.251  1.00  0.00     0.090 A 
ATOM      5  C   UNL     1       4.146   2.560  -3.405  1.00  0.00     0.323 A 
ATOM      6  C   UNL     1       2.531   1.019  -2.490  1.00  0.00     0.056 A 
ATOM      7  N   UNL     1       5.147   1.849  -2.822  1.00  0.00    -0.215 N 
ATOM      8  C   UNL     1       4.892   0.739  -2.076  1.00  0.00     0.332 A 
ATOM      9  H   UNL     1       6.136   2.161  -2.949  1.00  0.00     0.453 HD
BRANCH   4  10
ATOM     10  C   UNL     1       1.752   2.902  -3.872  1.00  0.00    -0.064 C 
ATOM     11  C   UNL     1       0.861   3.526  -4.391  1.00  0.00     0.010 C 
ENDBRANCH   4  10
ENDBRANCH   1   3
BRANCH   1  12
ATOM     12  C   UNL     1       2.018  -1.308  -0.692  1.00  0.00     0.082 A 
ATOM     13  C   UNL     1       1.546  -2.543  -1.147  1.00  0.00     0.038 A 
ATOM     14  C   UNL     1       1.212  -0.515   0.153  1.00  0.00     0.146 A 
ATOM     15  C   UNL     1       0.254  -2.984  -0.827  1.00  0.00    -0.023 A 
ATOM     16  C   UNL     1      -0.083  -0.955   0.495  1.00  0.00     0.026 A 
ATOM     17  C   UNL     1      -0.554  -2.182  -0.002  1.00  0.00     0.020 A 
BRANCH  14  18
ATOM     18  O   UNL     1       1.679   0.700   0.660  1.00  0.00    -0.505 OA
ATOM     19  H   UNL     1       2.626   1.028   0.518  1.00  0.00     0.293 HD
ENDBRANCH  14  18
BRANCH  15  20
ATOM     20  C   UNL     1      -0.195  -4.298  -1.352  1.00  0.00     0.000 C 
ATOM     21  C   UNL     1      -1.472  -4.673  -1.435  1.00  0.00     0.009 C 
ENDBRANCH  15  20
BRANCH  16  22
ATOM     22  C   UNL     1      -0.954  -0.149   1.383  1.00  0.00    -0.014 A 
ATOM     23  C   UNL     1      -2.266   0.160   0.989  1.00  0.00     0.009 A 
ATOM     24  C   UNL     1      -0.488   0.294   2.632  1.00  0.00     0.023 A 
ATOM     25  C   UNL     1      -3.098   0.913   1.819  1.00  0.00     0.009 A 
ATOM     26  C   UNL     1      -1.318   1.054   3.478  1.00  0.00     0.048 A 
ATOM     27  C   UNL     1      -2.633   1.365   3.062  1.00  0.00    -0.011 A 
ATOM     28  C   UNL     1      -0.876   1.516   4.734  1.00  0.00     0.255 A 
ATOM     29  C   UNL     1      -3.462   2.120   3.900  1.00  0.00     0.027 A 
ATOM     30  N   UNL     1      -1.712   2.249   5.523  1.00  0.00    -0.329 N 
ATOM     31  C   UNL     1      -2.978   2.555   5.134  1.00  0.00     0.086 A 
ATOM     32  O   UNL     1       0.290   1.258   5.140  1.00  0.00    -0.269 OA
ATOM     33  H   UNL     1      -1.377   2.588   6.453  1.00  0.00     0.169 HD
ENDBRANCH  16  22
ENDBRANCH   1  12
TORSDOF 6


