MODEL 1
REMARK VINA RESULT:      -8.7      0.000      0.000
REMARK SMILES Cc1cc(N=C=O)c(N)c(-n2nc3ccccc3[nH+]2)c1
REMARK SMILES IDX 3 1 4 2 8 3 10 4 20 5 2 6 1 7 5 8 6 9 7 10 9 11 11 14 12 15
REMARK SMILES IDX 19 16 13 17 18 18 14 19 17 20 15 21 16 22
REMARK H PARENT 9 12 9 13 19 23
ROOT
ATOM      1  C   UNL     1      43.183 131.873  21.267  1.00  0.00     0.035 A 
ATOM      2  C   UNL     1      44.346 131.095  21.273  1.00  0.00     0.102 A 
ATOM      3  C   UNL     1      45.021 130.834  20.050  1.00  0.00     0.091 A 
ATOM      4  C   UNL     1      44.467 131.311  18.836  1.00  0.00     0.153 A 
ATOM      5  C   UNL     1      43.271 132.043  18.859  1.00  0.00     0.040 A 
ATOM      6  C   UNL     1      42.643 132.353  20.069  1.00  0.00    -0.046 A 
ATOM      7  C   UNL     1      41.360 133.129  20.076  1.00  0.00     0.044 C 
ENDROOT
BRANCH   2   8
ATOM      8  N   UNL     1      44.782 130.576  22.541  1.00  0.00    -0.166 NA
BRANCH   8   9
ATOM      9  C   UNL     1      44.271 129.558  23.109  1.00  0.00     0.240 C 
ATOM     10  O   UNL     1      43.774 128.567  23.661  1.00  0.00    -0.211 OA
ENDBRANCH   8   9
ENDBRANCH   2   8
BRANCH   3  11
ATOM     11  N   UNL     1      46.256 130.105  20.034  1.00  0.00    -0.395 N 
ATOM     12  H   UNL     1      46.914 130.139  20.843  1.00  0.00     0.156 HD
ATOM     13  H   UNL     1      46.505 129.483  19.234  1.00  0.00     0.156 HD
ENDBRANCH   3  11
BRANCH   4  14
ATOM     14  N   UNL     1      45.134 131.112  17.578  1.00  0.00    -0.011 N 
ATOM     15  N   UNL     1      45.642 129.944  17.185  1.00  0.00     0.054 NA
ATOM     16  N   UNL     1      45.381 132.087  16.706  1.00  0.00    -0.161 N 
ATOM     17  C   UNL     1      46.221 130.200  15.997  1.00  0.00     0.249 A 
ATOM     18  C   UNL     1      46.061 131.520  15.702  1.00  0.00     0.198 A 
ATOM     19  C   UNL     1      46.897 129.330  15.149  1.00  0.00     0.064 A 
ATOM     20  C   UNL     1      46.560 132.089  14.535  1.00  0.00     0.058 A 
ATOM     21  C   UNL     1      47.418 129.866  13.954  1.00  0.00     0.005 A 
ATOM     22  C   UNL     1      47.251 131.239  13.648  1.00  0.00     0.005 A 
ATOM     23  H   UNL     1      45.090 133.086  16.797  1.00  0.00     0.340 HD
ENDBRANCH   4  14
TORSDOF 4
ENDMDL
MODEL 2
REMARK VINA RESULT:      -8.5      2.196      3.353
REMARK SMILES Cc1cc(N=C=O)c(N)c(-n2nc3ccccc3[nH+]2)c1
REMARK SMILES IDX 3 1 4 2 8 3 10 4 20 5 2 6 1 7 5 8 6 9 7 10 9 11 11 14 12 15
REMARK SMILES IDX 19 16 13 17 18 18 14 19 17 20 15 21 16 22
REMARK H PARENT 9 12 9 13 19 23
ROOT
ATOM      1  C   UNL     1      43.570 131.374  20.233  1.00  0.00     0.035 A 
ATOM      2  C   UNL     1      43.056 131.864  19.027  1.00  0.00     0.102 A 
ATOM      3  C   UNL     1      43.808 131.706  17.831  1.00  0.00     0.091 A 
ATOM      4  C   UNL     1      45.093 131.116  17.891  1.00  0.00     0.153 A 
ATOM      5  C   UNL     1      45.602 130.682  19.125  1.00  0.00     0.040 A 
ATOM      6  C   UNL     1      44.835 130.780  20.290  1.00  0.00    -0.046 A 
ATOM      7  C   UNL     1      45.396 130.320  21.603  1.00  0.00     0.044 C 
ENDROOT
BRANCH   2   8
ATOM      8  N   UNL     1      41.785 132.532  19.078  1.00  0.00    -0.166 NA
BRANCH   8   9
ATOM      9  C   UNL     1      41.308 133.081  20.123  1.00  0.00     0.240 C 
ATOM     10  O   UNL     1      40.842 133.615  21.138  1.00  0.00    -0.211 OA
ENDBRANCH   8   9
ENDBRANCH   2   8
BRANCH   3  11
ATOM     11  N   UNL     1      43.274 132.130  16.569  1.00  0.00    -0.395 N 
ATOM     12  H   UNL     1      42.316 131.849  16.265  1.00  0.00     0.156 HD
ATOM     13  H   UNL     1      43.811 132.769  15.943  1.00  0.00     0.156 HD
ENDBRANCH   3  11
BRANCH   4  14
ATOM     14  N   UNL     1      45.873 130.893  16.704  1.00  0.00    -0.011 N 
ATOM     15  N   UNL     1      45.999 131.787  15.721  1.00  0.00     0.054 NA
ATOM     16  N   UNL     1      46.492 129.748  16.424  1.00  0.00    -0.161 N 
ATOM     17  C   UNL     1      46.749 131.172  14.789  1.00  0.00     0.249 A 
ATOM     18  C   UNL     1      47.052 129.916  15.220  1.00  0.00     0.198 A 
ATOM     19  C   UNL     1      47.184 131.655  13.559  1.00  0.00     0.064 A 
ATOM     20  C   UNL     1      47.815 129.032  14.465  1.00  0.00     0.058 A 
ATOM     21  C   UNL     1      47.961 130.791  12.762  1.00  0.00     0.005 A 
ATOM     22  C   UNL     1      48.276 129.485  13.213  1.00  0.00     0.005 A 
ATOM     23  H   UNL     1      46.529 128.901  17.034  1.00  0.00     0.340 HD
ENDBRANCH   4  14
TORSDOF 4
ENDMDL
MODEL 3
REMARK VINA RESULT:      -8.3      1.081      1.108
REMARK SMILES Cc1cc(N=C=O)c(N)c(-n2nc3ccccc3[nH+]2)c1
REMARK SMILES IDX 3 1 4 2 8 3 10 4 20 5 2 6 1 7 5 8 6 9 7 10 9 11 11 14 12 15
REMARK SMILES IDX 19 16 13 17 18 18 14 19 17 20 15 21 16 22
REMARK H PARENT 9 12 9 13 19 23
ROOT
ATOM      1  C   UNL     1      43.116 131.847  20.340  1.00  0.00     0.035 A 
ATOM      2  C   UNL     1      44.375 131.260  20.505  1.00  0.00     0.102 A 
ATOM      3  C   UNL     1      45.164 130.963  19.360  1.00  0.00     0.091 A 
ATOM      4  C   UNL     1      44.633 131.205  18.069  1.00  0.00     0.153 A 
ATOM      5  C   UNL     1      43.346 131.746  17.937  1.00  0.00     0.040 A 
ATOM      6  C   UNL     1      42.598 132.097  19.065  1.00  0.00    -0.046 A 
ATOM      7  C   UNL     1      41.219 132.667  18.908  1.00  0.00     0.044 C 
ENDROOT
BRANCH   2   8
ATOM      8  N   UNL     1      44.791 130.964  21.848  1.00  0.00    -0.166 NA
BRANCH   8   9
ATOM      9  C   UNL     1      44.112 131.250  22.885  1.00  0.00     0.240 C 
ATOM     10  O   UNL     1      43.452 131.529  23.894  1.00  0.00    -0.211 OA
ENDBRANCH   8   9
ENDBRANCH   2   8
BRANCH   3  11
ATOM     11  N   UNL     1      46.489 130.432  19.500  1.00  0.00    -0.395 N 
ATOM     12  H   UNL     1      47.018 130.526  20.394  1.00  0.00     0.156 HD
ATOM     13  H   UNL     1      46.939 129.894  18.726  1.00  0.00     0.156 HD
ENDBRANCH   3  11
BRANCH   4  14
ATOM     14  N   UNL     1      45.408 130.964  16.882  1.00  0.00    -0.011 N 
ATOM     15  N   UNL     1      45.991 129.798  16.601  1.00  0.00     0.054 NA
ATOM     16  N   UNL     1      45.688 131.897  15.975  1.00  0.00    -0.161 N 
ATOM     17  C   UNL     1      46.655 130.011  15.450  1.00  0.00     0.249 A 
ATOM     18  C   UNL     1      46.469 131.303  15.064  1.00  0.00     0.198 A 
ATOM     19  C   UNL     1      47.431 129.123  14.712  1.00  0.00     0.064 A 
ATOM     20  C   UNL     1      47.039 131.826  13.908  1.00  0.00     0.058 A 
ATOM     21  C   UNL     1      48.027 129.612  13.532  1.00  0.00     0.005 A 
ATOM     22  C   UNL     1      47.832 130.956  13.131  1.00  0.00     0.005 A 
ATOM     23  H   UNL     1      45.352 132.886  15.982  1.00  0.00     0.340 HD
ENDBRANCH   4  14
TORSDOF 4
ENDMDL
MODEL 4
REMARK VINA RESULT:      -8.3      0.157      1.302
REMARK SMILES Cc1cc(N=C=O)c(N)c(-n2nc3ccccc3[nH+]2)c1
REMARK SMILES IDX 3 1 4 2 8 3 10 4 20 5 2 6 1 7 5 8 6 9 7 10 9 11 11 14 12 15
REMARK SMILES IDX 19 16 13 17 18 18 14 19 17 20 15 21 16 22
REMARK H PARENT 9 12 9 13 19 23
ROOT
ATOM      1  C   UNL     1      43.128 131.871  21.300  1.00  0.00     0.035 A 
ATOM      2  C   UNL     1      44.293 131.097  21.353  1.00  0.00     0.102 A 
ATOM      3  C   UNL     1      45.019 130.844  20.158  1.00  0.00     0.091 A 
ATOM      4  C   UNL     1      44.516 131.323  18.924  1.00  0.00     0.153 A 
ATOM      5  C   UNL     1      43.317 132.051  18.898  1.00  0.00     0.040 A 
ATOM      6  C   UNL     1      42.638 132.354  20.083  1.00  0.00    -0.046 A 
ATOM      7  C   UNL     1      41.352 133.126  20.038  1.00  0.00     0.044 C 
ENDROOT
BRANCH   2   8
ATOM      8  N   UNL     1      44.676 130.574  22.635  1.00  0.00    -0.166 NA
BRANCH   8   9
ATOM      9  C   UNL     1      44.321 129.435  23.078  1.00  0.00     0.240 C 
ATOM     10  O   UNL     1      43.974 128.327  23.507  1.00  0.00    -0.211 OA
ENDBRANCH   8   9
ENDBRANCH   2   8
BRANCH   3  11
ATOM     11  N   UNL     1      46.257 130.119  20.191  1.00  0.00    -0.395 N 
ATOM     12  H   UNL     1      46.281 129.083  20.070  1.00  0.00     0.156 HD
ATOM     13  H   UNL     1      47.170 130.615  20.289  1.00  0.00     0.156 HD
ENDBRANCH   3  11
BRANCH   4  14
ATOM     14  N   UNL     1      45.237 131.132  17.694  1.00  0.00    -0.011 N 
ATOM     15  N   UNL     1      45.321 132.053  16.734  1.00  0.00     0.054 NA
ATOM     16  N   UNL     1      45.833 129.992  17.352  1.00  0.00    -0.161 N 
ATOM     17  C   UNL     1      46.021 131.462  15.748  1.00  0.00     0.249 A 
ATOM     18  C   UNL     1      46.337 130.193  16.128  1.00  0.00     0.198 A 
ATOM     19  C   UNL     1      46.400 131.979  14.514  1.00  0.00     0.064 A 
ATOM     20  C   UNL     1      47.057 129.327  15.312  1.00  0.00     0.058 A 
ATOM     21  C   UNL     1      47.133 131.135  13.656  1.00  0.00     0.005 A 
ATOM     22  C   UNL     1      47.460 129.815  14.053  1.00  0.00     0.005 A 
ATOM     23  H   UNL     1      45.894 129.127  17.935  1.00  0.00     0.340 HD
ENDBRANCH   4  14
TORSDOF 4
ENDMDL
MODEL 5
REMARK VINA RESULT:      -7.8      2.179      3.054
REMARK SMILES Cc1cc(N=C=O)c(N)c(-n2nc3ccccc3[nH+]2)c1
REMARK SMILES IDX 3 1 4 2 8 3 10 4 20 5 2 6 1 7 5 8 6 9 7 10 9 11 11 14 12 15
REMARK SMILES IDX 19 16 13 17 18 18 14 19 17 20 15 21 16 22
REMARK H PARENT 9 12 9 13 19 23
ROOT
ATOM      1  C   UNL     1      43.622 131.615  20.350  1.00  0.00     0.035 A 
ATOM      2  C   UNL     1      43.006 131.971  19.145  1.00  0.00     0.102 A 
ATOM      3  C   UNL     1      43.690 131.751  17.918  1.00  0.00     0.091 A 
ATOM      4  C   UNL     1      45.009 131.237  17.940  1.00  0.00     0.153 A 
ATOM      5  C   UNL     1      45.619 130.940  19.169  1.00  0.00     0.040 A 
ATOM      6  C   UNL     1      44.921 131.097  20.370  1.00  0.00    -0.046 A 
ATOM      7  C   UNL     1      45.589 130.783  21.677  1.00  0.00     0.044 C 
ENDROOT
BRANCH   2   8
ATOM      8  N   UNL     1      41.704 132.573  19.226  1.00  0.00    -0.166 NA
BRANCH   8   9
ATOM      9  C   UNL     1      41.229 133.110  20.277  1.00  0.00     0.240 C 
ATOM     10  O   UNL     1      40.765 133.633  21.299  1.00  0.00    -0.211 OA
ENDBRANCH   8   9
ENDBRANCH   2   8
BRANCH   3  11
ATOM     11  N   UNL     1      43.054 132.034  16.663  1.00  0.00    -0.395 N 
ATOM     12  H   UNL     1      43.576 132.489  15.883  1.00  0.00     0.156 HD
ATOM     13  H   UNL     1      42.067 131.748  16.482  1.00  0.00     0.156 HD
ENDBRANCH   3  11
BRANCH   4  14
ATOM     14  N   UNL     1      45.725 130.955  16.726  1.00  0.00    -0.011 N 
ATOM     15  N   UNL     1      46.291 129.778  16.455  1.00  0.00     0.054 NA
ATOM     16  N   UNL     1      45.962 131.857  15.776  1.00  0.00    -0.161 N 
ATOM     17  C   UNL     1      46.898 129.951  15.267  1.00  0.00     0.249 A 
ATOM     18  C   UNL     1      46.697 131.231  14.848  1.00  0.00     0.198 A 
ATOM     19  C   UNL     1      47.635 129.037  14.521  1.00  0.00     0.064 A 
ATOM     20  C   UNL     1      47.212 131.714  13.650  1.00  0.00     0.058 A 
ATOM     21  C   UNL     1      48.175 129.485  13.298  1.00  0.00     0.005 A 
ATOM     22  C   UNL     1      47.964 130.817  12.864  1.00  0.00     0.005 A 
ATOM     23  H   UNL     1      45.630 132.847  15.767  1.00  0.00     0.340 HD
ENDBRANCH   4  14
TORSDOF 4
ENDMDL
MODEL 6
REMARK VINA RESULT:      -7.3      3.209      6.688
REMARK SMILES Cc1cc(N=C=O)c(N)c(-n2nc3ccccc3[nH+]2)c1
REMARK SMILES IDX 3 1 4 2 8 3 10 4 20 5 2 6 1 7 5 8 6 9 7 10 9 11 11 14 12 15
REMARK SMILES IDX 19 16 13 17 18 18 14 19 17 20 15 21 16 22
REMARK H PARENT 9 12 9 13 19 23
ROOT
ATOM      1  C   UNL     1      45.082 130.725  14.333  1.00  0.00     0.035 A 
ATOM      2  C   UNL     1      46.025 130.264  15.258  1.00  0.00     0.102 A 
ATOM      3  C   UNL     1      45.797 130.459  16.647  1.00  0.00     0.091 A 
ATOM      4  C   UNL     1      44.650 131.176  17.068  1.00  0.00     0.153 A 
ATOM      5  C   UNL     1      43.750 131.671  16.113  1.00  0.00     0.040 A 
ATOM      6  C   UNL     1      43.944 131.422  14.750  1.00  0.00    -0.046 A 
ATOM      7  C   UNL     1      42.977 131.966  13.740  1.00  0.00     0.044 C 
ENDROOT
BRANCH   2   8
ATOM      8  N   UNL     1      47.204 129.631  14.733  1.00  0.00    -0.166 NA
BRANCH   8   9
ATOM      9  C   UNL     1      47.799 129.998  13.669  1.00  0.00     0.240 C 
ATOM     10  O   UNL     1      48.377 130.357  12.635  1.00  0.00    -0.211 OA
ENDBRANCH   8   9
ENDBRANCH   2   8
BRANCH   3  11
ATOM     11  N   UNL     1      46.708 129.931  17.621  1.00  0.00    -0.395 N 
ATOM     12  H   UNL     1      46.921 128.911  17.665  1.00  0.00     0.156 HD
ATOM     13  H   UNL     1      47.217 130.560  18.280  1.00  0.00     0.156 HD
ENDBRANCH   3  11
BRANCH   4  14
ATOM     14  N   UNL     1      44.351 131.360  18.463  1.00  0.00    -0.011 N 
ATOM     15  N   UNL     1      45.184 131.028  19.450  1.00  0.00     0.054 NA
ATOM     16  N   UNL     1      43.186 131.814  18.919  1.00  0.00    -0.161 N 
ATOM     17  C   UNL     1      44.508 131.304  20.580  1.00  0.00     0.249 A 
ATOM     18  C   UNL     1      43.278 131.787  20.255  1.00  0.00     0.198 A 
ATOM     19  C   UNL     1      44.915 131.147  21.901  1.00  0.00     0.064 A 
ATOM     20  C   UNL     1      42.343 132.158  21.215  1.00  0.00     0.058 A 
ATOM     21  C   UNL     1      43.998 131.512  22.908  1.00  0.00     0.005 A 
ATOM     22  C   UNL     1      42.718 132.015  22.567  1.00  0.00     0.005 A 
ATOM     23  H   UNL     1      42.376 132.129  18.340  1.00  0.00     0.340 HD
ENDBRANCH   4  14
TORSDOF 4
ENDMDL
MODEL 7
REMARK VINA RESULT:      -6.7      3.275      6.785
REMARK SMILES Cc1cc(N=C=O)c(N)c(-n2nc3ccccc3[nH+]2)c1
REMARK SMILES IDX 3 1 4 2 8 3 10 4 20 5 2 6 1 7 5 8 6 9 7 10 9 11 11 14 12 15
REMARK SMILES IDX 19 16 13 17 18 18 14 19 17 20 15 21 16 22
REMARK H PARENT 9 12 9 13 19 23
ROOT
ATOM      1  C   UNL     1      45.057 130.910  14.212  1.00  0.00     0.035 A 
ATOM      2  C   UNL     1      46.036 130.465  15.107  1.00  0.00     0.102 A 
ATOM      3  C   UNL     1      45.805 130.573  16.506  1.00  0.00     0.091 A 
ATOM      4  C   UNL     1      44.618 131.190  16.969  1.00  0.00     0.153 A 
ATOM      5  C   UNL     1      43.680 131.673  16.044  1.00  0.00     0.040 A 
ATOM      6  C   UNL     1      43.879 131.509  14.670  1.00  0.00    -0.046 A 
ATOM      7  C   UNL     1      42.871 132.040  13.693  1.00  0.00     0.044 C 
ENDROOT
BRANCH   2   8
ATOM      8  N   UNL     1      47.249 129.939  14.546  1.00  0.00    -0.166 NA
BRANCH   8   9
ATOM      9  C   UNL     1      47.761 130.337  13.451  1.00  0.00     0.240 C 
ATOM     10  O   UNL     1      48.260 130.727  12.387  1.00  0.00    -0.211 OA
ENDBRANCH   8   9
ENDBRANCH   2   8
BRANCH   3  11
ATOM     11  N   UNL     1      46.756 130.056  17.448  1.00  0.00    -0.395 N 
ATOM     12  H   UNL     1      46.865 130.480  18.394  1.00  0.00     0.156 HD
ATOM     13  H   UNL     1      47.328 129.211  17.228  1.00  0.00     0.156 HD
ENDBRANCH   3  11
BRANCH   4  14
ATOM     14  N   UNL     1      44.318 131.282  18.372  1.00  0.00    -0.011 N 
ATOM     15  N   UNL     1      43.191 131.804  18.857  1.00  0.00     0.054 NA
ATOM     16  N   UNL     1      45.162 130.924  19.337  1.00  0.00    -0.161 N 
ATOM     17  C   UNL     1      43.333 131.754  20.194  1.00  0.00     0.249 A 
ATOM     18  C   UNL     1      44.546 131.213  20.491  1.00  0.00     0.198 A 
ATOM     19  C   UNL     1      42.446 132.168  21.183  1.00  0.00     0.064 A 
ATOM     20  C   UNL     1      44.984 131.036  21.798  1.00  0.00     0.058 A 
ATOM     21  C   UNL     1      42.851 132.006  22.523  1.00  0.00     0.005 A 
ATOM     22  C   UNL     1      44.114 131.442  22.830  1.00  0.00     0.005 A 
ATOM     23  H   UNL     1      46.107 130.499  19.206  1.00  0.00     0.340 HD
ENDBRANCH   4  14
TORSDOF 4
ENDMDL
MODEL 8
REMARK VINA RESULT:      -5.9      1.595      2.919
REMARK SMILES Cc1cc(N=C=O)c(N)c(-n2nc3ccccc3[nH+]2)c1
REMARK SMILES IDX 3 1 4 2 8 3 10 4 20 5 2 6 1 7 5 8 6 9 7 10 9 11 11 14 12 15
REMARK SMILES IDX 19 16 13 17 18 18 14 19 17 20 15 21 16 22
REMARK H PARENT 9 12 9 13 19 23
ROOT
ATOM      1  C   UNL     1      44.137 130.133  22.224  1.00  0.00     0.035 A 
ATOM      2  C   UNL     1      43.690 131.235  21.488  1.00  0.00     0.102 A 
ATOM      3  C   UNL     1      44.134 131.410  20.149  1.00  0.00     0.091 A 
ATOM      4  C   UNL     1      45.074 130.500  19.605  1.00  0.00     0.153 A 
ATOM      5  C   UNL     1      45.543 129.434  20.388  1.00  0.00     0.040 A 
ATOM      6  C   UNL     1      45.056 129.228  21.682  1.00  0.00    -0.046 A 
ATOM      7  C   UNL     1      45.573 128.089  22.510  1.00  0.00     0.044 C 
ENDROOT
BRANCH   2   8
ATOM      8  N   UNL     1      42.811 132.157  22.153  1.00  0.00    -0.166 NA
BRANCH   8   9
ATOM      9  C   UNL     1      42.510 132.092  23.388  1.00  0.00     0.240 C 
ATOM     10  O   UNL     1      42.217 132.031  24.590  1.00  0.00    -0.211 OA
ENDBRANCH   8   9
ENDBRANCH   2   8
BRANCH   3  11
ATOM     11  N   UNL     1      43.635 132.487  19.344  1.00  0.00    -0.395 N 
ATOM     12  H   UNL     1      42.896 132.328  18.625  1.00  0.00     0.156 HD
ATOM     13  H   UNL     1      43.962 133.467  19.492  1.00  0.00     0.156 HD
ENDBRANCH   3  11
BRANCH   4  14
ATOM     14  N   UNL     1      45.520 130.607  18.242  1.00  0.00    -0.011 N 
ATOM     15  N   UNL     1      45.207 131.624  17.437  1.00  0.00     0.054 NA
ATOM     16  N   UNL     1      46.229 129.670  17.616  1.00  0.00    -0.161 N 
ATOM     17  C   UNL     1      45.765 131.312  16.253  1.00  0.00     0.249 A 
ATOM     18  C   UNL     1      46.394 130.109  16.362  1.00  0.00     0.198 A 
ATOM     19  C   UNL     1      45.747 132.031  15.063  1.00  0.00     0.064 A 
ATOM     20  C   UNL     1      47.061 129.517  15.296  1.00  0.00     0.058 A 
ATOM     21  C   UNL     1      46.413 131.467  13.956  1.00  0.00     0.005 A 
ATOM     22  C   UNL     1      47.067 130.216  14.072  1.00  0.00     0.005 A 
ATOM     23  H   UNL     1      46.584 128.781  18.035  1.00  0.00     0.340 HD
ENDBRANCH   4  14
TORSDOF 4
ENDMDL


