MODEL 1
REMARK VINA RESULT:      -8.3      0.000      0.000
REMARK SMILES Cc1ccc(-c2ccc([O-])cc2)c2cn(C(=O)OCc3ccccc3F)nc12
REMARK SMILES IDX 16 1 17 2 15 3 2 4 3 5 28 6 4 7 27 8 13 9 5 10 14 11 1 12
REMARK SMILES IDX 6 13 7 14 12 15 8 16 11 17 9 18 10 19 18 20 19 21 20 22
REMARK SMILES IDX 21 23 25 24 22 25 24 26 23 27 26 28
REMARK H PARENT
ROOT
ATOM      1  C   UNL     1      45.397 131.043  19.121  1.00  0.00     0.435 C 
ATOM      2  O   UNL     1      45.173 132.261  18.883  1.00  0.00    -0.222 OA
ENDROOT
BRANCH   1   3
ATOM      3  N   UNL     1      45.076 130.499  20.404  1.00  0.00    -0.172 N 
ATOM      4  C   UNL     1      43.829 130.633  23.679  1.00  0.00    -0.023 A 
ATOM      5  C   UNL     1      43.816 129.587  24.625  1.00  0.00     0.006 A 
ATOM      6  C   UNL     1      44.360 130.352  22.417  1.00  0.00     0.096 A 
ATOM      7  C   UNL     1      44.343 128.317  24.303  1.00  0.00     0.010 A 
ATOM      8  N   UNL     1      44.488 131.192  21.374  1.00  0.00    -0.162 NA
ATOM      9  C   UNL     1      44.866 129.117  22.102  1.00  0.00     0.029 A 
ATOM     10  C   UNL     1      44.878 128.056  23.021  1.00  0.00    -0.007 A 
ATOM     11  C   UNL     1      45.329 129.234  20.809  1.00  0.00     0.131 A 
ATOM     12  C   UNL     1      43.252 131.981  23.997  1.00  0.00     0.047 C 
BRANCH  10  13
ATOM     13  C   UNL     1      45.417 126.720  22.681  1.00  0.00    -0.018 A 
ATOM     14  C   UNL     1      46.786 126.557  22.409  1.00  0.00     0.008 A 
ATOM     15  C   UNL     1      44.575 125.594  22.650  1.00  0.00     0.008 A 
ATOM     16  C   UNL     1      47.299 125.295  22.094  1.00  0.00    -0.008 A 
ATOM     17  C   UNL     1      45.091 124.333  22.335  1.00  0.00    -0.008 A 
ATOM     18  C   UNL     1      46.452 124.184  22.056  1.00  0.00    -0.109 A 
ATOM     19  O   UNL     1      46.964 122.930  21.743  1.00  0.00    -0.872 OA
ENDBRANCH  10  13
ENDBRANCH   1   3
BRANCH   1  20
ATOM     20  O   UNL     1      45.957 130.221  18.139  1.00  0.00    -0.443 OA
BRANCH  20  21
ATOM     21  C   UNL     1      45.241 129.804  16.982  1.00  0.00     0.274 C 
BRANCH  21  22
ATOM     22  C   UNL     1      46.040 130.147  15.758  1.00  0.00     0.025 A 
ATOM     23  C   UNL     1      46.727 129.139  15.059  1.00  0.00     0.010 A 
ATOM     24  C   UNL     1      46.164 131.484  15.338  1.00  0.00     0.129 A 
ATOM     25  C   UNL     1      47.501 129.460  13.939  1.00  0.00     0.001 A 
ATOM     26  C   UNL     1      46.941 131.798  14.217  1.00  0.00     0.039 A 
ATOM     27  C   UNL     1      47.606 130.789  13.518  1.00  0.00     0.003 A 
ATOM     28  F   UNL     1      45.538 132.481  16.013  1.00  0.00    -0.207 F 
ENDBRANCH  21  22
ENDBRANCH  20  21
ENDBRANCH   1  20
TORSDOF 5
ENDMDL
MODEL 2
REMARK VINA RESULT:      -7.4      0.868      1.556
REMARK SMILES Cc1ccc(-c2ccc([O-])cc2)c2cn(C(=O)OCc3ccccc3F)nc12
REMARK SMILES IDX 16 1 17 2 15 3 2 4 3 5 28 6 4 7 27 8 13 9 5 10 14 11 1 12
REMARK SMILES IDX 6 13 7 14 12 15 8 16 11 17 9 18 10 19 18 20 19 21 20 22
REMARK SMILES IDX 21 23 25 24 22 25 24 26 23 27 26 28
REMARK H PARENT
ROOT
ATOM      1  C   UNL     1      45.304 131.146  19.104  1.00  0.00     0.435 C 
ATOM      2  O   UNL     1      45.304 132.397  18.939  1.00  0.00    -0.222 OA
ENDROOT
BRANCH   1   3
ATOM      3  N   UNL     1      44.988 130.597  20.386  1.00  0.00    -0.172 N 
ATOM      4  C   UNL     1      43.755 130.719  23.666  1.00  0.00    -0.023 A 
ATOM      5  C   UNL     1      43.745 129.669  24.608  1.00  0.00     0.006 A 
ATOM      6  C   UNL     1      44.280 130.443  22.402  1.00  0.00     0.096 A 
ATOM      7  C   UNL     1      44.270 128.400  24.279  1.00  0.00     0.010 A 
ATOM      8  N   UNL     1      44.405 131.286  21.361  1.00  0.00    -0.162 NA
ATOM      9  C   UNL     1      44.784 129.208  22.079  1.00  0.00     0.029 A 
ATOM     10  C   UNL     1      44.799 128.144  22.994  1.00  0.00    -0.007 A 
ATOM     11  C   UNL     1      45.242 129.330  20.785  1.00  0.00     0.131 A 
ATOM     12  C   UNL     1      43.181 132.066  23.992  1.00  0.00     0.047 C 
BRANCH  10  13
ATOM     13  C   UNL     1      45.335 126.808  22.646  1.00  0.00    -0.018 A 
ATOM     14  C   UNL     1      44.467 125.710  22.512  1.00  0.00     0.008 A 
ATOM     15  C   UNL     1      46.711 126.623  22.423  1.00  0.00     0.008 A 
ATOM     16  C   UNL     1      44.969 124.449  22.179  1.00  0.00    -0.008 A 
ATOM     17  C   UNL     1      47.210 125.361  22.089  1.00  0.00    -0.008 A 
ATOM     18  C   UNL     1      46.340 124.273  21.968  1.00  0.00    -0.109 A 
ATOM     19  O   UNL     1      46.837 123.019  21.636  1.00  0.00    -0.872 OA
ENDBRANCH  10  13
ENDBRANCH   1   3
BRANCH   1  20
ATOM     20  O   UNL     1      45.612 130.293  18.040  1.00  0.00    -0.443 OA
BRANCH  20  21
ATOM     21  C   UNL     1      44.886 130.294  16.816  1.00  0.00     0.274 C 
BRANCH  21  22
ATOM     22  C   UNL     1      45.840 130.520  15.678  1.00  0.00     0.025 A 
ATOM     23  C   UNL     1      46.148 131.828  15.265  1.00  0.00     0.010 A 
ATOM     24  C   UNL     1      46.382 129.430  14.973  1.00  0.00     0.129 A 
ATOM     25  C   UNL     1      47.007 132.042  14.183  1.00  0.00     0.001 A 
ATOM     26  C   UNL     1      47.241 129.651  13.890  1.00  0.00     0.039 A 
ATOM     27  C   UNL     1      47.555 130.954  13.498  1.00  0.00     0.003 A 
ATOM     28  F   UNL     1      46.076 128.157  15.329  1.00  0.00    -0.207 F 
ENDBRANCH  21  22
ENDBRANCH  20  21
ENDBRANCH   1  20
TORSDOF 5
ENDMDL
MODEL 3
REMARK VINA RESULT:      -6.9      1.134      1.394
REMARK SMILES Cc1ccc(-c2ccc([O-])cc2)c2cn(C(=O)OCc3ccccc3F)nc12
REMARK SMILES IDX 16 1 17 2 15 3 2 4 3 5 28 6 4 7 27 8 13 9 5 10 14 11 1 12
REMARK SMILES IDX 6 13 7 14 12 15 8 16 11 17 9 18 10 19 18 20 19 21 20 22
REMARK SMILES IDX 21 23 25 24 22 25 24 26 23 27 26 28
REMARK H PARENT
ROOT
ATOM      1  C   UNL     1      45.373 131.044  19.239  1.00  0.00     0.435 C 
ATOM      2  O   UNL     1      46.553 130.753  18.901  1.00  0.00    -0.222 OA
ENDROOT
BRANCH   1   3
ATOM      3  N   UNL     1      44.877 130.635  20.516  1.00  0.00    -0.172 N 
ATOM      4  C   UNL     1      42.983 131.002  23.444  1.00  0.00    -0.023 A 
ATOM      5  C   UNL     1      42.926 130.110  24.535  1.00  0.00     0.006 A 
ATOM      6  C   UNL     1      43.794 130.645  22.364  1.00  0.00     0.096 A 
ATOM      7  C   UNL     1      43.683 128.917  24.531  1.00  0.00     0.010 A 
ATOM      8  N   UNL     1      44.011 131.343  21.234  1.00  0.00    -0.162 NA
ATOM      9  C   UNL     1      44.524 129.484  22.357  1.00  0.00     0.029 A 
ATOM     10  C   UNL     1      44.499 128.578  23.428  1.00  0.00    -0.007 A 
ATOM     11  C   UNL     1      45.220 129.500  21.167  1.00  0.00     0.131 A 
ATOM     12  C   UNL     1      42.168 132.261  23.422  1.00  0.00     0.047 C 
BRANCH  10  13
ATOM     13  C   UNL     1      45.280 127.320  23.421  1.00  0.00    -0.018 A 
ATOM     14  C   UNL     1      45.774 126.787  24.625  1.00  0.00     0.008 A 
ATOM     15  C   UNL     1      45.518 126.631  22.219  1.00  0.00     0.008 A 
ATOM     16  C   UNL     1      46.507 125.596  24.622  1.00  0.00    -0.008 A 
ATOM     17  C   UNL     1      46.251 125.440  22.220  1.00  0.00    -0.008 A 
ATOM     18  C   UNL     1      46.747 124.923  23.420  1.00  0.00    -0.109 A 
ATOM     19  O   UNL     1      47.475 123.740  23.420  1.00  0.00    -0.872 OA
ENDBRANCH  10  13
ENDBRANCH   1   3
BRANCH   1  20
ATOM     20  O   UNL     1      44.547 131.766  18.372  1.00  0.00    -0.443 OA
BRANCH  20  21
ATOM     21  C   UNL     1      43.906 131.176  17.247  1.00  0.00     0.274 C 
BRANCH  21  22
ATOM     22  C   UNL     1      44.935 130.873  16.196  1.00  0.00     0.025 A 
ATOM     23  C   UNL     1      45.068 129.567  15.694  1.00  0.00     0.010 A 
ATOM     24  C   UNL     1      45.818 131.875  15.752  1.00  0.00     0.129 A 
ATOM     25  C   UNL     1      46.049 129.274  14.742  1.00  0.00     0.001 A 
ATOM     26  C   UNL     1      46.798 131.575  14.799  1.00  0.00     0.039 A 
ATOM     27  C   UNL     1      46.912 130.278  14.294  1.00  0.00     0.003 A 
ATOM     28  F   UNL     1      45.733 133.137  16.243  1.00  0.00    -0.207 F 
ENDBRANCH  21  22
ENDBRANCH  20  21
ENDBRANCH   1  20
TORSDOF 5
ENDMDL
MODEL 4
REMARK VINA RESULT:      -6.4      1.350      1.679
REMARK SMILES Cc1ccc(-c2ccc([O-])cc2)c2cn(C(=O)OCc3ccccc3F)nc12
REMARK SMILES IDX 16 1 17 2 15 3 2 4 3 5 28 6 4 7 27 8 13 9 5 10 14 11 1 12
REMARK SMILES IDX 6 13 7 14 12 15 8 16 11 17 9 18 10 19 18 20 19 21 20 22
REMARK SMILES IDX 21 23 25 24 22 25 24 26 23 27 26 28
REMARK H PARENT
ROOT
ATOM      1  C   UNL     1      44.962 131.167  19.186  1.00  0.00     0.435 C 
ATOM      2  O   UNL     1      44.379 132.156  18.664  1.00  0.00    -0.222 OA
ENDROOT
BRANCH   1   3
ATOM      3  N   UNL     1      44.575 130.719  20.488  1.00  0.00    -0.172 N 
ATOM      4  C   UNL     1      42.832 130.937  23.523  1.00  0.00    -0.023 A 
ATOM      5  C   UNL     1      42.908 130.042  24.611  1.00  0.00     0.006 A 
ATOM      6  C   UNL     1      43.604 130.645  22.396  1.00  0.00     0.096 A 
ATOM      7  C   UNL     1      43.753 128.911  24.557  1.00  0.00     0.010 A 
ATOM      8  N   UNL     1      43.700 131.358  21.259  1.00  0.00    -0.162 NA
ATOM      9  C   UNL     1      44.420 129.543  22.341  1.00  0.00     0.029 A 
ATOM     10  C   UNL     1      44.527 128.637  23.407  1.00  0.00    -0.007 A 
ATOM     11  C   UNL     1      45.041 129.614  21.112  1.00  0.00     0.131 A 
ATOM     12  C   UNL     1      41.922 132.129  23.555  1.00  0.00     0.047 C 
BRANCH  10  13
ATOM     13  C   UNL     1      45.401 127.444  23.347  1.00  0.00    -0.018 A 
ATOM     14  C   UNL     1      45.760 126.890  22.106  1.00  0.00     0.008 A 
ATOM     15  C   UNL     1      45.902 126.863  24.526  1.00  0.00     0.008 A 
ATOM     16  C   UNL     1      46.590 125.767  22.046  1.00  0.00    -0.008 A 
ATOM     17  C   UNL     1      46.732 125.740  24.463  1.00  0.00    -0.008 A 
ATOM     18  C   UNL     1      47.075 125.190  23.224  1.00  0.00    -0.109 A 
ATOM     19  O   UNL     1      47.900 124.074  23.163  1.00  0.00    -0.872 OA
ENDBRANCH  10  13
ENDBRANCH   1   3
BRANCH   1  20
ATOM     20  O   UNL     1      45.984 130.505  18.500  1.00  0.00    -0.443 OA
BRANCH  20  21
ATOM     21  C   UNL     1      45.733 129.501  17.523  1.00  0.00     0.274 C 
BRANCH  21  22
ATOM     22  C   UNL     1      45.758 130.126  16.157  1.00  0.00     0.025 A 
ATOM     23  C   UNL     1      44.614 130.769  15.654  1.00  0.00     0.010 A 
ATOM     24  C   UNL     1      46.900 130.018  15.343  1.00  0.00     0.129 A 
ATOM     25  C   UNL     1      44.622 131.320  14.370  1.00  0.00     0.001 A 
ATOM     26  C   UNL     1      46.902 130.571  14.058  1.00  0.00     0.039 A 
ATOM     27  C   UNL     1      45.766 131.223  13.573  1.00  0.00     0.003 A 
ATOM     28  F   UNL     1      48.009 129.375  15.791  1.00  0.00    -0.207 F 
ENDBRANCH  21  22
ENDBRANCH  20  21
ENDBRANCH   1  20
TORSDOF 5
ENDMDL
MODEL 5
REMARK VINA RESULT:      -6.3      0.981      1.198
REMARK SMILES Cc1ccc(-c2ccc([O-])cc2)c2cn(C(=O)OCc3ccccc3F)nc12
REMARK SMILES IDX 16 1 17 2 15 3 2 4 3 5 28 6 4 7 27 8 13 9 5 10 14 11 1 12
REMARK SMILES IDX 6 13 7 14 12 15 8 16 11 17 9 18 10 19 18 20 19 21 20 22
REMARK SMILES IDX 21 23 25 24 22 25 24 26 23 27 26 28
REMARK H PARENT
ROOT
ATOM      1  C   UNL     1      45.413 130.890  18.974  1.00  0.00     0.435 C 
ATOM      2  O   UNL     1      44.964 132.002  18.583  1.00  0.00    -0.222 OA
ENDROOT
BRANCH   1   3
ATOM      3  N   UNL     1      45.111 130.425  20.293  1.00  0.00    -0.172 N 
ATOM      4  C   UNL     1      44.010 130.782  23.602  1.00  0.00    -0.023 A 
ATOM      5  C   UNL     1      43.971 129.782  24.596  1.00  0.00     0.006 A 
ATOM      6  C   UNL     1      44.470 130.412  22.336  1.00  0.00     0.096 A 
ATOM      7  C   UNL     1      44.405 128.468  24.313  1.00  0.00     0.010 A 
ATOM      8  N   UNL     1      44.607 131.195  21.251  1.00  0.00    -0.162 NA
ATOM      9  C   UNL     1      44.886 129.134  22.060  1.00  0.00     0.029 A 
ATOM     10  C   UNL     1      44.869 128.117  23.026  1.00  0.00    -0.007 A 
ATOM     11  C   UNL     1      45.302 129.165  20.746  1.00  0.00     0.131 A 
ATOM     12  C   UNL     1      43.532 132.177  23.879  1.00  0.00     0.047 C 
BRANCH  10  13
ATOM     13  C   UNL     1      45.310 126.735  22.728  1.00  0.00    -0.018 A 
ATOM     14  C   UNL     1      46.645 126.479  22.371  1.00  0.00     0.008 A 
ATOM     15  C   UNL     1      44.409 125.659  22.822  1.00  0.00     0.008 A 
ATOM     16  C   UNL     1      47.066 125.174  22.096  1.00  0.00    -0.008 A 
ATOM     17  C   UNL     1      44.832 124.356  22.546  1.00  0.00    -0.008 A 
ATOM     18  C   UNL     1      46.160 124.113  22.182  1.00  0.00    -0.109 A 
ATOM     19  O   UNL     1      46.580 122.817  21.908  1.00  0.00    -0.872 OA
ENDBRANCH  10  13
ENDBRANCH   1   3
BRANCH   1  20
ATOM     20  O   UNL     1      46.203 130.109  18.126  1.00  0.00    -0.443 OA
BRANCH  20  21
ATOM     21  C   UNL     1      45.657 129.305  17.086  1.00  0.00     0.274 C 
BRANCH  21  22
ATOM     22  C   UNL     1      45.846 130.006  15.771  1.00  0.00     0.025 A 
ATOM     23  C   UNL     1      44.741 130.563  15.104  1.00  0.00     0.010 A 
ATOM     24  C   UNL     1      47.113 130.054  15.164  1.00  0.00     0.129 A 
ATOM     25  C   UNL     1      44.907 131.184  13.862  1.00  0.00     0.001 A 
ATOM     26  C   UNL     1      47.273 130.678  13.921  1.00  0.00     0.039 A 
ATOM     27  C   UNL     1      46.173 131.243  13.273  1.00  0.00     0.003 A 
ATOM     28  F   UNL     1      48.192 129.497  15.770  1.00  0.00    -0.207 F 
ENDBRANCH  21  22
ENDBRANCH  20  21
ENDBRANCH   1  20
TORSDOF 5
ENDMDL
MODEL 6
REMARK VINA RESULT:      -6.1      1.391      1.836
REMARK SMILES Cc1ccc(-c2ccc([O-])cc2)c2cn(C(=O)OCc3ccccc3F)nc12
REMARK SMILES IDX 16 1 17 2 15 3 2 4 3 5 28 6 4 7 27 8 13 9 5 10 14 11 1 12
REMARK SMILES IDX 6 13 7 14 12 15 8 16 11 17 9 18 10 19 18 20 19 21 20 22
REMARK SMILES IDX 21 23 25 24 22 25 24 26 23 27 26 28
REMARK H PARENT
ROOT
ATOM      1  C   UNL     1      45.095 131.771  19.970  1.00  0.00     0.435 C 
ATOM      2  O   UNL     1      46.327 132.034  20.024  1.00  0.00    -0.222 OA
ENDROOT
BRANCH   1   3
ATOM      3  N   UNL     1      44.471 131.063  21.045  1.00  0.00    -0.172 N 
ATOM      4  C   UNL     1      42.356 130.748  23.824  1.00  0.00    -0.023 A 
ATOM      5  C   UNL     1      42.159 129.596  24.613  1.00  0.00     0.006 A 
ATOM      6  C   UNL     1      43.236 130.644  22.744  1.00  0.00     0.096 A 
ATOM      7  C   UNL     1      42.849 128.398  24.325  1.00  0.00     0.010 A 
ATOM      8  N   UNL     1      43.586 131.608  21.873  1.00  0.00    -0.162 NA
ATOM      9  C   UNL     1      43.901 129.478  22.460  1.00  0.00     0.029 A 
ATOM     10  C   UNL     1      43.737 128.317  23.229  1.00  0.00    -0.007 A 
ATOM     11  C   UNL     1      44.696 129.770  21.372  1.00  0.00     0.131 A 
ATOM     12  C   UNL     1      41.614 132.022  24.102  1.00  0.00     0.047 C 
BRANCH  10  13
ATOM     13  C   UNL     1      44.447 127.055  22.920  1.00  0.00    -0.018 A 
ATOM     14  C   UNL     1      45.763 127.086  22.426  1.00  0.00     0.008 A 
ATOM     15  C   UNL     1      43.828 125.811  23.139  1.00  0.00     0.008 A 
ATOM     16  C   UNL     1      46.439 125.896  22.140  1.00  0.00    -0.008 A 
ATOM     17  C   UNL     1      44.507 124.623  22.852  1.00  0.00    -0.008 A 
ATOM     18  C   UNL     1      45.811 124.665  22.351  1.00  0.00    -0.109 A 
ATOM     19  O   UNL     1      46.485 123.483  22.066  1.00  0.00    -0.872 OA
ENDBRANCH  10  13
ENDBRANCH   1   3
BRANCH   1  20
ATOM     20  O   UNL     1      44.334 132.169  18.866  1.00  0.00    -0.443 OA
BRANCH  20  21
ATOM     21  C   UNL     1      43.632 131.247  18.041  1.00  0.00     0.274 C 
BRANCH  21  22
ATOM     22  C   UNL     1      44.411 131.026  16.776  1.00  0.00     0.025 A 
ATOM     23  C   UNL     1      43.892 131.458  15.543  1.00  0.00     0.010 A 
ATOM     24  C   UNL     1      45.632 130.328  16.802  1.00  0.00     0.129 A 
ATOM     25  C   UNL     1      44.597 131.222  14.359  1.00  0.00     0.001 A 
ATOM     26  C   UNL     1      46.333 130.094  15.614  1.00  0.00     0.039 A 
ATOM     27  C   UNL     1      45.818 130.542  14.395  1.00  0.00     0.003 A 
ATOM     28  F   UNL     1      46.141 129.871  17.974  1.00  0.00    -0.207 F 
ENDBRANCH  21  22
ENDBRANCH  20  21
ENDBRANCH   1  20
TORSDOF 5
ENDMDL
MODEL 7
REMARK VINA RESULT:      -5.5      1.813      2.781
REMARK SMILES Cc1ccc(-c2ccc([O-])cc2)c2cn(C(=O)OCc3ccccc3F)nc12
REMARK SMILES IDX 16 1 17 2 15 3 2 4 3 5 28 6 4 7 27 8 13 9 5 10 14 11 1 12
REMARK SMILES IDX 6 13 7 14 12 15 8 16 11 17 9 18 10 19 18 20 19 21 20 22
REMARK SMILES IDX 21 23 25 24 22 25 24 26 23 27 26 28
REMARK H PARENT
ROOT
ATOM      1  C   UNL     1      45.036 131.171  21.769  1.00  0.00     0.435 C 
ATOM      2  O   UNL     1      45.179 132.169  22.527  1.00  0.00    -0.222 OA
ENDROOT
BRANCH   1   3
ATOM      3  N   UNL     1      44.522 129.945  22.296  1.00  0.00    -0.172 N 
ATOM      4  C   UNL     1      42.168 127.960  23.975  1.00  0.00    -0.023 A 
ATOM      5  C   UNL     1      42.264 126.580  24.248  1.00  0.00     0.006 A 
ATOM      6  C   UNL     1      43.221 128.550  23.270  1.00  0.00     0.096 A 
ATOM      7  C   UNL     1      43.396 125.840  23.840  1.00  0.00     0.010 A 
ATOM      8  N   UNL     1      43.350 129.841  22.915  1.00  0.00    -0.162 NA
ATOM      9  C   UNL     1      44.317 127.830  22.868  1.00  0.00     0.029 A 
ATOM     10  C   UNL     1      44.450 126.459  23.130  1.00  0.00    -0.007 A 
ATOM     11  C   UNL     1      45.145 128.745  22.252  1.00  0.00     0.131 A 
ATOM     12  C   UNL     1      40.963 128.755  24.381  1.00  0.00     0.047 C 
BRANCH  10  13
ATOM     13  C   UNL     1      45.628 125.678  22.690  1.00  0.00    -0.018 A 
ATOM     14  C   UNL     1      45.466 124.377  22.183  1.00  0.00     0.008 A 
ATOM     15  C   UNL     1      46.919 126.232  22.751  1.00  0.00     0.008 A 
ATOM     16  C   UNL     1      46.577 123.639  21.761  1.00  0.00    -0.008 A 
ATOM     17  C   UNL     1      48.027 125.492  22.329  1.00  0.00    -0.008 A 
ATOM     18  C   UNL     1      47.857 124.196  21.835  1.00  0.00    -0.109 A 
ATOM     19  O   UNL     1      48.959 123.461  21.415  1.00  0.00    -0.872 OA
ENDBRANCH  10  13
ENDBRANCH   1   3
BRANCH   1  20
ATOM     20  O   UNL     1      45.377 131.255  20.416  1.00  0.00    -0.443 OA
BRANCH  20  21
ATOM     21  C   UNL     1      44.409 131.404  19.384  1.00  0.00     0.274 C 
BRANCH  21  22
ATOM     22  C   UNL     1      45.081 131.243  18.051  1.00  0.00     0.025 A 
ATOM     23  C   UNL     1      44.923 132.225  17.058  1.00  0.00     0.010 A 
ATOM     24  C   UNL     1      45.817 130.080  17.758  1.00  0.00     0.129 A 
ATOM     25  C   UNL     1      45.518 132.061  15.803  1.00  0.00     0.001 A 
ATOM     26  C   UNL     1      46.409 129.922  16.500  1.00  0.00     0.039 A 
ATOM     27  C   UNL     1      46.262 130.911  15.526  1.00  0.00     0.003 A 
ATOM     28  F   UNL     1      45.959 129.101  18.687  1.00  0.00    -0.207 F 
ENDBRANCH  21  22
ENDBRANCH  20  21
ENDBRANCH   1  20
TORSDOF 5
ENDMDL
MODEL 8
REMARK VINA RESULT:      -5.5      3.592      5.663
REMARK SMILES Cc1ccc(-c2ccc([O-])cc2)c2cn(C(=O)OCc3ccccc3F)nc12
REMARK SMILES IDX 16 1 17 2 15 3 2 4 3 5 28 6 4 7 27 8 13 9 5 10 14 11 1 12
REMARK SMILES IDX 6 13 7 14 12 15 8 16 11 17 9 18 10 19 18 20 19 21 20 22
REMARK SMILES IDX 21 23 25 24 22 25 24 26 23 27 26 28
REMARK H PARENT
ROOT
ATOM      1  C   UNL     1      44.817 131.427  18.281  1.00  0.00     0.435 C 
ATOM      2  O   UNL     1      43.756 131.744  17.676  1.00  0.00    -0.222 OA
ENDROOT
BRANCH   1   3
ATOM      3  N   UNL     1      44.947 131.704  19.678  1.00  0.00    -0.172 N 
ATOM      4  C   UNL     1      44.024 131.468  23.053  1.00  0.00    -0.023 A 
ATOM      5  C   UNL     1      44.641 132.109  24.147  1.00  0.00     0.006 A 
ATOM      6  C   UNL     1      44.573 131.688  21.787  1.00  0.00     0.096 A 
ATOM      7  C   UNL     1      45.755 132.955  23.954  1.00  0.00     0.010 A 
ATOM      8  N   UNL     1      44.145 131.199  20.609  1.00  0.00    -0.162 NA
ATOM      9  C   UNL     1      45.659 132.505  21.599  1.00  0.00     0.029 A 
ATOM     10  C   UNL     1      46.292 133.165  22.663  1.00  0.00    -0.007 A 
ATOM     11  C   UNL     1      45.878 132.509  20.238  1.00  0.00     0.131 A 
ATOM     12  C   UNL     1      42.854 130.549  23.244  1.00  0.00     0.047 C 
BRANCH  10  13
ATOM     13  C   UNL     1      47.469 134.041  22.465  1.00  0.00    -0.018 A 
ATOM     14  C   UNL     1      48.633 133.847  23.230  1.00  0.00     0.008 A 
ATOM     15  C   UNL     1      47.450 135.060  21.496  1.00  0.00     0.008 A 
ATOM     16  C   UNL     1      49.748 134.669  23.041  1.00  0.00    -0.008 A 
ATOM     17  C   UNL     1      48.566 135.879  21.309  1.00  0.00    -0.008 A 
ATOM     18  C   UNL     1      49.715 135.685  22.082  1.00  0.00    -0.109 A 
ATOM     19  O   UNL     1      50.825 136.501  21.895  1.00  0.00    -0.872 OA
ENDBRANCH  10  13
ENDBRANCH   1   3
BRANCH   1  20
ATOM     20  O   UNL     1      45.865 130.807  17.595  1.00  0.00    -0.443 OA
BRANCH  20  21
ATOM     21  C   UNL     1      45.658 129.762  16.651  1.00  0.00     0.274 C 
BRANCH  21  22
ATOM     22  C   UNL     1      46.440 130.062  15.405  1.00  0.00     0.025 A 
ATOM     23  C   UNL     1      47.336 129.110  14.888  1.00  0.00     0.010 A 
ATOM     24  C   UNL     1      46.336 131.318  14.781  1.00  0.00     0.129 A 
ATOM     25  C   UNL     1      48.093 129.399  13.748  1.00  0.00     0.001 A 
ATOM     26  C   UNL     1      47.096 131.602  13.641  1.00  0.00     0.039 A 
ATOM     27  C   UNL     1      47.970 130.644  13.124  1.00  0.00     0.003 A 
ATOM     28  F   UNL     1      45.502 132.268  15.277  1.00  0.00    -0.207 F 
ENDBRANCH  21  22
ENDBRANCH  20  21
ENDBRANCH   1  20
TORSDOF 5
ENDMDL
MODEL 9
REMARK VINA RESULT:      -5.3      3.179      7.901
REMARK SMILES Cc1ccc(-c2ccc([O-])cc2)c2cn(C(=O)OCc3ccccc3F)nc12
REMARK SMILES IDX 16 1 17 2 15 3 2 4 3 5 28 6 4 7 27 8 13 9 5 10 14 11 1 12
REMARK SMILES IDX 6 13 7 14 12 15 8 16 11 17 9 18 10 19 18 20 19 21 20 22
REMARK SMILES IDX 21 23 25 24 22 25 24 26 23 27 26 28
REMARK H PARENT
ROOT
ATOM      1  C   UNL     1      45.649 127.421  22.966  1.00  0.00     0.435 C 
ATOM      2  O   UNL     1      46.502 126.871  22.217  1.00  0.00    -0.222 OA
ENDROOT
BRANCH   1   3
ATOM      3  N   UNL     1      44.997 128.621  22.542  1.00  0.00    -0.172 N 
ATOM      4  C   UNL     1      42.963 131.444  22.977  1.00  0.00    -0.023 A 
ATOM      5  C   UNL     1      42.619 132.400  21.998  1.00  0.00     0.006 A 
ATOM      6  C   UNL     1      43.809 130.403  22.587  1.00  0.00     0.096 A 
ATOM      7  C   UNL     1      43.099 132.283  20.675  1.00  0.00     0.010 A 
ATOM      8  N   UNL     1      44.254 129.380  23.340  1.00  0.00    -0.162 NA
ATOM      9  C   UNL     1      44.281 130.293  21.304  1.00  0.00     0.029 A 
ATOM     10  C   UNL     1      43.952 131.220  20.303  1.00  0.00    -0.007 A 
ATOM     11  C   UNL     1      45.034 129.138  21.292  1.00  0.00     0.131 A 
ATOM     12  C   UNL     1      42.481 131.566  24.392  1.00  0.00     0.047 C 
BRANCH  10  13
ATOM     13  C   UNL     1      44.466 131.108  18.919  1.00  0.00    -0.018 A 
ATOM     14  C   UNL     1      45.700 130.483  18.671  1.00  0.00     0.008 A 
ATOM     15  C   UNL     1      43.719 131.602  17.835  1.00  0.00     0.008 A 
ATOM     16  C   UNL     1      46.185 130.370  17.364  1.00  0.00    -0.008 A 
ATOM     17  C   UNL     1      44.206 131.488  16.530  1.00  0.00    -0.008 A 
ATOM     18  C   UNL     1      45.440 130.873  16.294  1.00  0.00    -0.109 A 
ATOM     19  O   UNL     1      45.923 130.760  14.996  1.00  0.00    -0.872 OA
ENDBRANCH  10  13
ENDBRANCH   1   3
BRANCH   1  20
ATOM     20  O   UNL     1      45.335 126.863  24.209  1.00  0.00    -0.443 OA
BRANCH  20  21
ATOM     21  C   UNL     1      45.551 125.490  24.515  1.00  0.00     0.274 C 
BRANCH  21  22
ATOM     22  C   UNL     1      44.321 124.706  24.158  1.00  0.00     0.025 A 
ATOM     23  C   UNL     1      43.061 125.119  24.623  1.00  0.00     0.010 A 
ATOM     24  C   UNL     1      44.424 123.518  23.412  1.00  0.00     0.129 A 
ATOM     25  C   UNL     1      41.918 124.372  24.322  1.00  0.00     0.001 A 
ATOM     26  C   UNL     1      43.276 122.774  23.114  1.00  0.00     0.039 A 
ATOM     27  C   UNL     1      42.026 123.202  23.566  1.00  0.00     0.003 A 
ATOM     28  F   UNL     1      45.632 123.078  22.977  1.00  0.00    -0.207 F 
ENDBRANCH  21  22
ENDBRANCH  20  21
ENDBRANCH   1  20
TORSDOF 5
ENDMDL


