REMARK SMILES C[C@@H]1NN(/C(O)=C/c2ccn[nH+]c2)[C@@H](c2cc3ccc(F)cc3[nH]2)O1
REMARK SMILES IDX 5 1 6 2 7 4 8 5 9 6 13 7 10 8 12 9 11 10 4 12 3 13 14 14
REMARK SMILES IDX 2 15 25 16 1 18 15 19 16 20 24 21 17 22 23 23 18 24 22 25
REMARK SMILES IDX 19 26 20 27 21 29
REMARK H PARENT 6 3 12 11 3 17 24 28
ROOT
ATOM      1  C   UNL     1      -1.200   1.269   0.628  1.00  0.00     0.205 C 
ENDROOT
BRANCH   1   2
ATOM      2  O   UNL     1      -1.666   2.459   1.190  1.00  0.00    -0.494 OA
ATOM      3  H   UNL     1      -1.802   2.568   2.187  1.00  0.00     0.295 HD
ENDBRANCH   1   2
BRANCH   1   4
ATOM      4  C   UNL     1      -1.055   1.181  -0.707  1.00  0.00     0.082 C 
BRANCH   4   5
ATOM      5  C   UNL     1      -1.297   2.303  -1.641  1.00  0.00     0.048 A 
ATOM      6  C   UNL     1      -0.893   3.616  -1.357  1.00  0.00     0.041 A 
ATOM      7  C   UNL     1      -1.879   2.044  -2.888  1.00  0.00     0.343 A 
ATOM      8  C   UNL     1      -1.119   4.619  -2.296  1.00  0.00     0.185 A 
ATOM      9  N   UNL     1      -2.078   3.061  -3.768  1.00  0.00    -0.106 N 
ATOM     10  N   UNL     1      -1.710   4.310  -3.478  1.00  0.00    -0.011 NA
ATOM     11  H   UNL     1      -2.524   2.862  -4.691  1.00  0.00     0.490 HD
ENDBRANCH   4   5
ENDBRANCH   1   4
BRANCH   1  12
ATOM     12  N   UNL     1      -0.912   0.144   1.490  1.00  0.00    -0.242 N 
ATOM     13  N   UNL     1      -1.201   0.171   2.850  1.00  0.00    -0.201 NA
ATOM     14  C   UNL     1      -0.393  -1.141   1.079  1.00  0.00     0.283 C 
ATOM     15  C   UNL     1      -0.922  -1.199   3.286  1.00  0.00     0.204 C 
ATOM     16  O   UNL     1      -0.402  -1.966   2.214  1.00  0.00    -0.332 OA
ATOM     17  H   UNL     1      -0.503   0.811   3.297  1.00  0.00     0.151 HD
ATOM     18  C   UNL     1      -2.206  -1.843   3.795  1.00  0.00     0.058 C 
BRANCH  14  19
ATOM     19  C   UNL     1       1.015  -1.007   0.577  1.00  0.00     0.068 A 
ATOM     20  C   UNL     1       1.490  -1.532  -0.623  1.00  0.00     0.036 A 
ATOM     21  N   UNL     1       1.999  -0.369   1.254  1.00  0.00    -0.355 N 
ATOM     22  C   UNL     1       2.820  -1.177  -0.661  1.00  0.00     0.000 A 
ATOM     23  C   UNL     1       3.095  -0.477   0.485  1.00  0.00     0.049 A 
ATOM     24  C   UNL     1       3.797  -1.423  -1.624  1.00  0.00     0.013 A 
ATOM     25  C   UNL     1       4.367   0.027   0.749  1.00  0.00     0.065 A 
ATOM     26  C   UNL     1       5.092  -0.927  -1.386  1.00  0.00     0.040 A 
ATOM     27  C   UNL     1       5.377  -0.205  -0.204  1.00  0.00     0.125 A 
ATOM     28  H   UNL     1       1.922   0.109   2.180  1.00  0.00     0.166 HD
ATOM     29  F   UNL     1       6.629   0.267   0.012  1.00  0.00    -0.207 F 
ENDBRANCH  14  19
ENDBRANCH   1  12
TORSDOF 5


