MODEL 1
REMARK VINA RESULT:     -10.0      0.000      0.000
REMARK SMILES c1cncc(Cc2cc3ccccc3[nH]2)c1
REMARK SMILES IDX 7 1 8 2 9 3 10 4 11 5 12 6 13 7 14 8 15 9 6 11 5 12 1 13
REMARK SMILES IDX 2 14 16 15 3 16 4 17
REMARK H PARENT 15 10
ROOT
ATOM      1  C   UNL     1      44.360 131.510  16.431  1.00  0.00     0.020 A 
ATOM      2  C   UNL     1      45.412 131.221  17.297  1.00  0.00     0.032 A 
ATOM      3  C   UNL     1      44.879 131.365  18.559  1.00  0.00    -0.000 A 
ATOM      4  C   UNL     1      45.461 131.198  19.814  1.00  0.00     0.010 A 
ATOM      5  C   UNL     1      44.651 131.404  20.946  1.00  0.00     0.001 A 
ATOM      6  C   UNL     1      43.293 131.765  20.798  1.00  0.00     0.002 A 
ATOM      7  C   UNL     1      42.733 131.923  19.516  1.00  0.00     0.026 A 
ATOM      8  C   UNL     1      43.561 131.716  18.414  1.00  0.00     0.046 A 
ATOM      9  N   UNL     1      43.229 131.802  17.115  1.00  0.00    -0.358 N 
ATOM     10  H   UNL     1      42.291 132.033  16.718  1.00  0.00     0.166 HD
ENDROOT
BRANCH   1  11
ATOM     11  C   UNL     1      44.425 131.417  14.938  1.00  0.00     0.091 C 
BRANCH  11  12
ATOM     12  C   UNL     1      45.721 130.781  14.519  1.00  0.00    -0.024 A 
ATOM     13  C   UNL     1      47.783 130.837  13.248  1.00  0.00     0.020 A 
ATOM     14  C   UNL     1      48.071 129.545  13.694  1.00  0.00     0.111 A 
ATOM     15  C   UNL     1      46.601 131.453  13.658  1.00  0.00     0.007 A 
ATOM     16  N   UNL     1      47.202 128.899  14.516  1.00  0.00    -0.264 NA
ATOM     17  C   UNL     1      46.044 129.479  14.931  1.00  0.00     0.115 A 
ENDBRANCH  11  12
ENDBRANCH   1  11
TORSDOF 2
ENDMDL
MODEL 2
REMARK VINA RESULT:      -9.6      1.378      5.876
REMARK SMILES c1cncc(Cc2cc3ccccc3[nH]2)c1
REMARK SMILES IDX 7 1 8 2 9 3 10 4 11 5 12 6 13 7 14 8 15 9 6 11 5 12 1 13
REMARK SMILES IDX 2 14 16 15 3 16 4 17
REMARK H PARENT 15 10
ROOT
ATOM      1  C   UNL     1      44.714 131.238  16.160  1.00  0.00     0.020 A 
ATOM      2  C   UNL     1      45.227 129.943  16.116  1.00  0.00     0.032 A 
ATOM      3  C   UNL     1      46.216 129.989  15.158  1.00  0.00    -0.000 A 
ATOM      4  C   UNL     1      47.074 128.994  14.692  1.00  0.00     0.010 A 
ATOM      5  C   UNL     1      48.007 129.345  13.700  1.00  0.00     0.001 A 
ATOM      6  C   UNL     1      48.063 130.667  13.205  1.00  0.00     0.002 A 
ATOM      7  C   UNL     1      47.185 131.651  13.698  1.00  0.00     0.026 A 
ATOM      8  C   UNL     1      46.269 131.273  14.678  1.00  0.00     0.046 A 
ATOM      9  N   UNL     1      45.358 132.049  15.288  1.00  0.00    -0.358 N 
ATOM     10  H   UNL     1      45.192 133.068  15.131  1.00  0.00     0.166 HD
ENDROOT
BRANCH   1  11
ATOM     11  C   UNL     1      43.658 131.713  17.109  1.00  0.00     0.091 C 
BRANCH  11  12
ATOM     12  C   UNL     1      44.131 131.550  18.527  1.00  0.00    -0.024 A 
ATOM     13  C   UNL     1      45.813 130.841  20.120  1.00  0.00     0.020 A 
ATOM     14  C   UNL     1      44.946 131.182  21.160  1.00  0.00     0.111 A 
ATOM     15  C   UNL     1      45.401 131.021  18.799  1.00  0.00     0.007 A 
ATOM     16  N   UNL     1      43.712 131.681  20.881  1.00  0.00    -0.264 NA
ATOM     17  C   UNL     1      43.287 131.867  19.602  1.00  0.00     0.115 A 
ENDBRANCH  11  12
ENDBRANCH   1  11
TORSDOF 2
ENDMDL
MODEL 3
REMARK VINA RESULT:      -9.5      1.398      5.969
REMARK SMILES c1cncc(Cc2cc3ccccc3[nH]2)c1
REMARK SMILES IDX 7 1 8 2 9 3 10 4 11 5 12 6 13 7 14 8 15 9 6 11 5 12 1 13
REMARK SMILES IDX 2 14 16 15 3 16 4 17
REMARK H PARENT 15 10
ROOT
ATOM      1  C   UNL     1      44.851 131.228  16.310  1.00  0.00     0.020 A 
ATOM      2  C   UNL     1      45.460 132.088  15.400  1.00  0.00     0.032 A 
ATOM      3  C   UNL     1      46.372 131.303  14.730  1.00  0.00    -0.000 A 
ATOM      4  C   UNL     1      47.262 131.620  13.705  1.00  0.00     0.010 A 
ATOM      5  C   UNL     1      48.075 130.589  13.199  1.00  0.00     0.001 A 
ATOM      6  C   UNL     1      47.978 129.280  13.722  1.00  0.00     0.002 A 
ATOM      7  C   UNL     1      47.067 128.990  14.755  1.00  0.00     0.026 A 
ATOM      8  C   UNL     1      46.278 130.033  15.238  1.00  0.00     0.046 A 
ATOM      9  N   UNL     1      45.346 129.972  16.203  1.00  0.00    -0.358 N 
ATOM     10  H   UNL     1      45.054 129.129  16.746  1.00  0.00     0.166 HD
ENDROOT
BRANCH   1  11
ATOM     11  C   UNL     1      43.726 131.600  17.226  1.00  0.00     0.091 C 
BRANCH  11  12
ATOM     12  C   UNL     1      44.179 131.512  18.657  1.00  0.00    -0.024 A 
ATOM     13  C   UNL     1      45.844 130.900  20.308  1.00  0.00     0.020 A 
ATOM     14  C   UNL     1      44.956 131.280  21.317  1.00  0.00     0.111 A 
ATOM     15  C   UNL     1      45.450 131.011  18.974  1.00  0.00     0.007 A 
ATOM     16  N   UNL     1      43.721 131.750  20.996  1.00  0.00    -0.264 NA
ATOM     17  C   UNL     1      43.315 131.869  19.703  1.00  0.00     0.115 A 
ENDBRANCH  11  12
ENDBRANCH   1  11
TORSDOF 2
ENDMDL
MODEL 4
REMARK VINA RESULT:      -9.4      0.727      1.487
REMARK SMILES c1cncc(Cc2cc3ccccc3[nH]2)c1
REMARK SMILES IDX 7 1 8 2 9 3 10 4 11 5 12 6 13 7 14 8 15 9 6 11 5 12 1 13
REMARK SMILES IDX 2 14 16 15 3 16 4 17
REMARK H PARENT 15 10
ROOT
ATOM      1  C   UNL     1      44.398 131.401  16.643  1.00  0.00     0.020 A 
ATOM      2  C   UNL     1      43.296 131.761  17.416  1.00  0.00     0.032 A 
ATOM      3  C   UNL     1      43.719 131.621  18.719  1.00  0.00    -0.000 A 
ATOM      4  C   UNL     1      43.048 131.845  19.920  1.00  0.00     0.010 A 
ATOM      5  C   UNL     1      43.754 131.625  21.117  1.00  0.00     0.001 A 
ATOM      6  C   UNL     1      45.100 131.194  21.085  1.00  0.00     0.002 A 
ATOM      7  C   UNL     1      45.751 130.979  19.856  1.00  0.00     0.026 A 
ATOM      8  C   UNL     1      45.025 131.201  18.687  1.00  0.00     0.046 A 
ATOM      9  N   UNL     1      45.454 131.068  17.421  1.00  0.00    -0.358 N 
ATOM     10  H   UNL     1      46.408 130.783  17.105  1.00  0.00     0.166 HD
ENDROOT
BRANCH   1  11
ATOM     11  C   UNL     1      44.457 131.462  15.147  1.00  0.00     0.091 C 
BRANCH  11  12
ATOM     12  C   UNL     1      45.727 130.825  14.658  1.00  0.00    -0.024 A 
ATOM     13  C   UNL     1      47.770 130.922  13.359  1.00  0.00     0.020 A 
ATOM     14  C   UNL     1      48.027 129.592  13.698  1.00  0.00     0.111 A 
ATOM     15  C   UNL     1      46.613 131.537  13.836  1.00  0.00     0.007 A 
ATOM     16  N   UNL     1      47.152 128.908  14.483  1.00  0.00    -0.264 NA
ATOM     17  C   UNL     1      46.018 129.486  14.962  1.00  0.00     0.115 A 
ENDBRANCH  11  12
ENDBRANCH   1  11
TORSDOF 2
ENDMDL
MODEL 5
REMARK VINA RESULT:      -9.3      0.729      1.220
REMARK SMILES c1cncc(Cc2cc3ccccc3[nH]2)c1
REMARK SMILES IDX 7 1 8 2 9 3 10 4 11 5 12 6 13 7 14 8 15 9 6 11 5 12 1 13
REMARK SMILES IDX 2 14 16 15 3 16 4 17
REMARK H PARENT 15 10
ROOT
ATOM      1  C   UNL     1      44.489 131.480  16.256  1.00  0.00     0.020 A 
ATOM      2  C   UNL     1      45.532 131.157  17.122  1.00  0.00     0.032 A 
ATOM      3  C   UNL     1      44.996 131.295  18.384  1.00  0.00    -0.000 A 
ATOM      4  C   UNL     1      45.570 131.098  19.638  1.00  0.00     0.010 A 
ATOM      5  C   UNL     1      44.760 131.306  20.770  1.00  0.00     0.001 A 
ATOM      6  C   UNL     1      43.410 131.698  20.622  1.00  0.00     0.002 A 
ATOM      7  C   UNL     1      42.859 131.886  19.340  1.00  0.00     0.026 A 
ATOM      8  C   UNL     1      43.687 131.676  18.239  1.00  0.00     0.046 A 
ATOM      9  N   UNL     1      43.362 131.787  16.940  1.00  0.00    -0.358 N 
ATOM     10  H   UNL     1      42.431 132.043  16.542  1.00  0.00     0.166 HD
ENDROOT
BRANCH   1  11
ATOM     11  C   UNL     1      44.558 131.406  14.762  1.00  0.00     0.091 C 
BRANCH  11  12
ATOM     12  C   UNL     1      45.851 130.767  14.338  1.00  0.00    -0.024 A 
ATOM     13  C   UNL     1      47.425 128.927  14.435  1.00  0.00     0.020 A 
ATOM     14  C   UNL     1      48.288 129.646  13.606  1.00  0.00     0.111 A 
ATOM     15  C   UNL     1      46.205 129.494  14.807  1.00  0.00     0.007 A 
ATOM     16  N   UNL     1      47.939 130.886  13.171  1.00  0.00    -0.264 NA
ATOM     17  C   UNL     1      46.755 131.459  13.518  1.00  0.00     0.115 A 
ENDBRANCH  11  12
ENDBRANCH   1  11
TORSDOF 2
ENDMDL
MODEL 6
REMARK VINA RESULT:      -9.3      1.377      5.890
REMARK SMILES c1cncc(Cc2cc3ccccc3[nH]2)c1
REMARK SMILES IDX 7 1 8 2 9 3 10 4 11 5 12 6 13 7 14 8 15 9 6 11 5 12 1 13
REMARK SMILES IDX 2 14 16 15 3 16 4 17
REMARK H PARENT 15 10
ROOT
ATOM      1  C   UNL     1      44.651 131.266  16.093  1.00  0.00     0.020 A 
ATOM      2  C   UNL     1      45.151 129.967  16.061  1.00  0.00     0.032 A 
ATOM      3  C   UNL     1      46.164 130.001  15.128  1.00  0.00    -0.000 A 
ATOM      4  C   UNL     1      47.022 128.997  14.684  1.00  0.00     0.010 A 
ATOM      5  C   UNL     1      47.984 129.338  13.715  1.00  0.00     0.001 A 
ATOM      6  C   UNL     1      48.066 130.660  13.222  1.00  0.00     0.002 A 
ATOM      7  C   UNL     1      47.187 131.652  13.694  1.00  0.00     0.026 A 
ATOM      8  C   UNL     1      46.242 131.284  14.650  1.00  0.00     0.046 A 
ATOM      9  N   UNL     1      45.325 132.071  15.237  1.00  0.00    -0.358 N 
ATOM     10  H   UNL     1      45.174 133.091  15.077  1.00  0.00     0.166 HD
ENDROOT
BRANCH   1  11
ATOM     11  C   UNL     1      43.577 131.753  17.016  1.00  0.00     0.091 C 
BRANCH  11  12
ATOM     12  C   UNL     1      44.004 131.565  18.444  1.00  0.00    -0.024 A 
ATOM     13  C   UNL     1      43.530 131.670  20.818  1.00  0.00     0.020 A 
ATOM     14  C   UNL     1      44.848 131.291  21.079  1.00  0.00     0.111 A 
ATOM     15  C   UNL     1      43.109 131.813  19.496  1.00  0.00     0.007 A 
ATOM     16  N   UNL     1      45.709 131.069  20.051  1.00  0.00    -0.264 NA
ATOM     17  C   UNL     1      45.323 131.200  18.753  1.00  0.00     0.115 A 
ENDBRANCH  11  12
ENDBRANCH   1  11
TORSDOF 2
ENDMDL
MODEL 7
REMARK VINA RESULT:      -9.2      1.402      5.975
REMARK SMILES c1cncc(Cc2cc3ccccc3[nH]2)c1
REMARK SMILES IDX 7 1 8 2 9 3 10 4 11 5 12 6 13 7 14 8 15 9 6 11 5 12 1 13
REMARK SMILES IDX 2 14 16 15 3 16 4 17
REMARK H PARENT 15 10
ROOT
ATOM      1  C   UNL     1      44.787 131.249  16.263  1.00  0.00     0.020 A 
ATOM      2  C   UNL     1      45.426 132.103  15.367  1.00  0.00     0.032 A 
ATOM      3  C   UNL     1      46.346 131.309  14.719  1.00  0.00    -0.000 A 
ATOM      4  C   UNL     1      47.263 131.618  13.716  1.00  0.00     0.010 A 
ATOM      5  C   UNL     1      48.079 130.579  13.231  1.00  0.00     0.001 A 
ATOM      6  C   UNL     1      47.958 129.271  13.753  1.00  0.00     0.002 A 
ATOM      7  C   UNL     1      47.020 128.991  14.764  1.00  0.00     0.026 A 
ATOM      8  C   UNL     1      46.229 130.041  15.227  1.00  0.00     0.046 A 
ATOM      9  N   UNL     1      45.273 129.989  16.169  1.00  0.00    -0.358 N 
ATOM     10  H   UNL     1      44.961 129.149  16.706  1.00  0.00     0.166 HD
ENDROOT
BRANCH   1  11
ATOM     11  C   UNL     1      43.644 131.633  17.152  1.00  0.00     0.091 C 
BRANCH  11  12
ATOM     12  C   UNL     1      44.050 131.505  18.593  1.00  0.00    -0.024 A 
ATOM     13  C   UNL     1      43.528 131.672  20.954  1.00  0.00     0.020 A 
ATOM     14  C   UNL     1      44.852 131.343  21.251  1.00  0.00     0.111 A 
ATOM     15  C   UNL     1      43.128 131.758  19.620  1.00  0.00     0.007 A 
ATOM     16  N   UNL     1      45.739 131.115  20.246  1.00  0.00    -0.264 NA
ATOM     17  C   UNL     1      45.373 131.191  18.938  1.00  0.00     0.115 A 
ENDBRANCH  11  12
ENDBRANCH   1  11
TORSDOF 2
ENDMDL
MODEL 8
REMARK VINA RESULT:      -8.7      1.178      2.110
REMARK SMILES c1cncc(Cc2cc3ccccc3[nH]2)c1
REMARK SMILES IDX 7 1 8 2 9 3 10 4 11 5 12 6 13 7 14 8 15 9 6 11 5 12 1 13
REMARK SMILES IDX 2 14 16 15 3 16 4 17
REMARK H PARENT 15 10
ROOT
ATOM      1  C   UNL     1      43.943 131.592  17.346  1.00  0.00     0.020 A 
ATOM      2  C   UNL     1      42.862 131.796  18.200  1.00  0.00     0.032 A 
ATOM      3  C   UNL     1      43.387 131.674  19.468  1.00  0.00    -0.000 A 
ATOM      4  C   UNL     1      42.777 131.785  20.716  1.00  0.00     0.010 A 
ATOM      5  C   UNL     1      43.584 131.621  21.857  1.00  0.00     0.001 A 
ATOM      6  C   UNL     1      44.966 131.356  21.724  1.00  0.00     0.002 A 
ATOM      7  C   UNL     1      45.553 131.254  20.449  1.00  0.00     0.026 A 
ATOM      8  C   UNL     1      44.728 131.417  19.338  1.00  0.00     0.046 A 
ATOM      9  N   UNL     1      45.082 131.370  18.043  1.00  0.00    -0.358 N 
ATOM     10  H   UNL     1      46.039 131.210  17.657  1.00  0.00     0.166 HD
ENDROOT
BRANCH   1  11
ATOM     11  C   UNL     1      43.893 131.699  15.853  1.00  0.00     0.091 C 
BRANCH  11  12
ATOM     12  C   UNL     1      45.109 131.052  15.251  1.00  0.00    -0.024 A 
ATOM     13  C   UNL     1      46.431 129.077  14.778  1.00  0.00     0.020 A 
ATOM     14  C   UNL     1      47.408 129.892  14.203  1.00  0.00     0.111 A 
ATOM     15  C   UNL     1      45.280 129.661  15.309  1.00  0.00     0.007 A 
ATOM     16  N   UNL     1      47.236 131.240  14.167  1.00  0.00    -0.264 NA
ATOM     17  C   UNL     1      46.123 131.833  14.676  1.00  0.00     0.115 A 
ENDBRANCH  11  12
ENDBRANCH   1  11
TORSDOF 2
ENDMDL
MODEL 9
REMARK VINA RESULT:      -8.7      1.252      6.170
REMARK SMILES c1cncc(Cc2cc3ccccc3[nH]2)c1
REMARK SMILES IDX 7 1 8 2 9 3 10 4 11 5 12 6 13 7 14 8 15 9 6 11 5 12 1 13
REMARK SMILES IDX 2 14 16 15 3 16 4 17
REMARK H PARENT 15 10
ROOT
ATOM      1  C   UNL     1      45.950 130.680  17.557  1.00  0.00     0.020 A 
ATOM      2  C   UNL     1      45.648 131.665  16.620  1.00  0.00     0.032 A 
ATOM      3  C   UNL     1      46.235 131.233  15.452  1.00  0.00    -0.000 A 
ATOM      4  C   UNL     1      46.260 131.807  14.182  1.00  0.00     0.010 A 
ATOM      5  C   UNL     1      46.940 131.116  13.163  1.00  0.00     0.001 A 
ATOM      6  C   UNL     1      47.570 129.880  13.433  1.00  0.00     0.002 A 
ATOM      7  C   UNL     1      47.524 129.324  14.725  1.00  0.00     0.026 A 
ATOM      8  C   UNL     1      46.847 130.033  15.715  1.00  0.00     0.046 A 
ATOM      9  N   UNL     1      46.674 129.681  17.000  1.00  0.00    -0.358 N 
ATOM     10  H   UNL     1      47.015 128.811  17.466  1.00  0.00     0.166 HD
ENDROOT
BRANCH   1  11
ATOM     11  C   UNL     1      45.464 130.661  18.973  1.00  0.00     0.091 C 
BRANCH  11  12
ATOM     12  C   UNL     1      44.156 131.393  19.077  1.00  0.00    -0.024 A 
ATOM     13  C   UNL     1      42.466 132.516  20.402  1.00  0.00     0.020 A 
ATOM     14  C   UNL     1      41.692 132.670  19.251  1.00  0.00     0.111 A 
ATOM     15  C   UNL     1      43.700 131.869  20.315  1.00  0.00     0.007 A 
ATOM     16  N   UNL     1      42.140 132.191  18.060  1.00  0.00    -0.264 NA
ATOM     17  C   UNL     1      43.339 131.559  17.948  1.00  0.00     0.115 A 
ENDBRANCH  11  12
ENDBRANCH   1  11
TORSDOF 2
ENDMDL


