REMARK SMILES Cc1ccc([NH2+]c2ccc([C@@H]3O[C@H]3c3ccccc3)c(N)c2[O-])cc1F
REMARK SMILES IDX 7 1 8 2 9 3 10 4 20 5 22 6 23 7 6 8 5 11 2 12 3 13 25 14
REMARK SMILES IDX 4 15 24 16 1 17 26 18 21 19 11 22 12 23 13 24 14 25 15 26
REMARK SMILES IDX 19 27 16 28 18 29 17 30
REMARK H PARENT 6 9 6 10 21 20 21 21
ROOT
ATOM      1  C   UNL     1      -2.170  -0.789   0.975  1.00  0.00     0.128 A 
ATOM      2  C   UNL     1      -1.607  -1.884   0.303  1.00  0.00     0.068 A 
ATOM      3  C   UNL     1      -0.228  -1.975   0.125  1.00  0.00     0.015 A 
ATOM      4  C   UNL     1       0.627  -0.983   0.625  1.00  0.00     0.007 A 
ATOM      5  C   UNL     1       0.074   0.142   1.279  1.00  0.00     0.035 A 
ATOM      6  C   UNL     1      -1.321   0.229   1.454  1.00  0.00    -0.021 A 
ATOM      7  O   UNL     1      -1.866   1.334   2.103  1.00  0.00    -0.867 OA
ENDROOT
BRANCH   1   8
ATOM      8  N   UNL     1      -3.605  -0.692   1.113  1.00  0.00    -0.282 N 
ATOM      9  H   UNL     1      -3.860  -0.140   1.966  1.00  0.00     0.358 HD
ATOM     10  H   UNL     1      -4.014  -1.647   1.247  1.00  0.00     0.358 HD
BRANCH   8  11
ATOM     11  C   UNL     1      -4.169  -0.077  -0.065  1.00  0.00     0.137 A 
ATOM     12  C   UNL     1      -5.221   1.128  -2.389  1.00  0.00    -0.015 A 
ATOM     13  C   UNL     1      -5.047  -0.263  -2.328  1.00  0.00     0.012 A 
ATOM     14  C   UNL     1      -4.842   1.918  -1.291  1.00  0.00     0.132 A 
ATOM     15  C   UNL     1      -4.530  -0.862  -1.175  1.00  0.00     0.068 A 
ATOM     16  C   UNL     1      -4.325   1.319  -0.137  1.00  0.00     0.107 A 
ATOM     17  C   UNL     1      -5.740   1.765  -3.646  1.00  0.00     0.047 C 
ATOM     18  F   UNL     1      -4.966   3.268  -1.338  1.00  0.00    -0.206 F 
ENDBRANCH   8  11
ENDBRANCH   1   8
BRANCH   5  19
ATOM     19  N   UNL     1       0.914   1.209   1.750  1.00  0.00    -0.399 N 
ATOM     20  H   UNL     1       1.941   1.216   1.583  1.00  0.00     0.156 HD
ATOM     21  H   UNL     1       0.516   2.024   2.266  1.00  0.00     0.156 HD
ENDBRANCH   5  19
BRANCH   4  22
ATOM     22  C   UNL     1       2.108  -1.111   0.380  1.00  0.00     0.185 C 
ATOM     23  O   UNL     1       2.560  -2.412   0.684  1.00  0.00    -0.359 OA
ATOM     24  C   UNL     1       2.957  -1.391   1.569  1.00  0.00     0.183 C 
BRANCH  24  25
ATOM     25  C   UNL     1       4.426  -1.117   1.430  1.00  0.00    -0.016 A 
ATOM     26  C   UNL     1       5.354  -2.146   1.666  1.00  0.00     0.006 A 
ATOM     27  C   UNL     1       4.890   0.166   1.103  1.00  0.00     0.006 A 
ATOM     28  C   UNL     1       6.725  -1.895   1.556  1.00  0.00     0.000 A 
ATOM     29  C   UNL     1       6.262   0.413   0.991  1.00  0.00     0.000 A 
ATOM     30  C   UNL     1       7.179  -0.616   1.219  1.00  0.00     0.000 A 
ENDBRANCH  24  25
ENDBRANCH   4  22
TORSDOF 5


