REMARK SMILES CC(=O)N1CNC[C@H](F)[C@@H]1c1cc2ccc(F)cc2[nH]1
REMARK SMILES IDX 4 1 5 2 6 3 7 4 8 5 9 6 10 7 2 9 1 10 3 11 11 12 12 13 20 14
REMARK SMILES IDX 13 15 19 16 14 17 18 18 15 19 16 20 17 22
REMARK H PARENT 6 8 20 21
ROOT
ATOM      1  N   UNL     1      -1.218  -1.367   0.889  1.00  0.00    -0.319 N 
ATOM      2  C   UNL     1      -1.277  -1.403   2.365  1.00  0.00     0.205 C 
ATOM      3  N   UNL     1      -0.157  -2.150   2.946  1.00  0.00    -0.297 NA
ATOM      4  C   UNL     1       1.124  -1.639   2.457  1.00  0.00     0.123 C 
ATOM      5  C   UNL     1       1.242  -1.861   0.952  1.00  0.00     0.209 C 
ATOM      6  F   UNL     1       2.462  -1.382   0.501  1.00  0.00    -0.243 F 
ATOM      7  C   UNL     1       0.074  -1.211   0.184  1.00  0.00     0.168 C 
ATOM      8  H   UNL     1      -0.251  -3.159   2.679  1.00  0.00     0.124 HD
ENDROOT
BRANCH   1   9
ATOM      9  C   UNL     1      -2.460  -1.199   0.162  1.00  0.00     0.221 C 
ATOM     10  C   UNL     1      -2.523  -1.304  -1.334  1.00  0.00     0.114 C 
ATOM     11  O   UNL     1      -3.529  -0.956   0.787  1.00  0.00    -0.275 OA
ENDBRANCH   1   9
BRANCH   7  12
ATOM     12  C   UNL     1       0.344   0.242  -0.135  1.00  0.00     0.042 A 
ATOM     13  C   UNL     1       0.782   0.705  -1.375  1.00  0.00     0.034 A 
ATOM     14  N   UNL     1       0.239   1.264   0.751  1.00  0.00    -0.356 N 
ATOM     15  C   UNL     1       0.932   2.064  -1.218  1.00  0.00    -0.000 A 
ATOM     16  C   UNL     1       0.598   2.368   0.075  1.00  0.00     0.049 A 
ATOM     17  C   UNL     1       1.345   3.042  -2.120  1.00  0.00     0.013 A 
ATOM     18  C   UNL     1       0.652   3.675   0.558  1.00  0.00     0.065 A 
ATOM     19  C   UNL     1       1.408   4.371  -1.663  1.00  0.00     0.040 A 
ATOM     20  C   UNL     1       1.063   4.687  -0.329  1.00  0.00     0.125 A 
ATOM     21  H   UNL     1      -0.049   1.220   1.751  1.00  0.00     0.166 HD
ATOM     22  F   UNL     1       1.130   5.972   0.098  1.00  0.00    -0.207 F 
ENDBRANCH   7  12
TORSDOF 2


