MODEL 1
REMARK VINA RESULT:      -4.4      0.000      0.000
REMARK SMILES Cc1cc(N)c(OC(=O)/C=C(\N)C(N)=O)c(-n2nc3ccccc3[nH+]2)c1
REMARK SMILES IDX 8 1 9 2 10 3 11 4 13 5 14 6 15 7 12 10 7 13 6 14 4 15 16 16
REMARK SMILES IDX 3 17 26 18 2 19 1 20 5 21 17 24 18 25 25 26 19 27 24 28
REMARK SMILES IDX 20 29 23 30 21 31 22 32
REMARK H PARENT 14 8 14 9 12 11 12 12 5 22 5 23 25 33
ROOT
ATOM      1  C   UNL     1      45.647 128.886  21.208  1.00  0.00     0.338 C 
ATOM      2  O   UNL     1      45.788 128.164  20.183  1.00  0.00    -0.246 OA
ENDROOT
BRANCH   1   3
ATOM      3  C   UNL     1      45.507 128.229  22.521  1.00  0.00     0.125 C 
BRANCH   3   4
ATOM      4  C   UNL     1      44.803 127.105  22.763  1.00  0.00     0.104 C 
BRANCH   4   5
ATOM      5  C   UNL     1      43.435 127.201  23.331  1.00  0.00     0.264 C 
ATOM      6  N   UNL     1      42.723 126.031  23.739  1.00  0.00    -0.364 N 
ATOM      7  O   UNL     1      42.884 128.328  23.464  1.00  0.00    -0.268 OA
ATOM      8  H   UNL     1      43.178 125.093  23.756  1.00  0.00     0.160 HD
ATOM      9  H   UNL     1      41.744 126.114  24.093  1.00  0.00     0.160 HD
ENDBRANCH   4   5
BRANCH   4  10
ATOM     10  N   UNL     1      45.358 125.806  22.508  1.00  0.00    -0.394 N 
ATOM     11  H   UNL     1      44.854 124.944  22.812  1.00  0.00     0.156 HD
ATOM     12  H   UNL     1      46.324 125.691  22.136  1.00  0.00     0.156 HD
ENDBRANCH   4  10
ENDBRANCH   3   4
ENDBRANCH   1   3
BRANCH   1  13
ATOM     13  O   UNL     1      45.689 130.281  21.092  1.00  0.00    -0.419 OA
BRANCH  13  14
ATOM     14  C   UNL     1      44.541 131.085  21.051  1.00  0.00     0.185 A 
ATOM     15  C   UNL     1      43.904 131.433  22.257  1.00  0.00     0.078 A 
ATOM     16  C   UNL     1      44.017 131.552  19.822  1.00  0.00     0.173 A 
ATOM     17  C   UNL     1      42.720 132.181  22.229  1.00  0.00     0.033 A 
ATOM     18  C   UNL     1      42.818 132.279  19.814  1.00  0.00     0.042 A 
ATOM     19  C   UNL     1      42.157 132.581  21.011  1.00  0.00    -0.046 A 
ATOM     20  C   UNL     1      40.905 133.407  20.993  1.00  0.00     0.044 C 
BRANCH  15  21
ATOM     21  N   UNL     1      44.440 131.007  23.516  1.00  0.00    -0.396 N 
ATOM     22  H   UNL     1      43.819 130.778  24.323  1.00  0.00     0.156 HD
ATOM     23  H   UNL     1      45.472 130.917  23.652  1.00  0.00     0.156 HD
ENDBRANCH  15  21
BRANCH  16  24
ATOM     24  N   UNL     1      44.711 131.330  18.584  1.00  0.00    -0.009 N 
ATOM     25  N   UNL     1      44.803 132.248  17.621  1.00  0.00     0.054 NA
ATOM     26  N   UNL     1      45.362 130.211  18.275  1.00  0.00    -0.161 N 
ATOM     27  C   UNL     1      45.533 131.663  16.654  1.00  0.00     0.249 A 
ATOM     28  C   UNL     1      45.877 130.407  17.056  1.00  0.00     0.198 A 
ATOM     29  C   UNL     1      45.923 132.176  15.421  1.00  0.00     0.064 A 
ATOM     30  C   UNL     1      46.639 129.553  16.267  1.00  0.00     0.058 A 
ATOM     31  C   UNL     1      46.696 131.341  14.588  1.00  0.00     0.005 A 
ATOM     32  C   UNL     1      47.051 130.036  15.009  1.00  0.00     0.005 A 
ATOM     33  H   UNL     1      45.463 129.365  18.880  1.00  0.00     0.340 HD
ENDBRANCH  16  24
ENDBRANCH  13  14
ENDBRANCH   1  13
TORSDOF 8
ENDMDL
MODEL 2
REMARK VINA RESULT:      -3.9      1.285      1.419
REMARK SMILES Cc1cc(N)c(OC(=O)/C=C(\N)C(N)=O)c(-n2nc3ccccc3[nH+]2)c1
REMARK SMILES IDX 8 1 9 2 10 3 11 4 13 5 14 6 15 7 12 10 7 13 6 14 4 15 16 16
REMARK SMILES IDX 3 17 26 18 2 19 1 20 5 21 17 24 18 25 25 26 19 27 24 28
REMARK SMILES IDX 20 29 23 30 21 31 22 32
REMARK H PARENT 14 8 14 9 12 11 12 12 5 22 5 23 25 33
ROOT
ATOM      1  C   UNL     1      45.274 128.898  21.933  1.00  0.00     0.338 C 
ATOM      2  O   UNL     1      44.839 128.875  23.117  1.00  0.00    -0.246 OA
ENDROOT
BRANCH   1   3
ATOM      3  C   UNL     1      45.708 127.630  21.315  1.00  0.00     0.125 C 
BRANCH   3   4
ATOM      4  C   UNL     1      45.981 126.489  21.979  1.00  0.00     0.104 C 
BRANCH   4   5
ATOM      5  C   UNL     1      44.874 125.714  22.592  1.00  0.00     0.264 C 
ATOM      6  N   UNL     1      44.163 126.216  23.727  1.00  0.00    -0.364 N 
ATOM      7  O   UNL     1      44.543 124.595  22.113  1.00  0.00    -0.268 OA
ATOM      8  H   UNL     1      44.322 127.182  24.086  1.00  0.00     0.160 HD
ATOM      9  H   UNL     1      43.419 125.637  24.174  1.00  0.00     0.160 HD
ENDBRANCH   4   5
BRANCH   4  10
ATOM     10  N   UNL     1      47.326 126.016  22.131  1.00  0.00    -0.394 N 
ATOM     11  H   UNL     1      48.110 126.466  21.609  1.00  0.00     0.156 HD
ATOM     12  H   UNL     1      47.540 125.141  22.655  1.00  0.00     0.156 HD
ENDBRANCH   4  10
ENDBRANCH   3   4
ENDBRANCH   1   3
BRANCH   1  13
ATOM     13  O   UNL     1      45.278 130.098  21.212  1.00  0.00    -0.419 OA
BRANCH  13  14
ATOM     14  C   UNL     1      44.206 131.001  21.212  1.00  0.00     0.185 A 
ATOM     15  C   UNL     1      43.652 131.407  22.441  1.00  0.00     0.078 A 
ATOM     16  C   UNL     1      43.676 131.510  20.003  1.00  0.00     0.173 A 
ATOM     17  C   UNL     1      42.538 132.257  22.457  1.00  0.00     0.033 A 
ATOM     18  C   UNL     1      42.547 132.341  20.040  1.00  0.00     0.042 A 
ATOM     19  C   UNL     1      41.964 132.703  21.261  1.00  0.00    -0.046 A 
ATOM     20  C   UNL     1      40.789 133.636  21.289  1.00  0.00     0.044 C 
BRANCH  15  21
ATOM     21  N   UNL     1      44.198 130.937  23.680  1.00  0.00    -0.396 N 
ATOM     22  H   UNL     1      44.805 131.543  24.273  1.00  0.00     0.156 HD
ATOM     23  H   UNL     1      43.997 129.968  24.016  1.00  0.00     0.156 HD
ENDBRANCH  15  21
BRANCH  16  24
ATOM     24  N   UNL     1      44.297 131.225  18.739  1.00  0.00    -0.009 N 
ATOM     25  N   UNL     1      43.822 131.666  17.574  1.00  0.00     0.054 NA
ATOM     26  N   UNL     1      45.420 130.527  18.593  1.00  0.00    -0.161 N 
ATOM     27  C   UNL     1      44.684 131.203  16.651  1.00  0.00     0.249 A 
ATOM     28  C   UNL     1      45.669 130.500  17.278  1.00  0.00     0.198 A 
ATOM     29  C   UNL     1      44.659 131.364  15.270  1.00  0.00     0.064 A 
ATOM     30  C   UNL     1      46.714 129.898  16.587  1.00  0.00     0.058 A 
ATOM     31  C   UNL     1      45.699 130.768  14.529  1.00  0.00     0.005 A 
ATOM     32  C   UNL     1      46.721 130.038  15.184  1.00  0.00     0.005 A 
ATOM     33  H   UNL     1      45.996 130.110  19.358  1.00  0.00     0.340 HD
ENDBRANCH  16  24
ENDBRANCH  13  14
ENDBRANCH   1  13
TORSDOF 8
ENDMDL
MODEL 3
REMARK VINA RESULT:      -3.9      2.275      6.686
REMARK SMILES Cc1cc(N)c(OC(=O)/C=C(\N)C(N)=O)c(-n2nc3ccccc3[nH+]2)c1
REMARK SMILES IDX 8 1 9 2 10 3 11 4 13 5 14 6 15 7 12 10 7 13 6 14 4 15 16 16
REMARK SMILES IDX 3 17 26 18 2 19 1 20 5 21 17 24 18 25 25 26 19 27 24 28
REMARK SMILES IDX 20 29 23 30 21 31 22 32
REMARK H PARENT 14 8 14 9 12 11 12 12 5 22 5 23 25 33
ROOT
ATOM      1  C   UNL     1      45.567 130.645  19.212  1.00  0.00     0.338 C 
ATOM      2  O   UNL     1      46.111 131.752  19.476  1.00  0.00    -0.246 OA
ENDROOT
BRANCH   1   3
ATOM      3  C   UNL     1      45.512 130.202  17.805  1.00  0.00     0.125 C 
BRANCH   3   4
ATOM      4  C   UNL     1      45.364 131.009  16.736  1.00  0.00     0.104 C 
BRANCH   4   5
ATOM      5  C   UNL     1      46.283 130.871  15.578  1.00  0.00     0.264 C 
ATOM      6  N   UNL     1      46.659 132.007  14.797  1.00  0.00    -0.364 N 
ATOM      7  O   UNL     1      46.748 129.739  15.272  1.00  0.00    -0.268 OA
ATOM      8  H   UNL     1      46.395 132.975  15.079  1.00  0.00     0.160 HD
ATOM      9  H   UNL     1      47.269 131.884  13.958  1.00  0.00     0.160 HD
ENDBRANCH   4   5
BRANCH   4  10
ATOM     10  N   UNL     1      44.351 132.024  16.699  1.00  0.00    -0.394 N 
ATOM     11  H   UNL     1      44.181 132.635  17.528  1.00  0.00     0.156 HD
ATOM     12  H   UNL     1      43.678 132.093  15.907  1.00  0.00     0.156 HD
ENDBRANCH   4  10
ENDBRANCH   3   4
ENDBRANCH   1   3
BRANCH   1  13
ATOM     13  O   UNL     1      45.086 129.837  20.249  1.00  0.00    -0.419 OA
BRANCH  13  14
ATOM     14  C   UNL     1      44.325 130.327  21.319  1.00  0.00     0.185 A 
ATOM     15  C   UNL     1      43.533 131.475  21.128  1.00  0.00     0.078 A 
ATOM     16  C   UNL     1      44.340 129.687  22.582  1.00  0.00     0.173 A 
ATOM     17  C   UNL     1      42.819 132.015  22.205  1.00  0.00     0.033 A 
ATOM     18  C   UNL     1      43.636 130.258  23.652  1.00  0.00     0.042 A 
ATOM     19  C   UNL     1      42.889 131.430  23.475  1.00  0.00    -0.046 A 
ATOM     20  C   UNL     1      42.097 131.999  24.614  1.00  0.00     0.044 C 
BRANCH  15  21
ATOM     21  N   UNL     1      43.471 132.115  19.848  1.00  0.00    -0.396 N 
ATOM     22  H   UNL     1      42.921 131.708  19.061  1.00  0.00     0.156 HD
ATOM     23  H   UNL     1      43.981 133.010  19.676  1.00  0.00     0.156 HD
ENDBRANCH  15  21
BRANCH  16  24
ATOM     24  N   UNL     1      45.028 128.442  22.779  1.00  0.00    -0.009 N 
ATOM     25  N   UNL     1      45.168 127.863  23.972  1.00  0.00     0.054 NA
ATOM     26  N   UNL     1      45.568 127.718  21.802  1.00  0.00    -0.161 N 
ATOM     27  C   UNL     1      45.846 126.727  23.728  1.00  0.00     0.249 A 
ATOM     28  C   UNL     1      46.094 126.637  22.391  1.00  0.00     0.198 A 
ATOM     29  C   UNL     1      46.266 125.749  24.623  1.00  0.00     0.064 A 
ATOM     30  C   UNL     1      46.779 125.567  21.828  1.00  0.00     0.058 A 
ATOM     31  C   UNL     1      46.967 124.646  24.095  1.00  0.00     0.005 A 
ATOM     32  C   UNL     1      47.222 124.555  22.705  1.00  0.00     0.005 A 
ATOM     33  H   UNL     1      45.556 127.944  20.782  1.00  0.00     0.340 HD
ENDBRANCH  16  24
ENDBRANCH  13  14
ENDBRANCH   1  13
TORSDOF 8
ENDMDL
MODEL 4
REMARK VINA RESULT:      -3.7      3.594      5.553
REMARK SMILES Cc1cc(N)c(OC(=O)/C=C(\N)C(N)=O)c(-n2nc3ccccc3[nH+]2)c1
REMARK SMILES IDX 8 1 9 2 10 3 11 4 13 5 14 6 15 7 12 10 7 13 6 14 4 15 16 16
REMARK SMILES IDX 3 17 26 18 2 19 1 20 5 21 17 24 18 25 25 26 19 27 24 28
REMARK SMILES IDX 20 29 23 30 21 31 22 32
REMARK H PARENT 14 8 14 9 12 11 12 12 5 22 5 23 25 33
ROOT
ATOM      1  C   UNL     1      47.256 133.116  21.751  1.00  0.00     0.338 C 
ATOM      2  O   UNL     1      47.848 132.272  21.023  1.00  0.00    -0.246 OA
ENDROOT
BRANCH   1   3
ATOM      3  C   UNL     1      48.063 134.133  22.452  1.00  0.00     0.125 C 
BRANCH   3   4
ATOM      4  C   UNL     1      48.482 135.300  21.924  1.00  0.00     0.104 C 
BRANCH   4   5
ATOM      5  C   UNL     1      49.828 135.821  22.269  1.00  0.00     0.264 C 
ATOM      6  N   UNL     1      50.485 135.423  23.474  1.00  0.00    -0.364 N 
ATOM      7  O   UNL     1      50.413 136.625  21.493  1.00  0.00    -0.268 OA
ATOM      8  H   UNL     1      50.095 134.675  24.088  1.00  0.00     0.160 HD
ATOM      9  H   UNL     1      51.411 135.835  23.724  1.00  0.00     0.160 HD
ENDBRANCH   4   5
BRANCH   4  10
ATOM     10  N   UNL     1      47.643 136.070  21.052  1.00  0.00    -0.394 N 
ATOM     11  H   UNL     1      46.603 135.997  21.114  1.00  0.00     0.156 HD
ATOM     12  H   UNL     1      48.038 136.615  20.257  1.00  0.00     0.156 HD
ENDBRANCH   4  10
ENDBRANCH   3   4
ENDBRANCH   1   3
BRANCH   1  13
ATOM     13  O   UNL     1      45.858 133.114  21.830  1.00  0.00    -0.419 OA
BRANCH  13  14
ATOM     14  C   UNL     1      45.120 132.069  22.402  1.00  0.00     0.185 A 
ATOM     15  C   UNL     1      44.850 132.097  23.784  1.00  0.00     0.078 A 
ATOM     16  C   UNL     1      44.644 130.991  21.617  1.00  0.00     0.173 A 
ATOM     17  C   UNL     1      44.171 131.028  24.383  1.00  0.00     0.033 A 
ATOM     18  C   UNL     1      43.987 129.921  22.241  1.00  0.00     0.042 A 
ATOM     19  C   UNL     1      43.763 129.925  23.623  1.00  0.00    -0.046 A 
ATOM     20  C   UNL     1      43.011 128.799  24.269  1.00  0.00     0.044 C 
BRANCH  15  21
ATOM     21  N   UNL     1      45.286 133.197  24.591  1.00  0.00    -0.396 N 
ATOM     22  H   UNL     1      46.245 133.597  24.496  1.00  0.00     0.156 HD
ATOM     23  H   UNL     1      44.647 133.625  25.298  1.00  0.00     0.156 HD
ENDBRANCH  15  21
BRANCH  16  24
ATOM     24  N   UNL     1      44.784 130.992  20.187  1.00  0.00    -0.009 N 
ATOM     25  N   UNL     1      43.934 131.613  19.369  1.00  0.00     0.054 NA
ATOM     26  N   UNL     1      45.783 130.410  19.529  1.00  0.00    -0.161 N 
ATOM     27  C   UNL     1      44.418 131.390  18.134  1.00  0.00     0.249 A 
ATOM     28  C   UNL     1      45.557 130.648  18.231  1.00  0.00     0.198 A 
ATOM     29  C   UNL     1      43.913 131.808  16.907  1.00  0.00     0.064 A 
ATOM     30  C   UNL     1      46.292 130.258  17.118  1.00  0.00     0.058 A 
ATOM     31  C   UNL     1      44.627 131.432  15.751  1.00  0.00     0.005 A 
ATOM     32  C   UNL     1      45.810 130.661  15.856  1.00  0.00     0.005 A 
ATOM     33  H   UNL     1      46.587 129.894  19.950  1.00  0.00     0.340 HD
ENDBRANCH  16  24
ENDBRANCH  13  14
ENDBRANCH   1  13
TORSDOF 8
ENDMDL
MODEL 5
REMARK VINA RESULT:      -3.6      0.978      1.736
REMARK SMILES Cc1cc(N)c(OC(=O)/C=C(\N)C(N)=O)c(-n2nc3ccccc3[nH+]2)c1
REMARK SMILES IDX 8 1 9 2 10 3 11 4 13 5 14 6 15 7 12 10 7 13 6 14 4 15 16 16
REMARK SMILES IDX 3 17 26 18 2 19 1 20 5 21 17 24 18 25 25 26 19 27 24 28
REMARK SMILES IDX 20 29 23 30 21 31 22 32
REMARK H PARENT 14 8 14 9 12 11 12 12 5 22 5 23 25 33
ROOT
ATOM      1  C   UNL     1      45.458 128.884  21.514  1.00  0.00     0.338 C 
ATOM      2  O   UNL     1      45.727 128.067  20.592  1.00  0.00    -0.246 OA
ENDROOT
BRANCH   1   3
ATOM      3  C   UNL     1      45.148 128.357  22.857  1.00  0.00     0.125 C 
BRANCH   3   4
ATOM      4  C   UNL     1      44.635 127.139  23.120  1.00  0.00     0.104 C 
BRANCH   4   5
ATOM      5  C   UNL     1      45.548 125.984  23.316  1.00  0.00     0.264 C 
ATOM      6  N   UNL     1      45.821 125.475  24.624  1.00  0.00    -0.364 N 
ATOM      7  O   UNL     1      46.093 125.433  22.322  1.00  0.00    -0.268 OA
ATOM      8  H   UNL     1      45.306 125.821  25.463  1.00  0.00     0.160 HD
ATOM      9  H   UNL     1      46.501 124.693  24.747  1.00  0.00     0.160 HD
ENDBRANCH   4   5
BRANCH   4  10
ATOM     10  N   UNL     1      43.219 126.922  23.189  1.00  0.00    -0.394 N 
ATOM     11  H   UNL     1      42.833 126.074  23.659  1.00  0.00     0.156 HD
ATOM     12  H   UNL     1      42.550 127.527  22.667  1.00  0.00     0.156 HD
ENDBRANCH   4  10
ENDBRANCH   3   4
ENDBRANCH   1   3
BRANCH   1  13
ATOM     13  O   UNL     1      45.521 130.261  21.269  1.00  0.00    -0.419 OA
BRANCH  13  14
ATOM     14  C   UNL     1      44.391 131.090  21.233  1.00  0.00     0.185 A 
ATOM     15  C   UNL     1      43.744 131.420  22.439  1.00  0.00     0.078 A 
ATOM     16  C   UNL     1      43.894 131.598  20.009  1.00  0.00     0.173 A 
ATOM     17  C   UNL     1      42.576 132.193  22.413  1.00  0.00     0.033 A 
ATOM     18  C   UNL     1      42.710 132.350  20.004  1.00  0.00     0.042 A 
ATOM     19  C   UNL     1      42.038 132.635  21.199  1.00  0.00    -0.046 A 
ATOM     20  C   UNL     1      40.803 133.486  21.185  1.00  0.00     0.044 C 
BRANCH  15  21
ATOM     21  N   UNL     1      44.253 130.951  23.693  1.00  0.00    -0.396 N 
ATOM     22  H   UNL     1      43.630 130.823  24.521  1.00  0.00     0.156 HD
ATOM     23  H   UNL     1      45.267 130.727  23.805  1.00  0.00     0.156 HD
ENDBRANCH  15  21
BRANCH  16  24
ATOM     24  N   UNL     1      44.601 131.394  18.775  1.00  0.00    -0.009 N 
ATOM     25  N   UNL     1      45.218 130.253  18.464  1.00  0.00     0.054 NA
ATOM     26  N   UNL     1      44.692 132.297  17.801  1.00  0.00    -0.161 N 
ATOM     27  C   UNL     1      45.735 130.462  17.240  1.00  0.00     0.249 A 
ATOM     28  C   UNL     1      45.412 131.721  16.831  1.00  0.00     0.198 A 
ATOM     29  C   UNL     1      46.484 129.598  16.448  1.00  0.00     0.064 A 
ATOM     30  C   UNL     1      45.806 132.231  15.599  1.00  0.00     0.058 A 
ATOM     31  C   UNL     1      46.905 130.076  15.190  1.00  0.00     0.005 A 
ATOM     32  C   UNL     1      46.568 131.385  14.768  1.00  0.00     0.005 A 
ATOM     33  H   UNL     1      44.263 133.249  17.796  1.00  0.00     0.340 HD
ENDBRANCH  16  24
ENDBRANCH  13  14
ENDBRANCH   1  13
TORSDOF 8
ENDMDL
MODEL 6
REMARK VINA RESULT:      -3.4      3.759      5.778
REMARK SMILES Cc1cc(N)c(OC(=O)/C=C(\N)C(N)=O)c(-n2nc3ccccc3[nH+]2)c1
REMARK SMILES IDX 8 1 9 2 10 3 11 4 13 5 14 6 15 7 12 10 7 13 6 14 4 15 16 16
REMARK SMILES IDX 3 17 26 18 2 19 1 20 5 21 17 24 18 25 25 26 19 27 24 28
REMARK SMILES IDX 20 29 23 30 21 31 22 32
REMARK H PARENT 14 8 14 9 12 11 12 12 5 22 5 23 25 33
ROOT
ATOM      1  C   UNL     1      47.528 133.577  21.768  1.00  0.00     0.338 C 
ATOM      2  O   UNL     1      48.382 132.832  22.321  1.00  0.00    -0.246 OA
ENDROOT
BRANCH   1   3
ATOM      3  C   UNL     1      47.728 135.038  21.814  1.00  0.00     0.125 C 
BRANCH   3   4
ATOM      4  C   UNL     1      48.921 135.664  21.843  1.00  0.00     0.104 C 
BRANCH   4   5
ATOM      5  C   UNL     1      49.246 136.676  20.806  1.00  0.00     0.264 C 
ATOM      6  N   UNL     1      50.601 136.954  20.447  1.00  0.00    -0.364 N 
ATOM      7  O   UNL     1      48.320 137.305  20.224  1.00  0.00    -0.268 OA
ATOM      8  H   UNL     1      51.392 136.381  20.814  1.00  0.00     0.160 HD
ATOM      9  H   UNL     1      50.813 137.701  19.750  1.00  0.00     0.160 HD
ENDBRANCH   4   5
BRANCH   4  10
ATOM     10  N   UNL     1      49.904 135.355  22.841  1.00  0.00    -0.394 N 
ATOM     11  H   UNL     1      49.684 134.689  23.614  1.00  0.00     0.156 HD
ATOM     12  H   UNL     1      50.804 135.876  22.900  1.00  0.00     0.156 HD
ENDBRANCH   4  10
ENDBRANCH   3   4
ENDBRANCH   1   3
BRANCH   1  13
ATOM     13  O   UNL     1      46.452 133.011  21.073  1.00  0.00    -0.419 OA
BRANCH  13  14
ATOM     14  C   UNL     1      45.449 132.252  21.691  1.00  0.00     0.185 A 
ATOM     15  C   UNL     1      45.196 132.437  23.063  1.00  0.00     0.078 A 
ATOM     16  C   UNL     1      44.689 131.307  20.960  1.00  0.00     0.173 A 
ATOM     17  C   UNL     1      44.243 131.639  23.710  1.00  0.00     0.033 A 
ATOM     18  C   UNL     1      43.757 130.503  21.631  1.00  0.00     0.042 A 
ATOM     19  C   UNL     1      43.543 130.652  23.007  1.00  0.00    -0.046 A 
ATOM     20  C   UNL     1      42.503 129.824  23.703  1.00  0.00     0.044 C 
BRANCH  15  21
ATOM     21  N   UNL     1      45.924 133.416  23.815  1.00  0.00    -0.396 N 
ATOM     22  H   UNL     1      45.596 134.404  23.886  1.00  0.00     0.156 HD
ATOM     23  H   UNL     1      46.807 133.157  24.310  1.00  0.00     0.156 HD
ENDBRANCH  15  21
BRANCH  16  24
ATOM     24  N   UNL     1      44.825 131.184  19.535  1.00  0.00    -0.009 N 
ATOM     25  N   UNL     1      45.792 130.478  18.949  1.00  0.00     0.054 NA
ATOM     26  N   UNL     1      43.992 131.727  18.650  1.00  0.00    -0.161 N 
ATOM     27  C   UNL     1      45.561 130.601  17.630  1.00  0.00     0.249 A 
ATOM     28  C   UNL     1      44.452 131.372  17.445  1.00  0.00     0.198 A 
ATOM     29  C   UNL     1      46.275 130.068  16.562  1.00  0.00     0.064 A 
ATOM     30  C   UNL     1      43.957 131.678  16.182  1.00  0.00     0.058 A 
ATOM     31  C   UNL     1      45.809 130.356  15.263  1.00  0.00     0.005 A 
ATOM     32  C   UNL     1      44.657 131.156  15.074  1.00  0.00     0.005 A 
ATOM     33  H   UNL     1      43.141 132.293  18.865  1.00  0.00     0.340 HD
ENDBRANCH  16  24
ENDBRANCH  13  14
ENDBRANCH   1  13
TORSDOF 8
ENDMDL
MODEL 7
REMARK VINA RESULT:      -3.2      2.380      6.505
REMARK SMILES Cc1cc(N)c(OC(=O)/C=C(\N)C(N)=O)c(-n2nc3ccccc3[nH+]2)c1
REMARK SMILES IDX 8 1 9 2 10 3 11 4 13 5 14 6 15 7 12 10 7 13 6 14 4 15 16 16
REMARK SMILES IDX 3 17 26 18 2 19 1 20 5 21 17 24 18 25 25 26 19 27 24 28
REMARK SMILES IDX 20 29 23 30 21 31 22 32
REMARK H PARENT 14 8 14 9 12 11 12 12 5 22 5 23 25 33
ROOT
ATOM      1  C   UNL     1      45.250 130.287  18.773  1.00  0.00     0.338 C 
ATOM      2  O   UNL     1      44.071 130.629  18.484  1.00  0.00    -0.246 OA
ENDROOT
BRANCH   1   3
ATOM      3  C   UNL     1      46.259 130.251  17.697  1.00  0.00     0.125 C 
BRANCH   3   4
ATOM      4  C   UNL     1      46.127 130.816  16.481  1.00  0.00     0.104 C 
BRANCH   4   5
ATOM      5  C   UNL     1      46.534 130.060  15.270  1.00  0.00     0.264 C 
ATOM      6  N   UNL     1      46.138 128.698  15.085  1.00  0.00    -0.364 N 
ATOM      7  O   UNL     1      47.236 130.616  14.383  1.00  0.00    -0.268 OA
ATOM      8  H   UNL     1      45.465 128.233  15.731  1.00  0.00     0.160 HD
ATOM      9  H   UNL     1      46.472 128.168  14.250  1.00  0.00     0.160 HD
ENDBRANCH   4   5
BRANCH   4  10
ATOM     10  N   UNL     1      45.623 132.151  16.328  1.00  0.00    -0.394 N 
ATOM     11  H   UNL     1      45.250 132.476  15.409  1.00  0.00     0.156 HD
ATOM     12  H   UNL     1      45.735 132.864  17.079  1.00  0.00     0.156 HD
ENDBRANCH   4  10
ENDBRANCH   3   4
ENDBRANCH   1   3
BRANCH   1  13
ATOM     13  O   UNL     1      45.594 130.013  20.102  1.00  0.00    -0.419 OA
BRANCH  13  14
ATOM     14  C   UNL     1      44.865 130.490  21.201  1.00  0.00     0.185 A 
ATOM     15  C   UNL     1      44.391 131.815  21.186  1.00  0.00     0.078 A 
ATOM     16  C   UNL     1      44.599 129.662  22.318  1.00  0.00     0.173 A 
ATOM     17  C   UNL     1      43.718 132.327  22.304  1.00  0.00     0.033 A 
ATOM     18  C   UNL     1      43.945 130.202  23.435  1.00  0.00     0.042 A 
ATOM     19  C   UNL     1      43.518 131.536  23.441  1.00  0.00    -0.046 A 
ATOM     20  C   UNL     1      42.771 132.084  24.621  1.00  0.00     0.044 C 
BRANCH  15  21
ATOM     21  N   UNL     1      44.613 132.658  20.049  1.00  0.00    -0.396 N 
ATOM     22  H   UNL     1      45.301 133.442  20.078  1.00  0.00     0.156 HD
ATOM     23  H   UNL     1      44.085 132.503  19.161  1.00  0.00     0.156 HD
ENDBRANCH  15  21
BRANCH  16  24
ATOM     24  N   UNL     1      44.948 128.269  22.314  1.00  0.00    -0.009 N 
ATOM     25  N   UNL     1      44.075 127.294  22.567  1.00  0.00     0.054 NA
ATOM     26  N   UNL     1      46.160 127.798  22.029  1.00  0.00    -0.161 N 
ATOM     27  C   UNL     1      44.784 126.156  22.451  1.00  0.00     0.249 A 
ATOM     28  C   UNL     1      46.069 126.467  22.120  1.00  0.00     0.198 A 
ATOM     29  C   UNL     1      44.362 124.842  22.618  1.00  0.00     0.064 A 
ATOM     30  C   UNL     1      47.046 125.496  21.928  1.00  0.00     0.058 A 
ATOM     31  C   UNL     1      45.322 123.825  22.434  1.00  0.00     0.005 A 
ATOM     32  C   UNL     1      46.657 124.151  22.091  1.00  0.00     0.005 A 
ATOM     33  H   UNL     1      46.999 128.362  21.766  1.00  0.00     0.340 HD
ENDBRANCH  16  24
ENDBRANCH  13  14
ENDBRANCH   1  13
TORSDOF 8
ENDMDL
MODEL 8
REMARK VINA RESULT:      -2.9      1.252      1.366
REMARK SMILES Cc1cc(N)c(OC(=O)/C=C(\N)C(N)=O)c(-n2nc3ccccc3[nH+]2)c1
REMARK SMILES IDX 8 1 9 2 10 3 11 4 13 5 14 6 15 7 12 10 7 13 6 14 4 15 16 16
REMARK SMILES IDX 3 17 26 18 2 19 1 20 5 21 17 24 18 25 25 26 19 27 24 28
REMARK SMILES IDX 20 29 23 30 21 31 22 32
REMARK H PARENT 14 8 14 9 12 11 12 12 5 22 5 23 25 33
ROOT
ATOM      1  C   UNL     1      45.462 129.199  20.977  1.00  0.00     0.338 C 
ATOM      2  O   UNL     1      45.468 128.696  19.820  1.00  0.00    -0.246 OA
ENDROOT
BRANCH   1   3
ATOM      3  C   UNL     1      45.524 128.294  22.140  1.00  0.00     0.125 C 
BRANCH   3   4
ATOM      4  C   UNL     1      44.461 127.818  22.819  1.00  0.00     0.104 C 
BRANCH   4   5
ATOM      5  C   UNL     1      44.455 126.407  23.280  1.00  0.00     0.264 C 
ATOM      6  N   UNL     1      44.936 126.056  24.580  1.00  0.00    -0.364 N 
ATOM      7  O   UNL     1      44.020 125.496  22.525  1.00  0.00    -0.268 OA
ATOM      8  H   UNL     1      45.197 126.783  25.281  1.00  0.00     0.160 HD
ATOM      9  H   UNL     1      44.968 125.054  24.871  1.00  0.00     0.160 HD
ENDBRANCH   4   5
BRANCH   4  10
ATOM     10  N   UNL     1      43.315 128.638  23.084  1.00  0.00    -0.394 N 
ATOM     11  H   UNL     1      43.090 129.452  22.471  1.00  0.00     0.156 HD
ATOM     12  H   UNL     1      42.757 128.529  23.958  1.00  0.00     0.156 HD
ENDBRANCH   4  10
ENDBRANCH   3   4
ENDBRANCH   1   3
BRANCH   1  13
ATOM     13  O   UNL     1      45.460 130.590  21.135  1.00  0.00    -0.419 OA
BRANCH  13  14
ATOM     14  C   UNL     1      44.288 131.355  21.223  1.00  0.00     0.185 A 
ATOM     15  C   UNL     1      43.814 131.740  22.491  1.00  0.00     0.078 A 
ATOM     16  C   UNL     1      43.579 131.744  20.061  1.00  0.00     0.173 A 
ATOM     17  C   UNL     1      42.610 132.448  22.599  1.00  0.00     0.033 A 
ATOM     18  C   UNL     1      42.364 132.431  20.193  1.00  0.00     0.042 A 
ATOM     19  C   UNL     1      41.866 132.770  21.458  1.00  0.00    -0.046 A 
ATOM     20  C   UNL     1      40.593 133.553  21.583  1.00  0.00     0.044 C 
BRANCH  15  21
ATOM     21  N   UNL     1      44.538 131.392  23.678  1.00  0.00    -0.396 N 
ATOM     22  H   UNL     1      44.045 131.160  24.568  1.00  0.00     0.156 HD
ATOM     23  H   UNL     1      45.582 131.365  23.676  1.00  0.00     0.156 HD
ENDBRANCH  15  21
BRANCH  16  24
ATOM     24  N   UNL     1      44.100 131.485  18.748  1.00  0.00    -0.009 N 
ATOM     25  N   UNL     1      43.402 131.686  17.630  1.00  0.00     0.054 NA
ATOM     26  N   UNL     1      45.334 131.052  18.500  1.00  0.00    -0.161 N 
ATOM     27  C   UNL     1      44.238 131.344  16.634  1.00  0.00     0.249 A 
ATOM     28  C   UNL     1      45.429 130.952  17.169  1.00  0.00     0.198 A 
ATOM     29  C   UNL     1      44.015 131.357  15.261  1.00  0.00     0.064 A 
ATOM     30  C   UNL     1      46.501 130.540  16.385  1.00  0.00     0.058 A 
ATOM     31  C   UNL     1      45.076 130.944  14.429  1.00  0.00     0.005 A 
ATOM     32  C   UNL     1      46.312 130.538  14.988  1.00  0.00     0.005 A 
ATOM     33  H   UNL     1      46.077 130.857  19.207  1.00  0.00     0.340 HD
ENDBRANCH  16  24
ENDBRANCH  13  14
ENDBRANCH   1  13
TORSDOF 8
ENDMDL
MODEL 9
REMARK VINA RESULT:      -2.7      3.779      5.644
REMARK SMILES Cc1cc(N)c(OC(=O)/C=C(\N)C(N)=O)c(-n2nc3ccccc3[nH+]2)c1
REMARK SMILES IDX 8 1 9 2 10 3 11 4 13 5 14 6 15 7 12 10 7 13 6 14 4 15 16 16
REMARK SMILES IDX 3 17 26 18 2 19 1 20 5 21 17 24 18 25 25 26 19 27 24 28
REMARK SMILES IDX 20 29 23 30 21 31 22 32
REMARK H PARENT 14 8 14 9 12 11 12 12 5 22 5 23 25 33
ROOT
ATOM      1  C   UNL     1      47.100 133.716  21.448  1.00  0.00     0.338 C 
ATOM      2  O   UNL     1      46.410 134.401  20.644  1.00  0.00    -0.246 OA
ENDROOT
BRANCH   1   3
ATOM      3  C   UNL     1      48.283 134.339  22.071  1.00  0.00     0.125 C 
BRANCH   3   4
ATOM      4  C   UNL     1      48.790 135.548  21.754  1.00  0.00     0.104 C 
BRANCH   4   5
ATOM      5  C   UNL     1      50.130 135.938  22.259  1.00  0.00     0.264 C 
ATOM      6  N   UNL     1      51.068 136.610  21.415  1.00  0.00    -0.364 N 
ATOM      7  O   UNL     1      50.457 135.682  23.450  1.00  0.00    -0.268 OA
ATOM      8  H   UNL     1      50.803 136.945  20.463  1.00  0.00     0.160 HD
ATOM      9  H   UNL     1      52.022 136.835  21.772  1.00  0.00     0.160 HD
ENDBRANCH   4   5
BRANCH   4  10
ATOM     10  N   UNL     1      48.049 136.483  20.959  1.00  0.00    -0.394 N 
ATOM     11  H   UNL     1      47.073 136.747  21.219  1.00  0.00     0.156 HD
ATOM     12  H   UNL     1      48.407 136.821  20.040  1.00  0.00     0.156 HD
ENDBRANCH   4  10
ENDBRANCH   3   4
ENDBRANCH   1   3
BRANCH   1  13
ATOM     13  O   UNL     1      46.702 132.416  21.781  1.00  0.00    -0.419 OA
BRANCH  13  14
ATOM     14  C   UNL     1      45.433 132.105  22.290  1.00  0.00     0.185 A 
ATOM     15  C   UNL     1      45.144 132.400  23.636  1.00  0.00     0.078 A 
ATOM     16  C   UNL     1      44.444 131.503  21.476  1.00  0.00     0.173 A 
ATOM     17  C   UNL     1      43.905 132.035  24.178  1.00  0.00     0.033 A 
ATOM     18  C   UNL     1      43.220 131.125  22.045  1.00  0.00     0.042 A 
ATOM     19  C   UNL     1      42.951 131.372  23.397  1.00  0.00    -0.046 A 
ATOM     20  C   UNL     1      41.616 131.012  23.980  1.00  0.00     0.044 C 
BRANCH  15  21
ATOM     21  N   UNL     1      46.116 133.046  24.468  1.00  0.00    -0.396 N 
ATOM     22  H   UNL     1      47.139 132.897  24.328  1.00  0.00     0.156 HD
ATOM     23  H   UNL     1      45.816 133.684  25.239  1.00  0.00     0.156 HD
ENDBRANCH  15  21
BRANCH  16  24
ATOM     24  N   UNL     1      44.654 131.309  20.069  1.00  0.00    -0.009 N 
ATOM     25  N   UNL     1      43.866 131.836  19.131  1.00  0.00     0.054 NA
ATOM     26  N   UNL     1      45.664 130.617  19.547  1.00  0.00    -0.161 N 
ATOM     27  C   UNL     1      44.403 131.437  17.964  1.00  0.00     0.249 A 
ATOM     28  C   UNL     1      45.511 130.685  18.219  1.00  0.00     0.198 A 
ATOM     29  C   UNL     1      43.973 131.700  16.668  1.00  0.00     0.064 A 
ATOM     30  C   UNL     1      46.287 130.130  17.208  1.00  0.00     0.058 A 
ATOM     31  C   UNL     1      44.730 131.154  15.611  1.00  0.00     0.005 A 
ATOM     32  C   UNL     1      45.881 130.373  15.880  1.00  0.00     0.005 A 
ATOM     33  H   UNL     1      46.430 130.142  20.075  1.00  0.00     0.340 HD
ENDBRANCH  16  24
ENDBRANCH  13  14
ENDBRANCH   1  13
TORSDOF 8
ENDMDL


