REMARK SMILES C=C1CC[C@@H](Nc2cccc(N=C=O)c2O)C[C@H]1F
REMARK SMILES IDX 15 1 11 2 10 3 9 4 8 5 7 6 16 7 12 9 13 10 14 11 6 12 5 14
REMARK SMILES IDX 4 15 17 16 3 17 18 18 2 19 19 20 1 21
REMARK H PARENT 16 8 6 13
ROOT
ATOM      1  C   UNL     1       1.916  -0.376   0.460  1.00  0.00     0.165 A 
ATOM      2  C   UNL     1       3.072  -0.934  -0.128  1.00  0.00     0.120 A 
ATOM      3  C   UNL     1       2.938  -1.796  -1.234  1.00  0.00     0.033 A 
ATOM      4  C   UNL     1       1.676  -2.101  -1.740  1.00  0.00     0.005 A 
ATOM      5  C   UNL     1       0.536  -1.545  -1.165  1.00  0.00     0.030 A 
ATOM      6  C   UNL     1       0.639  -0.664  -0.078  1.00  0.00     0.079 A 
ENDROOT
BRANCH   1   7
ATOM      7  O   UNL     1       2.028   0.441   1.586  1.00  0.00    -0.504 OA
ATOM      8  H   UNL     1       2.917   0.672   2.011  1.00  0.00     0.293 HD
ENDBRANCH   1   7
BRANCH   2   9
ATOM      9  N   UNL     1       4.363  -0.616   0.422  1.00  0.00    -0.164 NA
BRANCH   9  10
ATOM     10  C   UNL     1       5.464  -1.066  -0.032  1.00  0.00     0.240 C 
ATOM     11  O   UNL     1       6.535  -1.503  -0.473  1.00  0.00    -0.211 OA
ENDBRANCH   9  10
ENDBRANCH   2   9
BRANCH   6  12
ATOM     12  N   UNL     1      -0.574  -0.108   0.468  1.00  0.00    -0.379 N 
ATOM     13  H   UNL     1      -1.439  -0.689   0.372  1.00  0.00     0.160 HD
BRANCH  12  14
ATOM     14  C   UNL     1      -0.727   1.285   0.917  1.00  0.00     0.082 C 
ATOM     15  C   UNL     1      -2.196   1.561   1.295  1.00  0.00     0.029 C 
ATOM     16  C   UNL     1      -0.287   2.262  -0.193  1.00  0.00     0.067 C 
ATOM     17  C   UNL     1      -2.390   2.998   1.788  1.00  0.00     0.035 C 
ATOM     18  C   UNL     1      -0.432   3.725   0.247  1.00  0.00     0.194 C 
ATOM     19  C   UNL     1      -1.818   3.988   0.800  1.00  0.00    -0.043 C 
ATOM     20  F   UNL     1      -0.155   4.543  -0.837  1.00  0.00    -0.243 F 
ATOM     21  C   UNL     1      -2.442   5.159   0.587  1.00  0.00     0.011 C 
ENDBRANCH  12  14
ENDBRANCH   6  12
TORSDOF 5


