REMARK SMILES O=C(Nc1ccc(C[NH+]2CCCCC2)cc1)Sc1cccc(-c2ccc3c(c2)CC3)c1
REMARK SMILES IDX 4 1 5 2 6 3 7 4 15 5 16 6 3 7 2 8 1 9 17 11 18 12 19 13
REMARK SMILES IDX 31 14 20 15 22 16 21 17 23 18 24 19 28 20 25 21 27 22 26 23
REMARK SMILES IDX 29 24 30 25 8 26 9 27 10 28 14 29 11 30 13 31 12 32
REMARK H PARENT 3 10 9 33
ROOT
ATOM      1  C   UNL     1      -1.544   1.531  -1.616  1.00  0.00     0.041 A 
ATOM      2  C   UNL     1      -1.699   0.597  -2.655  1.00  0.00     0.026 A 
ATOM      3  C   UNL     1      -2.836  -0.215  -2.712  1.00  0.00     0.012 A 
ATOM      4  C   UNL     1      -3.841  -0.097  -1.739  1.00  0.00     0.006 A 
ATOM      5  C   UNL     1      -3.693   0.845  -0.710  1.00  0.00     0.012 A 
ATOM      6  C   UNL     1      -2.558   1.658  -0.655  1.00  0.00     0.026 A 
ENDROOT
BRANCH   1   7
ATOM      7  N   UNL     1      -0.401   2.400  -1.552  1.00  0.00    -0.317 N 
ATOM      8  C   UNL     1       0.930   2.010  -1.922  1.00  0.00     0.288 C 
ATOM      9  O   UNL     1       1.206   0.810  -2.185  1.00  0.00    -0.261 OA
ATOM     10  H   UNL     1      -0.522   3.341  -1.114  1.00  0.00     0.170 HD
BRANCH   8  11
ATOM     11  S   UNL     1       2.232   3.238  -1.968  1.00  0.00    -0.028 SA
BRANCH  11  12
ATOM     12  C   UNL     1       2.644   2.995  -0.240  1.00  0.00     0.018 A 
ATOM     13  C   UNL     1       2.011   3.761   0.744  1.00  0.00     0.015 A 
ATOM     14  C   UNL     1       3.601   2.041   0.124  1.00  0.00     0.024 A 
ATOM     15  C   UNL     1       2.325   3.567   2.090  1.00  0.00     0.002 A 
ATOM     16  C   UNL     1       3.926   1.837   1.479  1.00  0.00    -0.017 A 
ATOM     17  C   UNL     1       3.276   2.611   2.458  1.00  0.00     0.009 A 
BRANCH  16  18
ATOM     18  C   UNL     1       4.942   0.827   1.867  1.00  0.00    -0.018 A 
ATOM     19  C   UNL     1       4.719  -0.008   3.019  1.00  0.00     0.009 A 
ATOM     20  C   UNL     1       6.134   0.695   1.097  1.00  0.00     0.012 A 
ATOM     21  C   UNL     1       5.659  -0.982   3.436  1.00  0.00     0.004 A 
ATOM     22  C   UNL     1       7.028  -0.261   1.530  1.00  0.00    -0.044 A 
ATOM     23  C   UNL     1       6.798  -1.075   2.666  1.00  0.00    -0.044 A 
ATOM     24  C   UNL     1       8.343  -0.922   1.301  1.00  0.00     0.040 C 
ATOM     25  C   UNL     1       8.106  -1.758   2.463  1.00  0.00     0.040 C 
ENDBRANCH  16  18
ENDBRANCH  11  12
ENDBRANCH   8  11
ENDBRANCH   1   7
BRANCH   4  26
ATOM     26  C   UNL     1      -5.066  -0.981  -1.790  1.00  0.00     0.299 C 
BRANCH  26  27
ATOM     27  N   UNL     1      -5.016  -2.061  -0.775  1.00  0.00    -0.331 N 
ATOM     28  C   UNL     1      -6.344  -2.712  -0.682  1.00  0.00     0.262 C 
ATOM     29  C   UNL     1      -3.972  -3.058  -1.113  1.00  0.00     0.262 C 
ATOM     30  C   UNL     1      -6.352  -3.816   0.383  1.00  0.00     0.062 C 
ATOM     31  C   UNL     1      -3.907  -4.176  -0.063  1.00  0.00     0.062 C 
ATOM     32  C   UNL     1      -5.269  -4.854   0.088  1.00  0.00     0.012 C 
ATOM     33  H   UNL     1      -4.794  -1.635   0.157  1.00  0.00     0.348 HD
ENDBRANCH  26  27
ENDBRANCH   4  26
TORSDOF 6


