REMARK SMILES C/C=C/C(=O)Sc1cccc(-c2ccc3c(c2)CC3)c1
REMARK SMILES IDX 4 1 5 2 3 3 2 4 1 5 6 6 7 7 8 8 20 9 9 10 11 11 10 12 12 13
REMARK SMILES IDX 13 14 17 15 14 16 16 17 15 18 18 19 19 20
REMARK H PARENT
ROOT
ATOM      1  C   UNL     1       3.816   1.093  -0.394  1.00  0.00     0.216 C 
ATOM      2  O   UNL     1       4.502   1.503   0.580  1.00  0.00    -0.282 OA
ENDROOT
BRANCH   1   3
ATOM      3  C   UNL     1       3.023   2.025  -1.213  1.00  0.00     0.055 C 
BRANCH   3   4
ATOM      4  C   UNL     1       2.965   3.334  -0.952  1.00  0.00    -0.026 C 
ATOM      5  C   UNL     1       2.140   4.248  -1.800  1.00  0.00     0.036 C 
ENDBRANCH   3   4
ENDBRANCH   1   3
BRANCH   1   6
ATOM      6  S   UNL     1       3.808  -0.654  -0.786  1.00  0.00    -0.047 SA
BRANCH   6   7
ATOM      7  C   UNL     1       2.383  -0.971   0.254  1.00  0.00     0.016 A 
ATOM      8  C   UNL     1       2.560  -1.321   1.597  1.00  0.00     0.015 A 
ATOM      9  C   UNL     1       1.091  -0.866  -0.276  1.00  0.00     0.024 A 
ATOM     10  C   UNL     1       1.450  -1.558   2.409  1.00  0.00     0.002 A 
ATOM     11  C   UNL     1      -0.035  -1.099   0.535  1.00  0.00    -0.017 A 
ATOM     12  C   UNL     1       0.159  -1.447   1.884  1.00  0.00     0.009 A 
BRANCH  11  13
ATOM     13  C   UNL     1      -1.404  -0.977  -0.025  1.00  0.00    -0.018 A 
ATOM     14  C   UNL     1      -2.444  -0.353   0.752  1.00  0.00     0.009 A 
ATOM     15  C   UNL     1      -1.679  -1.478  -1.331  1.00  0.00     0.012 A 
ATOM     16  C   UNL     1      -3.766  -0.212   0.265  1.00  0.00     0.004 A 
ATOM     17  C   UNL     1      -2.976  -1.324  -1.775  1.00  0.00    -0.044 A 
ATOM     18  C   UNL     1      -3.989  -0.710  -1.000  1.00  0.00    -0.044 A 
ATOM     19  C   UNL     1      -3.941  -1.556  -2.885  1.00  0.00     0.040 C 
ATOM     20  C   UNL     1      -4.980  -0.925  -2.092  1.00  0.00     0.040 C 
ENDBRANCH  11  13
ENDBRANCH   6   7
ENDBRANCH   1   6
TORSDOF 5


