MODEL 1
REMARK VINA RESULT:     -10.3      0.000      0.000
REMARK SMILES C=Cc1cc(-c2ccc3cc[nH]c3c2)cc([O-])c1F
REMARK SMILES IDX 3 1 4 2 5 3 15 4 16 5 17 6 18 7 19 8 2 9 1 10 6 11 7 12
REMARK SMILES IDX 14 13 8 14 13 15 9 16 12 17 10 18 11 19
REMARK H PARENT 12 20
ROOT
ATOM      1  C   UNL     1      46.275 130.388  15.158  1.00  0.00     0.010 A 
ATOM      2  C   UNL     1      46.094 130.440  16.555  1.00  0.00     0.019 A 
ATOM      3  C   UNL     1      44.944 131.029  17.113  1.00  0.00    -0.018 A 
ATOM      4  C   UNL     1      43.965 131.559  16.257  1.00  0.00     0.003 A 
ATOM      5  C   UNL     1      44.128 131.498  14.872  1.00  0.00    -0.071 A 
ATOM      6  O   UNL     1      43.149 132.024  14.038  1.00  0.00    -0.870 OA
ATOM      7  C   UNL     1      45.272 130.911  14.322  1.00  0.00     0.122 A 
ATOM      8  F   UNL     1      45.409 130.868  12.972  1.00  0.00    -0.207 F 
ENDROOT
BRANCH   1   9
ATOM      9  C   UNL     1      47.473 129.760  14.544  1.00  0.00     0.003 C 
ATOM     10  C   UNL     1      48.092 130.241  13.465  1.00  0.00     0.009 C 
ENDBRANCH   1   9
BRANCH   3  11
ATOM     11  C   UNL     1      44.764 131.083  18.586  1.00  0.00    -0.016 A 
ATOM     12  C   UNL     1      45.761 130.553  19.451  1.00  0.00     0.009 A 
ATOM     13  C   UNL     1      43.599 131.663  19.143  1.00  0.00     0.035 A 
ATOM     14  C   UNL     1      45.602 130.598  20.848  1.00  0.00     0.011 A 
ATOM     15  C   UNL     1      43.475 131.691  20.530  1.00  0.00     0.046 A 
ATOM     16  C   UNL     1      44.441 131.177  21.352  1.00  0.00    -0.001 A 
ATOM     17  N   UNL     1      42.455 132.188  21.249  1.00  0.00    -0.361 N 
ATOM     18  C   UNL     1      44.018 131.357  22.650  1.00  0.00     0.028 A 
ATOM     19  C   UNL     1      42.783 131.987  22.546  1.00  0.00     0.083 A 
ATOM     20  H   UNL     1      41.586 132.638  20.884  1.00  0.00     0.166 HD
ENDBRANCH   3  11
TORSDOF 2
ENDMDL
MODEL 2
REMARK VINA RESULT:     -10.2      3.305      6.655
REMARK SMILES C=Cc1cc(-c2ccc3cc[nH]c3c2)cc([O-])c1F
REMARK SMILES IDX 3 1 4 2 5 3 15 4 16 5 17 6 18 7 19 8 2 9 1 10 6 11 7 12
REMARK SMILES IDX 14 13 8 14 13 15 9 16 12 17 10 18 11 19
REMARK H PARENT 12 20
ROOT
ATOM      1  C   UNL     1      44.385 131.258  20.424  1.00  0.00     0.010 A 
ATOM      2  C   UNL     1      45.044 131.052  19.196  1.00  0.00     0.019 A 
ATOM      3  C   UNL     1      44.428 131.397  17.979  1.00  0.00    -0.018 A 
ATOM      4  C   UNL     1      43.144 131.965  18.001  1.00  0.00     0.003 A 
ATOM      5  C   UNL     1      42.490 132.188  19.213  1.00  0.00    -0.071 A 
ATOM      6  O   UNL     1      41.220 132.753  19.218  1.00  0.00    -0.870 OA
ATOM      7  C   UNL     1      43.106 131.844  20.420  1.00  0.00     0.122 A 
ATOM      8  F   UNL     1      42.446 132.066  21.586  1.00  0.00    -0.207 F 
ENDROOT
BRANCH   1   9
ATOM      9  C   UNL     1      45.018 130.915  21.724  1.00  0.00     0.003 C 
ATOM     10  C   UNL     1      44.668 129.862  22.465  1.00  0.00     0.009 C 
ENDBRANCH   1   9
BRANCH   3  11
ATOM     11  C   UNL     1      45.129 131.171  16.689  1.00  0.00    -0.016 A 
ATOM     12  C   UNL     1      44.673 131.808  15.502  1.00  0.00     0.009 A 
ATOM     13  C   UNL     1      46.259 130.319  16.629  1.00  0.00     0.035 A 
ATOM     14  C   UNL     1      45.329 131.601  14.275  1.00  0.00     0.011 A 
ATOM     15  C   UNL     1      46.883 130.138  15.397  1.00  0.00     0.046 A 
ATOM     16  C   UNL     1      46.434 130.756  14.263  1.00  0.00    -0.001 A 
ATOM     17  N   UNL     1      47.956 129.374  15.130  1.00  0.00    -0.361 N 
ATOM     18  C   UNL     1      47.257 130.370  13.228  1.00  0.00     0.028 A 
ATOM     19  C   UNL     1      48.189 129.514  13.805  1.00  0.00     0.083 A 
ATOM     20  H   UNL     1      48.499 128.791  15.804  1.00  0.00     0.166 HD
ENDBRANCH   3  11
TORSDOF 2
ENDMDL
MODEL 3
REMARK VINA RESULT:     -10.1      3.691      7.014
REMARK SMILES C=Cc1cc(-c2ccc3cc[nH]c3c2)cc([O-])c1F
REMARK SMILES IDX 3 1 4 2 5 3 15 4 16 5 17 6 18 7 19 8 2 9 1 10 6 11 7 12
REMARK SMILES IDX 14 13 8 14 13 15 9 16 12 17 10 18 11 19
REMARK H PARENT 12 20
ROOT
ATOM      1  C   UNL     1      43.123 131.794  19.417  1.00  0.00     0.010 A 
ATOM      2  C   UNL     1      43.784 131.766  18.173  1.00  0.00     0.019 A 
ATOM      3  C   UNL     1      45.036 131.138  18.035  1.00  0.00    -0.018 A 
ATOM      4  C   UNL     1      45.619 130.525  19.155  1.00  0.00     0.003 A 
ATOM      5  C   UNL     1      44.965 130.534  20.388  1.00  0.00    -0.071 A 
ATOM      6  O   UNL     1      45.554 129.921  21.487  1.00  0.00    -0.870 OA
ATOM      7  C   UNL     1      43.721 131.159  20.521  1.00  0.00     0.122 A 
ATOM      8  F   UNL     1      43.106 131.159  21.732  1.00  0.00    -0.207 F 
ENDROOT
BRANCH   1   9
ATOM      9  C   UNL     1      41.796 132.439  19.587  1.00  0.00     0.003 C 
ATOM     10  C   UNL     1      41.547 133.406  20.472  1.00  0.00     0.009 C 
ENDBRANCH   1   9
BRANCH   3  11
ATOM     11  C   UNL     1      45.727 131.117  16.720  1.00  0.00    -0.016 A 
ATOM     12  C   UNL     1      45.692 132.258  15.872  1.00  0.00     0.009 A 
ATOM     13  C   UNL     1      46.428 129.961  16.299  1.00  0.00     0.035 A 
ATOM     14  C   UNL     1      46.343 132.250  14.625  1.00  0.00     0.011 A 
ATOM     15  C   UNL     1      47.060 129.988  15.059  1.00  0.00     0.046 A 
ATOM     16  C   UNL     1      47.019 131.092  14.252  1.00  0.00    -0.001 A 
ATOM     17  N   UNL     1      47.767 129.003  14.480  1.00  0.00    -0.361 N 
ATOM     18  C   UNL     1      47.731 130.797  13.110  1.00  0.00     0.028 A 
ATOM     19  C   UNL     1      48.180 129.493  13.289  1.00  0.00     0.083 A 
ATOM     20  H   UNL     1      47.958 128.052  14.868  1.00  0.00     0.166 HD
ENDBRANCH   3  11
TORSDOF 2
ENDMDL
MODEL 4
REMARK VINA RESULT:      -9.7      3.290      6.611
REMARK SMILES C=Cc1cc(-c2ccc3cc[nH]c3c2)cc([O-])c1F
REMARK SMILES IDX 3 1 4 2 5 3 15 4 16 5 17 6 18 7 19 8 2 9 1 10 6 11 7 12
REMARK SMILES IDX 14 13 8 14 13 15 9 16 12 17 10 18 11 19
REMARK H PARENT 12 20
ROOT
ATOM      1  C   UNL     1      44.419 131.475  20.349  1.00  0.00     0.010 A 
ATOM      2  C   UNL     1      45.151 131.081  19.210  1.00  0.00     0.019 A 
ATOM      3  C   UNL     1      44.599 131.196  17.921  1.00  0.00    -0.018 A 
ATOM      4  C   UNL     1      43.306 131.723  17.778  1.00  0.00     0.003 A 
ATOM      5  C   UNL     1      42.579 132.131  18.898  1.00  0.00    -0.071 A 
ATOM      6  O   UNL     1      41.301 132.653  18.738  1.00  0.00    -0.870 OA
ATOM      7  C   UNL     1      43.132 132.015  20.177  1.00  0.00     0.122 A 
ATOM      8  F   UNL     1      42.403 132.414  21.251  1.00  0.00    -0.207 F 
ENDROOT
BRANCH   1   9
ATOM      9  C   UNL     1      44.983 131.375  21.719  1.00  0.00     0.003 C 
ATOM     10  C   UNL     1      44.310 130.899  22.767  1.00  0.00     0.009 C 
ENDBRANCH   1   9
BRANCH   3  11
ATOM     11  C   UNL     1      45.376 130.774  16.728  1.00  0.00    -0.016 A 
ATOM     12  C   UNL     1      45.532 129.394  16.424  1.00  0.00     0.009 A 
ATOM     13  C   UNL     1      45.969 131.742  15.882  1.00  0.00     0.035 A 
ATOM     14  C   UNL     1      46.267 128.981  15.298  1.00  0.00     0.011 A 
ATOM     15  C   UNL     1      46.689 131.298  14.775  1.00  0.00     0.046 A 
ATOM     16  C   UNL     1      46.832 129.967  14.494  1.00  0.00    -0.001 A 
ATOM     17  N   UNL     1      47.324 132.048  13.860  1.00  0.00    -0.361 N 
ATOM     18  C   UNL     1      47.591 129.865  13.349  1.00  0.00     0.028 A 
ATOM     19  C   UNL     1      47.877 131.177  12.986  1.00  0.00     0.083 A 
ATOM     20  H   UNL     1      47.383 133.090  13.828  1.00  0.00     0.166 HD
ENDBRANCH   3  11
TORSDOF 2
ENDMDL
MODEL 5
REMARK VINA RESULT:      -9.5      0.939      1.571
REMARK SMILES C=Cc1cc(-c2ccc3cc[nH]c3c2)cc([O-])c1F
REMARK SMILES IDX 3 1 4 2 5 3 15 4 16 5 17 6 18 7 19 8 2 9 1 10 6 11 7 12
REMARK SMILES IDX 14 13 8 14 13 15 9 16 12 17 10 18 11 19
REMARK H PARENT 12 20
ROOT
ATOM      1  C   UNL     1      46.139 130.543  15.527  1.00  0.00     0.010 A 
ATOM      2  C   UNL     1      45.704 130.701  16.859  1.00  0.00     0.019 A 
ATOM      3  C   UNL     1      44.460 131.293  17.146  1.00  0.00    -0.018 A 
ATOM      4  C   UNL     1      43.645 131.718  16.085  1.00  0.00     0.003 A 
ATOM      5  C   UNL     1      44.060 131.551  14.763  1.00  0.00    -0.071 A 
ATOM      6  O   UNL     1      43.241 131.975  13.724  1.00  0.00    -0.870 OA
ATOM      7  C   UNL     1      45.297 130.962  14.482  1.00  0.00     0.122 A 
ATOM      8  F   UNL     1      45.681 130.816  13.187  1.00  0.00    -0.207 F 
ENDROOT
BRANCH   1   9
ATOM      9  C   UNL     1      47.442 129.910  15.196  1.00  0.00     0.003 C 
ATOM     10  C   UNL     1      47.785 129.515  13.969  1.00  0.00     0.009 C 
ENDBRANCH   1   9
BRANCH   3  11
ATOM     11  C   UNL     1      44.013 131.459  18.553  1.00  0.00    -0.016 A 
ATOM     12  C   UNL     1      42.705 131.938  18.838  1.00  0.00     0.009 A 
ATOM     13  C   UNL     1      44.884 131.142  19.623  1.00  0.00     0.035 A 
ATOM     14  C   UNL     1      42.269 132.100  20.166  1.00  0.00     0.011 A 
ATOM     15  C   UNL     1      44.420 131.315  20.924  1.00  0.00     0.046 A 
ATOM     16  C   UNL     1      43.159 131.777  21.186  1.00  0.00    -0.001 A 
ATOM     17  N   UNL     1      45.086 131.077  22.067  1.00  0.00    -0.361 N 
ATOM     18  C   UNL     1      43.016 131.835  22.554  1.00  0.00     0.028 A 
ATOM     19  C   UNL     1      44.231 131.393  23.066  1.00  0.00     0.083 A 
ATOM     20  H   UNL     1      46.063 130.723  22.166  1.00  0.00     0.166 HD
ENDBRANCH   3  11
TORSDOF 2
ENDMDL
MODEL 6
REMARK VINA RESULT:      -9.0      3.489      6.812
REMARK SMILES C=Cc1cc(-c2ccc3cc[nH]c3c2)cc([O-])c1F
REMARK SMILES IDX 3 1 4 2 5 3 15 4 16 5 17 6 18 7 19 8 2 9 1 10 6 11 7 12
REMARK SMILES IDX 14 13 8 14 13 15 9 16 12 17 10 18 11 19
REMARK H PARENT 12 20
ROOT
ATOM      1  C   UNL     1      43.876 131.092  21.546  1.00  0.00     0.010 A 
ATOM      2  C   UNL     1      44.433 130.875  20.270  1.00  0.00     0.019 A 
ATOM      3  C   UNL     1      43.879 131.481  19.127  1.00  0.00    -0.018 A 
ATOM      4  C   UNL     1      42.763 132.320  19.273  1.00  0.00     0.003 A 
ATOM      5  C   UNL     1      42.214 132.555  20.535  1.00  0.00    -0.071 A 
ATOM      6  O   UNL     1      41.111 133.391  20.663  1.00  0.00    -0.870 OA
ATOM      7  C   UNL     1      42.768 131.951  21.668  1.00  0.00     0.122 A 
ATOM      8  F   UNL     1      42.213 132.191  22.884  1.00  0.00    -0.207 F 
ENDROOT
BRANCH   1   9
ATOM      9  C   UNL     1      44.449 130.475  22.769  1.00  0.00     0.003 C 
ATOM     10  C   UNL     1      44.551 131.105  23.941  1.00  0.00     0.009 C 
ENDBRANCH   1   9
BRANCH   3  11
ATOM     11  C   UNL     1      44.470 131.242  17.786  1.00  0.00    -0.016 A 
ATOM     12  C   UNL     1      43.821 131.728  16.618  1.00  0.00     0.009 A 
ATOM     13  C   UNL     1      45.686 130.528  17.658  1.00  0.00     0.035 A 
ATOM     14  C   UNL     1      44.371 131.507  15.342  1.00  0.00     0.011 A 
ATOM     15  C   UNL     1      46.201 130.328  16.379  1.00  0.00     0.046 A 
ATOM     16  C   UNL     1      45.567 130.800  15.263  1.00  0.00    -0.001 A 
ATOM     17  N   UNL     1      47.330 129.679  16.046  1.00  0.00    -0.361 N 
ATOM     18  C   UNL     1      46.325 130.437  14.172  1.00  0.00     0.028 A 
ATOM     19  C   UNL     1      47.410 129.744  14.697  1.00  0.00     0.083 A 
ATOM     20  H   UNL     1      48.007 129.217  16.693  1.00  0.00     0.166 HD
ENDBRANCH   3  11
TORSDOF 2
ENDMDL
MODEL 7
REMARK VINA RESULT:      -8.6      3.418      6.636
REMARK SMILES C=Cc1cc(-c2ccc3cc[nH]c3c2)cc([O-])c1F
REMARK SMILES IDX 3 1 4 2 5 3 15 4 16 5 17 6 18 7 19 8 2 9 1 10 6 11 7 12
REMARK SMILES IDX 14 13 8 14 13 15 9 16 12 17 10 18 11 19
REMARK H PARENT 12 20
ROOT
ATOM      1  C   UNL     1      44.130 131.148  21.435  1.00  0.00     0.010 A 
ATOM      2  C   UNL     1      44.841 130.833  20.260  1.00  0.00     0.019 A 
ATOM      3  C   UNL     1      44.404 131.298  19.006  1.00  0.00    -0.018 A 
ATOM      4  C   UNL     1      43.250 132.094  18.937  1.00  0.00     0.003 A 
ATOM      5  C   UNL     1      42.548 132.425  20.098  1.00  0.00    -0.071 A 
ATOM      6  O   UNL     1      41.409 133.216  20.014  1.00  0.00    -0.870 OA
ATOM      7  C   UNL     1      42.986 131.961  21.342  1.00  0.00     0.122 A 
ATOM      8  F   UNL     1      42.283 132.292  22.456  1.00  0.00    -0.207 F 
ENDROOT
BRANCH   1   9
ATOM      9  C   UNL     1      44.577 130.681  22.773  1.00  0.00     0.003 C 
ATOM     10  C   UNL     1      44.113 129.581  23.369  1.00  0.00     0.009 C 
ENDBRANCH   1   9
BRANCH   3  11
ATOM     11  C   UNL     1      45.157 130.957  17.772  1.00  0.00    -0.016 A 
ATOM     12  C   UNL     1      45.673 129.646  17.584  1.00  0.00     0.009 A 
ATOM     13  C   UNL     1      45.369 131.936  16.770  1.00  0.00     0.035 A 
ATOM     14  C   UNL     1      46.388 129.311  16.420  1.00  0.00     0.011 A 
ATOM     15  C   UNL     1      46.081 131.570  15.631  1.00  0.00     0.046 A 
ATOM     16  C   UNL     1      46.572 130.304  15.462  1.00  0.00    -0.001 A 
ATOM     17  N   UNL     1      46.390 132.344  14.577  1.00  0.00    -0.361 N 
ATOM     18  C   UNL     1      47.221 130.270  14.248  1.00  0.00     0.028 A 
ATOM     19  C   UNL     1      47.086 131.553  13.728  1.00  0.00     0.083 A 
ATOM     20  H   UNL     1      46.145 133.349  14.439  1.00  0.00     0.166 HD
ENDBRANCH   3  11
TORSDOF 2
ENDMDL
MODEL 8
REMARK VINA RESULT:      -8.1      1.427      2.349
REMARK SMILES C=Cc1cc(-c2ccc3cc[nH]c3c2)cc([O-])c1F
REMARK SMILES IDX 3 1 4 2 5 3 15 4 16 5 17 6 18 7 19 8 2 9 1 10 6 11 7 12
REMARK SMILES IDX 14 13 8 14 13 15 9 16 12 17 10 18 11 19
REMARK H PARENT 12 20
ROOT
ATOM      1  C   UNL     1      44.419 131.458  15.135  1.00  0.00     0.010 A 
ATOM      2  C   UNL     1      44.180 131.533  16.522  1.00  0.00     0.019 A 
ATOM      3  C   UNL     1      45.085 130.971  17.442  1.00  0.00    -0.018 A 
ATOM      4  C   UNL     1      46.243 130.340  16.961  1.00  0.00     0.003 A 
ATOM      5  C   UNL     1      46.496 130.275  15.590  1.00  0.00    -0.071 A 
ATOM      6  O   UNL     1      47.649 129.649  15.130  1.00  0.00    -0.870 OA
ATOM      7  C   UNL     1      45.595 130.835  14.679  1.00  0.00     0.122 A 
ATOM      8  F   UNL     1      45.861 130.754  13.350  1.00  0.00    -0.207 F 
ENDROOT
BRANCH   1   9
ATOM      9  C   UNL     1      43.487 132.054  14.144  1.00  0.00     0.003 C 
ATOM     10  C   UNL     1      42.661 131.339  13.377  1.00  0.00     0.009 C 
ENDBRANCH   1   9
BRANCH   3  11
ATOM     11  C   UNL     1      44.822 131.050  18.901  1.00  0.00    -0.016 A 
ATOM     12  C   UNL     1      45.773 130.547  19.831  1.00  0.00     0.009 A 
ATOM     13  C   UNL     1      43.622 131.630  19.381  1.00  0.00     0.035 A 
ATOM     14  C   UNL     1      45.535 130.616  21.216  1.00  0.00     0.011 A 
ATOM     15  C   UNL     1      43.420 131.682  20.758  1.00  0.00     0.046 A 
ATOM     16  C   UNL     1      44.342 131.193  21.642  1.00  0.00    -0.001 A 
ATOM     17  N   UNL     1      42.357 132.183  21.409  1.00  0.00    -0.361 N 
ATOM     18  C   UNL     1      43.845 131.392  22.911  1.00  0.00     0.028 A 
ATOM     19  C   UNL     1      42.612 132.008  22.725  1.00  0.00     0.083 A 
ATOM     20  H   UNL     1      41.505 132.617  20.987  1.00  0.00     0.166 HD
ENDBRANCH   3  11
TORSDOF 2
ENDMDL
MODEL 9
REMARK VINA RESULT:      -8.1      3.662      6.931
REMARK SMILES C=Cc1cc(-c2ccc3cc[nH]c3c2)cc([O-])c1F
REMARK SMILES IDX 3 1 4 2 5 3 15 4 16 5 17 6 18 7 19 8 2 9 1 10 6 11 7 12
REMARK SMILES IDX 14 13 8 14 13 15 9 16 12 17 10 18 11 19
REMARK H PARENT 12 20
ROOT
ATOM      1  C   UNL     1      43.084 131.933  19.340  1.00  0.00     0.010 A 
ATOM      2  C   UNL     1      43.707 131.601  18.120  1.00  0.00     0.019 A 
ATOM      3  C   UNL     1      44.971 130.982  18.099  1.00  0.00    -0.018 A 
ATOM      4  C   UNL     1      45.605 130.685  19.316  1.00  0.00     0.003 A 
ATOM      5  C   UNL     1      44.989 130.995  20.530  1.00  0.00    -0.071 A 
ATOM      6  O   UNL     1      45.629 130.692  21.725  1.00  0.00    -0.870 OA
ATOM      7  C   UNL     1      43.733 131.609  20.546  1.00  0.00     0.122 A 
ATOM      8  F   UNL     1      43.157 131.905  21.739  1.00  0.00    -0.207 F 
ENDROOT
BRANCH   1   9
ATOM      9  C   UNL     1      41.746 132.574  19.390  1.00  0.00     0.003 C 
ATOM     10  C   UNL     1      41.338 133.366  20.384  1.00  0.00     0.009 C 
ENDBRANCH   1   9
BRANCH   3  11
ATOM     11  C   UNL     1      45.621 130.641  16.808  1.00  0.00    -0.016 A 
ATOM     12  C   UNL     1      45.715 129.286  16.387  1.00  0.00     0.009 A 
ATOM     13  C   UNL     1      46.154 131.662  15.985  1.00  0.00     0.035 A 
ATOM     14  C   UNL     1      46.329 128.951  15.167  1.00  0.00     0.011 A 
ATOM     15  C   UNL     1      46.755 131.294  14.783  1.00  0.00     0.046 A 
ATOM     16  C   UNL     1      46.839 129.986  14.390  1.00  0.00    -0.001 A 
ATOM     17  N   UNL     1      47.319 132.102  13.871  1.00  0.00    -0.361 N 
ATOM     18  C   UNL     1      47.484 129.961  13.173  1.00  0.00     0.028 A 
ATOM     19  C   UNL     1      47.766 131.292  12.884  1.00  0.00     0.083 A 
ATOM     20  H   UNL     1      47.399 133.143  13.913  1.00  0.00     0.166 HD
ENDBRANCH   3  11
TORSDOF 2
ENDMDL


