MODEL 1
REMARK VINA RESULT:      -6.9      0.000      0.000
REMARK SMILES Cc1cc2ccc([C@@H]3O[C@H](C)NN3C(O)=C3C[NH2+]C3)cc2[nH]1
REMARK SMILES IDX 8 1 9 2 10 3 11 4 12 5 13 6 7 8 2 9 3 10 22 11 4 12 21 13
REMARK SMILES IDX 5 14 20 15 6 16 1 17 14 19 15 20 16 22 17 23 19 24 18 25
REMARK H PARENT 12 7 22 18 15 21 18 26 18 27
ROOT
ATOM      1  C   UNL     1      43.195 131.250  22.604  1.00  0.00     0.267 C 
ATOM      2  O   UNL     1      43.397 132.506  23.198  1.00  0.00    -0.333 OA
ATOM      3  C   UNL     1      43.983 132.274  24.470  1.00  0.00     0.204 C 
ATOM      4  C   UNL     1      45.227 133.139  24.625  1.00  0.00     0.058 C 
ATOM      5  N   UNL     1      44.342 130.860  24.617  1.00  0.00    -0.201 NA
ATOM      6  N   UNL     1      43.814 130.278  23.471  1.00  0.00    -0.243 N 
ATOM      7  H   UNL     1      43.814 130.471  25.433  1.00  0.00     0.151 HD
ENDROOT
BRANCH   1   8
ATOM      8  C   UNL     1      43.821 131.235  21.230  1.00  0.00     0.005 A 
ATOM      9  C   UNL     1      44.103 131.559  16.738  1.00  0.00     0.013 A 
ATOM     10  C   UNL     1      45.300 131.226  17.364  1.00  0.00     0.031 A 
ATOM     11  N   UNL     1      43.106 131.720  17.640  1.00  0.00    -0.359 N 
ATOM     12  C   UNL     1      44.992 131.169  18.706  1.00  0.00    -0.000 A 
ATOM     13  C   UNL     1      43.663 131.473  18.839  1.00  0.00     0.046 A 
ATOM     14  C   UNL     1      45.793 130.884  19.807  1.00  0.00     0.011 A 
ATOM     15  C   UNL     1      43.041 131.514  20.083  1.00  0.00     0.035 A 
ATOM     16  C   UNL     1      45.196 130.914  21.080  1.00  0.00     0.009 A 
ATOM     17  C   UNL     1      43.941 131.806  15.273  1.00  0.00     0.064 C 
ATOM     18  H   UNL     1      42.116 131.991  17.448  1.00  0.00     0.166 HD
ENDBRANCH   1   8
BRANCH   6  19
ATOM     19  C   UNL     1      43.840 128.864  23.209  1.00  0.00     0.214 C 
BRANCH  19  20
ATOM     20  O   UNL     1      44.931 128.315  22.536  1.00  0.00    -0.493 OA
ATOM     21  H   UNL     1      45.211 127.348  22.664  1.00  0.00     0.295 HD
ENDBRANCH  19  20
BRANCH  19  22
ATOM     22  C   UNL     1      42.847 128.069  23.616  1.00  0.00     0.099 C 
ATOM     23  C   UNL     1      42.569 126.589  23.729  1.00  0.00     0.304 C 
ATOM     24  C   UNL     1      41.463 128.164  24.216  1.00  0.00     0.304 C 
ATOM     25  N   UNL     1      41.250 126.737  24.304  1.00  0.00    -0.339 N 
ATOM     26  H   UNL     1      41.203 126.398  25.294  1.00  0.00     0.346 HD
ATOM     27  H   UNL     1      40.493 126.402  23.665  1.00  0.00     0.346 HD
ENDBRANCH  19  22
ENDBRANCH   6  19
TORSDOF 4
ENDMDL
MODEL 2
REMARK VINA RESULT:      -6.4      0.975      1.649
REMARK SMILES Cc1cc2ccc([C@@H]3O[C@H](C)NN3C(O)=C3C[NH2+]C3)cc2[nH]1
REMARK SMILES IDX 8 1 9 2 10 3 11 4 12 5 13 6 7 8 2 9 3 10 22 11 4 12 21 13
REMARK SMILES IDX 5 14 20 15 6 16 1 17 14 19 15 20 16 22 17 23 19 24 18 25
REMARK H PARENT 12 7 22 18 15 21 18 26 18 27
ROOT
ATOM      1  C   UNL     1      43.144 131.389  22.971  1.00  0.00     0.267 C 
ATOM      2  O   UNL     1      43.494 132.614  23.561  1.00  0.00    -0.333 OA
ATOM      3  C   UNL     1      44.393 132.322  24.620  1.00  0.00     0.204 C 
ATOM      4  C   UNL     1      45.634 133.196  24.493  1.00  0.00     0.058 C 
ATOM      5  N   UNL     1      44.779 130.908  24.590  1.00  0.00    -0.201 NA
ATOM      6  N   UNL     1      43.968 130.381  23.590  1.00  0.00    -0.243 N 
ATOM      7  H   UNL     1      44.483 130.468  25.492  1.00  0.00     0.151 HD
ENDROOT
BRANCH   1   8
ATOM      8  C   UNL     1      43.389 131.457  21.482  1.00  0.00     0.005 A 
ATOM      9  C   UNL     1      45.521 130.893  17.546  1.00  0.00     0.013 A 
ATOM     10  C   UNL     1      44.296 131.546  17.446  1.00  0.00     0.031 A 
ATOM     11  N   UNL     1      45.796 130.563  18.830  1.00  0.00    -0.359 N 
ATOM     12  C   UNL     1      43.830 131.622  18.740  1.00  0.00    -0.000 A 
ATOM     13  C   UNL     1      44.756 131.020  19.549  1.00  0.00     0.046 A 
ATOM     14  C   UNL     1      42.655 132.167  19.248  1.00  0.00     0.011 A 
ATOM     15  C   UNL     1      44.573 130.919  20.925  1.00  0.00     0.035 A 
ATOM     16  C   UNL     1      42.439 132.086  20.636  1.00  0.00     0.009 A 
ATOM     17  C   UNL     1      46.387 130.512  16.390  1.00  0.00     0.064 C 
ATOM     18  H   UNL     1      46.633 130.050  19.185  1.00  0.00     0.166 HD
ENDBRANCH   1   8
BRANCH   6  19
ATOM     19  C   UNL     1      43.925 128.983  23.252  1.00  0.00     0.214 C 
BRANCH  19  20
ATOM     20  O   UNL     1      44.967 128.429  22.508  1.00  0.00    -0.493 OA
ATOM     21  H   UNL     1      45.567 128.997  21.919  1.00  0.00     0.295 HD
ENDBRANCH  19  20
BRANCH  19  22
ATOM     22  C   UNL     1      42.915 128.208  23.654  1.00  0.00     0.099 C 
ATOM     23  C   UNL     1      41.410 128.285  23.748  1.00  0.00     0.304 C 
ATOM     24  C   UNL     1      42.672 126.823  24.210  1.00  0.00     0.304 C 
ATOM     25  N   UNL     1      41.233 126.950  24.276  1.00  0.00    -0.339 N 
ATOM     26  H   UNL     1      40.742 126.314  23.604  1.00  0.00     0.346 HD
ATOM     27  H   UNL     1      40.874 126.951  25.259  1.00  0.00     0.346 HD
ENDBRANCH  19  22
ENDBRANCH   6  19
TORSDOF 4
ENDMDL
MODEL 3
REMARK VINA RESULT:      -6.3      1.700      2.239
REMARK SMILES Cc1cc2ccc([C@@H]3O[C@H](C)NN3C(O)=C3C[NH2+]C3)cc2[nH]1
REMARK SMILES IDX 8 1 9 2 10 3 11 4 12 5 13 6 7 8 2 9 3 10 22 11 4 12 21 13
REMARK SMILES IDX 5 14 20 15 6 16 1 17 14 19 15 20 16 22 17 23 19 24 18 25
REMARK H PARENT 12 7 22 18 15 21 18 26 18 27
ROOT
ATOM      1  C   UNL     1      43.068 131.662  22.962  1.00  0.00     0.267 C 
ATOM      2  O   UNL     1      43.667 132.792  23.541  1.00  0.00    -0.333 OA
ATOM      3  C   UNL     1      44.460 132.332  24.625  1.00  0.00     0.204 C 
ATOM      4  C   UNL     1      45.865 132.910  24.512  1.00  0.00     0.058 C 
ATOM      5  N   UNL     1      44.527 130.867  24.625  1.00  0.00    -0.201 NA
ATOM      6  N   UNL     1      43.639 130.510  23.616  1.00  0.00    -0.243 N 
ATOM      7  H   UNL     1      44.125 130.521  25.527  1.00  0.00     0.151 HD
ENDROOT
BRANCH   1   8
ATOM      8  C   UNL     1      43.350 131.644  21.478  1.00  0.00     0.005 A 
ATOM      9  C   UNL     1      45.521 130.751  17.625  1.00  0.00     0.013 A 
ATOM     10  C   UNL     1      44.350 131.485  17.466  1.00  0.00     0.031 A 
ATOM     11  N   UNL     1      45.743 130.461  18.929  1.00  0.00    -0.359 N 
ATOM     12  C   UNL     1      43.862 131.653  18.744  1.00  0.00    -0.000 A 
ATOM     13  C   UNL     1      44.724 131.023  19.601  1.00  0.00     0.046 A 
ATOM     14  C   UNL     1      42.719 132.304  19.198  1.00  0.00     0.011 A 
ATOM     15  C   UNL     1      44.504 130.999  20.976  1.00  0.00     0.035 A 
ATOM     16  C   UNL     1      42.467 132.301  20.582  1.00  0.00     0.009 A 
ATOM     17  C   UNL     1      46.383 130.258  16.509  1.00  0.00     0.064 C 
ATOM     18  H   UNL     1      46.533 129.906  19.328  1.00  0.00     0.166 HD
ENDBRANCH   1   8
BRANCH   6  19
ATOM     19  C   UNL     1      43.298 129.149  23.298  1.00  0.00     0.214 C 
BRANCH  19  20
ATOM     20  O   UNL     1      41.979 128.836  22.973  1.00  0.00    -0.493 OA
ATOM     21  H   UNL     1      41.748 128.221  22.199  1.00  0.00     0.295 HD
ENDBRANCH  19  20
BRANCH  19  22
ATOM     22  C   UNL     1      44.226 128.189  23.293  1.00  0.00     0.099 C 
ATOM     23  C   UNL     1      45.359 127.728  22.406  1.00  0.00     0.304 C 
ATOM     24  C   UNL     1      44.708 127.043  24.152  1.00  0.00     0.304 C 
ATOM     25  N   UNL     1      45.781 126.646  23.268  1.00  0.00    -0.339 N 
ATOM     26  H   UNL     1      46.727 126.810  23.685  1.00  0.00     0.346 HD
ATOM     27  H   UNL     1      45.621 125.705  22.839  1.00  0.00     0.346 HD
ENDBRANCH  19  22
ENDBRANCH   6  19
TORSDOF 4
ENDMDL
MODEL 4
REMARK VINA RESULT:      -5.5      1.452      1.610
REMARK SMILES Cc1cc2ccc([C@@H]3O[C@H](C)NN3C(O)=C3C[NH2+]C3)cc2[nH]1
REMARK SMILES IDX 8 1 9 2 10 3 11 4 12 5 13 6 7 8 2 9 3 10 22 11 4 12 21 13
REMARK SMILES IDX 5 14 20 15 6 16 1 17 14 19 15 20 16 22 17 23 19 24 18 25
REMARK H PARENT 12 7 22 18 15 21 18 26 18 27
ROOT
ATOM      1  C   UNL     1      43.484 131.732  22.479  1.00  0.00     0.267 C 
ATOM      2  O   UNL     1      44.094 132.855  23.063  1.00  0.00    -0.333 OA
ATOM      3  C   UNL     1      44.461 132.487  24.384  1.00  0.00     0.204 C 
ATOM      4  C   UNL     1      45.923 132.841  24.625  1.00  0.00     0.058 C 
ATOM      5  N   UNL     1      44.260 131.050  24.590  1.00  0.00    -0.201 NA
ATOM      6  N   UNL     1      43.636 130.646  23.415  1.00  0.00    -0.243 N 
ATOM      7  H   UNL     1      43.570 130.923  25.366  1.00  0.00     0.151 HD
ENDROOT
BRANCH   1   8
ATOM      8  C   UNL     1      44.155 131.419  21.163  1.00  0.00     0.005 A 
ATOM      9  C   UNL     1      44.809 131.324  16.700  1.00  0.00     0.013 A 
ATOM     10  C   UNL     1      45.787 130.663  17.436  1.00  0.00     0.031 A 
ATOM     11  N   UNL     1      43.867 131.862  17.510  1.00  0.00    -0.359 N 
ATOM     12  C   UNL     1      45.394 130.802  18.750  1.00  0.00    -0.000 A 
ATOM     13  C   UNL     1      44.234 131.531  18.759  1.00  0.00     0.046 A 
ATOM     14  C   UNL     1      45.986 130.348  19.924  1.00  0.00     0.011 A 
ATOM     15  C   UNL     1      43.584 131.858  19.946  1.00  0.00     0.035 A 
ATOM     16  C   UNL     1      45.353 130.658  21.142  1.00  0.00     0.009 A 
ATOM     17  C   UNL     1      44.830 131.509  15.218  1.00  0.00     0.064 C 
ATOM     18  H   UNL     1      43.037 132.428  17.225  1.00  0.00     0.166 HD
ENDBRANCH   1   8
BRANCH   6  19
ATOM     19  C   UNL     1      43.155 129.310  23.185  1.00  0.00     0.214 C 
BRANCH  19  20
ATOM     20  O   UNL     1      41.792 129.102  22.975  1.00  0.00    -0.493 OA
ATOM     21  H   UNL     1      41.227 128.557  23.618  1.00  0.00     0.295 HD
ENDBRANCH  19  20
BRANCH  19  22
ATOM     22  C   UNL     1      43.994 128.272  23.152  1.00  0.00     0.099 C 
ATOM     23  C   UNL     1      44.056 126.897  22.530  1.00  0.00     0.304 C 
ATOM     24  C   UNL     1      45.356 127.869  23.673  1.00  0.00     0.304 C 
ATOM     25  N   UNL     1      45.363 126.563  23.052  1.00  0.00    -0.339 N 
ATOM     26  H   UNL     1      46.087 126.480  22.300  1.00  0.00     0.346 HD
ATOM     27  H   UNL     1      45.330 125.785  23.750  1.00  0.00     0.346 HD
ENDBRANCH  19  22
ENDBRANCH   6  19
TORSDOF 4
ENDMDL
MODEL 5
REMARK VINA RESULT:      -5.1      7.304      9.608
REMARK SMILES Cc1cc2ccc([C@@H]3O[C@H](C)NN3C(O)=C3C[NH2+]C3)cc2[nH]1
REMARK SMILES IDX 8 1 9 2 10 3 11 4 12 5 13 6 7 8 2 9 3 10 22 11 4 12 21 13
REMARK SMILES IDX 5 14 20 15 6 16 1 17 14 19 15 20 16 22 17 23 19 24 18 25
REMARK H PARENT 12 7 22 18 15 21 18 26 18 27
ROOT
ATOM      1  C   UNL     1      49.312 123.179  22.410  1.00  0.00     0.267 C 
ATOM      2  O   UNL     1      50.064 123.516  23.547  1.00  0.00    -0.333 OA
ATOM      3  C   UNL     1      51.348 123.914  23.092  1.00  0.00     0.204 C 
ATOM      4  C   UNL     1      51.715 125.257  23.709  1.00  0.00     0.058 C 
ATOM      5  N   UNL     1      51.363 124.021  21.630  1.00  0.00    -0.201 NA
ATOM      6  N   UNL     1      50.113 123.533  21.264  1.00  0.00    -0.243 N 
ATOM      7  H   UNL     1      52.076 123.351  21.259  1.00  0.00     0.151 HD
ENDROOT
BRANCH   1   8
ATOM      8  C   UNL     1      48.008 123.941  22.422  1.00  0.00     0.005 A 
ATOM      9  C   UNL     1      43.550 124.635  22.472  1.00  0.00     0.013 A 
ATOM     10  C   UNL     1      44.311 125.800  22.434  1.00  0.00     0.031 A 
ATOM     11  N   UNL     1      44.339 123.536  22.493  1.00  0.00    -0.359 N 
ATOM     12  C   UNL     1      45.618 125.366  22.412  1.00  0.00    -0.000 A 
ATOM     13  C   UNL     1      45.601 123.997  22.450  1.00  0.00     0.046 A 
ATOM     14  C   UNL     1      46.810 126.085  22.375  1.00  0.00     0.011 A 
ATOM     15  C   UNL     1      46.774 123.249  22.454  1.00  0.00     0.035 A 
ATOM     16  C   UNL     1      48.015 125.359  22.375  1.00  0.00     0.009 A 
ATOM     17  C   UNL     1      42.060 124.587  22.575  1.00  0.00     0.064 C 
ATOM     18  H   UNL     1      44.033 122.539  22.544  1.00  0.00     0.166 HD
ENDBRANCH   1   8
BRANCH   6  19
ATOM     19  C   UNL     1      49.692 123.359  19.900  1.00  0.00     0.214 C 
BRANCH  19  20
ATOM     20  O   UNL     1      48.334 123.218  19.617  1.00  0.00    -0.493 OA
ATOM     21  H   UNL     1      47.753 124.011  19.367  1.00  0.00     0.295 HD
ENDBRANCH  19  20
BRANCH  19  22
ATOM     22  C   UNL     1      50.579 123.348  18.902  1.00  0.00     0.099 C 
ATOM     23  C   UNL     1      51.493 124.326  18.201  1.00  0.00     0.304 C 
ATOM     24  C   UNL     1      51.207 122.381  17.924  1.00  0.00     0.304 C 
ATOM     25  N   UNL     1      52.064 123.358  17.290  1.00  0.00    -0.339 N 
ATOM     26  H   UNL     1      53.079 123.183  17.474  1.00  0.00     0.346 HD
ATOM     27  H   UNL     1      51.799 123.540  16.294  1.00  0.00     0.346 HD
ENDBRANCH  19  22
ENDBRANCH   6  19
TORSDOF 4
ENDMDL
MODEL 6
REMARK VINA RESULT:      -4.9      1.714      5.877
REMARK SMILES Cc1cc2ccc([C@@H]3O[C@H](C)NN3C(O)=C3C[NH2+]C3)cc2[nH]1
REMARK SMILES IDX 8 1 9 2 10 3 11 4 12 5 13 6 7 8 2 9 3 10 22 11 4 12 21 13
REMARK SMILES IDX 5 14 20 15 6 16 1 17 14 19 15 20 16 22 17 23 19 24 18 25
REMARK H PARENT 12 7 22 18 15 21 18 26 18 27
ROOT
ATOM      1  C   UNL     1      44.736 130.206  23.400  1.00  0.00     0.267 C 
ATOM      2  O   UNL     1      44.004 130.683  24.500  1.00  0.00    -0.333 OA
ATOM      3  C   UNL     1      43.352 131.872  24.079  1.00  0.00     0.204 C 
ATOM      4  C   UNL     1      41.871 131.794  24.427  1.00  0.00     0.058 C 
ATOM      5  N   UNL     1      43.511 132.059  22.634  1.00  0.00    -0.201 NA
ATOM      6  N   UNL     1      44.385 131.039  22.277  1.00  0.00    -0.243 N 
ATOM      7  H   UNL     1      44.011 132.965  22.474  1.00  0.00     0.151 HD
ENDROOT
BRANCH   1   8
ATOM      8  C   UNL     1      44.379 128.762  23.143  1.00  0.00     0.005 A 
ATOM      9  C   UNL     1      41.943 124.964  23.193  1.00  0.00     0.013 A 
ATOM     10  C   UNL     1      43.186 124.839  22.581  1.00  0.00     0.031 A 
ATOM     11  N   UNL     1      41.741 126.227  23.638  1.00  0.00    -0.359 N 
ATOM     12  C   UNL     1      43.758 126.088  22.685  1.00  0.00    -0.000 A 
ATOM     13  C   UNL     1      42.861 126.901  23.326  1.00  0.00     0.046 A 
ATOM     14  C   UNL     1      44.993 126.558  22.249  1.00  0.00     0.011 A 
ATOM     15  C   UNL     1      43.136 128.243  23.575  1.00  0.00     0.035 A 
ATOM     16  C   UNL     1      45.305 127.908  22.487  1.00  0.00     0.009 A 
ATOM     17  C   UNL     1      40.914 123.884  23.273  1.00  0.00     0.064 C 
ATOM     18  H   UNL     1      40.890 126.601  24.113  1.00  0.00     0.166 HD
ENDBRANCH   1   8
BRANCH   6  19
ATOM     19  C   UNL     1      44.914 130.869  20.950  1.00  0.00     0.214 C 
BRANCH  19  20
ATOM     20  O   UNL     1      46.141 130.230  20.781  1.00  0.00    -0.493 OA
ATOM     21  H   UNL     1      46.684 130.325  19.929  1.00  0.00     0.295 HD
ENDBRANCH  19  20
BRANCH  19  22
ATOM     22  C   UNL     1      44.239 131.296  19.880  1.00  0.00     0.099 C 
ATOM     23  C   UNL     1      44.497 131.532  18.410  1.00  0.00     0.304 C 
ATOM     24  C   UNL     1      42.851 131.757  19.497  1.00  0.00     0.304 C 
ATOM     25  N   UNL     1      43.152 131.963  18.098  1.00  0.00    -0.339 N 
ATOM     26  H   UNL     1      42.649 131.290  17.474  1.00  0.00     0.346 HD
ATOM     27  H   UNL     1      43.108 132.971  17.821  1.00  0.00     0.346 HD
ENDBRANCH  19  22
ENDBRANCH   6  19
TORSDOF 4
ENDMDL
MODEL 7
REMARK VINA RESULT:      -4.4      2.092      5.946
REMARK SMILES Cc1cc2ccc([C@@H]3O[C@H](C)NN3C(O)=C3C[NH2+]C3)cc2[nH]1
REMARK SMILES IDX 8 1 9 2 10 3 11 4 12 5 13 6 7 8 2 9 3 10 22 11 4 12 21 13
REMARK SMILES IDX 5 14 20 15 6 16 1 17 14 19 15 20 16 22 17 23 19 24 18 25
REMARK H PARENT 12 7 22 18 15 21 18 26 18 27
ROOT
ATOM      1  C   UNL     1      44.788 130.238  23.391  1.00  0.00     0.267 C 
ATOM      2  O   UNL     1      44.218 130.832  24.528  1.00  0.00    -0.333 OA
ATOM      3  C   UNL     1      43.600 132.036  24.101  1.00  0.00     0.204 C 
ATOM      4  C   UNL     1      42.166 132.085  24.614  1.00  0.00     0.058 C 
ATOM      5  N   UNL     1      43.604 132.123  22.638  1.00  0.00    -0.201 NA
ATOM      6  N   UNL     1      44.365 131.023  22.258  1.00  0.00    -0.243 N 
ATOM      7  H   UNL     1      44.139 132.979  22.362  1.00  0.00     0.151 HD
ENDROOT
BRANCH   1   8
ATOM      8  C   UNL     1      44.313 128.809  23.274  1.00  0.00     0.005 A 
ATOM      9  C   UNL     1      44.525 124.354  22.589  1.00  0.00     0.013 A 
ATOM     10  C   UNL     1      43.249 124.830  22.875  1.00  0.00     0.031 A 
ATOM     11  N   UNL     1      45.432 125.359  22.588  1.00  0.00    -0.359 N 
ATOM     12  C   UNL     1      43.406 126.190  23.034  1.00  0.00    -0.000 A 
ATOM     13  C   UNL     1      44.734 126.475  22.856  1.00  0.00     0.046 A 
ATOM     14  C   UNL     1      42.476 127.179  23.334  1.00  0.00     0.011 A 
ATOM     15  C   UNL     1      45.225 127.773  22.966  1.00  0.00     0.035 A 
ATOM     16  C   UNL     1      42.938 128.503  23.450  1.00  0.00     0.009 A 
ATOM     17  C   UNL     1      44.882 122.916  22.399  1.00  0.00     0.064 C 
ATOM     18  H   UNL     1      46.461 125.282  22.425  1.00  0.00     0.166 HD
ENDBRANCH   1   8
BRANCH   6  19
ATOM     19  C   UNL     1      44.726 130.735  20.896  1.00  0.00     0.214 C 
BRANCH  19  20
ATOM     20  O   UNL     1      45.814 129.900  20.640  1.00  0.00    -0.493 OA
ATOM     21  H   UNL     1      45.696 128.962  20.275  1.00  0.00     0.295 HD
ENDBRANCH  19  20
BRANCH  19  22
ATOM     22  C   UNL     1      44.027 131.239  19.876  1.00  0.00     0.099 C 
ATOM     23  C   UNL     1      42.643 131.792  19.629  1.00  0.00     0.304 C 
ATOM     24  C   UNL     1      44.197 131.578  18.413  1.00  0.00     0.304 C 
ATOM     25  N   UNL     1      42.861 132.099  18.232  1.00  0.00    -0.339 N 
ATOM     26  H   UNL     1      42.853 133.129  18.042  1.00  0.00     0.346 HD
ATOM     27  H   UNL     1      42.280 131.507  17.595  1.00  0.00     0.346 HD
ENDBRANCH  19  22
ENDBRANCH   6  19
TORSDOF 4
ENDMDL
MODEL 8
REMARK VINA RESULT:      -4.4      2.491      4.896
REMARK SMILES Cc1cc2ccc([C@@H]3O[C@H](C)NN3C(O)=C3C[NH2+]C3)cc2[nH]1
REMARK SMILES IDX 8 1 9 2 10 3 11 4 12 5 13 6 7 8 2 9 3 10 22 11 4 12 21 13
REMARK SMILES IDX 5 14 20 15 6 16 1 17 14 19 15 20 16 22 17 23 19 24 18 25
REMARK H PARENT 12 7 22 18 15 21 18 26 18 27
ROOT
ATOM      1  C   UNL     1      45.628 130.709  20.965  1.00  0.00     0.267 C 
ATOM      2  O   UNL     1      44.744 129.781  21.541  1.00  0.00    -0.333 OA
ATOM      3  C   UNL     1      44.230 130.378  22.722  1.00  0.00     0.204 C 
ATOM      4  C   UNL     1      42.709 130.283  22.721  1.00  0.00     0.058 C 
ATOM      5  N   UNL     1      44.637 131.783  22.806  1.00  0.00    -0.201 NA
ATOM      6  N   UNL     1      45.510 131.924  21.733  1.00  0.00    -0.243 N 
ATOM      7  H   UNL     1      45.198 131.910  23.680  1.00  0.00     0.151 HD
ENDROOT
BRANCH   1   8
ATOM      8  C   UNL     1      45.251 130.936  19.521  1.00  0.00     0.005 A 
ATOM      9  C   UNL     1      45.682 131.009  15.030  1.00  0.00     0.013 A 
ATOM     10  C   UNL     1      44.463 131.491  15.496  1.00  0.00     0.031 A 
ATOM     11  N   UNL     1      46.475 130.613  16.053  1.00  0.00    -0.359 N 
ATOM     12  C   UNL     1      44.546 131.392  16.868  1.00  0.00    -0.000 A 
ATOM     13  C   UNL     1      45.771 130.858  17.170  1.00  0.00     0.046 A 
ATOM     14  C   UNL     1      43.624 131.723  17.857  1.00  0.00     0.011 A 
ATOM     15  C   UNL     1      46.161 130.617  18.485  1.00  0.00     0.035 A 
ATOM     16  C   UNL     1      43.988 131.495  19.196  1.00  0.00     0.009 A 
ATOM     17  C   UNL     1      46.048 130.852  13.590  1.00  0.00     0.064 C 
ATOM     18  H   UNL     1      47.430 130.194  15.987  1.00  0.00     0.166 HD
ENDBRANCH   1   8
BRANCH   6  19
ATOM     19  C   UNL     1      46.245 133.129  21.454  1.00  0.00     0.214 C 
BRANCH  19  20
ATOM     20  O   UNL     1      45.977 133.836  20.283  1.00  0.00    -0.493 OA
ATOM     21  H   UNL     1      46.475 134.687  20.043  1.00  0.00     0.295 HD
ENDBRANCH  19  20
BRANCH  19  22
ATOM     22  C   UNL     1      47.163 133.589  22.308  1.00  0.00     0.099 C 
ATOM     23  C   UNL     1      47.259 133.932  23.776  1.00  0.00     0.304 C 
ATOM     24  C   UNL     1      48.617 134.000  22.330  1.00  0.00     0.304 C 
ATOM     25  N   UNL     1      48.654 134.311  23.742  1.00  0.00    -0.339 N 
ATOM     26  H   UNL     1      49.262 133.654  24.283  1.00  0.00     0.346 HD
ATOM     27  H   UNL     1      48.798 135.331  23.926  1.00  0.00     0.346 HD
ENDBRANCH  19  22
ENDBRANCH   6  19
TORSDOF 4
ENDMDL
MODEL 9
REMARK VINA RESULT:      -4.2      2.829      4.231
REMARK SMILES Cc1cc2ccc([C@@H]3O[C@H](C)NN3C(O)=C3C[NH2+]C3)cc2[nH]1
REMARK SMILES IDX 8 1 9 2 10 3 11 4 12 5 13 6 7 8 2 9 3 10 22 11 4 12 21 13
REMARK SMILES IDX 5 14 20 15 6 16 1 17 14 19 15 20 16 22 17 23 19 24 18 25
REMARK H PARENT 12 7 22 18 15 21 18 26 18 27
ROOT
ATOM      1  C   UNL     1      43.530 130.696  18.808  1.00  0.00     0.267 C 
ATOM      2  O   UNL     1      42.410 131.533  18.682  1.00  0.00    -0.333 OA
ATOM      3  C   UNL     1      42.278 132.236  19.909  1.00  0.00     0.204 C 
ATOM      4  C   UNL     1      42.148 133.728  19.631  1.00  0.00     0.058 C 
ATOM      5  N   UNL     1      43.441 131.992  20.767  1.00  0.00    -0.201 NA
ATOM      6  N   UNL     1      44.155 131.026  20.065  1.00  0.00    -0.243 N 
ATOM      7  H   UNL     1      43.107 131.547  21.653  1.00  0.00     0.151 HD
ENDROOT
BRANCH   1   8
ATOM      8  C   UNL     1      44.471 130.933  17.651  1.00  0.00     0.005 A 
ATOM      9  C   UNL     1      47.436 129.982  14.386  1.00  0.00     0.013 A 
ATOM     10  C   UNL     1      47.118 131.332  14.495  1.00  0.00     0.031 A 
ATOM     11  N   UNL     1      46.763 129.245  15.301  1.00  0.00    -0.359 N 
ATOM     12  C   UNL     1      46.224 131.400  15.541  1.00  0.00    -0.000 A 
ATOM     13  C   UNL     1      46.030 130.125  16.003  1.00  0.00     0.046 A 
ATOM     14  C   UNL     1      45.566 132.491  16.099  1.00  0.00     0.011 A 
ATOM     15  C   UNL     1      45.164 129.851  17.058  1.00  0.00     0.035 A 
ATOM     16  C   UNL     1      44.685 132.251  17.169  1.00  0.00     0.009 A 
ATOM     17  C   UNL     1      48.327 129.392  13.341  1.00  0.00     0.064 C 
ATOM     18  H   UNL     1      46.797 128.209  15.426  1.00  0.00     0.166 HD
ENDBRANCH   1   8
BRANCH   6  19
ATOM     19  C   UNL     1      45.349 130.397  20.563  1.00  0.00     0.214 C 
BRANCH  19  20
ATOM     20  O   UNL     1      46.592 130.851  20.125  1.00  0.00    -0.493 OA
ATOM     21  H   UNL     1      47.266 131.267  20.759  1.00  0.00     0.295 HD
ENDBRANCH  19  20
BRANCH  19  22
ATOM     22  C   UNL     1      45.284 129.401  21.450  1.00  0.00     0.099 C 
ATOM     23  C   UNL     1      44.646 129.133  22.793  1.00  0.00     0.304 C 
ATOM     24  C   UNL     1      45.767 127.980  21.629  1.00  0.00     0.304 C 
ATOM     25  N   UNL     1      45.132 127.776  22.912  1.00  0.00    -0.339 N 
ATOM     26  H   UNL     1      44.361 127.068  22.872  1.00  0.00     0.346 HD
ATOM     27  H   UNL     1      45.822 127.664  23.690  1.00  0.00     0.346 HD
ENDBRANCH  19  22
ENDBRANCH   6  19
TORSDOF 4
ENDMDL


