MODEL 1
REMARK VINA RESULT:      -9.5      0.000      0.000
REMARK SMILES C=C1CC[C@@H](Nc2cccc(N=C=S)c2[O-])C[C@H]1F
REMARK SMILES IDX 7 1 8 2 9 3 10 4 11 5 15 6 16 7 6 8 5 10 2 11 3 12 18 13
REMARK SMILES IDX 4 14 17 15 1 16 19 17 12 18 13 19 14 20
REMARK H PARENT 6 9
ROOT
ATOM      1  C   UNL     1      44.336 131.538  18.324  1.00  0.00     0.028 A 
ATOM      2  C   UNL     1      45.600 131.045  18.707  1.00  0.00     0.025 A 
ATOM      3  C   UNL     1      45.903 130.841  20.053  1.00  0.00     0.004 A 
ATOM      4  C   UNL     1      44.959 131.125  21.039  1.00  0.00     0.028 A 
ATOM      5  C   UNL     1      43.691 131.622  20.684  1.00  0.00     0.068 A 
ATOM      6  C   UNL     1      43.387 131.826  19.328  1.00  0.00    -0.058 A 
ATOM      7  O   UNL     1      42.130 132.313  18.980  1.00  0.00    -0.870 OA
ENDROOT
BRANCH   1   8
ATOM      8  N   UNL     1      44.001 131.765  16.936  1.00  0.00    -0.383 N 
ATOM      9  H   UNL     1      43.238 132.448  16.724  1.00  0.00     0.160 HD
BRANCH   8  10
ATOM     10  C   UNL     1      44.652 131.097  15.801  1.00  0.00     0.082 C 
ATOM     11  C   UNL     1      46.888 129.865  14.395  1.00  0.00    -0.043 C 
ATOM     12  C   UNL     1      45.853 128.986  15.059  1.00  0.00     0.035 C 
ATOM     13  C   UNL     1      46.516 131.300  14.081  1.00  0.00     0.194 C 
ATOM     14  C   UNL     1      45.184 129.715  16.228  1.00  0.00     0.029 C 
ATOM     15  C   UNL     1      45.819 131.959  15.279  1.00  0.00     0.067 C 
ATOM     16  C   UNL     1      48.019 129.320  13.917  1.00  0.00     0.011 C 
ATOM     17  F   UNL     1      47.632 132.052  13.751  1.00  0.00    -0.243 F 
ENDBRANCH   8  10
ENDBRANCH   1   8
BRANCH   5  18
ATOM     18  N   UNL     1      42.691 131.927  21.670  1.00  0.00    -0.195 NA
BRANCH  18  19
ATOM     19  C   UNL     1      42.816 131.676  22.912  1.00  0.00     0.064 C 
ATOM     20  S   UNL     1      42.975 131.359  24.484  1.00  0.00    -0.006 S 
ENDBRANCH  18  19
ENDBRANCH   5  18
TORSDOF 4
ENDMDL
MODEL 2
REMARK VINA RESULT:      -8.4      1.548      1.955
REMARK SMILES C=C1CC[C@@H](Nc2cccc(N=C=S)c2[O-])C[C@H]1F
REMARK SMILES IDX 7 1 8 2 9 3 10 4 11 5 15 6 16 7 6 8 5 10 2 11 3 12 18 13
REMARK SMILES IDX 4 14 17 15 1 16 19 17 12 18 13 19 14 20
REMARK H PARENT 6 9
ROOT
ATOM      1  C   UNL     1      44.219 131.976  18.357  1.00  0.00     0.028 A 
ATOM      2  C   UNL     1      42.818 132.022  18.207  1.00  0.00     0.025 A 
ATOM      3  C   UNL     1      41.979 131.702  19.275  1.00  0.00     0.004 A 
ATOM      4  C   UNL     1      42.518 131.331  20.507  1.00  0.00     0.028 A 
ATOM      5  C   UNL     1      43.913 131.273  20.682  1.00  0.00     0.068 A 
ATOM      6  C   UNL     1      44.756 131.596  19.605  1.00  0.00    -0.058 A 
ATOM      7  O   UNL     1      46.135 131.543  19.784  1.00  0.00    -0.870 OA
ENDROOT
BRANCH   1   8
ATOM      8  N   UNL     1      45.108 132.296  17.263  1.00  0.00    -0.383 N 
ATOM      9  H   UNL     1      45.578 133.230  17.274  1.00  0.00     0.160 HD
BRANCH   8  10
ATOM     10  C   UNL     1      45.394 131.403  16.132  1.00  0.00     0.082 C 
ATOM     11  C   UNL     1      47.112 129.806  14.402  1.00  0.00    -0.043 C 
ATOM     12  C   UNL     1      46.304 129.123  15.481  1.00  0.00     0.035 C 
ATOM     13  C   UNL     1      46.681 131.187  13.949  1.00  0.00     0.194 C 
ATOM     14  C   UNL     1      46.012 130.084  16.638  1.00  0.00     0.029 C 
ATOM     15  C   UNL     1      46.370 132.086  15.153  1.00  0.00     0.067 C 
ATOM     16  C   UNL     1      48.049 129.117  13.732  1.00  0.00     0.011 C 
ATOM     17  F   UNL     1      47.663 131.798  13.184  1.00  0.00    -0.243 F 
ENDBRANCH   8  10
ENDBRANCH   1   8
BRANCH   5  18
ATOM     18  N   UNL     1      44.506 130.895  21.936  1.00  0.00    -0.195 NA
BRANCH  18  19
ATOM     19  C   UNL     1      44.050 129.977  22.691  1.00  0.00     0.064 C 
ATOM     20  S   UNL     1      43.473 128.816  23.648  1.00  0.00    -0.006 S 
ENDBRANCH  18  19
ENDBRANCH   5  18
TORSDOF 4
ENDMDL
MODEL 3
REMARK VINA RESULT:      -7.8      1.670      2.433
REMARK SMILES C=C1CC[C@@H](Nc2cccc(N=C=S)c2[O-])C[C@H]1F
REMARK SMILES IDX 7 1 8 2 9 3 10 4 11 5 15 6 16 7 6 8 5 10 2 11 3 12 18 13
REMARK SMILES IDX 4 14 17 15 1 16 19 17 12 18 13 19 14 20
REMARK H PARENT 6 9
ROOT
ATOM      1  C   UNL     1      43.307 131.562  18.138  1.00  0.00     0.028 A 
ATOM      2  C   UNL     1      42.094 132.240  18.373  1.00  0.00     0.025 A 
ATOM      3  C   UNL     1      41.759 132.673  19.657  1.00  0.00     0.004 A 
ATOM      4  C   UNL     1      42.622 132.436  20.727  1.00  0.00     0.028 A 
ATOM      5  C   UNL     1      43.838 131.757  20.520  1.00  0.00     0.068 A 
ATOM      6  C   UNL     1      44.173 131.324  19.227  1.00  0.00    -0.058 A 
ATOM      7  O   UNL     1      45.378 130.658  19.027  1.00  0.00    -0.870 OA
ENDROOT
BRANCH   1   8
ATOM      8  N   UNL     1      43.672 131.098  16.819  1.00  0.00    -0.383 N 
ATOM      9  H   UNL     1      42.911 130.735  16.201  1.00  0.00     0.160 HD
BRANCH   8  10
ATOM     10  C   UNL     1      45.042 131.095  16.287  1.00  0.00     0.082 C 
ATOM     11  C   UNL     1      47.056 130.867  14.192  1.00  0.00    -0.043 C 
ATOM     12  C   UNL     1      46.630 132.238  14.668  1.00  0.00     0.035 C 
ATOM     13  C   UNL     1      46.788 129.679  15.095  1.00  0.00     0.194 C 
ATOM     14  C   UNL     1      45.205 132.204  15.229  1.00  0.00     0.029 C 
ATOM     15  C   UNL     1      45.358 129.727  15.651  1.00  0.00     0.067 C 
ATOM     16  C   UNL     1      47.831 130.750  13.102  1.00  0.00     0.011 C 
ATOM     17  F   UNL     1      46.960 128.481  14.420  1.00  0.00    -0.243 F 
ENDBRANCH   8  10
ENDBRANCH   1   8
BRANCH   5  18
ATOM     18  N   UNL     1      44.753 131.495  21.598  1.00  0.00    -0.195 NA
BRANCH  18  19
ATOM     19  C   UNL     1      44.404 131.035  22.732  1.00  0.00     0.064 C 
ATOM     20  S   UNL     1      43.963 130.453  24.169  1.00  0.00    -0.006 S 
ENDBRANCH  18  19
ENDBRANCH   5  18
TORSDOF 4
ENDMDL
MODEL 4
REMARK VINA RESULT:      -7.7      1.180      1.679
REMARK SMILES C=C1CC[C@@H](Nc2cccc(N=C=S)c2[O-])C[C@H]1F
REMARK SMILES IDX 7 1 8 2 9 3 10 4 11 5 15 6 16 7 6 8 5 10 2 11 3 12 18 13
REMARK SMILES IDX 4 14 17 15 1 16 19 17 12 18 13 19 14 20
REMARK H PARENT 6 9
ROOT
ATOM      1  C   UNL     1      44.843 131.098  18.664  1.00  0.00     0.028 A 
ATOM      2  C   UNL     1      45.955 130.525  19.314  1.00  0.00     0.025 A 
ATOM      3  C   UNL     1      45.997 130.439  20.705  1.00  0.00     0.004 A 
ATOM      4  C   UNL     1      44.938 130.924  21.473  1.00  0.00     0.028 A 
ATOM      5  C   UNL     1      43.818 131.504  20.849  1.00  0.00     0.068 A 
ATOM      6  C   UNL     1      43.777 131.589  19.448  1.00  0.00    -0.058 A 
ATOM      7  O   UNL     1      42.665 132.159  18.835  1.00  0.00    -0.870 OA
ENDROOT
BRANCH   1   8
ATOM      8  N   UNL     1      44.779 131.204  17.224  1.00  0.00    -0.383 N 
ATOM      9  H   UNL     1      43.836 131.299  16.783  1.00  0.00     0.160 HD
BRANCH   8  10
ATOM     10  C   UNL     1      45.948 131.181  16.333  1.00  0.00     0.082 C 
ATOM     11  C   UNL     1      47.310 130.844  13.779  1.00  0.00    -0.043 C 
ATOM     12  C   UNL     1      46.997 132.237  14.276  1.00  0.00     0.035 C 
ATOM     13  C   UNL     1      47.332 129.711  14.786  1.00  0.00     0.194 C 
ATOM     14  C   UNL     1      45.783 132.225  15.211  1.00  0.00     0.029 C 
ATOM     15  C   UNL     1      46.112 129.779  15.713  1.00  0.00     0.067 C 
ATOM     16  C   UNL     1      47.756 130.667  12.524  1.00  0.00     0.011 C 
ATOM     17  F   UNL     1      47.343 128.476  14.158  1.00  0.00    -0.243 F 
ENDBRANCH   8  10
ENDBRANCH   1   8
BRANCH   5  18
ATOM     18  N   UNL     1      42.708 132.015  21.606  1.00  0.00    -0.195 NA
BRANCH  18  19
ATOM     19  C   UNL     1      42.546 131.819  22.854  1.00  0.00     0.064 C 
ATOM     20  S   UNL     1      42.342 131.571  24.433  1.00  0.00    -0.006 S 
ENDBRANCH  18  19
ENDBRANCH   5  18
TORSDOF 4
ENDMDL
MODEL 5
REMARK VINA RESULT:      -7.6      1.513      2.035
REMARK SMILES C=C1CC[C@@H](Nc2cccc(N=C=S)c2[O-])C[C@H]1F
REMARK SMILES IDX 7 1 8 2 9 3 10 4 11 5 15 6 16 7 6 8 5 10 2 11 3 12 18 13
REMARK SMILES IDX 4 14 17 15 1 16 19 17 12 18 13 19 14 20
REMARK H PARENT 6 9
ROOT
ATOM      1  C   UNL     1      44.058 131.568  19.218  1.00  0.00     0.028 A 
ATOM      2  C   UNL     1      42.941 132.097  18.539  1.00  0.00     0.025 A 
ATOM      3  C   UNL     1      41.836 132.565  19.249  1.00  0.00     0.004 A 
ATOM      4  C   UNL     1      41.819 132.512  20.643  1.00  0.00     0.028 A 
ATOM      5  C   UNL     1      42.920 131.985  21.345  1.00  0.00     0.068 A 
ATOM      6  C   UNL     1      44.032 131.515  20.628  1.00  0.00    -0.058 A 
ATOM      7  O   UNL     1      45.120 131.000  21.327  1.00  0.00    -0.870 OA
ENDROOT
BRANCH   1   8
ATOM      8  N   UNL     1      45.212 131.071  18.505  1.00  0.00    -0.383 N 
ATOM      9  H   UNL     1      46.078 130.870  19.057  1.00  0.00     0.160 HD
BRANCH   8  10
ATOM     10  C   UNL     1      45.259 130.833  17.056  1.00  0.00     0.082 C 
ATOM     11  C   UNL     1      46.577 130.292  14.513  1.00  0.00    -0.043 C 
ATOM     12  C   UNL     1      45.904 129.161  15.257  1.00  0.00     0.035 C 
ATOM     13  C   UNL     1      46.172 131.713  14.850  1.00  0.00     0.194 C 
ATOM     14  C   UNL     1      45.860 129.445  16.762  1.00  0.00     0.029 C 
ATOM     15  C   UNL     1      46.112 131.919  16.369  1.00  0.00     0.067 C 
ATOM     16  C   UNL     1      47.351 130.024  13.449  1.00  0.00     0.011 C 
ATOM     17  F   UNL     1      47.059 132.633  14.314  1.00  0.00    -0.243 F 
ENDBRANCH   8  10
ENDBRANCH   1   8
BRANCH   5  18
ATOM     18  N   UNL     1      42.941 131.914  22.781  1.00  0.00    -0.195 NA
BRANCH  18  19
ATOM     19  C   UNL     1      42.642 130.871  23.447  1.00  0.00     0.064 C 
ATOM     20  S   UNL     1      42.263 129.551  24.289  1.00  0.00    -0.006 S 
ENDBRANCH  18  19
ENDBRANCH   5  18
TORSDOF 4
ENDMDL
MODEL 6
REMARK VINA RESULT:      -7.2      1.730      2.407
REMARK SMILES C=C1CC[C@@H](Nc2cccc(N=C=S)c2[O-])C[C@H]1F
REMARK SMILES IDX 7 1 8 2 9 3 10 4 11 5 15 6 16 7 6 8 5 10 2 11 3 12 18 13
REMARK SMILES IDX 4 14 17 15 1 16 19 17 12 18 13 19 14 20
REMARK H PARENT 6 9
ROOT
ATOM      1  C   UNL     1      44.540 130.792  18.399  1.00  0.00     0.028 A 
ATOM      2  C   UNL     1      43.394 131.473  17.941  1.00  0.00     0.025 A 
ATOM      3  C   UNL     1      42.646 132.267  18.811  1.00  0.00     0.004 A 
ATOM      4  C   UNL     1      43.023 132.396  20.147  1.00  0.00     0.028 A 
ATOM      5  C   UNL     1      44.160 131.723  20.631  1.00  0.00     0.068 A 
ATOM      6  C   UNL     1      44.912 130.924  19.754  1.00  0.00    -0.058 A 
ATOM      7  O   UNL     1      46.040 130.265  20.235  1.00  0.00    -0.870 OA
ENDROOT
BRANCH   1   8
ATOM      8  N   UNL     1      45.327 129.957  17.520  1.00  0.00    -0.383 N 
ATOM      9  H   UNL     1      45.219 128.920  17.605  1.00  0.00     0.160 HD
BRANCH   8  10
ATOM     10  C   UNL     1      46.275 130.462  16.518  1.00  0.00     0.082 C 
ATOM     11  C   UNL     1      47.223 130.985  13.811  1.00  0.00    -0.043 C 
ATOM     12  C   UNL     1      46.575 132.100  14.600  1.00  0.00     0.035 C 
ATOM     13  C   UNL     1      47.770 129.793  14.572  1.00  0.00     0.194 C 
ATOM     14  C   UNL     1      45.603 131.540  15.644  1.00  0.00     0.029 C 
ATOM     15  C   UNL     1      46.765 129.306  15.623  1.00  0.00     0.067 C 
ATOM     16  C   UNL     1      47.484 131.154  12.505  1.00  0.00     0.011 C 
ATOM     17  F   UNL     1      48.064 128.740  13.719  1.00  0.00    -0.243 F 
ENDBRANCH   8  10
ENDBRANCH   1   8
BRANCH   5  18
ATOM     18  N   UNL     1      44.580 131.831  22.001  1.00  0.00    -0.195 NA
BRANCH  18  19
ATOM     19  C   UNL     1      43.868 131.473  22.995  1.00  0.00     0.064 C 
ATOM     20  S   UNL     1      42.969 131.021  24.252  1.00  0.00    -0.006 S 
ENDBRANCH  18  19
ENDBRANCH   5  18
TORSDOF 4
ENDMDL
MODEL 7
REMARK VINA RESULT:      -7.0      4.539      7.589
REMARK SMILES C=C1CC[C@@H](Nc2cccc(N=C=S)c2[O-])C[C@H]1F
REMARK SMILES IDX 7 1 8 2 9 3 10 4 11 5 15 6 16 7 6 8 5 10 2 11 3 12 18 13
REMARK SMILES IDX 4 14 17 15 1 16 19 17 12 18 13 19 14 20
REMARK H PARENT 6 9
ROOT
ATOM      1  C   UNL     1      44.100 131.492  21.160  1.00  0.00     0.028 A 
ATOM      2  C   UNL     1      42.794 131.949  20.893  1.00  0.00     0.025 A 
ATOM      3  C   UNL     1      42.367 132.150  19.580  1.00  0.00     0.004 A 
ATOM      4  C   UNL     1      43.230 131.903  18.513  1.00  0.00     0.028 A 
ATOM      5  C   UNL     1      44.541 131.450  18.752  1.00  0.00     0.068 A 
ATOM      6  C   UNL     1      44.969 131.247  20.075  1.00  0.00    -0.058 A 
ATOM      7  O   UNL     1      46.264 130.793  20.307  1.00  0.00    -0.870 OA
ENDROOT
BRANCH   1   8
ATOM      8  N   UNL     1      44.568 131.282  22.511  1.00  0.00    -0.383 N 
ATOM      9  H   UNL     1      45.224 131.989  22.916  1.00  0.00     0.160 HD
BRANCH   8  10
ATOM     10  C   UNL     1      44.193 130.140  23.356  1.00  0.00     0.082 C 
ATOM     11  C   UNL     1      42.823 127.637  23.951  1.00  0.00    -0.043 C 
ATOM     12  C   UNL     1      44.285 127.611  23.570  1.00  0.00     0.035 C 
ATOM     13  C   UNL     1      42.235 128.941  24.453  1.00  0.00     0.194 C 
ATOM     14  C   UNL     1      44.647 128.820  22.702  1.00  0.00     0.029 C 
ATOM     15  C   UNL     1      42.665 130.114  23.562  1.00  0.00     0.067 C 
ATOM     16  C   UNL     1      42.134 126.487  24.034  1.00  0.00     0.011 C 
ATOM     17  F   UNL     1      40.850 128.894  24.484  1.00  0.00    -0.243 F 
ENDBRANCH   8  10
ENDBRANCH   1   8
BRANCH   5  18
ATOM     18  N   UNL     1      45.460 131.184  17.679  1.00  0.00    -0.195 NA
BRANCH  18  19
ATOM     19  C   UNL     1      45.165 131.293  16.445  1.00  0.00     0.064 C 
ATOM     20  S   UNL     1      44.792 131.430  14.884  1.00  0.00    -0.006 S 
ENDBRANCH  18  19
ENDBRANCH   5  18
TORSDOF 4
ENDMDL
MODEL 8
REMARK VINA RESULT:      -7.0      2.461      3.101
REMARK SMILES C=C1CC[C@@H](Nc2cccc(N=C=S)c2[O-])C[C@H]1F
REMARK SMILES IDX 7 1 8 2 9 3 10 4 11 5 15 6 16 7 6 8 5 10 2 11 3 12 18 13
REMARK SMILES IDX 4 14 17 15 1 16 19 17 12 18 13 19 14 20
REMARK H PARENT 6 9
ROOT
ATOM      1  C   UNL     1      44.246 131.485  20.438  1.00  0.00     0.028 A 
ATOM      2  C   UNL     1      43.072 132.128  20.878  1.00  0.00     0.025 A 
ATOM      3  C   UNL     1      42.456 131.743  22.069  1.00  0.00     0.004 A 
ATOM      4  C   UNL     1      42.995 130.714  22.840  1.00  0.00     0.028 A 
ATOM      5  C   UNL     1      44.165 130.052  22.422  1.00  0.00     0.068 A 
ATOM      6  C   UNL     1      44.784 130.442  21.222  1.00  0.00    -0.058 A 
ATOM      7  O   UNL     1      45.943 129.789  20.815  1.00  0.00    -0.870 OA
ENDROOT
BRANCH   1   8
ATOM      8  N   UNL     1      44.899 131.861  19.204  1.00  0.00    -0.383 N 
ATOM      9  H   UNL     1      45.443 132.754  19.192  1.00  0.00     0.160 HD
BRANCH   8  10
ATOM     10  C   UNL     1      44.847 131.078  17.962  1.00  0.00     0.082 C 
ATOM     11  C   UNL     1      45.611 130.417  15.228  1.00  0.00    -0.043 C 
ATOM     12  C   UNL     1      46.201 129.630  16.375  1.00  0.00     0.035 C 
ATOM     13  C   UNL     1      44.332 131.193  15.473  1.00  0.00     0.194 C 
ATOM     14  C   UNL     1      46.229 130.468  17.657  1.00  0.00     0.029 C 
ATOM     15  C   UNL     1      44.412 131.979  16.788  1.00  0.00     0.067 C 
ATOM     16  C   UNL     1      46.099 130.256  13.987  1.00  0.00     0.011 C 
ATOM     17  F   UNL     1      44.073 132.082  14.441  1.00  0.00    -0.243 F 
ENDBRANCH   8  10
ENDBRANCH   1   8
BRANCH   5  18
ATOM     18  N   UNL     1      44.750 128.987  23.189  1.00  0.00    -0.195 NA
BRANCH  18  19
ATOM     19  C   UNL     1      44.175 127.874  23.418  1.00  0.00     0.064 C 
ATOM     20  S   UNL     1      43.447 126.467  23.709  1.00  0.00    -0.006 S 
ENDBRANCH  18  19
ENDBRANCH   5  18
TORSDOF 4
ENDMDL
MODEL 9
REMARK VINA RESULT:      -6.9      1.799      2.308
REMARK SMILES C=C1CC[C@@H](Nc2cccc(N=C=S)c2[O-])C[C@H]1F
REMARK SMILES IDX 7 1 8 2 9 3 10 4 11 5 15 6 16 7 6 8 5 10 2 11 3 12 18 13
REMARK SMILES IDX 4 14 17 15 1 16 19 17 12 18 13 19 14 20
REMARK H PARENT 6 9
ROOT
ATOM      1  C   UNL     1      44.539 131.136  19.194  1.00  0.00     0.028 A 
ATOM      2  C   UNL     1      43.462 131.800  18.572  1.00  0.00     0.025 A 
ATOM      3  C   UNL     1      42.417 132.323  19.333  1.00  0.00     0.004 A 
ATOM      4  C   UNL     1      42.422 132.193  20.722  1.00  0.00     0.028 A 
ATOM      5  C   UNL     1      43.483 131.531  21.367  1.00  0.00     0.068 A 
ATOM      6  C   UNL     1      44.536 131.006  20.600  1.00  0.00    -0.058 A 
ATOM      7  O   UNL     1      45.586 130.356  21.242  1.00  0.00    -0.870 OA
ENDROOT
BRANCH   1   8
ATOM      8  N   UNL     1      45.631 130.579  18.427  1.00  0.00    -0.383 N 
ATOM      9  H   UNL     1      46.534 130.399  18.923  1.00  0.00     0.160 HD
BRANCH   8  10
ATOM     10  C   UNL     1      45.563 130.254  16.996  1.00  0.00     0.082 C 
ATOM     11  C   UNL     1      46.113 130.681  14.166  1.00  0.00    -0.043 C 
ATOM     12  C   UNL     1      46.942 129.683  14.942  1.00  0.00     0.035 C 
ATOM     13  C   UNL     1      44.764 131.083  14.728  1.00  0.00     0.194 C 
ATOM     14  C   UNL     1      46.981 130.043  16.430  1.00  0.00     0.029 C 
ATOM     15  C   UNL     1      44.866 131.394  16.227  1.00  0.00     0.067 C 
ATOM     16  C   UNL     1      46.479 131.030  12.922  1.00  0.00     0.011 C 
ATOM     17  F   UNL     1      44.257 132.198  14.079  1.00  0.00    -0.243 F 
ENDBRANCH   8  10
ENDBRANCH   1   8
BRANCH   5  18
ATOM     18  N   UNL     1      43.525 131.377  22.796  1.00  0.00    -0.195 NA
BRANCH  18  19
ATOM     19  C   UNL     1      42.801 130.554  23.445  1.00  0.00     0.064 C 
ATOM     20  S   UNL     1      41.885 129.513  24.265  1.00  0.00    -0.006 S 
ENDBRANCH  18  19
ENDBRANCH   5  18
TORSDOF 4
ENDMDL


