MODEL 1
REMARK VINA RESULT:      -9.8      0.000      0.000
REMARK SMILES Cc1ccc2ccc(-c3cccnc3F)nc2c1F
REMARK SMILES IDX 1 1 2 2 3 3 4 4 5 5 6 6 7 7 8 8 16 9 17 10 18 11 19 12 9 13
REMARK SMILES IDX 10 14 14 15 11 16 13 17 12 18 15 19
REMARK H PARENT
ROOT
ATOM      1  C   UNL     1      44.434 131.372  22.369  1.00  0.00     0.047 C 
ATOM      2  C   UNL     1      44.027 131.539  20.934  1.00  0.00    -0.013 A 
ATOM      3  C   UNL     1      42.735 131.986  20.610  1.00  0.00     0.007 A 
ATOM      4  C   UNL     1      42.345 132.121  19.274  1.00  0.00     0.011 A 
ATOM      5  C   UNL     1      43.242 131.802  18.246  1.00  0.00     0.003 A 
ATOM      6  C   UNL     1      42.877 131.924  16.901  1.00  0.00     0.013 A 
ATOM      7  C   UNL     1      43.792 131.594  15.899  1.00  0.00     0.030 A 
ATOM      8  C   UNL     1      45.078 131.142  16.248  1.00  0.00     0.076 A 
ATOM      9  N   UNL     1      45.407 131.028  17.566  1.00  0.00    -0.245 NA
ATOM     10  C   UNL     1      44.537 131.342  18.564  1.00  0.00     0.107 A 
ATOM     11  C   UNL     1      44.925 131.208  19.903  1.00  0.00     0.152 A 
ATOM     12  F   UNL     1      46.170 130.754  20.201  1.00  0.00    -0.204 F 
ENDROOT
BRANCH   8  13
ATOM     13  C   UNL     1      46.078 130.784  15.212  1.00  0.00     0.055 A 
ATOM     14  C   UNL     1      46.718 131.778  14.448  1.00  0.00     0.017 A 
ATOM     15  C   UNL     1      46.433 129.439  14.982  1.00  0.00     0.222 A 
ATOM     16  C   UNL     1      47.667 131.427  13.487  1.00  0.00     0.021 A 
ATOM     17  N   UNL     1      47.360 129.127  14.036  1.00  0.00    -0.228 NA
ATOM     18  C   UNL     1      47.977 130.081  13.293  1.00  0.00     0.114 A 
ATOM     19  F   UNL     1      45.841 128.434  15.675  1.00  0.00    -0.184 F 
ENDBRANCH   8  13
TORSDOF 1
ENDMDL
MODEL 2
REMARK VINA RESULT:      -9.2      1.253      1.555
REMARK SMILES Cc1ccc2ccc(-c3cccnc3F)nc2c1F
REMARK SMILES IDX 1 1 2 2 3 3 4 4 5 5 6 6 7 7 8 8 16 9 17 10 18 11 19 12 9 13
REMARK SMILES IDX 10 14 14 15 11 16 13 17 12 18 15 19
REMARK H PARENT
ROOT
ATOM      1  C   UNL     1      44.463 131.374  22.602  1.00  0.00     0.047 C 
ATOM      2  C   UNL     1      44.070 131.538  21.162  1.00  0.00    -0.013 A 
ATOM      3  C   UNL     1      42.792 132.015  20.826  1.00  0.00     0.007 A 
ATOM      4  C   UNL     1      42.415 132.148  19.487  1.00  0.00     0.011 A 
ATOM      5  C   UNL     1      43.311 131.798  18.467  1.00  0.00     0.003 A 
ATOM      6  C   UNL     1      42.958 131.916  17.119  1.00  0.00     0.013 A 
ATOM      7  C   UNL     1      43.870 131.554  16.126  1.00  0.00     0.030 A 
ATOM      8  C   UNL     1      45.142 131.072  16.487  1.00  0.00     0.076 A 
ATOM      9  N   UNL     1      45.459 130.962  17.808  1.00  0.00    -0.245 NA
ATOM     10  C   UNL     1      44.591 131.307  18.798  1.00  0.00     0.107 A 
ATOM     11  C   UNL     1      44.966 131.175  20.141  1.00  0.00     0.152 A 
ATOM     12  F   UNL     1      46.197 130.692  20.451  1.00  0.00    -0.204 F 
ENDROOT
BRANCH   8  13
ATOM     13  C   UNL     1      46.140 130.680  15.461  1.00  0.00     0.055 A 
ATOM     14  C   UNL     1      46.425 129.325  15.208  1.00  0.00     0.017 A 
ATOM     15  C   UNL     1      46.812 131.654  14.695  1.00  0.00     0.222 A 
ATOM     16  C   UNL     1      47.356 128.972  14.230  1.00  0.00     0.021 A 
ATOM     17  N   UNL     1      47.717 131.279  13.751  1.00  0.00    -0.228 NA
ATOM     18  C   UNL     1      48.000 129.974  13.505  1.00  0.00     0.114 A 
ATOM     19  F   UNL     1      46.592 132.977  14.903  1.00  0.00    -0.184 F 
ENDBRANCH   8  13
TORSDOF 1
ENDMDL
MODEL 3
REMARK VINA RESULT:      -8.5      1.509      6.070
REMARK SMILES Cc1ccc2ccc(-c3cccnc3F)nc2c1F
REMARK SMILES IDX 1 1 2 2 3 3 4 4 5 5 6 6 7 7 8 8 16 9 17 10 18 11 19 12 9 13
REMARK SMILES IDX 10 14 14 15 11 16 13 17 12 18 15 19
REMARK H PARENT
ROOT
ATOM      1  C   UNL     1      47.955 129.533  13.977  1.00  0.00     0.047 C 
ATOM      2  C   UNL     1      46.722 130.137  14.583  1.00  0.00    -0.013 A 
ATOM      3  C   UNL     1      45.733 130.705  13.763  1.00  0.00     0.007 A 
ATOM      4  C   UNL     1      44.594 131.288  14.325  1.00  0.00     0.011 A 
ATOM      5  C   UNL     1      44.435 131.317  15.716  1.00  0.00     0.003 A 
ATOM      6  C   UNL     1      43.307 131.898  16.306  1.00  0.00     0.013 A 
ATOM      7  C   UNL     1      43.179 131.916  17.696  1.00  0.00     0.030 A 
ATOM      8  C   UNL     1      44.185 131.347  18.498  1.00  0.00     0.076 A 
ATOM      9  N   UNL     1      45.276 130.791  17.899  1.00  0.00    -0.245 NA
ATOM     10  C   UNL     1      45.428 130.759  16.547  1.00  0.00     0.107 A 
ATOM     11  C   UNL     1      46.569 130.175  15.981  1.00  0.00     0.152 A 
ATOM     12  F   UNL     1      47.527 129.649  16.788  1.00  0.00    -0.204 F 
ENDROOT
BRANCH   8  13
ATOM     13  C   UNL     1      44.085 131.344  19.979  1.00  0.00     0.055 A 
ATOM     14  C   UNL     1      42.930 131.819  20.628  1.00  0.00     0.017 A 
ATOM     15  C   UNL     1      45.134 130.841  20.775  1.00  0.00     0.222 A 
ATOM     16  C   UNL     1      42.844 131.796  22.020  1.00  0.00     0.021 A 
ATOM     17  N   UNL     1      45.023 130.834  22.131  1.00  0.00    -0.228 NA
ATOM     18  C   UNL     1      43.914 131.296  22.763  1.00  0.00     0.114 A 
ATOM     19  F   UNL     1      46.279 130.383  20.209  1.00  0.00    -0.184 F 
ENDBRANCH   8  13
TORSDOF 1
ENDMDL
MODEL 4
REMARK VINA RESULT:      -8.4      1.455      1.720
REMARK SMILES Cc1ccc2ccc(-c3cccnc3F)nc2c1F
REMARK SMILES IDX 1 1 2 2 3 3 4 4 5 5 6 6 7 7 8 8 16 9 17 10 18 11 19 12 9 13
REMARK SMILES IDX 10 14 14 15 11 16 13 17 12 18 15 19
REMARK H PARENT
ROOT
ATOM      1  C   UNL     1      44.776 131.750  23.223  1.00  0.00     0.047 C 
ATOM      2  C   UNL     1      44.154 131.810  21.858  1.00  0.00    -0.013 A 
ATOM      3  C   UNL     1      42.799 132.149  21.710  1.00  0.00     0.007 A 
ATOM      4  C   UNL     1      42.211 132.184  20.443  1.00  0.00     0.011 A 
ATOM      5  C   UNL     1      42.970 131.872  19.308  1.00  0.00     0.003 A 
ATOM      6  C   UNL     1      42.406 131.894  18.028  1.00  0.00     0.013 A 
ATOM      7  C   UNL     1      43.188 131.573  16.917  1.00  0.00     0.030 A 
ATOM      8  C   UNL     1      44.541 131.229  17.090  1.00  0.00     0.076 A 
ATOM      9  N   UNL     1      45.065 131.210  18.348  1.00  0.00    -0.245 NA
ATOM     10  C   UNL     1      44.329 131.519  19.450  1.00  0.00     0.107 A 
ATOM     11  C   UNL     1      44.915 131.484  20.721  1.00  0.00     0.152 A 
ATOM     12  F   UNL     1      46.221 131.133  20.851  1.00  0.00    -0.204 F 
ENDROOT
BRANCH   8  13
ATOM     13  C   UNL     1      45.405 130.884  15.934  1.00  0.00     0.055 A 
ATOM     14  C   UNL     1      46.525 130.046  16.090  1.00  0.00     0.017 A 
ATOM     15  C   UNL     1      45.113 131.368  14.642  1.00  0.00     0.222 A 
ATOM     16  C   UNL     1      47.320 129.720  14.990  1.00  0.00     0.021 A 
ATOM     17  N   UNL     1      45.908 131.034  13.589  1.00  0.00    -0.228 NA
ATOM     18  C   UNL     1      46.992 130.231  13.734  1.00  0.00     0.114 A 
ATOM     19  F   UNL     1      44.056 132.192  14.429  1.00  0.00    -0.184 F 
ENDBRANCH   8  13
TORSDOF 1
ENDMDL
MODEL 5
REMARK VINA RESULT:      -8.4      2.019      2.971
REMARK SMILES Cc1ccc2ccc(-c3cccnc3F)nc2c1F
REMARK SMILES IDX 1 1 2 2 3 3 4 4 5 5 6 6 7 7 8 8 16 9 17 10 18 11 19 12 9 13
REMARK SMILES IDX 10 14 14 15 11 16 13 17 12 18 15 19
REMARK H PARENT
ROOT
ATOM      1  C   UNL     1      40.787 133.291  20.915  1.00  0.00     0.047 C 
ATOM      2  C   UNL     1      42.073 132.542  20.720  1.00  0.00    -0.013 A 
ATOM      3  C   UNL     1      42.787 132.056  21.828  1.00  0.00     0.007 A 
ATOM      4  C   UNL     1      43.996 131.378  21.651  1.00  0.00     0.011 A 
ATOM      5  C   UNL     1      44.510 131.185  20.363  1.00  0.00     0.003 A 
ATOM      6  C   UNL     1      45.720 130.514  20.157  1.00  0.00     0.013 A 
ATOM      7  C   UNL     1      46.209 130.341  18.861  1.00  0.00     0.030 A 
ATOM      8  C   UNL     1      45.481 130.843  17.767  1.00  0.00     0.076 A 
ATOM      9  N   UNL     1      44.307 131.497  17.994  1.00  0.00    -0.245 NA
ATOM     10  C   UNL     1      43.805 131.680  19.246  1.00  0.00     0.107 A 
ATOM     11  C   UNL     1      42.593 132.359  19.426  1.00  0.00     0.152 A 
ATOM     12  F   UNL     1      41.926 132.842  18.346  1.00  0.00    -0.204 F 
ENDROOT
BRANCH   8  13
ATOM     13  C   UNL     1      45.966 130.677  16.374  1.00  0.00     0.055 A 
ATOM     14  C   UNL     1      46.210 129.399  15.838  1.00  0.00     0.017 A 
ATOM     15  C   UNL     1      46.173 131.796  15.541  1.00  0.00     0.222 A 
ATOM     16  C   UNL     1      46.653 129.259  14.522  1.00  0.00     0.021 A 
ATOM     17  N   UNL     1      46.607 131.628  14.263  1.00  0.00    -0.228 NA
ATOM     18  C   UNL     1      46.849 130.398  13.742  1.00  0.00     0.114 A 
ATOM     19  F   UNL     1      45.970 133.056  16.004  1.00  0.00    -0.184 F 
ENDBRANCH   8  13
TORSDOF 1
ENDMDL
MODEL 6
REMARK VINA RESULT:      -8.2      1.890      6.224
REMARK SMILES Cc1ccc2ccc(-c3cccnc3F)nc2c1F
REMARK SMILES IDX 1 1 2 2 3 3 4 4 5 5 6 6 7 7 8 8 16 9 17 10 18 11 19 12 9 13
REMARK SMILES IDX 10 14 14 15 11 16 13 17 12 18 15 19
REMARK H PARENT
ROOT
ATOM      1  C   UNL     1      47.860 129.563  14.020  1.00  0.00     0.047 C 
ATOM      2  C   UNL     1      46.621 130.167  14.614  1.00  0.00    -0.013 A 
ATOM      3  C   UNL     1      45.638 130.730  13.783  1.00  0.00     0.007 A 
ATOM      4  C   UNL     1      44.494 131.314  14.334  1.00  0.00     0.011 A 
ATOM      5  C   UNL     1      44.324 131.349  15.724  1.00  0.00     0.003 A 
ATOM      6  C   UNL     1      43.191 131.931  16.303  1.00  0.00     0.013 A 
ATOM      7  C   UNL     1      43.052 131.955  17.691  1.00  0.00     0.030 A 
ATOM      8  C   UNL     1      44.053 131.391  18.503  1.00  0.00     0.076 A 
ATOM      9  N   UNL     1      45.149 130.835  17.916  1.00  0.00    -0.245 NA
ATOM     10  C   UNL     1      45.312 130.796  16.565  1.00  0.00     0.107 A 
ATOM     11  C   UNL     1      46.458 130.212  16.010  1.00  0.00     0.152 A 
ATOM     12  F   UNL     1      47.410 129.691  16.827  1.00  0.00    -0.204 F 
ENDROOT
BRANCH   8  13
ATOM     13  C   UNL     1      43.941 131.395  19.984  1.00  0.00     0.055 A 
ATOM     14  C   UNL     1      44.939 130.815  20.788  1.00  0.00     0.017 A 
ATOM     15  C   UNL     1      42.841 132.001  20.625  1.00  0.00     0.222 A 
ATOM     16  C   UNL     1      44.826 130.838  22.178  1.00  0.00     0.021 A 
ATOM     17  N   UNL     1      42.757 132.006  21.983  1.00  0.00    -0.228 NA
ATOM     18  C   UNL     1      43.714 131.444  22.764  1.00  0.00     0.114 A 
ATOM     19  F   UNL     1      41.838 132.564  19.904  1.00  0.00    -0.184 F 
ENDBRANCH   8  13
TORSDOF 1
ENDMDL
MODEL 7
REMARK VINA RESULT:      -8.2      1.665      2.562
REMARK SMILES Cc1ccc2ccc(-c3cccnc3F)nc2c1F
REMARK SMILES IDX 1 1 2 2 3 3 4 4 5 5 6 6 7 7 8 8 16 9 17 10 18 11 19 12 9 13
REMARK SMILES IDX 10 14 14 15 11 16 13 17 12 18 15 19
REMARK H PARENT
ROOT
ATOM      1  C   UNL     1      40.794 133.317  21.097  1.00  0.00     0.047 C 
ATOM      2  C   UNL     1      42.071 132.575  20.831  1.00  0.00    -0.013 A 
ATOM      3  C   UNL     1      42.827 132.060  21.897  1.00  0.00     0.007 A 
ATOM      4  C   UNL     1      44.028 131.388  21.654  1.00  0.00     0.011 A 
ATOM      5  C   UNL     1      44.492 131.232  20.342  1.00  0.00     0.003 A 
ATOM      6  C   UNL     1      45.693 130.568  20.070  1.00  0.00     0.013 A 
ATOM      7  C   UNL     1      46.132 130.433  18.752  1.00  0.00     0.030 A 
ATOM      8  C   UNL     1      45.361 130.964  17.701  1.00  0.00     0.076 A 
ATOM      9  N   UNL     1      44.197 131.610  17.993  1.00  0.00    -0.245 NA
ATOM     10  C   UNL     1      43.744 131.757  19.267  1.00  0.00     0.107 A 
ATOM     11  C   UNL     1      42.541 132.430  19.514  1.00  0.00     0.152 A 
ATOM     12  F   UNL     1      41.831 132.942  18.474  1.00  0.00    -0.204 F 
ENDROOT
BRANCH   8  13
ATOM     13  C   UNL     1      45.792 130.838  16.286  1.00  0.00     0.055 A 
ATOM     14  C   UNL     1      46.318 131.941  15.587  1.00  0.00     0.017 A 
ATOM     15  C   UNL     1      45.709 129.603  15.612  1.00  0.00     0.222 A 
ATOM     16  C   UNL     1      46.731 131.803  14.262  1.00  0.00     0.021 A 
ATOM     17  N   UNL     1      46.118 129.500  14.318  1.00  0.00    -0.228 NA
ATOM     18  C   UNL     1      46.621 130.561  13.637  1.00  0.00     0.114 A 
ATOM     19  F   UNL     1      45.197 128.506  16.226  1.00  0.00    -0.184 F 
ENDBRANCH   8  13
TORSDOF 1
ENDMDL
MODEL 8
REMARK VINA RESULT:      -7.4      1.939      6.339
REMARK SMILES Cc1ccc2ccc(-c3cccnc3F)nc2c1F
REMARK SMILES IDX 1 1 2 2 3 3 4 4 5 5 6 6 7 7 8 8 16 9 17 10 18 11 19 12 9 13
REMARK SMILES IDX 10 14 14 15 11 16 13 17 12 18 15 19
REMARK H PARENT
ROOT
ATOM      1  C   UNL     1      46.957 130.393  14.911  1.00  0.00     0.047 C 
ATOM      2  C   UNL     1      45.744 130.818  15.687  1.00  0.00    -0.013 A 
ATOM      3  C   UNL     1      44.630 131.358  15.023  1.00  0.00     0.007 A 
ATOM      4  C   UNL     1      43.509 131.775  15.745  1.00  0.00     0.011 A 
ATOM      5  C   UNL     1      43.492 131.667  17.142  1.00  0.00     0.003 A 
ATOM      6  C   UNL     1      42.385 132.082  17.890  1.00  0.00     0.013 A 
ATOM      7  C   UNL     1      42.402 131.965  19.281  1.00  0.00     0.030 A 
ATOM      8  C   UNL     1      43.532 131.429  19.924  1.00  0.00     0.076 A 
ATOM      9  N   UNL     1      44.599 131.036  19.173  1.00  0.00    -0.245 NA
ATOM     10  C   UNL     1      44.612 131.137  17.816  1.00  0.00     0.107 A 
ATOM     11  C   UNL     1      45.735 130.719  17.090  1.00  0.00     0.152 A 
ATOM     12  F   UNL     1      46.814 130.220  17.747  1.00  0.00    -0.204 F 
ENDROOT
BRANCH   8  13
ATOM     13  C   UNL     1      43.586 131.286  21.401  1.00  0.00     0.055 A 
ATOM     14  C   UNL     1      42.725 132.026  22.233  1.00  0.00     0.017 A 
ATOM     15  C   UNL     1      44.485 130.386  22.008  1.00  0.00     0.222 A 
ATOM     16  C   UNL     1      42.779 131.871  23.618  1.00  0.00     0.021 A 
ATOM     17  N   UNL     1      44.516 130.258  23.363  1.00  0.00    -0.228 NA
ATOM     18  C   UNL     1      43.692 130.973  24.171  1.00  0.00     0.114 A 
ATOM     19  F   UNL     1      45.351 129.655  21.262  1.00  0.00    -0.184 F 
ENDBRANCH   8  13
TORSDOF 1
ENDMDL
MODEL 9
REMARK VINA RESULT:      -7.4      2.179      6.457
REMARK SMILES Cc1ccc2ccc(-c3cccnc3F)nc2c1F
REMARK SMILES IDX 1 1 2 2 3 3 4 4 5 5 6 6 7 7 8 8 16 9 17 10 18 11 19 12 9 13
REMARK SMILES IDX 10 14 14 15 11 16 13 17 12 18 15 19
REMARK H PARENT
ROOT
ATOM      1  C   UNL     1      47.296 129.953  14.813  1.00  0.00     0.047 C 
ATOM      2  C   UNL     1      46.062 130.496  15.472  1.00  0.00    -0.013 A 
ATOM      3  C   UNL     1      45.038 131.067  14.699  1.00  0.00     0.007 A 
ATOM      4  C   UNL     1      43.898 131.595  15.312  1.00  0.00     0.011 A 
ATOM      5  C   UNL     1      43.773 131.564  16.707  1.00  0.00     0.003 A 
ATOM      6  C   UNL     1      42.645 132.089  17.347  1.00  0.00     0.013 A 
ATOM      7  C   UNL     1      42.552 132.048  18.739  1.00  0.00     0.030 A 
ATOM      8  C   UNL     1      43.594 131.478  19.493  1.00  0.00     0.076 A 
ATOM      9  N   UNL     1      44.684 130.978  18.846  1.00  0.00    -0.245 NA
ATOM     10  C   UNL     1      44.803 131.003  17.490  1.00  0.00     0.107 A 
ATOM     11  C   UNL     1      45.945 130.475  16.874  1.00  0.00     0.152 A 
ATOM     12  F   UNL     1      46.937 129.946  17.635  1.00  0.00    -0.204 F 
ENDROOT
BRANCH   8  13
ATOM     13  C   UNL     1      43.531 131.414  20.974  1.00  0.00     0.055 A 
ATOM     14  C   UNL     1      44.428 130.611  21.704  1.00  0.00     0.017 A 
ATOM     15  C   UNL     1      42.586 132.174  21.692  1.00  0.00     0.222 A 
ATOM     16  C   UNL     1      44.365 130.572  23.097  1.00  0.00     0.021 A 
ATOM     17  N   UNL     1      42.547 132.114  23.051  1.00  0.00    -0.228 NA
ATOM     18  C   UNL     1      43.406 131.338  23.760  1.00  0.00     0.114 A 
ATOM     19  F   UNL     1      41.684 132.956  21.046  1.00  0.00    -0.184 F 
ENDBRANCH   8  13
TORSDOF 1
ENDMDL


