REMARK SMILES [O-]/C(=C\Cc1c(F)ccc2[n-]c(Nc3cn4ccccc4[nH+]3)cc12)c1ccccc1
REMARK SMILES IDX 5 1 6 2 7 3 8 4 9 5 10 6 11 7 12 8 23 9 24 10 4 11 3 12 2 13
REMARK SMILES IDX 1 14 25 15 26 16 30 17 27 18 29 19 28 20 13 21 14 23 15 24
REMARK SMILES IDX 22 25 16 26 21 27 17 28 20 29 18 30 19 31
REMARK H PARENT 13 22 22 32
ROOT
ATOM      1  C   UNL     1      -1.699   1.042  -2.478  1.00  0.00    -0.001 A 
ATOM      2  C   UNL     1      -1.339   0.442  -3.709  1.00  0.00     0.127 A 
ATOM      3  F   UNL     1      -1.571   1.082  -4.883  1.00  0.00    -0.207 F 
ATOM      4  C   UNL     1      -0.736  -0.834  -3.736  1.00  0.00     0.040 A 
ATOM      5  C   UNL     1      -0.481  -1.530  -2.543  1.00  0.00     0.007 A 
ATOM      6  C   UNL     1      -0.842  -0.926  -1.342  1.00  0.00    -0.031 A 
ATOM      7  N   UNL     1      -0.672  -1.437  -0.109  1.00  0.00    -0.404 NA
ATOM      8  C   UNL     1      -1.178  -0.487   0.714  1.00  0.00     0.087 A 
ATOM      9  C   UNL     1      -1.649   0.618   0.016  1.00  0.00     0.047 A 
ATOM     10  C   UNL     1      -1.429   0.314  -1.309  1.00  0.00    -0.013 A 
ENDROOT
BRANCH   1  11
ATOM     11  C   UNL     1      -2.333   2.410  -2.421  1.00  0.00     0.066 C 
BRANCH  11  12
ATOM     12  C   UNL     1      -1.385   3.419  -1.835  1.00  0.00    -0.030 C 
BRANCH  12  13
ATOM     13  C   UNL     1      -0.319   3.886  -2.505  1.00  0.00    -0.105 C 
ATOM     14  O   UNL     1      -0.093   3.465  -3.813  1.00  0.00    -0.872 OA
BRANCH  13  15
ATOM     15  C   UNL     1       0.621   4.865  -1.901  1.00  0.00    -0.034 A 
ATOM     16  C   UNL     1       0.864   4.903  -0.513  1.00  0.00     0.007 A 
ATOM     17  C   UNL     1       1.317   5.759  -2.736  1.00  0.00     0.007 A 
ATOM     18  C   UNL     1       1.761   5.832   0.023  1.00  0.00     0.001 A 
ATOM     19  C   UNL     1       2.212   6.686  -2.194  1.00  0.00     0.001 A 
ATOM     20  C   UNL     1       2.432   6.725  -0.816  1.00  0.00     0.000 A 
ENDBRANCH  13  15
ENDBRANCH  12  13
ENDBRANCH  11  12
ENDBRANCH   1  11
BRANCH   8  21
ATOM     21  N   UNL     1      -1.171  -0.582   2.145  1.00  0.00    -0.274 N 
ATOM     22  H   UNL     1      -1.358   0.287   2.693  1.00  0.00     0.263 HD
BRANCH  21  23
ATOM     23  C   UNL     1      -0.886  -1.783   2.876  1.00  0.00     0.256 A 
ATOM     24  C   UNL     1      -0.940  -3.088   2.395  1.00  0.00     0.248 A 
ATOM     25  N   UNL     1      -0.591  -1.792   4.196  1.00  0.00    -0.243 N 
ATOM     26  N   UNL     1      -0.660  -3.894   3.434  1.00  0.00    -0.233 N 
ATOM     27  C   UNL     1      -0.454  -3.096   4.497  1.00  0.00     0.230 A 
ATOM     28  C   UNL     1      -0.594  -5.248   3.492  1.00  0.00     0.168 A 
ATOM     29  C   UNL     1      -0.150  -3.631   5.748  1.00  0.00     0.081 A 
ATOM     30  C   UNL     1      -0.288  -5.844   4.725  1.00  0.00     0.035 A 
ATOM     31  C   UNL     1      -0.065  -5.029   5.853  1.00  0.00     0.010 A 
ATOM     32  H   UNL     1      -0.496  -0.972   4.836  1.00  0.00     0.267 HD
ENDBRANCH  21  23
ENDBRANCH   8  21
TORSDOF 6


