REMARK SMILES Fc1ccc2cc(-c3[nH+]c[nH+]cc3F)[nH]c2c1
REMARK SMILES IDX 1 1 2 2 3 3 4 4 5 5 6 6 7 7 15 8 16 9 17 10 8 12 9 13 13 14
REMARK SMILES IDX 10 15 12 16 11 17 14 19
REMARK H PARENT 15 11 9 18 11 20
ROOT
ATOM      1  F   UNL     1       5.726  -1.656   1.817  1.00  0.00    -0.207 F 
ATOM      2  C   UNL     1       4.446  -1.683   1.371  1.00  0.00     0.125 A 
ATOM      3  C   UNL     1       3.796  -2.921   1.173  1.00  0.00     0.040 A 
ATOM      4  C   UNL     1       2.468  -2.962   0.710  1.00  0.00     0.013 A 
ATOM      5  C   UNL     1       1.830  -1.749   0.458  1.00  0.00     0.000 A 
ATOM      6  C   UNL     1       0.557  -1.484   0.007  1.00  0.00     0.043 A 
ATOM      7  C   UNL     1       0.463  -0.085  -0.059  1.00  0.00     0.116 A 
ATOM      8  N   UNL     1       1.641   0.470   0.340  1.00  0.00    -0.349 N 
ATOM      9  C   UNL     1       2.456  -0.551   0.649  1.00  0.00     0.049 A 
ATOM     10  C   UNL     1       3.771  -0.476   1.107  1.00  0.00     0.066 A 
ATOM     11  H   UNL     1       1.899   1.478   0.406  1.00  0.00     0.167 HD
ENDROOT
BRANCH   7  12
ATOM     12  C   UNL     1      -0.730   0.715  -0.494  1.00  0.00     0.274 A 
ATOM     13  N   UNL     1      -0.667   2.084  -0.505  1.00  0.00    -0.151 N 
ATOM     14  C   UNL     1      -1.938   0.104  -0.902  1.00  0.00     0.260 A 
ATOM     15  C   UNL     1      -1.725   2.845  -0.892  1.00  0.00     0.629 A 
ATOM     16  C   UNL     1      -3.006   0.910  -1.294  1.00  0.00     0.358 A 
ATOM     17  N   UNL     1      -2.884   2.260  -1.283  1.00  0.00    -0.159 N 
ATOM     18  H   UNL     1       0.195   2.592  -0.216  1.00  0.00     0.460 HD
ATOM     19  F   UNL     1      -2.110  -1.238  -0.930  1.00  0.00    -0.193 F 
ATOM     20  H   UNL     1      -3.690   2.855  -1.579  1.00  0.00     0.459 HD
ENDBRANCH   7  12
TORSDOF 1


