REMARK SMILES C=Cc1cccc(C2=C/[CH][C@H](Nc3ccc4[nH]ccc4c3)CC[CH]/C=C\2)c1
REMARK SMILES IDX 10 1 9 2 8 3 7 4 3 5 4 6 27 7 5 8 6 9 2 10 1 11 26 12 11 14
REMARK SMILES IDX 12 15 13 17 14 18 21 19 15 20 20 21 16 22 19 23 17 24 18 25
REMARK SMILES IDX 22 27 23 28 24 29 25 30
REMARK H PARENT 12 16 17 26
REMARK Flexibility Score:   71.900
ROOT
ATOM      1  C   UNL     1       0.307  -0.447  -1.284  1.00  0.00    -0.002 C 
ENDROOT
BRANCH   1   2
ATOM      2  C   UNL     1       0.543   0.878  -0.941  1.00  0.00     0.006 C 
BRANCH   2   3
ATOM      3  C   UNL     1       1.838   1.385  -0.741  1.00  0.00    -0.019 C 
BRANCH   3   4
ATOM      4  C   UNL     1       2.034   2.860  -0.805  1.00  0.00    -0.018 A 
ATOM      5  C   UNL     1       3.111   4.900   0.025  1.00  0.00    -0.026 A 
ATOM      6  C   UNL     1       2.381   5.648  -0.912  1.00  0.00     0.008 A 
ATOM      7  C   UNL     1       2.921   3.504   0.080  1.00  0.00     0.016 A 
ATOM      8  C   UNL     1       1.500   5.018  -1.792  1.00  0.00     0.001 A 
ATOM      9  C   UNL     1       1.328   3.634  -1.744  1.00  0.00     0.009 A 
BRANCH   5  10
ATOM     10  C   UNL     1       4.026   5.617   0.947  1.00  0.00     0.000 C 
ATOM     11  C   UNL     1       5.029   5.036   1.606  1.00  0.00     0.009 C 
ENDBRANCH   5  10
ENDBRANCH   3   4
BRANCH   3  12
ATOM     12  C   UNL     1       2.960   0.565  -0.469  1.00  0.00     0.008 CG0
ATOM     13  G   UNL     1       2.990  -0.739   0.072  1.00  0.00     0.000 G0
ENDBRANCH   3  12
ENDBRANCH   2   3
ENDBRANCH   1   2
BRANCH   1  14
ATOM     14  C   UNL     1      -0.715  -1.257  -0.537  1.00  0.00     0.102 C 
BRANCH  14  15
ATOM     15  N   UNL     1      -2.074  -0.847  -0.919  1.00  0.00    -0.379 N 
ATOM     16  H   UNL     1      -2.199   0.081  -1.384  1.00  0.00     0.161 HD
BRANCH  15  17
ATOM     17  C   UNL     1      -3.265  -1.610  -0.635  1.00  0.00     0.035 A 
ATOM     18  C   UNL     1      -4.532  -1.020  -0.881  1.00  0.00     0.028 A 
ATOM     19  C   UNL     1      -3.204  -2.933  -0.128  1.00  0.00     0.036 A 
ATOM     20  C   UNL     1      -5.722  -1.724  -0.624  1.00  0.00     0.029 A 
ATOM     21  C   UNL     1      -4.403  -3.599   0.117  1.00  0.00     0.001 A 
ATOM     22  C   UNL     1      -5.618  -3.017  -0.121  1.00  0.00     0.045 A 
ATOM     23  C   UNL     1      -4.641  -4.867   0.600  1.00  0.00     0.028 A 
ATOM     24  N   UNL     1      -6.619  -3.857   0.188  1.00  0.00    -0.361 N 
ATOM     25  C   UNL     1      -6.027  -4.990   0.630  1.00  0.00     0.083 A 
ATOM     26  H   UNL     1      -7.644  -3.677   0.105  1.00  0.00     0.166 HD
ENDBRANCH  15  17
ENDBRANCH  14  15
BRANCH  14  27
ATOM     27  C   UNL     1      -0.529  -1.188   1.012  1.00  0.00     0.033 C 
BRANCH  27  28
ATOM     28  C   UNL     1       0.853  -0.735   1.553  1.00  0.00     0.030 C 
BRANCH  28  29
ATOM     29  C   UNL     1       2.023  -1.389   0.864  1.00  0.00    -0.027 C 
BRANCH  29  30
ATOM     30  C   UNL     1       2.990  -0.739   0.072  1.00  0.00    -0.004 CG0
ATOM     31  G   UNL     1       2.960   0.565  -0.469  1.00  0.00     0.000 G0
ENDBRANCH  29  30
ENDBRANCH  28  29
ENDBRANCH  27  28
ENDBRANCH  14  27
ENDBRANCH   1  14
TORSDOF 4


