REMARK SMILES [H]/N=c1/c([NH2+]c2ccc3c(c2)[nH+]nn3C)cccn1C(=O)OCc1ccccc1
REMARK SMILES IDX 3 1 4 2 16 3 17 4 18 5 19 6 2 7 1 8 5 9 6 12 7 13 11 14 8 15
REMARK SMILES IDX 10 16 9 17 12 18 14 19 13 20 15 22 20 23 21 24 22 25 23 26
REMARK SMILES IDX 24 27 25 28 29 29 26 30 28 31 27 32
REMARK H PARENT 5 10 5 11 12 21
ROOT
ATOM      1  C   UNL     1      -0.411   0.663  -0.814  1.00  0.00     0.197 A 
ATOM      2  C   UNL     1      -0.101   0.223  -2.124  1.00  0.00     0.178 A 
ATOM      3  C   UNL     1      -1.127   0.166  -3.077  1.00  0.00     0.074 A 
ATOM      4  C   UNL     1      -2.421   0.536  -2.736  1.00  0.00     0.025 A 
ATOM      5  C   UNL     1      -2.689   0.984  -1.447  1.00  0.00     0.100 A 
ATOM      6  N   UNL     1      -1.697   1.065  -0.509  1.00  0.00    -0.232 N 
ENDROOT
BRANCH   1   7
ATOM      7  N   UNL     1       0.524   0.636   0.090  1.00  0.00    -0.279 NA
ATOM      8  H   UNL     1       0.400   0.890   1.093  1.00  0.00     0.190 HD
ENDBRANCH   1   7
BRANCH   2   9
ATOM      9  N   UNL     1       1.231  -0.216  -2.482  1.00  0.00    -0.278 N 
ATOM     10  H   UNL     1       1.397  -0.069  -3.505  1.00  0.00     0.358 HD
ATOM     11  H   UNL     1       1.951   0.359  -1.985  1.00  0.00     0.358 HD
BRANCH   9  12
ATOM     12  C   UNL     1       1.390  -1.615  -2.170  1.00  0.00     0.139 A 
ATOM     13  C   UNL     1       2.048  -2.017  -0.971  1.00  0.00     0.073 A 
ATOM     14  C   UNL     1       0.873  -2.602  -3.047  1.00  0.00     0.126 A 
ATOM     15  C   UNL     1       2.189  -3.380  -0.645  1.00  0.00     0.065 A 
ATOM     16  C   UNL     1       1.034  -3.934  -2.685  1.00  0.00     0.201 A 
ATOM     17  C   UNL     1       1.661  -4.307  -1.538  1.00  0.00     0.198 A 
ATOM     18  N   UNL     1       0.645  -5.048  -3.329  1.00  0.00    -0.143 N 
ATOM     19  N   UNL     1       1.648  -5.651  -1.489  1.00  0.00    -0.133 N 
ATOM     20  N   UNL     1       1.030  -6.081  -2.585  1.00  0.00     0.088 NA
ATOM     21  H   UNL     1       0.139  -5.115  -4.240  1.00  0.00     0.342 HD
ATOM     22  C   UNL     1       2.213  -6.512  -0.458  1.00  0.00     0.327 C 
ENDBRANCH   9  12
ENDBRANCH   2   9
BRANCH   6  23
ATOM     23  C   UNL     1      -2.046   1.618   0.774  1.00  0.00     0.420 C 
ATOM     24  O   UNL     1      -3.088   1.222   1.367  1.00  0.00    -0.223 OA
BRANCH  23  25
ATOM     25  O   UNL     1      -1.257   2.628   1.335  1.00  0.00    -0.444 OA
BRANCH  25  26
ATOM     26  C   UNL     1      -1.537   3.209   2.604  1.00  0.00     0.270 C 
BRANCH  26  27
ATOM     27  C   UNL     1      -0.473   4.214   2.930  1.00  0.00    -0.011 A 
ATOM     28  C   UNL     1       0.742   3.796   3.497  1.00  0.00     0.007 A 
ATOM     29  C   UNL     1      -0.652   5.570   2.608  1.00  0.00     0.007 A 
ATOM     30  C   UNL     1       1.751   4.726   3.765  1.00  0.00     0.000 A 
ATOM     31  C   UNL     1       0.359   6.497   2.878  1.00  0.00     0.000 A 
ATOM     32  C   UNL     1       1.559   6.076   3.458  1.00  0.00     0.000 A 
ENDBRANCH  26  27
ENDBRANCH  25  26
ENDBRANCH  23  25
ENDBRANCH   6  23
TORSDOF 7


