REMARK SMILES Cc1cc(N)c(Nc2c(F)nc(C)c(-c3ccc4c(C)[nH][nH+]c4c3)c2C)cc1F
REMARK SMILES IDX 7 1 6 3 2 4 3 5 28 6 4 7 27 8 1 9 29 10 5 11 8 14 9 15 25 16
REMARK SMILES IDX 11 17 14 18 12 19 10 20 26 21 13 22 15 23 16 24 24 25 17 26
REMARK SMILES IDX 23 27 18 28 22 29 19 30 21 31 20 33
REMARK H PARENT 7 2 5 12 5 13 22 32 21 34
ROOT
ATOM      1  N   UNL     1       2.905  -0.681   1.488  1.00  0.00    -0.350 N 
ATOM      2  H   UNL     1       3.825  -0.476   1.940  1.00  0.00     0.167 HD
ENDROOT
BRANCH   1   3
ATOM      3  C   UNL     1       2.551  -2.058   1.264  1.00  0.00     0.065 A 
ATOM      4  C   UNL     1       1.847  -4.766   0.902  1.00  0.00    -0.013 A 
ATOM      5  C   UNL     1       3.160  -4.337   0.660  1.00  0.00     0.034 A 
ATOM      6  C   UNL     1       0.890  -3.840   1.342  1.00  0.00     0.128 A 
ATOM      7  C   UNL     1       3.519  -2.990   0.827  1.00  0.00     0.056 A 
ATOM      8  C   UNL     1       1.240  -2.500   1.520  1.00  0.00     0.067 A 
ATOM      9  C   UNL     1       1.477  -6.212   0.739  1.00  0.00     0.047 C 
ATOM     10  F   UNL     1      -0.381  -4.235   1.608  1.00  0.00    -0.207 F 
BRANCH   7  11
ATOM     11  N   UNL     1       4.857  -2.583   0.511  1.00  0.00    -0.397 N 
ATOM     12  H   UNL     1       5.575  -3.291   0.238  1.00  0.00     0.156 HD
ATOM     13  H   UNL     1       5.138  -1.579   0.478  1.00  0.00     0.156 HD
ENDBRANCH   7  11
ENDBRANCH   1   3
BRANCH   1  14
ATOM     14  C   UNL     1       1.963   0.399   1.377  1.00  0.00     0.098 A 
ATOM     15  C   UNL     1       1.795   1.265   2.463  1.00  0.00     0.237 A 
ATOM     16  C   UNL     1       1.211   0.618   0.198  1.00  0.00    -0.013 A 
ATOM     17  N   UNL     1       0.872   2.256   2.412  1.00  0.00    -0.223 NA
ATOM     18  C   UNL     1       0.233   1.643   0.185  1.00  0.00     0.008 A 
ATOM     19  C   UNL     1       0.081   2.461   1.327  1.00  0.00     0.049 A 
ATOM     20  F   UNL     1       2.527   1.099   3.592  1.00  0.00    -0.183 F 
ATOM     21  C   UNL     1       1.454  -0.228  -1.033  1.00  0.00     0.047 C 
ATOM     22  C   UNL     1      -0.933   3.567   1.383  1.00  0.00     0.067 C 
BRANCH  18  23
ATOM     23  C   UNL     1      -0.634   1.847  -0.998  1.00  0.00    -0.009 A 
ATOM     24  C   UNL     1      -0.453   2.986  -1.827  1.00  0.00     0.010 A 
ATOM     25  C   UNL     1      -1.635   0.899  -1.306  1.00  0.00     0.091 A 
ATOM     26  C   UNL     1      -1.268   3.187  -2.957  1.00  0.00     0.018 A 
ATOM     27  C   UNL     1      -2.420   1.129  -2.432  1.00  0.00     0.236 A 
ATOM     28  C   UNL     1      -2.241   2.229  -3.227  1.00  0.00     0.073 A 
ATOM     29  N   UNL     1      -3.432   0.384  -2.908  1.00  0.00    -0.126 N 
ATOM     30  C   UNL     1      -3.192   2.115  -4.222  1.00  0.00     0.084 A 
ATOM     31  N   UNL     1      -3.905   0.987  -3.992  1.00  0.00    -0.171 N 
ATOM     32  H   UNL     1      -3.804  -0.506  -2.507  1.00  0.00     0.488 HD
ATOM     33  C   UNL     1      -3.469   3.091  -5.319  1.00  0.00     0.071 C 
ATOM     34  H   UNL     1      -4.708   0.635  -4.559  1.00  0.00     0.238 HD
ENDBRANCH  18  23
ENDBRANCH   1  14
TORSDOF 4


