REMARK SMILES CC(=O)c1ccc(-c2cc3ccccc3[nH]2)cn1
REMARK SMILES IDX 4 1 5 2 6 3 7 4 17 5 18 6 2 7 1 8 3 9 8 10 9 11 16 12 10 13
REMARK SMILES IDX 15 14 11 15 14 16 12 17 13 18
REMARK H PARENT 16 19
ROOT
ATOM      1  C   UNL     1      -0.913  -0.498   3.740  1.00  0.00     0.106 A 
ATOM      2  C   UNL     1       0.481  -0.353   3.706  1.00  0.00     0.033 A 
ATOM      3  C   UNL     1       1.114  -0.051   2.499  1.00  0.00     0.014 A 
ATOM      4  C   UNL     1       0.362   0.104   1.323  1.00  0.00     0.016 A 
ATOM      5  C   UNL     1      -1.032  -0.048   1.403  1.00  0.00     0.122 A 
ATOM      6  N   UNL     1      -1.625  -0.340   2.591  1.00  0.00    -0.252 NA
ENDROOT
BRANCH   1   7
ATOM      7  C   UNL     1      -1.618  -0.817   5.000  1.00  0.00     0.178 C 
ATOM      8  C   UNL     1      -3.107  -0.968   5.024  1.00  0.00     0.095 C 
ATOM      9  O   UNL     1      -0.969  -0.965   6.071  1.00  0.00    -0.293 OA
ENDBRANCH   1   7
BRANCH   4  10
ATOM     10  C   UNL     1       1.021   0.424   0.032  1.00  0.00     0.048 A 
ATOM     11  C   UNL     1       2.294   0.985  -0.112  1.00  0.00     0.037 A 
ATOM     12  N   UNL     1       0.459   0.205  -1.185  1.00  0.00    -0.354 N 
ATOM     13  C   UNL     1       2.486   1.101  -1.471  1.00  0.00     0.000 A 
ATOM     14  C   UNL     1       1.361   0.621  -2.088  1.00  0.00     0.046 A 
ATOM     15  C   UNL     1       3.569   1.594  -2.195  1.00  0.00     0.010 A 
ATOM     16  C   UNL     1       1.243   0.596  -3.477  1.00  0.00     0.026 A 
ATOM     17  C   UNL     1       3.479   1.583  -3.599  1.00  0.00     0.001 A 
ATOM     18  C   UNL     1       2.321   1.086  -4.237  1.00  0.00     0.002 A 
ATOM     19  H   UNL     1      -0.471  -0.220  -1.394  1.00  0.00     0.167 HD
ENDBRANCH   4  10
TORSDOF 2


