REMARK SMILES Cc1ccc(-c2ccc([O-])cc2)c2cn(/C(O)=N\c3ccc(N(C)C)cc3)[nH+]c12
REMARK SMILES IDX 16 1 17 2 18 4 19 5 20 6 27 7 21 8 26 9 22 10 23 11 24 12
REMARK SMILES IDX 25 13 15 14 14 15 28 16 13 17 29 18 5 19 2 20 4 21 3 22 1 24
REMARK SMILES IDX 6 25 7 26 12 27 8 28 11 29 9 30 10 31
REMARK H PARENT 17 3 28 23
ROOT
ATOM      1  C   UNL     1      -0.908  -0.549   3.322  1.00  0.00     0.349 C 
ENDROOT
BRANCH   1   2
ATOM      2  O   UNL     1      -0.598  -1.524   4.266  1.00  0.00    -0.477 OA
ATOM      3  H   UNL     1      -0.276  -2.442   3.986  1.00  0.00     0.297 HD
ENDBRANCH   1   2
BRANCH   1   4
ATOM      4  N   UNL     1      -1.354   0.602   3.739  1.00  0.00    -0.193 NA
BRANCH   4   5
ATOM      5  C   UNL     1      -1.602   1.769   2.940  1.00  0.00     0.069 A 
ATOM      6  C   UNL     1      -2.733   2.545   3.203  1.00  0.00     0.030 A 
ATOM      7  C   UNL     1      -0.698   2.188   1.952  1.00  0.00     0.030 A 
ATOM      8  C   UNL     1      -2.998   3.692   2.449  1.00  0.00     0.028 A 
ATOM      9  C   UNL     1      -0.959   3.333   1.194  1.00  0.00     0.028 A 
ATOM     10  C   UNL     1      -2.119   4.102   1.425  1.00  0.00     0.036 A 
BRANCH  10  11
ATOM     11  N   UNL     1      -2.397   5.287   0.634  1.00  0.00    -0.378 N 
ATOM     12  C   UNL     1      -3.760   5.828   0.554  1.00  0.00     0.143 C 
ATOM     13  C   UNL     1      -1.323   5.962  -0.105  1.00  0.00     0.143 C 
ENDBRANCH  10  11
ENDBRANCH   4   5
ENDBRANCH   1   4
BRANCH   1  14
ATOM     14  N   UNL     1      -0.751  -0.844   1.924  1.00  0.00    -0.073 N 
ATOM     15  C   UNL     1       0.296  -1.501   1.374  1.00  0.00     0.179 A 
ATOM     16  N   UNL     1      -1.637  -0.541   0.981  1.00  0.00    -0.114 N 
ATOM     17  C   UNL     1       0.060  -1.597   0.014  1.00  0.00     0.079 A 
ATOM     18  C   UNL     1      -1.148  -0.980  -0.192  1.00  0.00     0.240 A 
ATOM     19  C   UNL     1       0.816  -2.127  -1.041  1.00  0.00    -0.003 A 
ATOM     20  C   UNL     1      -1.702  -0.837  -1.468  1.00  0.00     0.024 A 
ATOM     21  C   UNL     1       0.282  -1.987  -2.343  1.00  0.00     0.010 A 
ATOM     22  C   UNL     1      -0.962  -1.352  -2.553  1.00  0.00     0.011 A 
ATOM     23  H   UNL     1      -2.548  -0.055   1.139  1.00  0.00     0.489 HD
ATOM     24  C   UNL     1      -3.011  -0.135  -1.676  1.00  0.00     0.052 C 
BRANCH  19  25
ATOM     25  C   UNL     1       2.117  -2.800  -0.824  1.00  0.00    -0.018 A 
ATOM     26  C   UNL     1       2.252  -3.796   0.159  1.00  0.00     0.008 A 
ATOM     27  C   UNL     1       3.229  -2.466  -1.617  1.00  0.00     0.008 A 
ATOM     28  C   UNL     1       3.481  -4.434   0.354  1.00  0.00    -0.008 A 
ATOM     29  C   UNL     1       4.456  -3.106  -1.419  1.00  0.00    -0.008 A 
ATOM     30  C   UNL     1       4.583  -4.088  -0.433  1.00  0.00    -0.109 A 
ATOM     31  O   UNL     1       5.804  -4.723  -0.237  1.00  0.00    -0.872 OA
ENDBRANCH  19  25
ENDBRANCH   1  14
TORSDOF 6


