REMARK SMILES N#Cc1ccc(Nc2ccc3cc[nH]c3c2)c(F)c1
REMARK SMILES IDX 3 1 4 2 5 3 6 4 17 5 18 6 19 7 2 8 1 9 7 10 8 12 9 13 16 14
REMARK SMILES IDX 10 15 15 16 11 17 14 18 12 19 13 20
REMARK H PARENT 7 11 14 21
ROOT
ATOM      1  C   UNL     1       3.237  -3.780  -0.317  1.00  0.00     0.055 A 
ATOM      2  C   UNL     1       2.027  -4.428  -0.592  1.00  0.00     0.022 A 
ATOM      3  C   UNL     1       0.881  -3.680  -0.876  1.00  0.00     0.030 A 
ATOM      4  C   UNL     1       0.928  -2.278  -0.871  1.00  0.00     0.075 A 
ATOM      5  C   UNL     1       2.153  -1.631  -0.620  1.00  0.00     0.147 A 
ATOM      6  F   UNL     1       2.250  -0.279  -0.688  1.00  0.00    -0.205 F 
ATOM      7  C   UNL     1       3.299  -2.382  -0.337  1.00  0.00     0.061 A 
ENDROOT
BRANCH   1   8
ATOM      8  C   UNL     1       4.418  -4.551  -0.027  1.00  0.00     0.099 C 
ATOM      9  N   UNL     1       5.367  -5.170   0.206  1.00  0.00    -0.192 NA
ENDBRANCH   1   8
BRANCH   4  10
ATOM     10  N   UNL     1      -0.261  -1.534  -1.183  1.00  0.00    -0.353 N 
ATOM     11  H   UNL     1      -0.890  -1.912  -1.927  1.00  0.00     0.167 HD
BRANCH  10  12
ATOM     12  C   UNL     1      -0.679  -0.349  -0.484  1.00  0.00     0.041 A 
ATOM     13  C   UNL     1      -1.543   0.569  -1.133  1.00  0.00     0.027 A 
ATOM     14  C   UNL     1      -0.289  -0.112   0.857  1.00  0.00     0.052 A 
ATOM     15  C   UNL     1      -1.992   1.727  -0.472  1.00  0.00     0.012 A 
ATOM     16  C   UNL     1      -0.751   1.045   1.481  1.00  0.00     0.047 A 
ATOM     17  C   UNL     1      -1.571   1.932   0.838  1.00  0.00    -0.001 A 
ATOM     18  N   UNL     1      -0.496   1.454   2.734  1.00  0.00    -0.361 N 
ATOM     19  C   UNL     1      -1.849   2.952   1.721  1.00  0.00     0.028 A 
ATOM     20  C   UNL     1      -1.164   2.620   2.886  1.00  0.00     0.083 A 
ATOM     21  H   UNL     1       0.095   0.973   3.448  1.00  0.00     0.166 HD
ENDBRANCH  10  12
ENDBRANCH   4  10
TORSDOF 3


