REMARK SMILES c1cc2cc(-c3nc4c(c[nH+]3)CCCC4)ccc2[nH]1
REMARK SMILES IDX 6 1 7 2 8 3 9 4 10 5 11 6 12 7 13 8 14 9 15 10 5 12 1 13
REMARK SMILES IDX 2 14 19 15 3 16 18 17 4 18 17 19 16 20
REMARK H PARENT 11 11 19 21
ROOT
ATOM      1  C   UNL     1       0.339  -0.278  -0.112  1.00  0.00     0.328 A 
ATOM      2  N   UNL     1       1.451   0.383  -0.534  1.00  0.00    -0.045 NA
ATOM      3  C   UNL     1       2.405  -0.225  -1.287  1.00  0.00     0.159 A 
ATOM      4  C   UNL     1       2.229  -1.567  -1.672  1.00  0.00     0.038 A 
ATOM      5  C   UNL     1       1.093  -2.238  -1.211  1.00  0.00     0.205 A 
ATOM      6  N   UNL     1       0.174  -1.591  -0.447  1.00  0.00    -0.243 N 
ATOM      7  C   UNL     1       3.280  -2.317  -2.454  1.00  0.00     0.044 C 
ATOM      8  C   UNL     1       4.248  -1.379  -3.184  1.00  0.00     0.006 C 
ATOM      9  C   UNL     1       4.743  -0.280  -2.241  1.00  0.00     0.009 C 
ATOM     10  C   UNL     1       3.573   0.592  -1.774  1.00  0.00     0.085 C 
ATOM     11  H   UNL     1      -0.646  -2.135  -0.099  1.00  0.00     0.312 HD
ENDROOT
BRANCH   1  12
ATOM     12  C   UNL     1      -0.663   0.440   0.714  1.00  0.00     0.069 A 
ATOM     13  C   UNL     1      -4.640   1.656   2.543  1.00  0.00     0.083 A 
ATOM     14  C   UNL     1      -4.285   0.663   1.636  1.00  0.00     0.028 A 
ATOM     15  N   UNL     1      -3.555   2.369   2.924  1.00  0.00    -0.361 N 
ATOM     16  C   UNL     1      -2.923   0.794   1.474  1.00  0.00     0.000 A 
ATOM     17  C   UNL     1      -2.515   1.833   2.265  1.00  0.00     0.045 A 
ATOM     18  C   UNL     1      -2.031   0.075   0.682  1.00  0.00     0.027 A 
ATOM     19  C   UNL     1      -1.183   2.232   2.318  1.00  0.00     0.027 A 
ATOM     20  C   UNL     1      -0.253   1.529   1.532  1.00  0.00     0.019 A 
ATOM     21  H   UNL     1      -3.536   3.172   3.591  1.00  0.00     0.166 HD
ENDBRANCH   1  12
TORSDOF 1


