REMARK SMILES Cc1ccnc(F)c1-c1cc2c(C)c(F)cc([NH2+]c3cccc(N)c3O)c2[nH]1
REMARK SMILES IDX 18 1 17 4 9 5 10 6 28 7 11 8 27 9 12 10 14 11 16 12 13 14
REMARK SMILES IDX 15 15 8 16 2 17 3 18 4 19 6 20 5 21 1 22 7 23 19 24 20 25
REMARK SMILES IDX 25 26 21 27 23 28 22 29 26 30 24 32
REMARK H PARENT 18 2 18 3 28 13 26 31 24 33 24 34
ROOT
ATOM      1  N   UNL     1       1.640   0.901   2.539  1.00  0.00    -0.276 N 
ATOM      2  H   UNL     1       2.049  -0.021   2.819  1.00  0.00     0.358 HD
ATOM      3  H   UNL     1       1.648   1.500   3.397  1.00  0.00     0.358 HD
ENDROOT
BRANCH   1   4
ATOM      4  C   UNL     1       0.286   0.690   2.078  1.00  0.00     0.162 A 
ATOM      5  C   UNL     1       0.014  -1.982  -0.216  1.00  0.00     0.052 A 
ATOM      6  C   UNL     1      -1.304  -1.538  -0.204  1.00  0.00     0.037 A 
ATOM      7  N   UNL     1       0.781  -1.233   0.608  1.00  0.00    -0.349 N 
ATOM      8  C   UNL     1      -1.321  -0.479   0.683  1.00  0.00     0.012 A 
ATOM      9  C   UNL     1      -0.040  -0.315   1.152  1.00  0.00     0.109 A 
ATOM     10  C   UNL     1      -2.378   0.335   1.103  1.00  0.00    -0.005 A 
ATOM     11  C   UNL     1      -2.089   1.329   2.064  1.00  0.00     0.132 A 
ATOM     12  C   UNL     1      -0.774   1.502   2.543  1.00  0.00     0.110 A 
ATOM     13  H   UNL     1       1.795  -1.373   0.802  1.00  0.00     0.167 HD
ATOM     14  C   UNL     1      -3.774   0.117   0.589  1.00  0.00     0.048 C 
ATOM     15  F   UNL     1      -3.072   2.134   2.541  1.00  0.00    -0.206 F 
BRANCH   5  16
ATOM     16  C   UNL     1       0.545  -3.088  -1.044  1.00  0.00     0.056 A 
ATOM     17  C   UNL     1      -0.069  -4.364  -1.088  1.00  0.00    -0.036 A 
ATOM     18  C   UNL     1       0.469  -5.352  -1.928  1.00  0.00     0.024 A 
ATOM     19  C   UNL     1       1.614  -5.080  -2.674  1.00  0.00     0.114 A 
ATOM     20  C   UNL     1       1.707  -2.873  -1.809  1.00  0.00     0.222 A 
ATOM     21  N   UNL     1       2.204  -3.861  -2.597  1.00  0.00    -0.228 NA
ATOM     22  C   UNL     1      -1.286  -4.699  -0.266  1.00  0.00     0.045 C 
ATOM     23  F   UNL     1       2.329  -1.666  -1.799  1.00  0.00    -0.184 F 
ENDBRANCH   5  16
ENDBRANCH   1   4
BRANCH   1  24
ATOM     24  C   UNL     1       2.441   1.540   1.516  1.00  0.00     0.179 A 
ATOM     25  C   UNL     1       3.495   0.834   0.909  1.00  0.00     0.072 A 
ATOM     26  C   UNL     1       2.210   2.887   1.146  1.00  0.00     0.201 A 
ATOM     27  C   UNL     1       4.272   1.429  -0.083  1.00  0.00     0.009 A 
ATOM     28  C   UNL     1       2.984   3.478   0.116  1.00  0.00     0.080 A 
ATOM     29  C   UNL     1       4.013   2.738  -0.482  1.00  0.00     0.030 A 
BRANCH  26  30
ATOM     30  O   UNL     1       1.231   3.609   1.834  1.00  0.00    -0.501 OA
ATOM     31  H   UNL     1       1.067   4.598   1.714  1.00  0.00     0.293 HD
ENDBRANCH  26  30
BRANCH  28  32
ATOM     32  N   UNL     1       2.739   4.813  -0.349  1.00  0.00    -0.396 N 
ATOM     33  H   UNL     1       3.388   5.256  -1.038  1.00  0.00     0.156 HD
ATOM     34  H   UNL     1       1.876   5.345  -0.111  1.00  0.00     0.156 HD
ENDBRANCH  28  32
ENDBRANCH   1  24
TORSDOF 5


