REMARK SMILES Cc1cccc(Cc2cc3cc(F)ccc3[nH]2)n1
REMARK SMILES IDX 7 1 6 2 2 3 3 4 18 5 4 6 5 7 1 8 8 9 9 10 17 11 10 12 16 13
REMARK SMILES IDX 11 14 15 15 12 16 14 17 13 19
REMARK H PARENT 17 18
ROOT
ATOM      1  C   UNL     1      -1.436   0.217  -1.234  1.00  0.00     0.110 C 
ENDROOT
BRANCH   1   2
ATOM      2  C   UNL     1      -0.714   1.524  -1.104  1.00  0.00     0.047 A 
ATOM      3  C   UNL     1      -0.664   3.740  -0.232  1.00  0.00     0.038 A 
ATOM      4  C   UNL     1       0.621   3.936  -0.753  1.00  0.00     0.023 A 
ATOM      5  N   UNL     1      -1.290   2.545  -0.411  1.00  0.00    -0.258 NA
ATOM      6  C   UNL     1       1.239   2.901  -1.457  1.00  0.00     0.004 A 
ATOM      7  C   UNL     1       0.575   1.685  -1.633  1.00  0.00     0.024 A 
ATOM      8  C   UNL     1      -1.338   4.824   0.546  1.00  0.00     0.067 C 
ENDBRANCH   1   2
BRANCH   1   9
ATOM      9  C   UNL     1      -1.053  -0.692  -0.109  1.00  0.00     0.022 A 
ATOM     10  C   UNL     1      -1.675  -0.729   1.137  1.00  0.00     0.032 A 
ATOM     11  N   UNL     1       0.014  -1.525  -0.148  1.00  0.00    -0.358 N 
ATOM     12  C   UNL     1      -0.947  -1.643   1.868  1.00  0.00     0.003 A 
ATOM     13  C   UNL     1       0.064  -2.103   1.064  1.00  0.00     0.046 A 
ATOM     14  C   UNL     1      -1.100  -2.082   3.181  1.00  0.00     0.049 A 
ATOM     15  C   UNL     1       0.993  -3.038   1.518  1.00  0.00     0.029 A 
ATOM     16  C   UNL     1      -0.180  -3.029   3.668  1.00  0.00     0.123 A 
ATOM     17  C   UNL     1       0.862  -3.505   2.840  1.00  0.00     0.041 A 
ATOM     18  H   UNL     1       0.670  -1.675  -0.947  1.00  0.00     0.166 HD
ATOM     19  F   UNL     1      -0.292  -3.486   4.939  1.00  0.00    -0.207 F 
ENDBRANCH   1   9
TORSDOF 2


