MODEL 1
REMARK VINA RESULT:      -9.6      0.000      0.000
REMARK SMILES Cc1ccc([NH2+]c2ccc([C@@H]3O[C@H]3c3ccccc3)c(N)c2[O-])cc1F
REMARK SMILES IDX 7 1 8 2 9 3 10 4 20 5 22 6 23 7 6 8 5 11 2 12 3 13 25 14
REMARK SMILES IDX 4 15 24 16 1 17 26 18 21 19 11 22 12 23 13 24 14 25 15 26
REMARK SMILES IDX 19 27 16 28 18 29 17 30
REMARK H PARENT 6 9 6 10 21 20 21 21
ROOT
ATOM      1  C   UNL     1      44.255 130.766  22.015  1.00  0.00     0.128 A 
ATOM      2  C   UNL     1      45.443 130.255  21.471  1.00  0.00     0.068 A 
ATOM      3  C   UNL     1      45.777 130.498  20.141  1.00  0.00     0.015 A 
ATOM      4  C   UNL     1      44.941 131.270  19.321  1.00  0.00     0.007 A 
ATOM      5  C   UNL     1      43.726 131.768  19.845  1.00  0.00     0.035 A 
ATOM      6  C   UNL     1      43.394 131.517  21.190  1.00  0.00    -0.021 A 
ATOM      7  O   UNL     1      42.200 132.012  21.708  1.00  0.00    -0.867 OA
ENDROOT
BRANCH   1   8
ATOM      8  N   UNL     1      43.906 130.468  23.385  1.00  0.00    -0.282 N 
ATOM      9  H   UNL     1      43.221 131.169  23.755  1.00  0.00     0.358 HD
ATOM     10  H   UNL     1      44.757 130.539  23.992  1.00  0.00     0.358 HD
BRANCH   8  11
ATOM     11  C   UNL     1      43.352 129.138  23.470  1.00  0.00     0.137 A 
ATOM     12  C   UNL     1      42.273 126.540  23.691  1.00  0.00    -0.015 A 
ATOM     13  C   UNL     1      41.433 127.664  23.737  1.00  0.00     0.012 A 
ATOM     14  C   UNL     1      43.660 126.722  23.560  1.00  0.00     0.132 A 
ATOM     15  C   UNL     1      41.967 128.951  23.623  1.00  0.00     0.068 A 
ATOM     16  C   UNL     1      44.194 128.011  23.445  1.00  0.00     0.107 A 
ATOM     17  C   UNL     1      41.695 125.164  23.854  1.00  0.00     0.047 C 
ATOM     18  F   UNL     1      44.497 125.655  23.548  1.00  0.00    -0.206 F 
ENDBRANCH   8  11
ENDBRANCH   1   8
BRANCH   5  19
ATOM     19  N   UNL     1      42.815 132.511  19.017  1.00  0.00    -0.399 N 
ATOM     20  H   UNL     1      42.886 132.507  17.979  1.00  0.00     0.156 HD
ATOM     21  H   UNL     1      42.039 133.070  19.434  1.00  0.00     0.156 HD
ENDBRANCH   5  19
BRANCH   4  22
ATOM     22  C   UNL     1      45.331 131.479  17.881  1.00  0.00     0.185 C 
ATOM     23  O   UNL     1      44.305 131.050  17.013  1.00  0.00    -0.359 OA
ATOM     24  C   UNL     1      45.467 130.256  17.044  1.00  0.00     0.183 C 
BRANCH  24  25
ATOM     25  C   UNL     1      46.235 130.397  15.762  1.00  0.00    -0.016 A 
ATOM     26  C   UNL     1      46.242 131.627  15.084  1.00  0.00     0.006 A 
ATOM     27  C   UNL     1      46.918 129.302  15.210  1.00  0.00     0.006 A 
ATOM     28  C   UNL     1      46.940 131.762  13.880  1.00  0.00     0.000 A 
ATOM     29  C   UNL     1      47.617 129.441  14.007  1.00  0.00     0.000 A 
ATOM     30  C   UNL     1      47.627 130.669  13.341  1.00  0.00     0.000 A 
ENDBRANCH  24  25
ENDBRANCH   4  22
TORSDOF 5
ENDMDL
MODEL 2
REMARK VINA RESULT:      -9.2      1.228      1.707
REMARK SMILES Cc1ccc([NH2+]c2ccc([C@@H]3O[C@H]3c3ccccc3)c(N)c2[O-])cc1F
REMARK SMILES IDX 7 1 8 2 9 3 10 4 20 5 22 6 23 7 6 8 5 11 2 12 3 13 25 14
REMARK SMILES IDX 4 15 24 16 1 17 26 18 21 19 11 22 12 23 13 24 14 25 15 26
REMARK SMILES IDX 19 27 16 28 18 29 17 30
REMARK H PARENT 6 9 6 10 21 20 21 21
ROOT
ATOM      1  C   UNL     1      43.644 131.847  20.920  1.00  0.00     0.128 A 
ATOM      2  C   UNL     1      44.953 131.479  20.575  1.00  0.00     0.068 A 
ATOM      3  C   UNL     1      45.335 131.387  19.238  1.00  0.00     0.015 A 
ATOM      4  C   UNL     1      44.426 131.673  18.211  1.00  0.00     0.007 A 
ATOM      5  C   UNL     1      43.095 132.017  18.540  1.00  0.00     0.035 A 
ATOM      6  C   UNL     1      42.714 132.107  19.893  1.00  0.00    -0.021 A 
ATOM      7  O   UNL     1      41.404 132.451  20.219  1.00  0.00    -0.867 OA
ENDROOT
BRANCH   1   8
ATOM      8  N   UNL     1      43.255 131.897  22.311  1.00  0.00    -0.282 N 
ATOM      9  H   UNL     1      42.321 132.359  22.419  1.00  0.00     0.358 HD
ATOM     10  H   UNL     1      43.938 132.482  22.849  1.00  0.00     0.358 HD
BRANCH   8  11
ATOM     11  C   UNL     1      43.216 130.561  22.856  1.00  0.00     0.137 A 
ATOM     12  C   UNL     1      43.162 127.968  23.967  1.00  0.00    -0.015 A 
ATOM     13  C   UNL     1      42.100 128.858  24.190  1.00  0.00     0.012 A 
ATOM     14  C   UNL     1      44.265 128.390  23.206  1.00  0.00     0.132 A 
ATOM     15  C   UNL     1      42.123 130.142  23.636  1.00  0.00     0.068 A 
ATOM     16  C   UNL     1      44.288 129.674  22.651  1.00  0.00     0.107 A 
ATOM     17  C   UNL     1      43.145 126.606  24.599  1.00  0.00     0.047 C 
ATOM     18  F   UNL     1      45.321 127.562  23.006  1.00  0.00    -0.206 F 
ENDBRANCH   8  11
ENDBRANCH   1   8
BRANCH   5  19
ATOM     19  N   UNL     1      42.118 132.256  17.513  1.00  0.00    -0.399 N 
ATOM     20  H   UNL     1      41.096 132.193  17.699  1.00  0.00     0.156 HD
ATOM     21  H   UNL     1      42.404 132.517  16.544  1.00  0.00     0.156 HD
ENDBRANCH   5  19
BRANCH   4  22
ATOM     22  C   UNL     1      44.878 131.528  16.781  1.00  0.00     0.185 C 
ATOM     23  O   UNL     1      44.285 130.402  16.174  1.00  0.00    -0.359 OA
ATOM     24  C   UNL     1      45.662 130.308  16.452  1.00  0.00     0.183 C 
BRANCH  24  25
ATOM     25  C   UNL     1      46.458 130.338  15.179  1.00  0.00    -0.016 A 
ATOM     26  C   UNL     1      47.485 129.401  14.975  1.00  0.00     0.006 A 
ATOM     27  C   UNL     1      46.214 131.316  14.203  1.00  0.00     0.006 A 
ATOM     28  C   UNL     1      48.243 129.434  13.801  1.00  0.00     0.000 A 
ATOM     29  C   UNL     1      46.972 131.343  13.028  1.00  0.00     0.000 A 
ATOM     30  C   UNL     1      47.987 130.404  12.827  1.00  0.00     0.000 A 
ENDBRANCH  24  25
ENDBRANCH   4  22
TORSDOF 5
ENDMDL
MODEL 3
REMARK VINA RESULT:      -8.4      1.277      1.616
REMARK SMILES Cc1ccc([NH2+]c2ccc([C@@H]3O[C@H]3c3ccccc3)c(N)c2[O-])cc1F
REMARK SMILES IDX 7 1 8 2 9 3 10 4 20 5 22 6 23 7 6 8 5 11 2 12 3 13 25 14
REMARK SMILES IDX 4 15 24 16 1 17 26 18 21 19 11 22 12 23 13 24 14 25 15 26
REMARK SMILES IDX 19 27 16 28 18 29 17 30
REMARK H PARENT 6 9 6 10 21 20 21 21
ROOT
ATOM      1  C   UNL     1      44.192 131.563  20.604  1.00  0.00     0.128 A 
ATOM      2  C   UNL     1      45.375 130.887  20.271  1.00  0.00     0.068 A 
ATOM      3  C   UNL     1      45.710 130.657  18.938  1.00  0.00     0.015 A 
ATOM      4  C   UNL     1      44.881 131.107  17.902  1.00  0.00     0.007 A 
ATOM      5  C   UNL     1      43.670 131.764  18.220  1.00  0.00     0.035 A 
ATOM      6  C   UNL     1      43.336 131.992  19.569  1.00  0.00    -0.021 A 
ATOM      7  O   UNL     1      42.147 132.644  19.883  1.00  0.00    -0.867 OA
ENDROOT
BRANCH   1   8
ATOM      8  N   UNL     1      43.842 131.756  21.992  1.00  0.00    -0.282 N 
ATOM      9  H   UNL     1      42.982 132.349  22.080  1.00  0.00     0.358 HD
ATOM     10  H   UNL     1      44.608 132.274  22.483  1.00  0.00     0.358 HD
BRANCH   8  11
ATOM     11  C   UNL     1      43.630 130.476  22.625  1.00  0.00     0.137 A 
ATOM     12  C   UNL     1      43.246 127.991  23.905  1.00  0.00    -0.015 A 
ATOM     13  C   UNL     1      42.368 129.058  24.150  1.00  0.00     0.012 A 
ATOM     14  C   UNL     1      44.334 128.180  23.037  1.00  0.00     0.132 A 
ATOM     15  C   UNL     1      42.554 130.289  23.512  1.00  0.00     0.068 A 
ATOM     16  C   UNL     1      44.520 129.411  22.398  1.00  0.00     0.107 A 
ATOM     17  C   UNL     1      43.059 126.686  24.625  1.00  0.00     0.047 C 
ATOM     18  F   UNL     1      45.217 127.176  22.812  1.00  0.00    -0.206 F 
ENDBRANCH   8  11
ENDBRANCH   1   8
BRANCH   5  19
ATOM     19  N   UNL     1      42.764 132.185  17.186  1.00  0.00    -0.399 N 
ATOM     20  H   UNL     1      42.897 131.908  16.192  1.00  0.00     0.156 HD
ATOM     21  H   UNL     1      41.931 132.774  17.403  1.00  0.00     0.156 HD
ENDBRANCH   5  19
BRANCH   4  22
ATOM     22  C   UNL     1      45.271 130.806  16.478  1.00  0.00     0.185 C 
ATOM     23  O   UNL     1      45.390 129.416  16.269  1.00  0.00    -0.359 OA
ATOM     24  C   UNL     1      46.591 130.152  16.274  1.00  0.00     0.183 C 
BRANCH  24  25
ATOM     25  C   UNL     1      47.172 130.218  14.892  1.00  0.00    -0.016 A 
ATOM     26  C   UNL     1      46.830 131.283  14.041  1.00  0.00     0.006 A 
ATOM     27  C   UNL     1      48.025 129.208  14.422  1.00  0.00     0.006 A 
ATOM     28  C   UNL     1      47.353 131.344  12.745  1.00  0.00     0.000 A 
ATOM     29  C   UNL     1      48.548 129.273  13.126  1.00  0.00     0.000 A 
ATOM     30  C   UNL     1      48.211 130.339  12.288  1.00  0.00     0.000 A 
ENDBRANCH  24  25
ENDBRANCH   4  22
TORSDOF 5
ENDMDL
MODEL 4
REMARK VINA RESULT:      -8.0      1.280      1.708
REMARK SMILES Cc1ccc([NH2+]c2ccc([C@@H]3O[C@H]3c3ccccc3)c(N)c2[O-])cc1F
REMARK SMILES IDX 7 1 8 2 9 3 10 4 20 5 22 6 23 7 6 8 5 11 2 12 3 13 25 14
REMARK SMILES IDX 4 15 24 16 1 17 26 18 21 19 11 22 12 23 13 24 14 25 15 26
REMARK SMILES IDX 19 27 16 28 18 29 17 30
REMARK H PARENT 6 9 6 10 21 20 21 21
ROOT
ATOM      1  C   UNL     1      44.015 129.490  23.177  1.00  0.00     0.128 A 
ATOM      2  C   UNL     1      45.023 128.777  22.510  1.00  0.00     0.068 A 
ATOM      3  C   UNL     1      45.563 129.257  21.319  1.00  0.00     0.015 A 
ATOM      4  C   UNL     1      45.122 130.468  20.768  1.00  0.00     0.007 A 
ATOM      5  C   UNL     1      44.086 131.185  21.411  1.00  0.00     0.035 A 
ATOM      6  C   UNL     1      43.543 130.693  22.614  1.00  0.00    -0.021 A 
ATOM      7  O   UNL     1      42.527 131.401  23.251  1.00  0.00    -0.867 OA
ENDROOT
BRANCH   1   8
ATOM      8  N   UNL     1      43.439 128.955  24.389  1.00  0.00    -0.282 N 
ATOM      9  H   UNL     1      42.912 129.696  24.909  1.00  0.00     0.358 HD
ATOM     10  H   UNL     1      44.201 128.630  25.031  1.00  0.00     0.358 HD
BRANCH   8  11
ATOM     11  C   UNL     1      42.563 127.853  24.069  1.00  0.00     0.137 A 
ATOM     12  C   UNL     1      40.834 125.699  23.495  1.00  0.00    -0.015 A 
ATOM     13  C   UNL     1      40.377 127.022  23.394  1.00  0.00     0.012 A 
ATOM     14  C   UNL     1      42.154 125.456  23.910  1.00  0.00     0.132 A 
ATOM     15  C   UNL     1      41.234 128.090  23.674  1.00  0.00     0.068 A 
ATOM     16  C   UNL     1      43.012 126.525  24.189  1.00  0.00     0.107 A 
ATOM     17  C   UNL     1      39.894 124.558  23.231  1.00  0.00     0.047 C 
ATOM     18  F   UNL     1      42.609 124.186  24.050  1.00  0.00    -0.206 F 
ENDBRANCH   8  11
ENDBRANCH   1   8
BRANCH   5  19
ATOM     19  N   UNL     1      43.565 132.398  20.844  1.00  0.00    -0.399 N 
ATOM     20  H   UNL     1      43.403 133.250  21.419  1.00  0.00     0.156 HD
ATOM     21  H   UNL     1      43.344 132.469  19.826  1.00  0.00     0.156 HD
ENDBRANCH   5  19
BRANCH   4  22
ATOM     22  C   UNL     1      45.715 130.930  19.462  1.00  0.00     0.185 C 
ATOM     23  O   UNL     1      44.957 131.982  18.907  1.00  0.00    -0.359 OA
ATOM     24  C   UNL     1      44.877 130.740  18.248  1.00  0.00     0.183 C 
BRANCH  24  25
ATOM     25  C   UNL     1      45.582 130.801  16.924  1.00  0.00    -0.016 A 
ATOM     26  C   UNL     1      45.634 132.014  16.216  1.00  0.00     0.006 A 
ATOM     27  C   UNL     1      46.159 129.652  16.364  1.00  0.00     0.006 A 
ATOM     28  C   UNL     1      46.274 132.076  14.974  1.00  0.00     0.000 A 
ATOM     29  C   UNL     1      46.801 129.718  15.122  1.00  0.00     0.000 A 
ATOM     30  C   UNL     1      46.856 130.928  14.427  1.00  0.00     0.000 A 
ENDBRANCH  24  25
ENDBRANCH   4  22
TORSDOF 5
ENDMDL
MODEL 5
REMARK VINA RESULT:      -6.7      1.879      2.756
REMARK SMILES Cc1ccc([NH2+]c2ccc([C@@H]3O[C@H]3c3ccccc3)c(N)c2[O-])cc1F
REMARK SMILES IDX 7 1 8 2 9 3 10 4 20 5 22 6 23 7 6 8 5 11 2 12 3 13 25 14
REMARK SMILES IDX 4 15 24 16 1 17 26 18 21 19 11 22 12 23 13 24 14 25 15 26
REMARK SMILES IDX 19 27 16 28 18 29 17 30
REMARK H PARENT 6 9 6 10 21 20 21 21
ROOT
ATOM      1  C   UNL     1      44.780 128.109  23.257  1.00  0.00     0.128 A 
ATOM      2  C   UNL     1      45.531 127.576  22.199  1.00  0.00     0.068 A 
ATOM      3  C   UNL     1      45.851 128.359  21.091  1.00  0.00     0.015 A 
ATOM      4  C   UNL     1      45.442 129.698  21.016  1.00  0.00     0.007 A 
ATOM      5  C   UNL     1      44.659 130.242  22.060  1.00  0.00     0.035 A 
ATOM      6  C   UNL     1      44.337 129.445  23.176  1.00  0.00    -0.021 A 
ATOM      7  O   UNL     1      43.571 129.982  24.208  1.00  0.00    -0.867 OA
ENDROOT
BRANCH   1   8
ATOM      8  N   UNL     1      44.422 127.270  24.377  1.00  0.00    -0.282 N 
ATOM      9  H   UNL     1      44.242 127.848  25.232  1.00  0.00     0.358 HD
ATOM     10  H   UNL     1      45.222 126.635  24.614  1.00  0.00     0.358 HD
BRANCH   8  11
ATOM     11  C   UNL     1      43.255 126.487  24.049  1.00  0.00     0.137 A 
ATOM     12  C   UNL     1      40.966 124.987  23.362  1.00  0.00    -0.015 A 
ATOM     13  C   UNL     1      42.231 124.608  22.888  1.00  0.00     0.012 A 
ATOM     14  C   UNL     1      40.846 126.136  24.161  1.00  0.00     0.132 A 
ATOM     15  C   UNL     1      43.367 125.348  23.232  1.00  0.00     0.068 A 
ATOM     16  C   UNL     1      41.982 126.877  24.505  1.00  0.00     0.107 A 
ATOM     17  C   UNL     1      39.748 124.208  22.955  1.00  0.00     0.047 C 
ATOM     18  F   UNL     1      39.630 126.545  24.602  1.00  0.00    -0.206 F 
ENDBRANCH   8  11
ENDBRANCH   1   8
BRANCH   5  19
ATOM     19  N   UNL     1      44.169 131.591  21.989  1.00  0.00    -0.399 N 
ATOM     20  H   UNL     1      43.152 131.809  22.002  1.00  0.00     0.156 HD
ATOM     21  H   UNL     1      44.823 132.403  21.937  1.00  0.00     0.156 HD
ENDBRANCH   5  19
BRANCH   4  22
ATOM     22  C   UNL     1      45.786 130.493  19.784  1.00  0.00     0.185 C 
ATOM     23  O   UNL     1      44.701 131.300  19.384  1.00  0.00    -0.359 OA
ATOM     24  C   UNL     1      44.996 130.198  18.559  1.00  0.00     0.183 C 
BRANCH  24  25
ATOM     25  C   UNL     1      45.575 130.658  17.253  1.00  0.00    -0.016 A 
ATOM     26  C   UNL     1      45.265 131.939  16.764  1.00  0.00     0.006 A 
ATOM     27  C   UNL     1      46.396 129.812  16.492  1.00  0.00     0.006 A 
ATOM     28  C   UNL     1      45.786 132.369  15.540  1.00  0.00     0.000 A 
ATOM     29  C   UNL     1      46.918 130.246  15.270  1.00  0.00     0.000 A 
ATOM     30  C   UNL     1      46.612 131.523  14.793  1.00  0.00     0.000 A 
ENDBRANCH  24  25
ENDBRANCH   4  22
TORSDOF 5
ENDMDL


