MODEL 1
REMARK VINA RESULT:      -9.2      0.000      0.000
REMARK SMILES Nc1cc(F)c(CCC(=O)c2ccccc2)c(F)c1C1CC1
REMARK SMILES IDX 7 1 6 2 2 3 3 4 19 5 4 6 17 7 5 8 18 9 1 10 20 13 21 14
REMARK SMILES IDX 22 15 8 16 9 17 10 18 11 19 12 20 16 21 13 22 15 23 14 24
REMARK H PARENT 1 11 1 12
ROOT
ATOM      1  C   UNL     1      45.940 130.971  17.596  1.00  0.00     0.050 C 
ENDROOT
BRANCH   1   2
ATOM      2  C   UNL     1      44.851 131.358  18.566  1.00  0.00     0.024 A 
ATOM      3  C   UNL     1      42.799 132.048  20.373  1.00  0.00     0.041 A 
ATOM      4  C   UNL     1      42.595 132.146  18.991  1.00  0.00     0.065 A 
ATOM      5  C   UNL     1      44.025 131.536  20.863  1.00  0.00     0.014 A 
ATOM      6  C   UNL     1      43.603 131.793  18.093  1.00  0.00     0.131 A 
ATOM      7  C   UNL     1      45.056 131.231  19.952  1.00  0.00     0.134 A 
ATOM      8  F   UNL     1      43.364 131.892  16.760  1.00  0.00    -0.207 F 
ATOM      9  F   UNL     1      46.265 130.815  20.414  1.00  0.00    -0.206 F 
BRANCH   3  10
ATOM     10  N   UNL     1      41.761 132.488  21.259  1.00  0.00    -0.398 N 
ATOM     11  H   UNL     1      40.752 132.448  20.997  1.00  0.00     0.156 HD
ATOM     12  H   UNL     1      41.990 132.799  22.231  1.00  0.00     0.156 HD
ENDBRANCH   3  10
BRANCH   5  13
ATOM     13  C   UNL     1      44.274 131.387  22.347  1.00  0.00     0.024 C 
ATOM     14  C   UNL     1      43.124 130.766  23.134  1.00  0.00     0.009 C 
ATOM     15  C   UNL     1      44.371 129.952  22.860  1.00  0.00     0.009 C 
ENDBRANCH   5  13
ENDBRANCH   1   2
BRANCH   1  16
ATOM     16  C   UNL     1      45.766 129.516  17.146  1.00  0.00     0.086 C 
BRANCH  16  17
ATOM     17  C   UNL     1      45.463 129.445  15.673  1.00  0.00     0.163 C 
ATOM     18  O   UNL     1      44.309 129.070  15.326  1.00  0.00    -0.294 OA
BRANCH  17  19
ATOM     19  C   UNL     1      46.453 129.830  14.627  1.00  0.00     0.017 A 
ATOM     20  C   UNL     1      46.190 130.931  13.787  1.00  0.00     0.012 A 
ATOM     21  C   UNL     1      47.662 129.122  14.450  1.00  0.00     0.012 A 
ATOM     22  C   UNL     1      47.106 131.310  12.801  1.00  0.00     0.001 A 
ATOM     23  C   UNL     1      48.573 129.508  13.462  1.00  0.00     0.001 A 
ATOM     24  C   UNL     1      48.295 130.599  12.638  1.00  0.00     0.000 A 
ENDBRANCH  17  19
ENDBRANCH  16  17
ENDBRANCH   1  16
TORSDOF 6
ENDMDL
MODEL 2
REMARK VINA RESULT:      -8.4      0.775      1.357
REMARK SMILES Nc1cc(F)c(CCC(=O)c2ccccc2)c(F)c1C1CC1
REMARK SMILES IDX 7 1 6 2 2 3 3 4 19 5 4 6 17 7 5 8 18 9 1 10 20 13 21 14
REMARK SMILES IDX 22 15 8 16 9 17 10 18 11 19 12 20 16 21 13 22 15 23 14 24
REMARK H PARENT 1 11 1 12
ROOT
ATOM      1  C   UNL     1      44.762 131.601  17.377  1.00  0.00     0.050 C 
ENDROOT
BRANCH   1   2
ATOM      2  C   UNL     1      44.077 131.680  18.719  1.00  0.00     0.024 A 
ATOM      3  C   UNL     1      42.777 131.795  21.219  1.00  0.00     0.041 A 
ATOM      4  C   UNL     1      42.141 132.263  20.062  1.00  0.00     0.065 A 
ATOM      5  C   UNL     1      44.059 131.201  21.119  1.00  0.00     0.014 A 
ATOM      6  C   UNL     1      42.775 132.195  18.821  1.00  0.00     0.131 A 
ATOM      7  C   UNL     1      44.713 131.184  19.871  1.00  0.00     0.134 A 
ATOM      8  F   UNL     1      42.122 132.648  17.720  1.00  0.00    -0.207 F 
ATOM      9  F   UNL     1      45.976 130.689  19.777  1.00  0.00    -0.206 F 
BRANCH   3  10
ATOM     10  N   UNL     1      42.116 131.949  22.482  1.00  0.00    -0.398 N 
ATOM     11  H   UNL     1      42.591 132.370  23.310  1.00  0.00     0.156 HD
ATOM     12  H   UNL     1      41.106 131.702  22.586  1.00  0.00     0.156 HD
ENDBRANCH   3  10
BRANCH   5  13
ATOM     13  C   UNL     1      44.766 130.658  22.339  1.00  0.00     0.024 C 
ATOM     14  C   UNL     1      43.881 129.877  23.305  1.00  0.00     0.009 C 
ATOM     15  C   UNL     1      44.865 129.136  22.424  1.00  0.00     0.009 C 
ENDBRANCH   5  13
ENDBRANCH   1   2
BRANCH   1  16
ATOM     16  C   UNL     1      45.755 130.435  17.348  1.00  0.00     0.086 C 
BRANCH  16  17
ATOM     17  C   UNL     1      45.662 129.685  16.047  1.00  0.00     0.163 C 
ATOM     18  O   UNL     1      44.784 128.784  15.948  1.00  0.00    -0.294 OA
BRANCH  17  19
ATOM     19  C   UNL     1      46.535 129.988  14.877  1.00  0.00     0.017 A 
ATOM     20  C   UNL     1      47.629 129.148  14.585  1.00  0.00     0.012 A 
ATOM     21  C   UNL     1      46.297 131.098  14.039  1.00  0.00     0.012 A 
ATOM     22  C   UNL     1      48.459 129.412  13.492  1.00  0.00     0.001 A 
ATOM     23  C   UNL     1      47.131 131.356  12.947  1.00  0.00     0.001 A 
ATOM     24  C   UNL     1      48.211 130.515  12.674  1.00  0.00     0.000 A 
ENDBRANCH  17  19
ENDBRANCH  16  17
ENDBRANCH   1  16
TORSDOF 6
ENDMDL
MODEL 3
REMARK VINA RESULT:      -8.3      1.012      1.156
REMARK SMILES Nc1cc(F)c(CCC(=O)c2ccccc2)c(F)c1C1CC1
REMARK SMILES IDX 7 1 6 2 2 3 3 4 19 5 4 6 17 7 5 8 18 9 1 10 20 13 21 14
REMARK SMILES IDX 22 15 8 16 9 17 10 18 11 19 12 20 16 21 13 22 15 23 14 24
REMARK H PARENT 1 11 1 12
ROOT
ATOM      1  C   UNL     1      44.647 131.831  16.739  1.00  0.00     0.050 C 
ENDROOT
BRANCH   1   2
ATOM      2  C   UNL     1      44.065 131.761  18.130  1.00  0.00     0.024 A 
ATOM      3  C   UNL     1      42.959 131.596  20.718  1.00  0.00     0.041 A 
ATOM      4  C   UNL     1      42.198 132.081  19.647  1.00  0.00     0.065 A 
ATOM      5  C   UNL     1      44.274 131.126  20.484  1.00  0.00     0.014 A 
ATOM      6  C   UNL     1      42.737 132.151  18.362  1.00  0.00     0.131 A 
ATOM      7  C   UNL     1      44.829 131.249  19.194  1.00  0.00     0.134 A 
ATOM      8  F   UNL     1      41.964 132.616  17.347  1.00  0.00    -0.207 F 
ATOM      9  F   UNL     1      46.117 130.875  18.974  1.00  0.00    -0.206 F 
BRANCH   3  10
ATOM     10  N   UNL     1      42.389 131.608  22.034  1.00  0.00    -0.398 N 
ATOM     11  H   UNL     1      41.369 131.753  22.196  1.00  0.00     0.156 HD
ATOM     12  H   UNL     1      42.980 131.398  22.870  1.00  0.00     0.156 HD
ENDBRANCH   3  10
BRANCH   5  13
ATOM     13  C   UNL     1      45.118 130.569  21.608  1.00  0.00     0.024 C 
ATOM     14  C   UNL     1      44.357 129.732  22.632  1.00  0.00     0.009 C 
ATOM     15  C   UNL     1      45.266 129.049  21.633  1.00  0.00     0.009 C 
ENDBRANCH   5  13
ENDBRANCH   1   2
BRANCH   1  16
ATOM     16  C   UNL     1      44.069 130.719  15.858  1.00  0.00     0.086 C 
BRANCH  16  17
ATOM     17  C   UNL     1      45.120 129.693  15.532  1.00  0.00     0.163 C 
ATOM     18  O   UNL     1      45.021 128.556  16.071  1.00  0.00    -0.294 OA
BRANCH  17  19
ATOM     19  C   UNL     1      46.239 129.958  14.584  1.00  0.00     0.017 A 
ATOM     20  C   UNL     1      46.157 131.046  13.692  1.00  0.00     0.012 A 
ATOM     21  C   UNL     1      47.395 129.149  14.553  1.00  0.00     0.012 A 
ATOM     22  C   UNL     1      47.196 131.314  12.796  1.00  0.00     0.001 A 
ATOM     23  C   UNL     1      48.430 129.423  13.654  1.00  0.00     0.001 A 
ATOM     24  C   UNL     1      48.331 130.503  12.776  1.00  0.00     0.000 A 
ENDBRANCH  17  19
ENDBRANCH  16  17
ENDBRANCH   1  16
TORSDOF 6
ENDMDL
MODEL 4
REMARK VINA RESULT:      -8.2      1.946      2.741
REMARK SMILES Nc1cc(F)c(CCC(=O)c2ccccc2)c(F)c1C1CC1
REMARK SMILES IDX 7 1 6 2 2 3 3 4 19 5 4 6 17 7 5 8 18 9 1 10 20 13 21 14
REMARK SMILES IDX 22 15 8 16 9 17 10 18 11 19 12 20 16 21 13 22 15 23 14 24
REMARK H PARENT 1 11 1 12
ROOT
ATOM      1  C   UNL     1      44.811 132.070  19.591  1.00  0.00     0.050 C 
ENDROOT
BRANCH   1   2
ATOM      2  C   UNL     1      44.229 131.391  20.807  1.00  0.00     0.024 A 
ATOM      3  C   UNL     1      43.117 130.103  23.055  1.00  0.00     0.041 A 
ATOM      4  C   UNL     1      42.458 131.182  22.453  1.00  0.00     0.065 A 
ATOM      5  C   UNL     1      44.321 129.617  22.489  1.00  0.00     0.014 A 
ATOM      6  C   UNL     1      42.997 131.813  21.332  1.00  0.00     0.131 A 
ATOM      7  C   UNL     1      44.885 130.292  21.389  1.00  0.00     0.134 A 
ATOM      8  F   UNL     1      42.323 132.849  20.769  1.00  0.00    -0.207 F 
ATOM      9  F   UNL     1      46.081 129.883  20.886  1.00  0.00    -0.206 F 
BRANCH   3  10
ATOM     10  N   UNL     1      42.562 129.530  24.247  1.00  0.00    -0.398 N 
ATOM     11  H   UNL     1      42.432 128.501  24.360  1.00  0.00     0.156 HD
ATOM     12  H   UNL     1      42.336 130.133  25.070  1.00  0.00     0.156 HD
ENDBRANCH   3  10
BRANCH   5  13
ATOM     13  C   UNL     1      45.048 128.436  23.092  1.00  0.00     0.024 C 
ATOM     14  C   UNL     1      44.181 127.206  23.347  1.00  0.00     0.009 C 
ATOM     15  C   UNL     1      45.165 127.204  22.197  1.00  0.00     0.009 C 
ENDBRANCH   5  13
ENDBRANCH   1   2
BRANCH   1  16
ATOM     16  C   UNL     1      45.395 131.033  18.625  1.00  0.00     0.086 C 
BRANCH  16  17
ATOM     17  C   UNL     1      44.852 131.233  17.236  1.00  0.00     0.163 C 
ATOM     18  O   UNL     1      43.706 131.748  17.119  1.00  0.00    -0.294 OA
BRANCH  17  19
ATOM     19  C   UNL     1      45.624 130.879  16.010  1.00  0.00     0.017 A 
ATOM     20  C   UNL     1      45.375 131.567  14.805  1.00  0.00     0.012 A 
ATOM     21  C   UNL     1      46.610 129.870  16.017  1.00  0.00     0.012 A 
ATOM     22  C   UNL     1      46.088 131.253  13.645  1.00  0.00     0.001 A 
ATOM     23  C   UNL     1      47.320 129.562  14.853  1.00  0.00     0.001 A 
ATOM     24  C   UNL     1      47.060 130.251  13.668  1.00  0.00     0.000 A 
ENDBRANCH  17  19
ENDBRANCH  16  17
ENDBRANCH   1  16
TORSDOF 6
ENDMDL
MODEL 5
REMARK VINA RESULT:      -8.1      1.555      2.147
REMARK SMILES Nc1cc(F)c(CCC(=O)c2ccccc2)c(F)c1C1CC1
REMARK SMILES IDX 7 1 6 2 2 3 3 4 19 5 4 6 17 7 5 8 18 9 1 10 20 13 21 14
REMARK SMILES IDX 22 15 8 16 9 17 10 18 11 19 12 20 16 21 13 22 15 23 14 24
REMARK H PARENT 1 11 1 12
ROOT
ATOM      1  C   UNL     1      45.859 130.766  18.802  1.00  0.00     0.050 C 
ENDROOT
BRANCH   1   2
ATOM      2  C   UNL     1      44.927 130.812  19.987  1.00  0.00     0.024 A 
ATOM      3  C   UNL     1      43.159 130.878  22.183  1.00  0.00     0.041 A 
ATOM      4  C   UNL     1      42.958 131.718  21.080  1.00  0.00     0.065 A 
ATOM      5  C   UNL     1      44.224 129.944  22.164  1.00  0.00     0.014 A 
ATOM      6  C   UNL     1      43.822 131.678  19.986  1.00  0.00     0.131 A 
ATOM      7  C   UNL     1      45.122 129.947  21.079  1.00  0.00     0.134 A 
ATOM      8  F   UNL     1      43.588 132.500  18.930  1.00  0.00    -0.207 F 
ATOM      9  F   UNL     1      46.194 129.111  21.086  1.00  0.00    -0.206 F 
BRANCH   3  10
ATOM     10  N   UNL     1      42.287 131.001  23.315  1.00  0.00    -0.398 N 
ATOM     11  H   UNL     1      42.494 131.647  24.108  1.00  0.00     0.156 HD
ATOM     12  H   UNL     1      41.376 130.489  23.341  1.00  0.00     0.156 HD
ENDBRANCH   3  10
BRANCH   5  13
ATOM     13  C   UNL     1      44.457 129.000  23.322  1.00  0.00     0.024 C 
ATOM     14  C   UNL     1      43.252 128.151  23.715  1.00  0.00     0.009 C 
ATOM     15  C   UNL     1      44.412 127.512  22.981  1.00  0.00     0.009 C 
ENDBRANCH   5  13
ENDBRANCH   1   2
BRANCH   1  16
ATOM     16  C   UNL     1      45.123 130.256  17.558  1.00  0.00     0.086 C 
BRANCH  16  17
ATOM     17  C   UNL     1      45.400 131.140  16.372  1.00  0.00     0.163 C 
ATOM     18  O   UNL     1      44.832 132.266  16.331  1.00  0.00    -0.294 OA
BRANCH  17  19
ATOM     19  C   UNL     1      46.335 130.751  15.278  1.00  0.00     0.017 A 
ATOM     20  C   UNL     1      46.976 129.496  15.319  1.00  0.00     0.012 A 
ATOM     21  C   UNL     1      46.600 131.606  14.187  1.00  0.00     0.012 A 
ATOM     22  C   UNL     1      47.855 129.111  14.303  1.00  0.00     0.001 A 
ATOM     23  C   UNL     1      47.480 131.214  13.174  1.00  0.00     0.001 A 
ATOM     24  C   UNL     1      48.107 129.969  13.232  1.00  0.00     0.000 A 
ENDBRANCH  17  19
ENDBRANCH  16  17
ENDBRANCH   1  16
TORSDOF 6
ENDMDL
MODEL 6
REMARK VINA RESULT:      -8.1      1.782      2.643
REMARK SMILES Nc1cc(F)c(CCC(=O)c2ccccc2)c(F)c1C1CC1
REMARK SMILES IDX 7 1 6 2 2 3 3 4 19 5 4 6 17 7 5 8 18 9 1 10 20 13 21 14
REMARK SMILES IDX 22 15 8 16 9 17 10 18 11 19 12 20 16 21 13 22 15 23 14 24
REMARK H PARENT 1 11 1 12
ROOT
ATOM      1  C   UNL     1      44.720 132.063  17.528  1.00  0.00     0.050 C 
ENDROOT
BRANCH   1   2
ATOM      2  C   UNL     1      44.729 131.435  18.901  1.00  0.00     0.024 A 
ATOM      3  C   UNL     1      44.775 130.285  21.475  1.00  0.00     0.041 A 
ATOM      4  C   UNL     1      45.714 129.905  20.507  1.00  0.00     0.065 A 
ATOM      5  C   UNL     1      43.837 131.302  21.175  1.00  0.00     0.014 A 
ATOM      6  C   UNL     1      45.703 130.482  19.237  1.00  0.00     0.131 A 
ATOM      7  C   UNL     1      43.799 131.842  19.874  1.00  0.00     0.134 A 
ATOM      8  F   UNL     1      46.636 130.095  18.329  1.00  0.00    -0.207 F 
ATOM      9  F   UNL     1      42.851 132.761  19.551  1.00  0.00    -0.206 F 
BRANCH   3  10
ATOM     10  N   UNL     1      44.779 129.617  22.744  1.00  0.00    -0.398 N 
ATOM     11  H   UNL     1      45.155 128.651  22.862  1.00  0.00     0.156 HD
ATOM     12  H   UNL     1      44.464 130.116  23.607  1.00  0.00     0.156 HD
ENDBRANCH   3  10
BRANCH   5  13
ATOM     13  C   UNL     1      42.826 131.762  22.202  1.00  0.00     0.024 C 
ATOM     14  C   UNL     1      42.694 130.861  23.426  1.00  0.00     0.009 C 
ATOM     15  C   UNL     1      43.401 132.194  23.549  1.00  0.00     0.009 C 
ENDBRANCH   5  13
ENDBRANCH   1   2
BRANCH   1  16
ATOM     16  C   UNL     1      43.624 131.437  16.659  1.00  0.00     0.086 C 
BRANCH  16  17
ATOM     17  C   UNL     1      44.043 131.401  15.214  1.00  0.00     0.163 C 
ATOM     18  O   UNL     1      43.264 131.912  14.362  1.00  0.00    -0.294 OA
BRANCH  17  19
ATOM     19  C   UNL     1      45.342 130.823  14.765  1.00  0.00     0.017 A 
ATOM     20  C   UNL     1      45.710 129.527  15.178  1.00  0.00     0.012 A 
ATOM     21  C   UNL     1      46.223 131.537  13.926  1.00  0.00     0.012 A 
ATOM     22  C   UNL     1      46.922 128.965  14.766  1.00  0.00     0.001 A 
ATOM     23  C   UNL     1      47.433 130.969  13.518  1.00  0.00     0.001 A 
ATOM     24  C   UNL     1      47.783 129.685  13.938  1.00  0.00     0.000 A 
ENDBRANCH  17  19
ENDBRANCH  16  17
ENDBRANCH   1  16
TORSDOF 6
ENDMDL
MODEL 7
REMARK VINA RESULT:      -8.0      0.802      1.378
REMARK SMILES Nc1cc(F)c(CCC(=O)c2ccccc2)c(F)c1C1CC1
REMARK SMILES IDX 7 1 6 2 2 3 3 4 19 5 4 6 17 7 5 8 18 9 1 10 20 13 21 14
REMARK SMILES IDX 22 15 8 16 9 17 10 18 11 19 12 20 16 21 13 22 15 23 14 24
REMARK H PARENT 1 11 1 12
ROOT
ATOM      1  C   UNL     1      45.540 130.594  18.489  1.00  0.00     0.050 C 
ENDROOT
BRANCH   1   2
ATOM      2  C   UNL     1      44.418 131.230  19.272  1.00  0.00     0.024 A 
ATOM      3  C   UNL     1      42.300 132.388  20.730  1.00  0.00     0.041 A 
ATOM      4  C   UNL     1      42.271 132.361  19.329  1.00  0.00     0.065 A 
ATOM      5  C   UNL     1      43.373 131.771  21.417  1.00  0.00     0.014 A 
ATOM      6  C   UNL     1      43.310 131.776  18.605  1.00  0.00     0.131 A 
ATOM      7  C   UNL     1      44.443 131.230  20.678  1.00  0.00     0.134 A 
ATOM      8  F   UNL     1      43.241 131.760  17.249  1.00  0.00    -0.207 F 
ATOM      9  F   UNL     1      45.517 130.706  21.328  1.00  0.00    -0.206 F 
BRANCH   3  10
ATOM     10  N   UNL     1      41.245 133.060  21.431  1.00  0.00    -0.398 N 
ATOM     11  H   UNL     1      41.428 133.674  22.254  1.00  0.00     0.156 HD
ATOM     12  H   UNL     1      40.260 133.005  21.086  1.00  0.00     0.156 HD
ENDBRANCH   3  10
BRANCH   5  13
ATOM     13  C   UNL     1      43.426 131.753  22.929  1.00  0.00     0.024 C 
ATOM     14  C   UNL     1      42.068 131.720  23.622  1.00  0.00     0.009 C 
ATOM     15  C   UNL     1      42.925 130.472  23.593  1.00  0.00     0.009 C 
ENDBRANCH   5  13
ENDBRANCH   1   2
BRANCH   1  16
ATOM     16  C   UNL     1      45.610 131.182  17.076  1.00  0.00     0.086 C 
BRANCH  16  17
ATOM     17  C   UNL     1      45.732 130.090  16.048  1.00  0.00     0.163 C 
ATOM     18  O   UNL     1      45.035 129.051  16.206  1.00  0.00    -0.294 OA
BRANCH  17  19
ATOM     19  C   UNL     1      46.611 130.206  14.849  1.00  0.00     0.017 A 
ATOM     20  C   UNL     1      47.635 129.261  14.639  1.00  0.00     0.012 A 
ATOM     21  C   UNL     1      46.446 131.241  13.903  1.00  0.00     0.012 A 
ATOM     22  C   UNL     1      48.468 129.349  13.520  1.00  0.00     0.001 A 
ATOM     23  C   UNL     1      47.283 131.323  12.787  1.00  0.00     0.001 A 
ATOM     24  C   UNL     1      48.293 130.380  12.595  1.00  0.00     0.000 A 
ENDBRANCH  17  19
ENDBRANCH  16  17
ENDBRANCH   1  16
TORSDOF 6
ENDMDL
MODEL 8
REMARK VINA RESULT:      -8.0      1.127      1.682
REMARK SMILES Nc1cc(F)c(CCC(=O)c2ccccc2)c(F)c1C1CC1
REMARK SMILES IDX 7 1 6 2 2 3 3 4 19 5 4 6 17 7 5 8 18 9 1 10 20 13 21 14
REMARK SMILES IDX 22 15 8 16 9 17 10 18 11 19 12 20 16 21 13 22 15 23 14 24
REMARK H PARENT 1 11 1 12
ROOT
ATOM      1  C   UNL     1      45.296 131.026  17.991  1.00  0.00     0.050 C 
ENDROOT
BRANCH   1   2
ATOM      2  C   UNL     1      44.371 131.389  19.127  1.00  0.00     0.024 A 
ATOM      3  C   UNL     1      42.624 132.036  21.243  1.00  0.00     0.041 A 
ATOM      4  C   UNL     1      42.247 132.263  19.913  1.00  0.00     0.065 A 
ATOM      5  C   UNL     1      43.867 131.419  21.521  1.00  0.00     0.014 A 
ATOM      6  C   UNL     1      43.103 131.931  18.863  1.00  0.00     0.131 A 
ATOM      7  C   UNL     1      44.747 131.135  20.458  1.00  0.00     0.134 A 
ATOM      8  F   UNL     1      42.699 132.155  17.585  1.00  0.00    -0.207 F 
ATOM      9  F   UNL     1      45.976 130.615  20.719  1.00  0.00    -0.206 F 
BRANCH   3  10
ATOM     10  N   UNL     1      41.742 132.457  22.293  1.00  0.00    -0.398 N 
ATOM     11  H   UNL     1      40.730 132.649  22.126  1.00  0.00     0.156 HD
ATOM     12  H   UNL     1      42.083 132.515  23.280  1.00  0.00     0.156 HD
ENDBRANCH   3  10
BRANCH   5  13
ATOM     13  C   UNL     1      44.297 131.131  22.942  1.00  0.00     0.024 C 
ATOM     14  C   UNL     1      44.985 132.290  23.656  1.00  0.00     0.009 C 
ATOM     15  C   UNL     1      43.565 131.918  24.027  1.00  0.00     0.009 C 
ENDBRANCH   5  13
ENDBRANCH   1   2
BRANCH   1  16
ATOM     16  C   UNL     1      45.292 132.125  16.923  1.00  0.00     0.086 C 
BRANCH  16  17
ATOM     17  C   UNL     1      45.090 131.537  15.552  1.00  0.00     0.163 C 
ATOM     18  O   UNL     1      43.935 131.601  15.048  1.00  0.00    -0.294 OA
BRANCH  17  19
ATOM     19  C   UNL     1      46.198 130.921  14.768  1.00  0.00     0.017 A 
ATOM     20  C   UNL     1      46.672 129.639  15.115  1.00  0.00     0.012 A 
ATOM     21  C   UNL     1      46.792 131.583  13.673  1.00  0.00     0.012 A 
ATOM     22  C   UNL     1      47.708 129.042  14.392  1.00  0.00     0.001 A 
ATOM     23  C   UNL     1      47.828 130.980  12.954  1.00  0.00     0.001 A 
ATOM     24  C   UNL     1      48.286 129.712  13.313  1.00  0.00     0.000 A 
ENDBRANCH  17  19
ENDBRANCH  16  17
ENDBRANCH   1  16
TORSDOF 6
ENDMDL
MODEL 9
REMARK VINA RESULT:      -8.0      1.672      2.335
REMARK SMILES Nc1cc(F)c(CCC(=O)c2ccccc2)c(F)c1C1CC1
REMARK SMILES IDX 7 1 6 2 2 3 3 4 19 5 4 6 17 7 5 8 18 9 1 10 20 13 21 14
REMARK SMILES IDX 22 15 8 16 9 17 10 18 11 19 12 20 16 21 13 22 15 23 14 24
REMARK H PARENT 1 11 1 12
ROOT
ATOM      1  C   UNL     1      43.960 131.876  17.271  1.00  0.00     0.050 C 
ENDROOT
BRANCH   1   2
ATOM      2  C   UNL     1      44.221 131.464  18.700  1.00  0.00     0.024 A 
ATOM      3  C   UNL     1      44.732 130.723  21.372  1.00  0.00     0.041 A 
ATOM      4  C   UNL     1      45.638 130.396  20.355  1.00  0.00     0.065 A 
ATOM      5  C   UNL     1      43.582 131.489  21.061  1.00  0.00     0.014 A 
ATOM      6  C   UNL     1      45.396 130.773  19.034  1.00  0.00     0.131 A 
ATOM      7  C   UNL     1      43.318 131.820  19.717  1.00  0.00     0.134 A 
ATOM      8  F   UNL     1      46.303 130.446  18.078  1.00  0.00    -0.207 F 
ATOM      9  F   UNL     1      42.176 132.485  19.397  1.00  0.00    -0.206 F 
BRANCH   3  10
ATOM     10  N   UNL     1      44.986 130.256  22.704  1.00  0.00    -0.398 N 
ATOM     11  H   UNL     1      44.378 129.548  23.170  1.00  0.00     0.156 HD
ATOM     12  H   UNL     1      45.840 130.566  23.220  1.00  0.00     0.156 HD
ENDBRANCH   3  10
BRANCH   5  13
ATOM     13  C   UNL     1      42.594 131.888  22.135  1.00  0.00     0.024 C 
ATOM     14  C   UNL     1      42.420 130.874  23.261  1.00  0.00     0.009 C 
ATOM     15  C   UNL     1      43.190 132.152  23.516  1.00  0.00     0.009 C 
ENDBRANCH   5  13
ENDBRANCH   1   2
BRANCH   1  16
ATOM     16  C   UNL     1      44.080 130.670  16.334  1.00  0.00     0.086 C 
BRANCH  16  17
ATOM     17  C   UNL     1      44.594 131.090  14.984  1.00  0.00     0.163 C 
ATOM     18  O   UNL     1      43.887 131.887  14.306  1.00  0.00    -0.294 OA
BRANCH  17  19
ATOM     19  C   UNL     1      45.905 130.633  14.442  1.00  0.00     0.017 A 
ATOM     20  C   UNL     1      46.564 131.404  13.462  1.00  0.00     0.012 A 
ATOM     21  C   UNL     1      46.519 129.442  14.885  1.00  0.00     0.012 A 
ATOM     22  C   UNL     1      47.795 130.995  12.942  1.00  0.00     0.001 A 
ATOM     23  C   UNL     1      47.750 129.039  14.360  1.00  0.00     0.001 A 
ATOM     24  C   UNL     1      48.387 129.813  13.390  1.00  0.00     0.000 A 
ENDBRANCH  17  19
ENDBRANCH  16  17
ENDBRANCH   1  16
TORSDOF 6
ENDMDL


