REMARK SMILES Cc1cc(Cl)ccc1C(=O)[N-][C@H]1CC12CCC2
REMARK SMILES IDX 9 1 10 2 8 3 2 4 3 5 4 6 7 7 6 8 1 9 5 10 11 11 12 12 13 13
REMARK SMILES IDX 14 14 15 15 17 16 16 17
REMARK H PARENT
ROOT
ATOM      1  C   UNL     1       0.866   0.989   0.210  1.00  0.00     0.082 C 
ATOM      2  O   UNL     1       1.351   0.119   0.983  1.00  0.00    -0.315 OA
ENDROOT
BRANCH   1   3
ATOM      3  C   UNL     1       1.600   1.412  -1.010  1.00  0.00     0.002 A 
ATOM      4  C   UNL     1       2.494   0.553  -1.707  1.00  0.00    -0.040 A 
ATOM      5  C   UNL     1       3.181   1.042  -2.834  1.00  0.00     0.024 A 
ATOM      6  C   UNL     1       2.973   2.346  -3.287  1.00  0.00     0.041 A 
ATOM      7  C   UNL     1       1.396   2.719  -1.493  1.00  0.00     0.012 A 
ATOM      8  C   UNL     1       2.077   3.180  -2.620  1.00  0.00     0.021 A 
ATOM      9  C   UNL     1       2.727  -0.875  -1.288  1.00  0.00     0.045 C 
ATOM     10  Cl  UNL     1       3.833   2.933  -4.699  1.00  0.00    -0.084 Cl
ENDBRANCH   1   3
BRANCH   1  11
ATOM     11  N   UNL     1      -0.394   1.588   0.525  1.00  0.00    -0.646 NA
BRANCH  11  12
ATOM     12  C   UNL     1      -1.173   1.195   1.691  1.00  0.00    -0.100 C 
ATOM     13  C   UNL     1      -2.684   1.377   1.500  1.00  0.00    -0.010 C 
ATOM     14  C   UNL     1      -2.050  -0.007   1.442  1.00  0.00    -0.044 C 
ATOM     15  C   UNL     1      -2.282  -0.830   0.207  1.00  0.00     0.006 C 
ATOM     16  C   UNL     1      -2.555  -1.045   2.399  1.00  0.00     0.006 C 
ATOM     17  C   UNL     1      -2.810  -1.926   1.157  1.00  0.00     0.001 C 
ENDBRANCH  11  12
ENDBRANCH   1  11
TORSDOF 3


