MODEL 1
REMARK VINA RESULT:      -4.5      0.000      0.000
REMARK SMILES Cc1cc(N(N)C(=O)O[C@H]2CS(=O)(=O)C[C@@H]2Cl)c(O)c(-n2nc3ccccc3n2)c1
REMARK SMILES IDX 5 1 4 2 2 3 3 4 30 5 20 6 18 7 1 8 21 9 22 10 29 11 23 12
REMARK SMILES IDX 28 13 24 14 27 15 25 16 26 17 19 18 6 20 7 23 8 24 9 25
REMARK SMILES IDX 10 26 11 27 16 28 12 29 15 30 17 31 13 32 14 33
REMARK H PARENT 19 19 6 21 6 22
ROOT
ATOM      1  N   UNL     1      44.364 127.696  23.760  1.00  0.00    -0.209 N 
ENDROOT
BRANCH   1   2
ATOM      2  C   UNL     1      44.420 129.007  23.166  1.00  0.00     0.108 A 
ATOM      3  C   UNL     1      44.107 131.408  23.392  1.00  0.00    -0.047 A 
ATOM      4  C   UNL     1      44.113 130.126  23.951  1.00  0.00     0.035 A 
ATOM      5  C   UNL     1      44.367 131.567  22.025  1.00  0.00     0.037 A 
ATOM      6  C   UNL     1      44.683 130.461  21.215  1.00  0.00     0.130 A 
ATOM      7  C   UNL     1      44.745 129.175  21.801  1.00  0.00     0.168 A 
ATOM      8  C   UNL     1      43.731 132.593  24.230  1.00  0.00     0.044 C 
BRANCH   6   9
ATOM      9  N   UNL     1      44.934 130.658  19.808  1.00  0.00    -0.147 N 
ATOM     10  N   UNL     1      44.292 131.552  19.054  1.00  0.00    -0.148 NA
ATOM     11  N   UNL     1      45.867 129.991  19.128  1.00  0.00    -0.148 NA
ATOM     12  C   UNL     1      44.841 131.437  17.837  1.00  0.00     0.113 A 
ATOM     13  C   UNL     1      45.805 130.480  17.882  1.00  0.00     0.113 A 
ATOM     14  C   UNL     1      44.543 132.138  16.672  1.00  0.00     0.032 A 
ATOM     15  C   UNL     1      46.563 130.135  16.767  1.00  0.00     0.032 A 
ATOM     16  C   UNL     1      45.287 131.819  15.518  1.00  0.00     0.002 A 
ATOM     17  C   UNL     1      46.293 130.822  15.565  1.00  0.00     0.002 A 
ENDBRANCH   6   9
BRANCH   7  18
ATOM     18  O   UNL     1      45.150 128.083  21.030  1.00  0.00    -0.504 OA
ATOM     19  H   UNL     1      45.320 127.165  21.420  1.00  0.00     0.293 HD
ENDBRANCH   7  18
ENDBRANCH   1   2
BRANCH   1  20
ATOM     20  N   UNL     1      43.303 127.363  24.625  1.00  0.00    -0.238 NA
ATOM     21  H   UNL     1      43.483 127.807  25.556  1.00  0.00     0.144 HD
ATOM     22  H   UNL     1      43.349 126.333  24.803  1.00  0.00     0.144 HD
ENDBRANCH   1  20
BRANCH   1  23
ATOM     23  C   UNL     1      45.204 126.654  23.231  1.00  0.00     0.429 C 
ATOM     24  O   UNL     1      44.766 125.885  22.332  1.00  0.00    -0.222 OA
BRANCH  23  25
ATOM     25  O   UNL     1      46.505 126.496  23.723  1.00  0.00    -0.442 OA
BRANCH  25  26
ATOM     26  C   UNL     1      47.344 125.388  23.404  1.00  0.00     0.212 C 
ATOM     27  C   UNL     1      48.791 125.837  23.180  1.00  0.00     0.183 C 
ATOM     28  C   UNL     1      47.337 124.383  24.568  1.00  0.00     0.138 C 
ATOM     29  S   UNL     1      49.780 124.446  23.640  1.00  0.00     0.155 S 
ATOM     30  C   UNL     1      48.534 123.449  24.399  1.00  0.00     0.160 C 
ATOM     31  Cl  UNL     1      45.805 123.467  24.620  1.00  0.00    -0.118 Cl
ATOM     32  O   UNL     1      50.374 123.766  22.438  1.00  0.00    -0.229 OA
ATOM     33  O   UNL     1      50.853 124.831  24.620  1.00  0.00    -0.229 OA
ENDBRANCH  25  26
ENDBRANCH  23  25
ENDBRANCH   1  23
TORSDOF 7
ENDMDL
MODEL 2
REMARK VINA RESULT:      -3.9      3.935      8.166
REMARK SMILES Cc1cc(N(N)C(=O)O[C@H]2CS(=O)(=O)C[C@@H]2Cl)c(O)c(-n2nc3ccccc3n2)c1
REMARK SMILES IDX 5 1 4 2 2 3 3 4 30 5 20 6 18 7 1 8 21 9 22 10 29 11 23 12
REMARK SMILES IDX 28 13 24 14 27 15 25 16 26 17 19 18 6 20 7 23 8 24 9 25
REMARK SMILES IDX 10 26 11 27 16 28 12 29 15 30 17 31 13 32 14 33
REMARK H PARENT 19 19 6 21 6 22
ROOT
ATOM      1  N   UNL     1      45.369 131.427  20.731  1.00  0.00    -0.209 N 
ENDROOT
BRANCH   1   2
ATOM      2  C   UNL     1      44.677 130.758  21.802  1.00  0.00     0.108 A 
ATOM      3  C   UNL     1      43.179 130.891  23.715  1.00  0.00    -0.047 A 
ATOM      4  C   UNL     1      43.826 131.499  22.633  1.00  0.00     0.035 A 
ATOM      5  C   UNL     1      43.422 129.539  23.993  1.00  0.00     0.037 A 
ATOM      6  C   UNL     1      44.267 128.772  23.172  1.00  0.00     0.130 A 
ATOM      7  C   UNL     1      44.870 129.380  22.046  1.00  0.00     0.168 A 
ATOM      8  C   UNL     1      42.308 131.703  24.625  1.00  0.00     0.044 C 
BRANCH   6   9
ATOM      9  N   UNL     1      44.505 127.385  23.494  1.00  0.00    -0.147 N 
ATOM     10  N   UNL     1      45.712 126.871  23.733  1.00  0.00    -0.148 NA
ATOM     11  N   UNL     1      43.529 126.486  23.626  1.00  0.00    -0.148 NA
ATOM     12  C   UNL     1      45.488 125.581  24.022  1.00  0.00     0.113 A 
ATOM     13  C   UNL     1      44.152 125.345  23.957  1.00  0.00     0.113 A 
ATOM     14  C   UNL     1      46.404 124.586  24.351  1.00  0.00     0.032 A 
ATOM     15  C   UNL     1      43.605 124.092  24.214  1.00  0.00     0.032 A 
ATOM     16  C   UNL     1      45.892 123.300  24.618  1.00  0.00     0.002 A 
ATOM     17  C   UNL     1      44.498 123.054  24.550  1.00  0.00     0.002 A 
ENDBRANCH   6   9
BRANCH   7  18
ATOM     18  O   UNL     1      45.635 128.606  21.170  1.00  0.00    -0.504 OA
ATOM     19  H   UNL     1      46.463 128.956  20.705  1.00  0.00     0.293 HD
ENDBRANCH   7  18
ENDBRANCH   1   2
BRANCH   1  20
ATOM     20  N   UNL     1      46.762 131.622  20.810  1.00  0.00    -0.238 NA
ATOM     21  H   UNL     1      47.005 131.880  21.795  1.00  0.00     0.144 HD
ATOM     22  H   UNL     1      46.998 132.469  20.243  1.00  0.00     0.144 HD
ENDBRANCH   1  20
BRANCH   1  23
ATOM     23  C   UNL     1      44.696 131.608  19.472  1.00  0.00     0.429 C 
ATOM     24  O   UNL     1      43.532 131.151  19.306  1.00  0.00    -0.222 OA
BRANCH  23  25
ATOM     25  O   UNL     1      45.343 132.287  18.433  1.00  0.00    -0.442 OA
BRANCH  25  26
ATOM     26  C   UNL     1      45.084 132.053  17.050  1.00  0.00     0.212 C 
ATOM     27  C   UNL     1      46.212 131.242  16.406  1.00  0.00     0.183 C 
ATOM     28  C   UNL     1      43.780 131.252  16.897  1.00  0.00     0.138 C 
ATOM     29  S   UNL     1      45.440 130.344  15.093  1.00  0.00     0.155 S 
ATOM     30  C   UNL     1      43.747 130.659  15.490  1.00  0.00     0.160 C 
ATOM     31  Cl  UNL     1      42.352 132.281  17.199  1.00  0.00    -0.118 Cl
ATOM     32  O   UNL     1      45.804 130.906  13.747  1.00  0.00    -0.229 OA
ATOM     33  O   UNL     1      45.761 128.878  15.164  1.00  0.00    -0.229 OA
ENDBRANCH  25  26
ENDBRANCH  23  25
ENDBRANCH   1  23
TORSDOF 7
ENDMDL
MODEL 3
REMARK VINA RESULT:      -3.0      5.877      7.662
REMARK SMILES Cc1cc(N(N)C(=O)O[C@H]2CS(=O)(=O)C[C@@H]2Cl)c(O)c(-n2nc3ccccc3n2)c1
REMARK SMILES IDX 5 1 4 2 2 3 3 4 30 5 20 6 18 7 1 8 21 9 22 10 29 11 23 12
REMARK SMILES IDX 28 13 24 14 27 15 25 16 26 17 19 18 6 20 7 23 8 24 9 25
REMARK SMILES IDX 10 26 11 27 16 28 12 29 15 30 17 31 13 32 14 33
REMARK H PARENT 19 19 6 21 6 22
ROOT
ATOM      1  N   UNL     1      46.191 133.579  23.246  1.00  0.00    -0.209 N 
ENDROOT
BRANCH   1   2
ATOM      2  C   UNL     1      45.353 132.640  22.546  1.00  0.00     0.108 A 
ATOM      3  C   UNL     1      43.667 130.889  22.633  1.00  0.00    -0.047 A 
ATOM      4  C   UNL     1      44.458 131.847  23.276  1.00  0.00     0.035 A 
ATOM      5  C   UNL     1      43.807 130.692  21.253  1.00  0.00     0.037 A 
ATOM      6  C   UNL     1      44.695 131.478  20.496  1.00  0.00     0.130 A 
ATOM      7  C   UNL     1      45.447 132.484  21.145  1.00  0.00     0.168 A 
ATOM      8  C   UNL     1      42.747 130.014  23.429  1.00  0.00     0.044 C 
BRANCH   6   9
ATOM      9  N   UNL     1      44.823 131.240  19.079  1.00  0.00    -0.147 N 
ATOM     10  N   UNL     1      44.044 131.803  18.154  1.00  0.00    -0.148 NA
ATOM     11  N   UNL     1      45.766 130.460  18.548  1.00  0.00    -0.148 NA
ATOM     12  C   UNL     1      44.514 131.350  16.982  1.00  0.00     0.113 A 
ATOM     13  C   UNL     1      45.567 130.527  17.224  1.00  0.00     0.113 A 
ATOM     14  C   UNL     1      44.065 131.626  15.694  1.00  0.00     0.032 A 
ATOM     15  C   UNL     1      46.273 129.903  16.200  1.00  0.00     0.032 A 
ATOM     16  C   UNL     1      44.752 131.013  14.627  1.00  0.00     0.002 A 
ATOM     17  C   UNL     1      45.851 130.156  14.878  1.00  0.00     0.002 A 
ENDBRANCH   6   9
BRANCH   7  18
ATOM     18  O   UNL     1      46.260 133.333  20.391  1.00  0.00    -0.504 OA
ATOM     19  H   UNL     1      45.988 134.274  20.136  1.00  0.00     0.293 HD
ENDBRANCH   7  18
ENDBRANCH   1   2
BRANCH   1  20
ATOM     20  N   UNL     1      45.898 133.919  24.582  1.00  0.00    -0.238 NA
ATOM     21  H   UNL     1      44.885 134.176  24.644  1.00  0.00     0.144 HD
ATOM     22  H   UNL     1      46.415 134.800  24.808  1.00  0.00     0.144 HD
ENDBRANCH   1  20
BRANCH   1  23
ATOM     23  C   UNL     1      47.474 133.918  22.692  1.00  0.00     0.429 C 
ATOM     24  O   UNL     1      48.297 133.008  22.401  1.00  0.00    -0.222 OA
BRANCH  23  25
ATOM     25  O   UNL     1      47.806 135.262  22.484  1.00  0.00    -0.442 OA
BRANCH  25  26
ATOM     26  C   UNL     1      48.740 135.706  21.502  1.00  0.00     0.212 C 
ATOM     27  C   UNL     1      48.086 136.679  20.516  1.00  0.00     0.183 C 
ATOM     28  C   UNL     1      49.902 136.442  22.190  1.00  0.00     0.138 C 
ATOM     29  S   UNL     1      49.397 137.733  19.973  1.00  0.00     0.155 S 
ATOM     30  C   UNL     1      50.643 137.257  21.131  1.00  0.00     0.160 C 
ATOM     31  Cl  UNL     1      50.999 135.294  23.008  1.00  0.00    -0.118 Cl
ATOM     32  O   UNL     1      49.809 137.425  18.562  1.00  0.00    -0.229 OA
ATOM     33  O   UNL     1      49.033 139.185  20.119  1.00  0.00    -0.229 OA
ENDBRANCH  25  26
ENDBRANCH  23  25
ENDBRANCH   1  23
TORSDOF 7
ENDMDL
MODEL 4
REMARK VINA RESULT:      -2.9      3.841      5.528
REMARK SMILES Cc1cc(N(N)C(=O)O[C@H]2CS(=O)(=O)C[C@@H]2Cl)c(O)c(-n2nc3ccccc3n2)c1
REMARK SMILES IDX 5 1 4 2 2 3 3 4 30 5 20 6 18 7 1 8 21 9 22 10 29 11 23 12
REMARK SMILES IDX 28 13 24 14 27 15 25 16 26 17 19 18 6 20 7 23 8 24 9 25
REMARK SMILES IDX 10 26 11 27 16 28 12 29 15 30 17 31 13 32 14 33
REMARK H PARENT 19 19 6 21 6 22
ROOT
ATOM      1  N   UNL     1      46.896 124.353  22.516  1.00  0.00    -0.209 N 
ENDROOT
BRANCH   1   2
ATOM      2  C   UNL     1      45.557 124.882  22.549  1.00  0.00     0.108 A 
ATOM      3  C   UNL     1      43.184 124.567  22.116  1.00  0.00    -0.047 A 
ATOM      4  C   UNL     1      44.491 124.068  22.146  1.00  0.00     0.035 A 
ATOM      5  C   UNL     1      42.950 125.907  22.451  1.00  0.00     0.037 A 
ATOM      6  C   UNL     1      44.002 126.745  22.864  1.00  0.00     0.130 A 
ATOM      7  C   UNL     1      45.310 126.215  22.947  1.00  0.00     0.168 A 
ATOM      8  C   UNL     1      42.057 123.701  21.639  1.00  0.00     0.044 C 
BRANCH   6   9
ATOM      9  N   UNL     1      43.727 128.123  23.189  1.00  0.00    -0.147 N 
ATOM     10  N   UNL     1      42.598 128.544  23.763  1.00  0.00    -0.148 NA
ATOM     11  N   UNL     1      44.597 129.113  22.984  1.00  0.00    -0.148 NA
ATOM     12  C   UNL     1      42.761 129.865  23.920  1.00  0.00     0.113 A 
ATOM     13  C   UNL     1      43.984 130.214  23.443  1.00  0.00     0.113 A 
ATOM     14  C   UNL     1      41.885 130.795  24.473  1.00  0.00     0.032 A 
ATOM     15  C   UNL     1      44.448 131.525  23.473  1.00  0.00     0.032 A 
ATOM     16  C   UNL     1      42.315 132.137  24.522  1.00  0.00     0.002 A 
ATOM     17  C   UNL     1      43.591 132.500  24.025  1.00  0.00     0.002 A 
ENDBRANCH   6   9
BRANCH   7  18
ATOM     18  O   UNL     1      46.346 127.008  23.446  1.00  0.00    -0.504 OA
ATOM     19  H   UNL     1      47.282 126.657  23.602  1.00  0.00     0.293 HD
ENDBRANCH   7  18
ENDBRANCH   1   2
BRANCH   1  20
ATOM     20  N   UNL     1      47.941 125.122  21.965  1.00  0.00    -0.238 NA
ATOM     21  H   UNL     1      47.823 126.113  22.280  1.00  0.00     0.144 HD
ATOM     22  H   UNL     1      47.804 125.149  20.928  1.00  0.00     0.144 HD
ENDBRANCH   1  20
BRANCH   1  23
ATOM     23  C   UNL     1      47.209 123.196  23.311  1.00  0.00     0.429 C 
ATOM     24  O   UNL     1      46.281 122.511  23.823  1.00  0.00    -0.222 OA
BRANCH  23  25
ATOM     25  O   UNL     1      48.546 122.838  23.518  1.00  0.00    -0.442 OA
BRANCH  25  26
ATOM     26  C   UNL     1      49.654 123.639  23.109  1.00  0.00     0.212 C 
ATOM     27  C   UNL     1      50.461 124.124  24.317  1.00  0.00     0.183 C 
ATOM     28  C   UNL     1      50.591 122.806  22.219  1.00  0.00     0.138 C 
ATOM     29  S   UNL     1      52.114 124.312  23.718  1.00  0.00     0.155 S 
ATOM     30  C   UNL     1      51.940 123.520  22.149  1.00  0.00     0.160 C 
ATOM     31  Cl  UNL     1      49.897 122.575  20.589  1.00  0.00    -0.118 Cl
ATOM     32  O   UNL     1      52.488 125.760  23.567  1.00  0.00    -0.229 OA
ATOM     33  O   UNL     1      53.102 123.594  24.594  1.00  0.00    -0.229 OA
ENDBRANCH  25  26
ENDBRANCH  23  25
ENDBRANCH   1  23
TORSDOF 7
ENDMDL
MODEL 5
REMARK VINA RESULT:      -1.7      4.026      5.890
REMARK SMILES Cc1cc(N(N)C(=O)O[C@H]2CS(=O)(=O)C[C@@H]2Cl)c(O)c(-n2nc3ccccc3n2)c1
REMARK SMILES IDX 5 1 4 2 2 3 3 4 30 5 20 6 18 7 1 8 21 9 22 10 29 11 23 12
REMARK SMILES IDX 28 13 24 14 27 15 25 16 26 17 19 18 6 20 7 23 8 24 9 25
REMARK SMILES IDX 10 26 11 27 16 28 12 29 15 30 17 31 13 32 14 33
REMARK H PARENT 19 19 6 21 6 22
ROOT
ATOM      1  N   UNL     1      45.589 130.860  20.587  1.00  0.00    -0.209 N 
ENDROOT
BRANCH   1   2
ATOM      2  C   UNL     1      45.105 131.143  19.260  1.00  0.00     0.108 A 
ATOM      3  C   UNL     1      43.293 131.893  17.822  1.00  0.00    -0.047 A 
ATOM      4  C   UNL     1      43.812 131.656  19.099  1.00  0.00     0.035 A 
ATOM      5  C   UNL     1      44.059 131.571  16.695  1.00  0.00     0.037 A 
ATOM      6  C   UNL     1      45.363 131.060  16.828  1.00  0.00     0.130 A 
ATOM      7  C   UNL     1      45.901 130.879  18.123  1.00  0.00     0.168 A 
ATOM      8  C   UNL     1      41.890 132.398  17.661  1.00  0.00     0.044 C 
BRANCH   6   9
ATOM      9  N   UNL     1      46.120 130.727  15.646  1.00  0.00    -0.147 N 
ATOM     10  N   UNL     1      46.157 131.482  14.546  1.00  0.00    -0.148 NA
ATOM     11  N   UNL     1      46.895 129.646  15.550  1.00  0.00    -0.148 NA
ATOM     12  C   UNL     1      46.990 130.841  13.714  1.00  0.00     0.113 A 
ATOM     13  C   UNL     1      47.442 129.717  14.328  1.00  0.00     0.113 A 
ATOM     14  C   UNL     1      47.386 131.196  12.427  1.00  0.00     0.032 A 
ATOM     15  C   UNL     1      48.332 128.841  13.715  1.00  0.00     0.032 A 
ATOM     16  C   UNL     1      48.288 130.336  11.770  1.00  0.00     0.002 A 
ATOM     17  C   UNL     1      48.759 129.163  12.411  1.00  0.00     0.002 A 
ENDBRANCH   6   9
BRANCH   7  18
ATOM     18  O   UNL     1      47.227 130.462  18.268  1.00  0.00    -0.504 OA
ATOM     19  H   UNL     1      47.491 129.490  18.369  1.00  0.00     0.293 HD
ENDBRANCH   7  18
ENDBRANCH   1   2
BRANCH   1  20
ATOM     20  N   UNL     1      46.936 131.117  20.912  1.00  0.00    -0.238 NA
ATOM     21  H   UNL     1      47.405 131.531  20.073  1.00  0.00     0.144 HD
ATOM     22  H   UNL     1      47.409 130.196  21.060  1.00  0.00     0.144 HD
ENDBRANCH   1  20
BRANCH   1  23
ATOM     23  C   UNL     1      44.638 130.617  21.639  1.00  0.00     0.429 C 
ATOM     24  O   UNL     1      44.103 131.586  22.244  1.00  0.00    -0.222 OA
BRANCH  23  25
ATOM     25  O   UNL     1      44.314 129.301  21.989  1.00  0.00    -0.442 OA
BRANCH  25  26
ATOM     26  C   UNL     1      43.408 128.959  23.036  1.00  0.00     0.212 C 
ATOM     27  C   UNL     1      41.955 129.168  22.599  1.00  0.00     0.183 C 
ATOM     28  C   UNL     1      43.581 127.476  23.405  1.00  0.00     0.138 C 
ATOM     29  S   UNL     1      41.021 127.992  23.533  1.00  0.00     0.155 S 
ATOM     30  C   UNL     1      42.351 127.035  24.195  1.00  0.00     0.160 C 
ATOM     31  Cl  UNL     1      45.079 127.215  24.341  1.00  0.00    -0.118 Cl
ATOM     32  O   UNL     1      40.224 128.655  24.621  1.00  0.00    -0.229 OA
ATOM     33  O   UNL     1      40.132 127.165  22.647  1.00  0.00    -0.229 OA
ENDBRANCH  25  26
ENDBRANCH  23  25
ENDBRANCH   1  23
TORSDOF 7
ENDMDL
MODEL 6
REMARK VINA RESULT:      -1.5      4.008      7.999
REMARK SMILES Cc1cc(N(N)C(=O)O[C@H]2CS(=O)(=O)C[C@@H]2Cl)c(O)c(-n2nc3ccccc3n2)c1
REMARK SMILES IDX 5 1 4 2 2 3 3 4 30 5 20 6 18 7 1 8 21 9 22 10 29 11 23 12
REMARK SMILES IDX 28 13 24 14 27 15 25 16 26 17 19 18 6 20 7 23 8 24 9 25
REMARK SMILES IDX 10 26 11 27 16 28 12 29 15 30 17 31 13 32 14 33
REMARK H PARENT 19 19 6 21 6 22
ROOT
ATOM      1  N   UNL     1      43.972 131.424  19.695  1.00  0.00    -0.209 N 
ENDROOT
BRANCH   1   2
ATOM      2  C   UNL     1      44.084 130.965  21.055  1.00  0.00     0.108 A 
ATOM      3  C   UNL     1      43.988 131.466  23.434  1.00  0.00    -0.047 A 
ATOM      4  C   UNL     1      43.838 131.864  22.101  1.00  0.00     0.035 A 
ATOM      5  C   UNL     1      44.433 130.169  23.720  1.00  0.00     0.037 A 
ATOM      6  C   UNL     1      44.683 129.245  22.689  1.00  0.00     0.130 A 
ATOM      7  C   UNL     1      44.471 129.638  21.348  1.00  0.00     0.168 A 
ATOM      8  C   UNL     1      43.767 132.450  24.543  1.00  0.00     0.044 C 
BRANCH   6   9
ATOM      9  N   UNL     1      45.152 127.921  23.020  1.00  0.00    -0.147 N 
ATOM     10  N   UNL     1      44.560 127.120  23.907  1.00  0.00    -0.148 NA
ATOM     11  N   UNL     1      46.206 127.350  22.437  1.00  0.00    -0.148 NA
ATOM     12  C   UNL     1      45.282 125.990  23.888  1.00  0.00     0.113 A 
ATOM     13  C   UNL     1      46.290 126.131  22.989  1.00  0.00     0.113 A 
ATOM     14  C   UNL     1      45.099 124.822  24.624  1.00  0.00     0.032 A 
ATOM     15  C   UNL     1      47.211 125.118  22.739  1.00  0.00     0.032 A 
ATOM     16  C   UNL     1      46.010 123.771  24.402  1.00  0.00     0.002 A 
ATOM     17  C   UNL     1      47.062 123.918  23.464  1.00  0.00     0.002 A 
ENDBRANCH   6   9
BRANCH   7  18
ATOM     18  O   UNL     1      44.624 128.703  20.321  1.00  0.00    -0.504 OA
ATOM     19  H   UNL     1      45.109 128.908  19.457  1.00  0.00     0.293 HD
ENDBRANCH   7  18
ENDBRANCH   1   2
BRANCH   1  20
ATOM     20  N   UNL     1      42.853 132.183  19.301  1.00  0.00    -0.238 NA
ATOM     21  H   UNL     1      42.208 131.565  18.755  1.00  0.00     0.144 HD
ATOM     22  H   UNL     1      43.181 132.903  18.616  1.00  0.00     0.144 HD
ENDBRANCH   1  20
BRANCH   1  23
ATOM     23  C   UNL     1      45.130 131.371  18.843  1.00  0.00     0.429 C 
ATOM     24  O   UNL     1      45.979 130.449  18.986  1.00  0.00    -0.222 OA
BRANCH  23  25
ATOM     25  O   UNL     1      45.312 132.351  17.860  1.00  0.00    -0.442 OA
BRANCH  25  26
ATOM     26  C   UNL     1      45.266 132.087  16.459  1.00  0.00     0.212 C 
ATOM     27  C   UNL     1      46.557 131.416  15.981  1.00  0.00     0.183 C 
ATOM     28  C   UNL     1      44.098 131.135  16.151  1.00  0.00     0.138 C 
ATOM     29  S   UNL     1      46.077 130.431  14.593  1.00  0.00     0.155 S 
ATOM     30  C   UNL     1      44.322 130.542  14.761  1.00  0.00     0.160 C 
ATOM     31  Cl  UNL     1      42.531 131.986  16.246  1.00  0.00    -0.118 Cl
ATOM     32  O   UNL     1      46.546 131.031  13.298  1.00  0.00    -0.229 OA
ATOM     33  O   UNL     1      46.558 129.014  14.730  1.00  0.00    -0.229 OA
ENDBRANCH  25  26
ENDBRANCH  23  25
ENDBRANCH   1  23
TORSDOF 7
ENDMDL


