MODEL 1
REMARK VINA RESULT:      -4.6      0.000      0.000
REMARK SMILES C[N-]S(=O)(=O)c1ccc([N-]C(=O)N(N)c2ccccc2-c2nc3ccccc3[nH]2)cc1
REMARK SMILES IDX 10 1 9 2 6 3 7 4 31 5 8 6 30 7 3 8 4 9 5 10 2 11 1 12 11 13
REMARK SMILES IDX 12 14 13 15 14 16 15 19 16 20 20 21 17 22 19 23 18 24 21 25
REMARK SMILES IDX 22 26 29 27 23 28 28 29 24 30 27 31 25 32 26 33
REMARK H PARENT 14 17 14 18 29 34
ROOT
ATOM      1  N   UNL     1      45.830 130.586  22.267  1.00  0.00    -0.400 NA
ENDROOT
BRANCH   1   2
ATOM      2  C   UNL     1      45.096 129.381  22.518  1.00  0.00    -0.039 A 
ATOM      3  C   UNL     1      43.585 127.067  23.039  1.00  0.00     0.048 A 
ATOM      4  C   UNL     1      44.800 126.974  22.349  1.00  0.00     0.019 A 
ATOM      5  C   UNL     1      43.123 128.322  23.460  1.00  0.00     0.019 A 
ATOM      6  C   UNL     1      45.549 128.123  22.081  1.00  0.00     0.005 A 
ATOM      7  C   UNL     1      43.871 129.472  23.190  1.00  0.00     0.005 A 
BRANCH   3   8
ATOM      8  S   UNL     1      42.664 125.609  23.399  1.00  0.00     0.101 S 
ATOM      9  O   UNL     1      41.989 125.102  22.154  1.00  0.00    -0.244 OA
ATOM     10  O   UNL     1      43.603 124.546  23.895  1.00  0.00    -0.244 OA
BRANCH   8  11
ATOM     11  N   UNL     1      41.473 125.932  24.621  1.00  0.00    -0.547 NA
ATOM     12  C   UNL     1      41.074 127.334  24.563  1.00  0.00    -0.153 C 
ENDBRANCH   8  11
ENDBRANCH   3   8
ENDBRANCH   1   2
BRANCH   1  13
ATOM     13  C   UNL     1      45.600 131.531  21.212  1.00  0.00     0.173 C 
ATOM     14  O   UNL     1      45.769 132.764  21.411  1.00  0.00    -0.297 OA
BRANCH  13  15
ATOM     15  N   UNL     1      45.108 131.080  19.938  1.00  0.00    -0.358 N 
BRANCH  15  16
ATOM     16  N   UNL     1      45.811 130.066  19.262  1.00  0.00    -0.312 NA
ATOM     17  H   UNL     1      45.349 129.905  18.338  1.00  0.00     0.122 HD
ATOM     18  H   UNL     1      45.722 129.189  19.823  1.00  0.00     0.122 HD
ENDBRANCH  15  16
BRANCH  15  19
ATOM     19  C   UNL     1      43.840 131.542  19.427  1.00  0.00    -0.015 A 
ATOM     20  C   UNL     1      42.828 131.894  20.335  1.00  0.00     0.005 A 
ATOM     21  C   UNL     1      43.601 131.673  18.035  1.00  0.00     0.022 A 
ATOM     22  C   UNL     1      41.607 132.393  19.880  1.00  0.00     0.000 A 
ATOM     23  C   UNL     1      42.370 132.190  17.595  1.00  0.00     0.012 A 
ATOM     24  C   UNL     1      41.380 132.547  18.513  1.00  0.00     0.001 A 
BRANCH  21  25
ATOM     25  C   UNL     1      44.607 131.267  17.027  1.00  0.00     0.138 A 
ATOM     26  N   UNL     1      45.131 132.125  16.109  1.00  0.00    -0.229 NA
ATOM     27  N   UNL     1      45.059 129.993  16.897  1.00  0.00    -0.338 N 
ATOM     28  C   UNL     1      45.935 131.329  15.380  1.00  0.00     0.089 A 
ATOM     29  C   UNL     1      45.889 130.051  15.849  1.00  0.00     0.066 A 
ATOM     30  C   UNL     1      46.708 131.680  14.277  1.00  0.00     0.030 A 
ATOM     31  C   UNL     1      46.606 129.017  15.254  1.00  0.00     0.028 A 
ATOM     32  C   UNL     1      47.453 130.662  13.650  1.00  0.00     0.002 A 
ATOM     33  C   UNL     1      47.402 129.335  14.137  1.00  0.00     0.002 A 
ATOM     34  H   UNL     1      44.789 129.150  17.449  1.00  0.00     0.168 HD
ENDBRANCH  21  25
ENDBRANCH  15  19
ENDBRANCH  13  15
ENDBRANCH   1  13
TORSDOF 8
ENDMDL
MODEL 2
REMARK VINA RESULT:      -2.2      3.590      7.965
REMARK SMILES C[N-]S(=O)(=O)c1ccc([N-]C(=O)N(N)c2ccccc2-c2nc3ccccc3[nH]2)cc1
REMARK SMILES IDX 10 1 9 2 6 3 7 4 31 5 8 6 30 7 3 8 4 9 5 10 2 11 1 12 11 13
REMARK SMILES IDX 12 14 13 15 14 16 15 19 16 20 20 21 17 22 19 23 18 24 21 25
REMARK SMILES IDX 22 26 29 27 23 28 28 29 24 30 27 31 25 32 26 33
REMARK H PARENT 14 17 14 18 29 34
ROOT
ATOM      1  N   UNL     1      42.874 131.457  18.292  1.00  0.00    -0.400 NA
ENDROOT
BRANCH   1   2
ATOM      2  C   UNL     1      43.831 131.336  17.233  1.00  0.00    -0.039 A 
ATOM      3  C   UNL     1      45.776 131.077  15.218  1.00  0.00     0.048 A 
ATOM      4  C   UNL     1      44.427 131.235  14.878  1.00  0.00     0.019 A 
ATOM      5  C   UNL     1      46.149 131.039  16.569  1.00  0.00     0.019 A 
ATOM      6  C   UNL     1      43.457 131.356  15.878  1.00  0.00     0.005 A 
ATOM      7  C   UNL     1      45.179 131.157  17.568  1.00  0.00     0.005 A 
BRANCH   3   8
ATOM      8  S   UNL     1      46.993 130.957  13.951  1.00  0.00     0.101 S 
ATOM      9  O   UNL     1      46.331 130.818  12.608  1.00  0.00    -0.244 OA
ATOM     10  O   UNL     1      47.820 132.212  13.945  1.00  0.00    -0.244 OA
BRANCH   8  11
ATOM     11  N   UNL     1      48.031 129.593  14.235  1.00  0.00    -0.547 NA
ATOM     12  C   UNL     1      48.866 129.356  13.063  1.00  0.00    -0.153 C 
ENDBRANCH   8  11
ENDBRANCH   3   8
ENDBRANCH   1   2
BRANCH   1  13
ATOM     13  C   UNL     1      43.118 131.926  19.626  1.00  0.00     0.173 C 
ATOM     14  O   UNL     1      43.100 133.160  19.882  1.00  0.00    -0.297 OA
BRANCH  13  15
ATOM     15  N   UNL     1      43.454 130.992  20.667  1.00  0.00    -0.358 N 
BRANCH  15  16
ATOM     16  N   UNL     1      44.345 129.943  20.371  1.00  0.00    -0.312 NA
ATOM     17  H   UNL     1      43.858 129.267  19.739  1.00  0.00     0.122 HD
ATOM     18  H   UNL     1      44.562 129.448  21.265  1.00  0.00     0.122 HD
ENDBRANCH  15  16
BRANCH  15  19
ATOM     19  C   UNL     1      43.017 131.205  22.025  1.00  0.00    -0.015 A 
ATOM     20  C   UNL     1      42.380 132.414  22.353  1.00  0.00     0.005 A 
ATOM     21  C   UNL     1      43.189 130.216  23.028  1.00  0.00     0.022 A 
ATOM     22  C   UNL     1      41.897 132.635  23.644  1.00  0.00     0.000 A 
ATOM     23  C   UNL     1      42.684 130.451  24.318  1.00  0.00     0.012 A 
ATOM     24  C   UNL     1      42.043 131.653  24.623  1.00  0.00     0.001 A 
BRANCH  21  25
ATOM     25  C   UNL     1      43.899 128.946  22.757  1.00  0.00     0.138 A 
ATOM     26  N   UNL     1      43.299 127.725  22.830  1.00  0.00    -0.229 NA
ATOM     27  N   UNL     1      45.223 128.880  22.462  1.00  0.00    -0.338 N 
ATOM     28  C   UNL     1      44.312 126.878  22.575  1.00  0.00     0.089 A 
ATOM     29  C   UNL     1      45.466 127.568  22.359  1.00  0.00     0.066 A 
ATOM     30  C   UNL     1      44.272 125.486  22.547  1.00  0.00     0.030 A 
ATOM     31  C   UNL     1      46.676 126.929  22.102  1.00  0.00     0.028 A 
ATOM     32  C   UNL     1      45.476 124.803  22.285  1.00  0.00     0.002 A 
ATOM     33  C   UNL     1      46.673 125.522  22.064  1.00  0.00     0.002 A 
ATOM     34  H   UNL     1      45.909 129.663  22.384  1.00  0.00     0.168 HD
ENDBRANCH  21  25
ENDBRANCH  15  19
ENDBRANCH  13  15
ENDBRANCH   1  13
TORSDOF 8
ENDMDL
MODEL 3
REMARK VINA RESULT:      -1.7      3.635      8.348
REMARK SMILES C[N-]S(=O)(=O)c1ccc([N-]C(=O)N(N)c2ccccc2-c2nc3ccccc3[nH]2)cc1
REMARK SMILES IDX 10 1 9 2 6 3 7 4 31 5 8 6 30 7 3 8 4 9 5 10 2 11 1 12 11 13
REMARK SMILES IDX 12 14 13 15 14 16 15 19 16 20 20 21 17 22 19 23 18 24 21 25
REMARK SMILES IDX 22 26 29 27 23 28 28 29 24 30 27 31 25 32 26 33
REMARK H PARENT 14 17 14 18 29 34
ROOT
ATOM      1  N   UNL     1      43.465 131.877  17.939  1.00  0.00    -0.400 NA
ENDROOT
BRANCH   1   2
ATOM      2  C   UNL     1      44.377 131.664  16.854  1.00  0.00    -0.039 A 
ATOM      3  C   UNL     1      46.104 131.186  14.687  1.00  0.00     0.048 A 
ATOM      4  C   UNL     1      46.390 132.206  15.604  1.00  0.00     0.019 A 
ATOM      5  C   UNL     1      44.947 130.412  14.852  1.00  0.00     0.019 A 
ATOM      6  C   UNL     1      45.529 132.451  16.677  1.00  0.00     0.005 A 
ATOM      7  C   UNL     1      44.085 130.659  15.924  1.00  0.00     0.005 A 
BRANCH   3   8
ATOM      8  S   UNL     1      47.213 130.866  13.356  1.00  0.00     0.101 S 
ATOM      9  O   UNL     1      46.462 130.826  12.054  1.00  0.00    -0.244 OA
ATOM     10  O   UNL     1      48.226 131.973  13.285  1.00  0.00    -0.244 OA
BRANCH   8  11
ATOM     11  N   UNL     1      48.036 129.357  13.604  1.00  0.00    -0.547 NA
ATOM     12  C   UNL     1      47.932 128.963  15.005  1.00  0.00    -0.153 C 
ENDBRANCH   8  11
ENDBRANCH   3   8
ENDBRANCH   1   2
BRANCH   1  13
ATOM     13  C   UNL     1      43.606 131.410  19.288  1.00  0.00     0.173 C 
ATOM     14  O   UNL     1      42.595 131.293  20.033  1.00  0.00    -0.297 OA
BRANCH  13  15
ATOM     15  N   UNL     1      44.913 131.137  19.822  1.00  0.00    -0.358 N 
BRANCH  15  16
ATOM     16  N   UNL     1      45.694 130.135  19.217  1.00  0.00    -0.312 NA
ATOM     17  H   UNL     1      46.519 130.591  18.763  1.00  0.00     0.122 HD
ATOM     18  H   UNL     1      45.119 129.691  18.467  1.00  0.00     0.122 HD
ENDBRANCH  15  16
BRANCH  15  19
ATOM     19  C   UNL     1      45.481 131.969  20.855  1.00  0.00    -0.015 A 
ATOM     20  C   UNL     1      46.314 133.038  20.486  1.00  0.00     0.005 A 
ATOM     21  C   UNL     1      45.198 131.750  22.228  1.00  0.00     0.022 A 
ATOM     22  C   UNL     1      46.840 133.896  21.453  1.00  0.00     0.000 A 
ATOM     23  C   UNL     1      45.726 132.633  23.187  1.00  0.00     0.012 A 
ATOM     24  C   UNL     1      46.541 133.697  22.800  1.00  0.00     0.001 A 
BRANCH  21  25
ATOM     25  C   UNL     1      44.372 130.609  22.683  1.00  0.00     0.138 A 
ATOM     26  N   UNL     1      44.832 129.329  22.733  1.00  0.00    -0.229 NA
ATOM     27  N   UNL     1      43.069 130.730  23.044  1.00  0.00    -0.338 N 
ATOM     28  C   UNL     1      43.750 128.638  23.136  1.00  0.00     0.089 A 
ATOM     29  C   UNL     1      42.692 129.476  23.318  1.00  0.00     0.066 A 
ATOM     30  C   UNL     1      43.641 127.263  23.332  1.00  0.00     0.030 A 
ATOM     31  C   UNL     1      41.437 129.013  23.705  1.00  0.00     0.028 A 
ATOM     32  C   UNL     1      42.389 126.757  23.729  1.00  0.00     0.002 A 
ATOM     33  C   UNL     1      41.291 127.629  23.915  1.00  0.00     0.002 A 
ATOM     34  H   UNL     1      42.477 131.590  23.057  1.00  0.00     0.168 HD
ENDBRANCH  21  25
ENDBRANCH  15  19
ENDBRANCH  13  15
ENDBRANCH   1  13
TORSDOF 8
ENDMDL
MODEL 4
REMARK VINA RESULT:      -1.7      3.693      8.624
REMARK SMILES C[N-]S(=O)(=O)c1ccc([N-]C(=O)N(N)c2ccccc2-c2nc3ccccc3[nH]2)cc1
REMARK SMILES IDX 10 1 9 2 6 3 7 4 31 5 8 6 30 7 3 8 4 9 5 10 2 11 1 12 11 13
REMARK SMILES IDX 12 14 13 15 14 16 15 19 16 20 20 21 17 22 19 23 18 24 21 25
REMARK SMILES IDX 22 26 29 27 23 28 28 29 24 30 27 31 25 32 26 33
REMARK H PARENT 14 17 14 18 29 34
ROOT
ATOM      1  N   UNL     1      43.018 131.560  18.650  1.00  0.00    -0.400 NA
ENDROOT
BRANCH   1   2
ATOM      2  C   UNL     1      43.873 131.400  17.512  1.00  0.00    -0.039 A 
ATOM      3  C   UNL     1      45.617 131.048  15.334  1.00  0.00     0.048 A 
ATOM      4  C   UNL     1      44.282 131.411  15.115  1.00  0.00     0.019 A 
ATOM      5  C   UNL     1      46.075 130.851  16.644  1.00  0.00     0.019 A 
ATOM      6  C   UNL     1      43.411 131.579  16.196  1.00  0.00     0.005 A 
ATOM      7  C   UNL     1      45.203 131.016  17.724  1.00  0.00     0.005 A 
BRANCH   3   8
ATOM      8  S   UNL     1      46.714 130.870  13.967  1.00  0.00     0.101 S 
ATOM      9  O   UNL     1      45.971 131.073  12.676  1.00  0.00    -0.244 OA
ATOM     10  O   UNL     1      47.790 131.914  14.064  1.00  0.00    -0.244 OA
BRANCH   8  11
ATOM     11  N   UNL     1      47.446 129.295  13.980  1.00  0.00    -0.547 NA
ATOM     12  C   UNL     1      48.848 129.400  13.592  1.00  0.00    -0.153 C 
ENDBRANCH   8  11
ENDBRANCH   3   8
ENDBRANCH   1   2
BRANCH   1  13
ATOM     13  C   UNL     1      43.374 132.116  19.924  1.00  0.00     0.173 C 
ATOM     14  O   UNL     1      43.517 133.361  20.061  1.00  0.00    -0.297 OA
BRANCH  13  15
ATOM     15  N   UNL     1      43.639 131.248  21.039  1.00  0.00    -0.358 N 
BRANCH  15  16
ATOM     16  N   UNL     1      43.327 129.881  20.920  1.00  0.00    -0.312 NA
ATOM     17  H   UNL     1      43.840 129.360  21.668  1.00  0.00     0.122 HD
ATOM     18  H   UNL     1      43.684 129.551  19.995  1.00  0.00     0.122 HD
ENDBRANCH  15  16
BRANCH  15  19
ATOM     19  C   UNL     1      44.350 131.726  22.200  1.00  0.00    -0.015 A 
ATOM     20  C   UNL     1      45.235 132.808  22.059  1.00  0.00     0.005 A 
ATOM     21  C   UNL     1      44.157 131.149  23.482  1.00  0.00     0.022 A 
ATOM     22  C   UNL     1      45.900 133.332  23.168  1.00  0.00     0.000 A 
ATOM     23  C   UNL     1      44.825 131.699  24.590  1.00  0.00     0.012 A 
ATOM     24  C   UNL     1      45.691 132.782  24.432  1.00  0.00     0.001 A 
BRANCH  21  25
ATOM     25  C   UNL     1      43.280 129.974  23.686  1.00  0.00     0.138 A 
ATOM     26  N   UNL     1      41.958 130.075  23.998  1.00  0.00    -0.229 NA
ATOM     27  N   UNL     1      43.726 128.693  23.631  1.00  0.00    -0.338 N 
ATOM     28  C   UNL     1      41.587 128.790  24.147  1.00  0.00     0.089 A 
ATOM     29  C   UNL     1      42.646 127.962  23.931  1.00  0.00     0.066 A 
ATOM     30  C   UNL     1      40.331 128.302  24.497  1.00  0.00     0.030 A 
ATOM     31  C   UNL     1      42.543 126.579  24.052  1.00  0.00     0.028 A 
ATOM     32  C   UNL     1      40.185 126.907  24.624  1.00  0.00     0.002 A 
ATOM     33  C   UNL     1      41.287 126.048  24.403  1.00  0.00     0.002 A 
ATOM     34  H   UNL     1      44.695 128.351  23.448  1.00  0.00     0.168 HD
ENDBRANCH  21  25
ENDBRANCH  15  19
ENDBRANCH  13  15
ENDBRANCH   1  13
TORSDOF 8
ENDMDL
MODEL 5
REMARK VINA RESULT:      -1.6      3.607      8.383
REMARK SMILES C[N-]S(=O)(=O)c1ccc([N-]C(=O)N(N)c2ccccc2-c2nc3ccccc3[nH]2)cc1
REMARK SMILES IDX 10 1 9 2 6 3 7 4 31 5 8 6 30 7 3 8 4 9 5 10 2 11 1 12 11 13
REMARK SMILES IDX 12 14 13 15 14 16 15 19 16 20 20 21 17 22 19 23 18 24 21 25
REMARK SMILES IDX 22 26 29 27 23 28 28 29 24 30 27 31 25 32 26 33
REMARK H PARENT 14 17 14 18 29 34
ROOT
ATOM      1  N   UNL     1      43.356 131.318  18.064  1.00  0.00    -0.400 NA
ENDROOT
BRANCH   1   2
ATOM      2  C   UNL     1      44.290 131.240  16.980  1.00  0.00    -0.039 A 
ATOM      3  C   UNL     1      46.057 131.116  14.796  1.00  0.00     0.048 A 
ATOM      4  C   UNL     1      46.539 130.956  16.101  1.00  0.00     0.019 A 
ATOM      5  C   UNL     1      44.690 131.348  14.587  1.00  0.00     0.019 A 
ATOM      6  C   UNL     1      45.664 131.025  17.189  1.00  0.00     0.005 A 
ATOM      7  C   UNL     1      43.816 131.420  15.675  1.00  0.00     0.005 A 
BRANCH   3   8
ATOM      8  S   UNL     1      47.163 130.996  13.430  1.00  0.00     0.101 S 
ATOM      9  O   UNL     1      46.394 131.004  12.137  1.00  0.00    -0.244 OA
ATOM     10  O   UNL     1      48.084 132.183  13.440  1.00  0.00    -0.244 OA
BRANCH   8  11
ATOM     11  N   UNL     1      48.106 129.542  13.541  1.00  0.00    -0.547 NA
ATOM     12  C   UNL     1      47.675 128.763  14.696  1.00  0.00    -0.153 C 
ENDBRANCH   8  11
ENDBRANCH   3   8
ENDBRANCH   1   2
BRANCH   1  13
ATOM     13  C   UNL     1      43.613 131.802  19.390  1.00  0.00     0.173 C 
ATOM     14  O   UNL     1      42.957 132.773  19.854  1.00  0.00    -0.297 OA
BRANCH  13  15
ATOM     15  N   UNL     1      44.671 131.224  20.174  1.00  0.00    -0.358 N 
BRANCH  15  16
ATOM     16  N   UNL     1      45.271 130.033  19.726  1.00  0.00    -0.312 NA
ATOM     17  H   UNL     1      44.786 129.730  18.850  1.00  0.00     0.122 HD
ATOM     18  H   UNL     1      45.110 129.301  20.453  1.00  0.00     0.122 HD
ENDBRANCH  15  16
BRANCH  15  19
ATOM     19  C   UNL     1      45.217 131.922  21.312  1.00  0.00    -0.015 A 
ATOM     20  C   UNL     1      46.049 133.033  21.095  1.00  0.00     0.005 A 
ATOM     21  C   UNL     1      44.914 131.532  22.642  1.00  0.00     0.022 A 
ATOM     22  C   UNL     1      46.554 133.765  22.171  1.00  0.00     0.000 A 
ATOM     23  C   UNL     1      45.421 132.289  23.713  1.00  0.00     0.012 A 
ATOM     24  C   UNL     1      46.235 133.397  23.477  1.00  0.00     0.001 A 
BRANCH  21  25
ATOM     25  C   UNL     1      44.088 130.339  22.937  1.00  0.00     0.138 A 
ATOM     26  N   UNL     1      42.790 130.412  23.343  1.00  0.00    -0.229 NA
ATOM     27  N   UNL     1      44.566 129.069  22.877  1.00  0.00    -0.338 N 
ATOM     28  C   UNL     1      42.468 129.122  23.547  1.00  0.00     0.089 A 
ATOM     29  C   UNL     1      43.532 128.317  23.273  1.00  0.00     0.066 A 
ATOM     30  C   UNL     1      41.255 128.608  24.000  1.00  0.00     0.030 A 
ATOM     31  C   UNL     1      43.477 126.935  23.432  1.00  0.00     0.028 A 
ATOM     32  C   UNL     1      41.159 127.213  24.169  1.00  0.00     0.002 A 
ATOM     33  C   UNL     1      42.266 126.380  23.887  1.00  0.00     0.002 A 
ATOM     34  H   UNL     1      45.528 128.749  22.631  1.00  0.00     0.168 HD
ENDBRANCH  21  25
ENDBRANCH  15  19
ENDBRANCH  13  15
ENDBRANCH   1  13
TORSDOF 8
ENDMDL


