REMARK SMILES Cn1cnc2cc(-c3ccc(CCN)cc3)cnc21
REMARK SMILES IDX 12 1 11 2 8 3 9 4 16 5 10 6 15 7 7 8 2 9 3 10 19 11 4 12
REMARK SMILES IDX 18 13 5 14 17 15 6 16 1 17 13 18 14 19
REMARK H PARENT 14 20 14 21
ROOT
ATOM      1  C   UNL     1      -5.142   0.433   0.204  1.00  0.00     0.050 C 
ENDROOT
BRANCH   1   2
ATOM      2  C   UNL     1      -3.665   0.432   0.503  1.00  0.00    -0.047 A 
ATOM      3  C   UNL     1      -0.889   0.455   1.004  1.00  0.00    -0.017 A 
ATOM      4  C   UNL     1      -1.698   1.532   1.410  1.00  0.00     0.009 A 
ATOM      5  C   UNL     1      -1.486  -0.630   0.338  1.00  0.00     0.009 A 
ATOM      6  C   UNL     1      -3.073   1.521   1.159  1.00  0.00     0.004 A 
ATOM      7  C   UNL     1      -2.861  -0.639   0.086  1.00  0.00     0.004 A 
BRANCH   3   8
ATOM      8  C   UNL     1       0.572   0.466   1.270  1.00  0.00     0.002 A 
ATOM      9  N   UNL     1       4.571   0.340   2.033  1.00  0.00    -0.318 N 
ATOM     10  C   UNL     1       4.654  -0.983   2.323  1.00  0.00     0.201 A 
ATOM     11  C   UNL     1       3.276   0.529   1.756  1.00  0.00     0.159 A 
ATOM     12  N   UNL     1       3.454  -1.623   2.258  1.00  0.00    -0.235 NA
ATOM     13  N   UNL     1       2.672   1.680   1.373  1.00  0.00    -0.236 NA
ATOM     14  C   UNL     1       2.607  -0.640   1.898  1.00  0.00     0.108 A 
ATOM     15  C   UNL     1       1.327   1.666   1.130  1.00  0.00     0.122 A 
ATOM     16  C   UNL     1       1.240  -0.719   1.663  1.00  0.00     0.042 A 
ATOM     17  C   UNL     1       5.665   1.296   1.914  1.00  0.00     0.153 C 
ENDBRANCH   3   8
ENDBRANCH   1   2
BRANCH   1  18
ATOM     18  C   UNL     1      -5.427   0.946  -1.211  1.00  0.00     0.082 C 
BRANCH  18  19
ATOM     19  N   UNL     1      -5.022   2.343  -1.349  1.00  0.00    -0.330 NA
ATOM     20  H   UNL     1      -5.666   2.929  -0.768  1.00  0.00     0.118 HD
ATOM     21  H   UNL     1      -5.182   2.623  -2.343  1.00  0.00     0.118 HD
ENDBRANCH  18  19
ENDBRANCH   1  18
TORSDOF 4


