REMARK SMILES Cc1ccc([NH2+]c2cccc(N)c2O[C@H](CO)COC(c2ccccc2)c2ccccc2)cc1
REMARK SMILES IDX 14 1 13 2 7 3 8 4 9 5 11 6 10 7 6 8 5 11 2 12 3 13 34 14
REMARK SMILES IDX 4 15 33 16 1 17 12 18 15 21 16 22 17 23 18 25 19 26 20 27
REMARK SMILES IDX 21 28 22 29 26 30 23 31 25 32 24 33 27 34 28 35 32 36 29 37
REMARK SMILES IDX 31 38 30 39
REMARK H PARENT 6 9 6 10 12 19 12 20 17 24
ROOT
ATOM      1  O   UNL     1       0.921  -1.581   1.822  1.00  0.00    -0.478 OA
ENDROOT
BRANCH   1   2
ATOM      2  C   UNL     1       0.730  -2.701   1.000  1.00  0.00     0.204 A 
ATOM      3  C   UNL     1       0.068  -2.563  -0.247  1.00  0.00     0.179 A 
ATOM      4  C   UNL     1      -0.104  -3.696  -1.062  1.00  0.00     0.072 A 
ATOM      5  C   UNL     1       0.354  -4.946  -0.650  1.00  0.00     0.009 A 
ATOM      6  C   UNL     1       1.172  -3.977   1.419  1.00  0.00     0.081 A 
ATOM      7  C   UNL     1       0.986  -5.087   0.583  1.00  0.00     0.030 A 
BRANCH   3   8
ATOM      8  N   UNL     1      -0.408  -1.281  -0.709  1.00  0.00    -0.278 N 
ATOM      9  H   UNL     1      -0.013  -0.508  -0.141  1.00  0.00     0.358 HD
ATOM     10  H   UNL     1      -0.084  -1.122  -1.691  1.00  0.00     0.358 HD
BRANCH   8  11
ATOM     11  C   UNL     1      -1.845  -1.208  -0.629  1.00  0.00     0.134 A 
ATOM     12  C   UNL     1      -4.649  -1.001  -0.477  1.00  0.00    -0.051 A 
ATOM     13  C   UNL     1      -4.027  -1.312  -1.696  1.00  0.00     0.009 A 
ATOM     14  C   UNL     1      -3.862  -0.786   0.663  1.00  0.00     0.009 A 
ATOM     15  C   UNL     1      -2.636  -1.420  -1.770  1.00  0.00     0.068 A 
ATOM     16  C   UNL     1      -2.471  -0.897   0.591  1.00  0.00     0.068 A 
ATOM     17  C   UNL     1      -6.138  -0.847  -0.397  1.00  0.00     0.044 C 
ENDBRANCH   8  11
ENDBRANCH   3   8
BRANCH   6  18
ATOM     18  N   UNL     1       1.769  -4.171   2.705  1.00  0.00    -0.396 N 
ATOM     19  H   UNL     1       1.804  -3.407   3.415  1.00  0.00     0.156 HD
ATOM     20  H   UNL     1       2.117  -5.114   2.992  1.00  0.00     0.156 HD
ENDBRANCH   6  18
ENDBRANCH   1   2
BRANCH   1  21
ATOM     21  C   UNL     1       2.205  -0.981   2.031  1.00  0.00     0.225 C 
BRANCH  21  22
ATOM     22  C   UNL     1       2.259  -0.386   3.445  1.00  0.00     0.203 C 
BRANCH  22  23
ATOM     23  O   UNL     1       3.538   0.122   3.709  1.00  0.00    -0.392 OA
ATOM     24  H   UNL     1       3.510   0.471   4.638  1.00  0.00     0.210 HD
ENDBRANCH  22  23
ENDBRANCH  21  22
BRANCH  21  25
ATOM     25  C   UNL     1       2.452   0.096   0.963  1.00  0.00     0.209 C 
BRANCH  25  26
ATOM     26  O   UNL     1       1.453   1.091   1.068  1.00  0.00    -0.365 OA
BRANCH  26  27
ATOM     27  C   UNL     1       1.516   2.020  -0.004  1.00  0.00     0.178 C 
BRANCH  27  28
ATOM     28  C   UNL     1       0.118   2.215  -0.547  1.00  0.00    -0.015 A 
ATOM     29  C   UNL     1      -0.147   2.042  -1.918  1.00  0.00     0.007 A 
ATOM     30  C   UNL     1      -0.951   2.512   0.321  1.00  0.00     0.007 A 
ATOM     31  C   UNL     1      -1.453   2.150  -2.405  1.00  0.00     0.000 A 
ATOM     32  C   UNL     1      -2.253   2.626  -0.173  1.00  0.00     0.000 A 
ATOM     33  C   UNL     1      -2.505   2.440  -1.534  1.00  0.00     0.000 A 
ENDBRANCH  27  28
BRANCH  27  34
ATOM     34  C   UNL     1       2.073   3.345   0.475  1.00  0.00    -0.015 A 
ATOM     35  C   UNL     1       1.951   3.753   1.817  1.00  0.00     0.007 A 
ATOM     36  C   UNL     1       2.679   4.216  -0.449  1.00  0.00     0.007 A 
ATOM     37  C   UNL     1       2.451   4.994   2.228  1.00  0.00     0.000 A 
ATOM     38  C   UNL     1       3.178   5.455  -0.033  1.00  0.00     0.000 A 
ATOM     39  C   UNL     1       3.066   5.842   1.304  1.00  0.00     0.000 A 
ENDBRANCH  27  34
ENDBRANCH  26  27
ENDBRANCH  25  26
ENDBRANCH  21  25
ENDBRANCH   1  21
TORSDOF 12


