MODEL 1
REMARK VINA RESULT:      -2.6      0.000      0.000
REMARK SMILES C=C[C@@H]1C[C@](N)(c2ccc3[nH]ccc3c2)[C@@H](Nc2ccc(C)[nH+]c2F)C[C@@H]1F
REMARK SMILES IDX 3 1 4 2 5 3 16 4 26 5 27 6 28 7 2 8 1 9 6 10 7 13 8 14 15 15
REMARK SMILES IDX 9 16 14 17 10 18 13 19 11 20 12 21 17 23 18 25 19 26 24 27
REMARK SMILES IDX 20 28 23 29 21 30 25 31 22 33
REMARK H PARENT 6 11 6 12 11 22 17 24 23 32
ROOT
ATOM      1  C   UNL     1      45.711 133.460  23.128  1.00  0.00     0.048 C 
ATOM      2  C   UNL     1      45.135 132.071  23.491  1.00  0.00     0.040 C 
ATOM      3  C   UNL     1      44.222 131.466  22.385  1.00  0.00     0.062 C 
ATOM      4  C   UNL     1      45.013 131.453  21.023  1.00  0.00     0.107 C 
ATOM      5  C   UNL     1      45.530 132.860  20.652  1.00  0.00     0.065 C 
ATOM      6  C   UNL     1      46.429 133.428  21.761  1.00  0.00     0.175 C 
ATOM      7  F   UNL     1      47.589 132.672  21.847  1.00  0.00    -0.247 F 
ENDROOT
BRANCH   1   8
ATOM      8  C   UNL     1      46.653 133.934  24.213  1.00  0.00    -0.028 C 
ATOM      9  C   UNL     1      47.969 134.037  24.004  1.00  0.00     0.004 C 
ENDBRANCH   1   8
BRANCH   3  10
ATOM     10  N   UNL     1      42.995 132.290  22.286  1.00  0.00    -0.320 NA
ATOM     11  H   UNL     1      42.735 132.504  21.301  1.00  0.00     0.119 HD
ATOM     12  H   UNL     1      42.174 131.802  22.704  1.00  0.00     0.119 HD
ENDBRANCH   3  10
BRANCH   3  13
ATOM     13  C   UNL     1      43.850 130.029  22.812  1.00  0.00    -0.025 A 
ATOM     14  C   UNL     1      44.805 128.970  22.707  1.00  0.00     0.008 A 
ATOM     15  C   UNL     1      42.579 129.729  23.381  1.00  0.00     0.016 A 
ATOM     16  C   UNL     1      44.492 127.659  23.103  1.00  0.00     0.027 A 
ATOM     17  C   UNL     1      42.308 128.417  23.759  1.00  0.00    -0.000 A 
ATOM     18  C   UNL     1      43.227 127.418  23.622  1.00  0.00     0.045 A 
ATOM     19  C   UNL     1      41.177 127.863  24.318  1.00  0.00     0.028 A 
ATOM     20  N   UNL     1      42.736 126.250  24.066  1.00  0.00    -0.361 N 
ATOM     21  C   UNL     1      41.480 126.517  24.492  1.00  0.00     0.083 A 
ATOM     22  H   UNL     1      43.220 125.325  24.085  1.00  0.00     0.166 HD
ENDBRANCH   3  13
BRANCH   4  23
ATOM     23  N   UNL     1      44.225 130.874  19.922  1.00  0.00    -0.372 N 
ATOM     24  H   UNL     1      43.389 130.292  20.149  1.00  0.00     0.161 HD
BRANCH  23  25
ATOM     25  C   UNL     1      44.574 130.972  18.525  1.00  0.00     0.140 A 
ATOM     26  C   UNL     1      45.789 130.475  18.021  1.00  0.00     0.042 A 
ATOM     27  C   UNL     1      43.668 131.554  17.622  1.00  0.00     0.381 A 
ATOM     28  C   UNL     1      46.079 130.576  16.662  1.00  0.00     0.076 A 
ATOM     29  N   UNL     1      43.973 131.643  16.298  1.00  0.00    -0.182 N 
ATOM     30  C   UNL     1      45.146 131.158  15.797  1.00  0.00     0.179 A 
ATOM     31  F   UNL     1      42.486 132.052  18.065  1.00  0.00    -0.134 F 
ATOM     32  H   UNL     1      43.284 132.096  15.656  1.00  0.00     0.456 HD
ATOM     33  C   UNL     1      45.462 131.307  14.338  1.00  0.00     0.123 C 
ENDBRANCH  23  25
ENDBRANCH   4  23
TORSDOF 5
ENDMDL
MODEL 2
REMARK VINA RESULT:      -2.4      1.993      6.605
REMARK SMILES C=C[C@@H]1C[C@](N)(c2ccc3[nH]ccc3c2)[C@@H](Nc2ccc(C)[nH+]c2F)C[C@@H]1F
REMARK SMILES IDX 3 1 4 2 5 3 16 4 26 5 27 6 28 7 2 8 1 9 6 10 7 13 8 14 15 15
REMARK SMILES IDX 9 16 14 17 10 18 13 19 11 20 12 21 17 23 18 25 19 26 24 27
REMARK SMILES IDX 20 28 23 29 21 30 25 31 22 33
REMARK H PARENT 6 11 6 12 11 22 17 24 23 32
ROOT
ATOM      1  C   UNL     1      42.986 129.015  23.759  1.00  0.00     0.048 C 
ATOM      2  C   UNL     1      43.142 129.529  22.308  1.00  0.00     0.040 C 
ATOM      3  C   UNL     1      43.455 131.050  22.215  1.00  0.00     0.062 C 
ATOM      4  C   UNL     1      44.716 131.365  23.104  1.00  0.00     0.107 C 
ATOM      5  C   UNL     1      44.515 130.896  24.561  1.00  0.00     0.065 C 
ATOM      6  C   UNL     1      44.210 129.391  24.620  1.00  0.00     0.175 C 
ATOM      7  F   UNL     1      45.325 128.678  24.204  1.00  0.00    -0.247 F 
ENDROOT
BRANCH   1   8
ATOM      8  C   UNL     1      42.771 127.517  23.763  1.00  0.00    -0.028 C 
ATOM      9  C   UNL     1      43.713 126.675  24.197  1.00  0.00     0.004 C 
ENDBRANCH   1   8
BRANCH   3  10
ATOM     10  N   UNL     1      42.268 131.803  22.679  1.00  0.00    -0.320 NA
ATOM     11  H   UNL     1      41.385 131.469  22.240  1.00  0.00     0.119 HD
ATOM     12  H   UNL     1      42.134 131.706  23.709  1.00  0.00     0.119 HD
ENDBRANCH   3  10
BRANCH   3  13
ATOM     13  C   UNL     1      43.738 131.385  20.733  1.00  0.00    -0.025 A 
ATOM     14  C   UNL     1      43.011 132.423  20.071  1.00  0.00     0.008 A 
ATOM     15  C   UNL     1      44.767 130.722  20.005  1.00  0.00     0.016 A 
ATOM     16  C   UNL     1      43.261 132.753  18.729  1.00  0.00     0.027 A 
ATOM     17  C   UNL     1      44.984 131.077  18.677  1.00  0.00    -0.000 A 
ATOM     18  C   UNL     1      44.256 132.052  18.060  1.00  0.00     0.045 A 
ATOM     19  C   UNL     1      45.893 130.598  17.760  1.00  0.00     0.028 A 
ATOM     20  N   UNL     1      44.657 132.218  16.789  1.00  0.00    -0.361 N 
ATOM     21  C   UNL     1      45.659 131.329  16.600  1.00  0.00     0.083 A 
ATOM     22  H   UNL     1      44.280 132.895  16.089  1.00  0.00     0.166 HD
ENDBRANCH   3  13
BRANCH   4  23
ATOM     23  N   UNL     1      45.096 132.788  23.056  1.00  0.00    -0.372 N 
ATOM     24  H   UNL     1      44.372 133.497  22.807  1.00  0.00     0.161 HD
BRANCH  23  25
ATOM     25  C   UNL     1      46.438 133.283  23.241  1.00  0.00     0.140 A 
ATOM     26  C   UNL     1      46.857 133.876  24.446  1.00  0.00     0.042 A 
ATOM     27  C   UNL     1      47.377 133.152  22.204  1.00  0.00     0.381 A 
ATOM     28  C   UNL     1      48.168 134.327  24.588  1.00  0.00     0.076 A 
ATOM     29  N   UNL     1      48.652 133.600  22.365  1.00  0.00    -0.182 N 
ATOM     30  C   UNL     1      49.072 134.170  23.531  1.00  0.00     0.179 A 
ATOM     31  F   UNL     1      47.015 132.591  21.022  1.00  0.00    -0.134 F 
ATOM     32  H   UNL     1      49.321 133.501  21.568  1.00  0.00     0.456 HD
ATOM     33  C   UNL     1      50.475 134.686  23.658  1.00  0.00     0.123 C 
ENDBRANCH  23  25
ENDBRANCH   4  23
TORSDOF 5
ENDMDL
MODEL 3
REMARK VINA RESULT:      -2.4      2.075      6.597
REMARK SMILES C=C[C@@H]1C[C@](N)(c2ccc3[nH]ccc3c2)[C@@H](Nc2ccc(C)[nH+]c2F)C[C@@H]1F
REMARK SMILES IDX 3 1 4 2 5 3 16 4 26 5 27 6 28 7 2 8 1 9 6 10 7 13 8 14 15 15
REMARK SMILES IDX 9 16 14 17 10 18 13 19 11 20 12 21 17 23 18 25 19 26 24 27
REMARK SMILES IDX 20 28 23 29 21 30 25 31 22 33
REMARK H PARENT 6 11 6 12 11 22 17 24 23 32
ROOT
ATOM      1  C   UNL     1      42.524 129.870  23.561  1.00  0.00     0.048 C 
ATOM      2  C   UNL     1      43.054 129.933  22.108  1.00  0.00     0.040 C 
ATOM      3  C   UNL     1      43.636 131.322  21.717  1.00  0.00     0.062 C 
ATOM      4  C   UNL     1      44.728 131.733  22.775  1.00  0.00     0.107 C 
ATOM      5  C   UNL     1      44.161 131.718  24.211  1.00  0.00     0.065 C 
ATOM      6  C   UNL     1      43.597 130.335  24.569  1.00  0.00     0.175 C 
ATOM      7  F   UNL     1      44.633 129.413  24.623  1.00  0.00    -0.247 F 
ENDROOT
BRANCH   1   8
ATOM      8  C   UNL     1      42.058 128.467  23.886  1.00  0.00    -0.028 C 
ATOM      9  C   UNL     1      42.918 127.448  23.981  1.00  0.00     0.004 C 
ENDBRANCH   1   8
BRANCH   3  10
ATOM     10  N   UNL     1      42.527 132.303  21.680  1.00  0.00    -0.320 NA
ATOM     11  H   UNL     1      42.847 133.276  21.871  1.00  0.00     0.119 HD
ATOM     12  H   UNL     1      42.070 132.326  20.743  1.00  0.00     0.119 HD
ENDBRANCH   3  10
BRANCH   3  13
ATOM     13  C   UNL     1      44.263 131.193  20.311  1.00  0.00    -0.025 A 
ATOM     14  C   UNL     1      45.524 130.541  20.134  1.00  0.00     0.008 A 
ATOM     15  C   UNL     1      43.582 131.655  19.149  1.00  0.00     0.016 A 
ATOM     16  C   UNL     1      46.105 130.401  18.863  1.00  0.00     0.027 A 
ATOM     17  C   UNL     1      44.191 131.498  17.908  1.00  0.00    -0.000 A 
ATOM     18  C   UNL     1      45.409 130.898  17.769  1.00  0.00     0.045 A 
ATOM     19  C   UNL     1      43.762 131.856  16.648  1.00  0.00     0.028 A 
ATOM     20  N   UNL     1      45.779 130.856  16.479  1.00  0.00    -0.361 N 
ATOM     21  C   UNL     1      44.774 131.442  15.789  1.00  0.00     0.083 A 
ATOM     22  H   UNL     1      46.657 130.451  16.085  1.00  0.00     0.166 HD
ENDBRANCH   3  13
BRANCH   4  23
ATOM     23  N   UNL     1      45.349 133.033  22.466  1.00  0.00    -0.372 N 
ATOM     24  H   UNL     1      44.863 133.682  21.810  1.00  0.00     0.161 HD
BRANCH  23  25
ATOM     25  C   UNL     1      46.646 133.453  22.937  1.00  0.00     0.140 A 
ATOM     26  C   UNL     1      46.829 134.038  24.203  1.00  0.00     0.042 A 
ATOM     27  C   UNL     1      47.777 133.253  22.129  1.00  0.00     0.381 A 
ATOM     28  C   UNL     1      48.103 134.415  24.625  1.00  0.00     0.076 A 
ATOM     29  N   UNL     1      49.012 133.630  22.561  1.00  0.00    -0.182 N 
ATOM     30  C   UNL     1      49.202 134.191  23.790  1.00  0.00     0.179 A 
ATOM     31  F   UNL     1      47.647 132.697  20.897  1.00  0.00    -0.134 F 
ATOM     32  H   UNL     1      49.830 133.480  21.928  1.00  0.00     0.456 HD
ATOM     33  C   UNL     1      50.573 134.627  24.216  1.00  0.00     0.123 C 
ENDBRANCH  23  25
ENDBRANCH   4  23
TORSDOF 5
ENDMDL
MODEL 4
REMARK VINA RESULT:      -2.3      0.824      1.580
REMARK SMILES C=C[C@@H]1C[C@](N)(c2ccc3[nH]ccc3c2)[C@@H](Nc2ccc(C)[nH+]c2F)C[C@@H]1F
REMARK SMILES IDX 3 1 4 2 5 3 16 4 26 5 27 6 28 7 2 8 1 9 6 10 7 13 8 14 15 15
REMARK SMILES IDX 9 16 14 17 10 18 13 19 11 20 12 21 17 23 18 25 19 26 24 27
REMARK SMILES IDX 20 28 23 29 21 30 25 31 22 33
REMARK H PARENT 6 11 6 12 11 22 17 24 23 32
ROOT
ATOM      1  C   UNL     1      45.458 133.104  23.457  1.00  0.00     0.048 C 
ATOM      2  C   UNL     1      45.004 131.647  23.717  1.00  0.00     0.040 C 
ATOM      3  C   UNL     1      44.228 131.014  22.526  1.00  0.00     0.062 C 
ATOM      4  C   UNL     1      45.100 131.148  21.222  1.00  0.00     0.107 C 
ATOM      5  C   UNL     1      45.495 132.616  20.950  1.00  0.00     0.065 C 
ATOM      6  C   UNL     1      46.260 133.212  22.142  1.00  0.00     0.175 C 
ATOM      7  F   UNL     1      47.483 132.570  22.272  1.00  0.00    -0.247 F 
ENDROOT
BRANCH   1   8
ATOM      8  C   UNL     1      46.277 133.611  24.624  1.00  0.00    -0.028 C 
ATOM      9  C   UNL     1      46.940 134.770  24.564  1.00  0.00     0.004 C 
ENDBRANCH   1   8
BRANCH   3  10
ATOM     10  N   UNL     1      42.933 131.718  22.382  1.00  0.00    -0.320 NA
ATOM     11  H   UNL     1      42.634 131.806  21.388  1.00  0.00     0.119 HD
ATOM     12  H   UNL     1      42.166 131.208  22.871  1.00  0.00     0.119 HD
ENDBRANCH   3  10
BRANCH   3  13
ATOM     13  C   UNL     1      43.978 129.527  22.862  1.00  0.00    -0.025 A 
ATOM     14  C   UNL     1      42.775 129.123  23.522  1.00  0.00     0.008 A 
ATOM     15  C   UNL     1      44.898 128.512  22.470  1.00  0.00     0.016 A 
ATOM     16  C   UNL     1      42.522 127.775  23.824  1.00  0.00     0.027 A 
ATOM     17  C   UNL     1      44.611 127.189  22.789  1.00  0.00    -0.000 A 
ATOM     18  C   UNL     1      43.468 126.832  23.445  1.00  0.00     0.045 A 
ATOM     19  C   UNL     1      45.320 126.034  22.539  1.00  0.00     0.028 A 
ATOM     20  N   UNL     1      43.415 125.503  23.627  1.00  0.00    -0.361 N 
ATOM     21  C   UNL     1      44.547 125.010  23.075  1.00  0.00     0.083 A 
ATOM     22  H   UNL     1      42.656 124.958  24.094  1.00  0.00     0.166 HD
ENDBRANCH   3  13
BRANCH   4  23
ATOM     23  N   UNL     1      44.446 130.552  20.045  1.00  0.00    -0.372 N 
ATOM     24  H   UNL     1      43.718 129.818  20.188  1.00  0.00     0.161 HD
BRANCH  23  25
ATOM     25  C   UNL     1      44.801 130.840  18.676  1.00  0.00     0.140 A 
ATOM     26  C   UNL     1      45.920 130.257  18.055  1.00  0.00     0.042 A 
ATOM     27  C   UNL     1      43.997 131.707  17.917  1.00  0.00     0.381 A 
ATOM     28  C   UNL     1      46.218 130.550  16.726  1.00  0.00     0.076 A 
ATOM     29  N   UNL     1      44.308 131.980  16.620  1.00  0.00    -0.182 N 
ATOM     30  C   UNL     1      45.386 131.415  16.006  1.00  0.00     0.179 A 
ATOM     31  F   UNL     1      42.911 132.297  18.478  1.00  0.00    -0.134 F 
ATOM     32  H   UNL     1      43.698 132.642  16.089  1.00  0.00     0.456 HD
ATOM     33  C   UNL     1      45.718 131.768  14.586  1.00  0.00     0.123 C 
ENDBRANCH  23  25
ENDBRANCH   4  23
TORSDOF 5
ENDMDL
MODEL 5
REMARK VINA RESULT:      -1.8      2.460      6.599
REMARK SMILES C=C[C@@H]1C[C@](N)(c2ccc3[nH]ccc3c2)[C@@H](Nc2ccc(C)[nH+]c2F)C[C@@H]1F
REMARK SMILES IDX 3 1 4 2 5 3 16 4 26 5 27 6 28 7 2 8 1 9 6 10 7 13 8 14 15 15
REMARK SMILES IDX 9 16 14 17 10 18 13 19 11 20 12 21 17 23 18 25 19 26 24 27
REMARK SMILES IDX 20 28 23 29 21 30 25 31 22 33
REMARK H PARENT 6 11 6 12 11 22 17 24 23 32
ROOT
ATOM      1  C   UNL     1      42.840 130.664  22.946  1.00  0.00     0.048 C 
ATOM      2  C   UNL     1      43.334 130.483  21.491  1.00  0.00     0.040 C 
ATOM      3  C   UNL     1      44.055 131.736  20.917  1.00  0.00     0.062 C 
ATOM      4  C   UNL     1      45.214 132.151  21.899  1.00  0.00     0.107 C 
ATOM      5  C   UNL     1      44.689 132.382  23.333  1.00  0.00     0.065 C 
ATOM      6  C   UNL     1      43.985 131.127  23.872  1.00  0.00     0.175 C 
ATOM      7  F   UNL     1      44.914 130.109  24.031  1.00  0.00    -0.247 F 
ENDROOT
BRANCH   1   8
ATOM      8  C   UNL     1      42.232 129.374  23.455  1.00  0.00    -0.028 C 
ATOM      9  C   UNL     1      41.580 129.318  24.621  1.00  0.00     0.004 C 
ENDBRANCH   1   8
BRANCH   3  10
ATOM     10  N   UNL     1      43.061 132.824  20.769  1.00  0.00    -0.320 NA
ATOM     11  H   UNL     1      43.002 133.182  19.794  1.00  0.00     0.119 HD
ATOM     12  H   UNL     1      42.101 132.498  21.017  1.00  0.00     0.119 HD
ENDBRANCH   3  10
BRANCH   3  13
ATOM     13  C   UNL     1      44.626 131.361  19.531  1.00  0.00    -0.025 A 
ATOM     14  C   UNL     1      45.756 130.492  19.422  1.00  0.00     0.008 A 
ATOM     15  C   UNL     1      44.008 131.809  18.328  1.00  0.00     0.016 A 
ATOM     16  C   UNL     1      46.282 130.127  18.171  1.00  0.00     0.027 A 
ATOM     17  C   UNL     1      44.560 131.426  17.109  1.00  0.00    -0.000 A 
ATOM     18  C   UNL     1      45.658 130.619  17.032  1.00  0.00     0.045 A 
ATOM     19  C   UNL     1      44.173 131.719  15.820  1.00  0.00     0.028 A 
ATOM     20  N   UNL     1      45.991 130.384  15.753  1.00  0.00    -0.361 N 
ATOM     21  C   UNL     1      45.086 131.057  15.007  1.00  0.00     0.083 A 
ATOM     22  H   UNL     1      46.783 129.800  15.402  1.00  0.00     0.166 HD
ENDBRANCH   3  13
BRANCH   4  23
ATOM     23  N   UNL     1      45.966 133.323  21.418  1.00  0.00    -0.372 N 
ATOM     24  H   UNL     1      45.638 133.817  20.560  1.00  0.00     0.161 HD
BRANCH  23  25
ATOM     25  C   UNL     1      47.197 133.801  21.999  1.00  0.00     0.140 A 
ATOM     26  C   UNL     1      47.841 133.124  23.050  1.00  0.00     0.042 A 
ATOM     27  C   UNL     1      47.801 134.963  21.488  1.00  0.00     0.381 A 
ATOM     28  C   UNL     1      49.038 133.612  23.570  1.00  0.00     0.076 A 
ATOM     29  N   UNL     1      48.971 135.421  22.013  1.00  0.00    -0.182 N 
ATOM     30  C   UNL     1      49.607 134.769  23.028  1.00  0.00     0.179 A 
ATOM     31  F   UNL     1      47.212 135.651  20.478  1.00  0.00    -0.134 F 
ATOM     32  H   UNL     1      49.385 136.297  21.620  1.00  0.00     0.456 HD
ATOM     33  C   UNL     1      50.876 135.325  23.604  1.00  0.00     0.123 C 
ENDBRANCH  23  25
ENDBRANCH   4  23
TORSDOF 5
ENDMDL
MODEL 6
REMARK VINA RESULT:      -1.8      2.355      6.689
REMARK SMILES C=C[C@@H]1C[C@](N)(c2ccc3[nH]ccc3c2)[C@@H](Nc2ccc(C)[nH+]c2F)C[C@@H]1F
REMARK SMILES IDX 3 1 4 2 5 3 16 4 26 5 27 6 28 7 2 8 1 9 6 10 7 13 8 14 15 15
REMARK SMILES IDX 9 16 14 17 10 18 13 19 11 20 12 21 17 23 18 25 19 26 24 27
REMARK SMILES IDX 20 28 23 29 21 30 25 31 22 33
REMARK H PARENT 6 11 6 12 11 22 17 24 23 32
ROOT
ATOM      1  C   UNL     1      42.572 130.107  23.370  1.00  0.00     0.048 C 
ATOM      2  C   UNL     1      42.825 130.182  21.845  1.00  0.00     0.040 C 
ATOM      3  C   UNL     1      43.519 131.499  21.392  1.00  0.00     0.062 C 
ATOM      4  C   UNL     1      44.837 131.694  22.232  1.00  0.00     0.107 C 
ATOM      5  C   UNL     1      44.553 131.672  23.749  1.00  0.00     0.065 C 
ATOM      6  C   UNL     1      43.871 130.361  24.165  1.00  0.00     0.175 C 
ATOM      7  F   UNL     1      44.754 129.305  23.989  1.00  0.00    -0.247 F 
ENDROOT
BRANCH   1   8
ATOM      8  C   UNL     1      41.977 128.764  23.735  1.00  0.00    -0.028 C 
ATOM      9  C   UNL     1      42.614 127.911  24.543  1.00  0.00     0.004 C 
ENDBRANCH   1   8
BRANCH   3  10
ATOM     10  N   UNL     1      42.578 132.623  21.602  1.00  0.00    -0.320 NA
ATOM     11  H   UNL     1      42.680 133.370  20.884  1.00  0.00     0.119 HD
ATOM     12  H   UNL     1      41.586 132.304  21.548  1.00  0.00     0.119 HD
ENDBRANCH   3  10
BRANCH   3  13
ATOM     13  C   UNL     1      43.847 131.368  19.888  1.00  0.00    -0.025 A 
ATOM     14  C   UNL     1      42.938 131.861  18.901  1.00  0.00     0.008 A 
ATOM     15  C   UNL     1      45.083 130.818  19.443  1.00  0.00     0.016 A 
ATOM     16  C   UNL     1      43.222 131.764  17.528  1.00  0.00     0.027 A 
ATOM     17  C   UNL     1      45.327 130.739  18.075  1.00  0.00    -0.000 A 
ATOM     18  C   UNL     1      44.430 131.190  17.151  1.00  0.00     0.045 A 
ATOM     19  C   UNL     1      46.418 130.253  17.387  1.00  0.00     0.028 A 
ATOM     20  N   UNL     1      44.896 131.015  15.905  1.00  0.00    -0.361 N 
ATOM     21  C   UNL     1      46.112 130.440  16.043  1.00  0.00     0.083 A 
ATOM     22  H   UNL     1      44.422 131.271  15.009  1.00  0.00     0.166 HD
ENDBRANCH   3  13
BRANCH   4  23
ATOM     23  N   UNL     1      45.572 132.912  21.850  1.00  0.00    -0.372 N 
ATOM     24  H   UNL     1      45.272 133.438  21.000  1.00  0.00     0.161 HD
BRANCH  23  25
ATOM     25  C   UNL     1      46.754 133.400  22.518  1.00  0.00     0.140 A 
ATOM     26  C   UNL     1      48.014 133.413  21.894  1.00  0.00     0.042 A 
ATOM     27  C   UNL     1      46.655 133.907  23.825  1.00  0.00     0.381 A 
ATOM     28  C   UNL     1      49.128 133.908  22.571  1.00  0.00     0.076 A 
ATOM     29  N   UNL     1      47.756 134.384  24.467  1.00  0.00    -0.182 N 
ATOM     30  C   UNL     1      48.982 134.409  23.868  1.00  0.00     0.179 A 
ATOM     31  F   UNL     1      45.459 133.908  24.468  1.00  0.00    -0.134 F 
ATOM     32  H   UNL     1      47.650 134.740  25.444  1.00  0.00     0.456 HD
ATOM     33  C   UNL     1      50.179 134.909  24.621  1.00  0.00     0.123 C 
ENDBRANCH  23  25
ENDBRANCH   4  23
TORSDOF 5
ENDMDL
MODEL 7
REMARK VINA RESULT:      -1.5      2.495      6.617
REMARK SMILES C=C[C@@H]1C[C@](N)(c2ccc3[nH]ccc3c2)[C@@H](Nc2ccc(C)[nH+]c2F)C[C@@H]1F
REMARK SMILES IDX 3 1 4 2 5 3 16 4 26 5 27 6 28 7 2 8 1 9 6 10 7 13 8 14 15 15
REMARK SMILES IDX 9 16 14 17 10 18 13 19 11 20 12 21 17 23 18 25 19 26 24 27
REMARK SMILES IDX 20 28 23 29 21 30 25 31 22 33
REMARK H PARENT 6 11 6 12 11 22 17 24 23 32
ROOT
ATOM      1  C   UNL     1      42.930 130.652  22.732  1.00  0.00     0.048 C 
ATOM      2  C   UNL     1      43.174 130.557  21.207  1.00  0.00     0.040 C 
ATOM      3  C   UNL     1      43.932 131.782  20.619  1.00  0.00     0.062 C 
ATOM      4  C   UNL     1      45.265 131.994  21.431  1.00  0.00     0.107 C 
ATOM      5  C   UNL     1      44.991 132.143  22.943  1.00  0.00     0.065 C 
ATOM      6  C   UNL     1      44.245 130.918  23.494  1.00  0.00     0.175 C 
ATOM      7  F   UNL     1      45.072 129.806  23.426  1.00  0.00    -0.247 F 
ENDROOT
BRANCH   1   8
ATOM      8  C   UNL     1      42.269 129.386  23.235  1.00  0.00    -0.028 C 
ATOM      9  C   UNL     1      41.886 129.254  24.508  1.00  0.00     0.004 C 
ENDBRANCH   1   8
BRANCH   3  10
ATOM     10  N   UNL     1      43.051 132.969  20.714  1.00  0.00    -0.320 NA
ATOM     11  H   UNL     1      43.092 133.424  21.649  1.00  0.00     0.119 HD
ATOM     12  H   UNL     1      43.322 133.701  20.022  1.00  0.00     0.119 HD
ENDBRANCH   3  10
BRANCH   3  13
ATOM     13  C   UNL     1      44.241 131.480  19.136  1.00  0.00    -0.025 A 
ATOM     14  C   UNL     1      43.356 131.925  18.104  1.00  0.00     0.008 A 
ATOM     15  C   UNL     1      45.438 130.814  18.748  1.00  0.00     0.016 A 
ATOM     16  C   UNL     1      43.625 131.673  16.748  1.00  0.00     0.027 A 
ATOM     17  C   UNL     1      45.668 130.582  17.395  1.00  0.00    -0.000 A 
ATOM     18  C   UNL     1      44.793 130.992  16.431  1.00  0.00     0.045 A 
ATOM     19  C   UNL     1      46.723 129.965  16.759  1.00  0.00     0.028 A 
ATOM     20  N   UNL     1      45.239 130.664  15.208  1.00  0.00    -0.361 N 
ATOM     21  C   UNL     1      46.420 130.033  15.403  1.00  0.00     0.083 A 
ATOM     22  H   UNL     1      44.776 130.857  14.291  1.00  0.00     0.166 HD
ENDBRANCH   3  13
BRANCH   4  23
ATOM     23  N   UNL     1      46.057 133.127  20.924  1.00  0.00    -0.372 N 
ATOM     24  H   UNL     1      45.817 133.537  19.995  1.00  0.00     0.161 HD
BRANCH  23  25
ATOM     25  C   UNL     1      47.222 133.670  21.579  1.00  0.00     0.140 A 
ATOM     26  C   UNL     1      48.095 132.870  22.338  1.00  0.00     0.042 A 
ATOM     27  C   UNL     1      47.524 135.036  21.441  1.00  0.00     0.381 A 
ATOM     28  C   UNL     1      49.218 133.433  22.942  1.00  0.00     0.076 A 
ATOM     29  N   UNL     1      48.626 135.564  22.040  1.00  0.00    -0.182 N 
ATOM     30  C   UNL     1      49.483 134.796  22.773  1.00  0.00     0.179 A 
ATOM     31  F   UNL     1      46.706 135.847  20.722  1.00  0.00    -0.134 F 
ATOM     32  H   UNL     1      48.813 136.587  21.930  1.00  0.00     0.456 HD
ATOM     33  C   UNL     1      50.668 135.422  23.448  1.00  0.00     0.123 C 
ENDBRANCH  23  25
ENDBRANCH   4  23
TORSDOF 5
ENDMDL
MODEL 8
REMARK VINA RESULT:      -1.4      2.416      6.659
REMARK SMILES C=C[C@@H]1C[C@](N)(c2ccc3[nH]ccc3c2)[C@@H](Nc2ccc(C)[nH+]c2F)C[C@@H]1F
REMARK SMILES IDX 3 1 4 2 5 3 16 4 26 5 27 6 28 7 2 8 1 9 6 10 7 13 8 14 15 15
REMARK SMILES IDX 9 16 14 17 10 18 13 19 11 20 12 21 17 23 18 25 19 26 24 27
REMARK SMILES IDX 20 28 23 29 21 30 25 31 22 33
REMARK H PARENT 6 11 6 12 11 22 17 24 23 32
ROOT
ATOM      1  C   UNL     1      42.687 130.697  23.279  1.00  0.00     0.048 C 
ATOM      2  C   UNL     1      43.249 130.505  21.850  1.00  0.00     0.040 C 
ATOM      3  C   UNL     1      43.974 131.763  21.291  1.00  0.00     0.062 C 
ATOM      4  C   UNL     1      45.081 132.210  22.318  1.00  0.00     0.107 C 
ATOM      5  C   UNL     1      44.489 132.451  23.723  1.00  0.00     0.065 C 
ATOM      6  C   UNL     1      43.782 131.192  24.248  1.00  0.00     0.175 C 
ATOM      7  F   UNL     1      44.720 130.192  24.463  1.00  0.00    -0.247 F 
ENDROOT
BRANCH   1   8
ATOM      8  C   UNL     1      42.078 129.404  23.778  1.00  0.00    -0.028 C 
ATOM      9  C   UNL     1      42.646 128.220  23.531  1.00  0.00     0.004 C 
ENDBRANCH   1   8
BRANCH   3  10
ATOM     10  N   UNL     1      42.970 132.831  21.084  1.00  0.00    -0.320 NA
ATOM     11  H   UNL     1      42.423 133.039  21.946  1.00  0.00     0.119 HD
ATOM     12  H   UNL     1      43.421 133.728  20.802  1.00  0.00     0.119 HD
ENDBRANCH   3  10
BRANCH   3  13
ATOM     13  C   UNL     1      44.612 131.379  19.937  1.00  0.00    -0.025 A 
ATOM     14  C   UNL     1      45.729 130.487  19.887  1.00  0.00     0.008 A 
ATOM     15  C   UNL     1      44.072 131.843  18.704  1.00  0.00     0.016 A 
ATOM     16  C   UNL     1      46.315 130.114  18.666  1.00  0.00     0.027 A 
ATOM     17  C   UNL     1      44.681 131.451  17.516  1.00  0.00    -0.000 A 
ATOM     18  C   UNL     1      45.765 130.621  17.496  1.00  0.00     0.045 A 
ATOM     19  C   UNL     1      44.372 131.755  16.208  1.00  0.00     0.028 A 
ATOM     20  N   UNL     1      46.163 130.382  16.237  1.00  0.00    -0.361 N 
ATOM     21  C   UNL     1      45.314 131.075  15.444  1.00  0.00     0.083 A 
ATOM     22  H   UNL     1      46.960 129.782  15.927  1.00  0.00     0.166 HD
ENDBRANCH   3  13
BRANCH   4  23
ATOM     23  N   UNL     1      45.834 133.389  21.854  1.00  0.00    -0.372 N 
ATOM     24  H   UNL     1      45.482 133.922  21.029  1.00  0.00     0.161 HD
BRANCH  23  25
ATOM     25  C   UNL     1      47.096 133.823  22.404  1.00  0.00     0.140 A 
ATOM     26  C   UNL     1      48.182 134.184  21.588  1.00  0.00     0.042 A 
ATOM     27  C   UNL     1      47.250 133.920  23.797  1.00  0.00     0.381 A 
ATOM     28  C   UNL     1      49.378 134.614  22.160  1.00  0.00     0.076 A 
ATOM     29  N   UNL     1      48.428 134.341  24.334  1.00  0.00    -0.182 N 
ATOM     30  C   UNL     1      49.486 134.701  23.552  1.00  0.00     0.179 A 
ATOM     31  F   UNL     1      46.230 133.575  24.623  1.00  0.00    -0.134 F 
ATOM     32  H   UNL     1      48.515 134.386  25.375  1.00  0.00     0.456 HD
ATOM     33  C   UNL     1      50.780 135.125  24.181  1.00  0.00     0.123 C 
ENDBRANCH  23  25
ENDBRANCH   4  23
TORSDOF 5
ENDMDL
MODEL 9
REMARK VINA RESULT:      -1.3      2.485      5.237
REMARK SMILES C=C[C@@H]1C[C@](N)(c2ccc3[nH]ccc3c2)[C@@H](Nc2ccc(C)[nH+]c2F)C[C@@H]1F
REMARK SMILES IDX 3 1 4 2 5 3 16 4 26 5 27 6 28 7 2 8 1 9 6 10 7 13 8 14 15 15
REMARK SMILES IDX 9 16 14 17 10 18 13 19 11 20 12 21 17 23 18 25 19 26 24 27
REMARK SMILES IDX 20 28 23 29 21 30 25 31 22 33
REMARK H PARENT 6 11 6 12 11 22 17 24 23 32
ROOT
ATOM      1  C   UNL     1      44.188 126.532  23.881  1.00  0.00     0.048 C 
ATOM      2  C   UNL     1      43.421 127.847  23.600  1.00  0.00     0.040 C 
ATOM      3  C   UNL     1      44.333 129.006  23.101  1.00  0.00     0.062 C 
ATOM      4  C   UNL     1      45.152 128.507  21.852  1.00  0.00     0.107 C 
ATOM      5  C   UNL     1      45.954 127.227  22.172  1.00  0.00     0.065 C 
ATOM      6  C   UNL     1      45.027 126.102  22.659  1.00  0.00     0.175 C 
ATOM      7  F   UNL     1      44.195 125.709  21.620  1.00  0.00    -0.247 F 
ENDROOT
BRANCH   1   8
ATOM      8  C   UNL     1      43.219 125.438  24.274  1.00  0.00    -0.028 C 
ATOM      9  C   UNL     1      43.616 124.169  24.419  1.00  0.00     0.004 C 
ENDBRANCH   1   8
BRANCH   3  10
ATOM     10  N   UNL     1      45.231 129.406  24.209  1.00  0.00    -0.320 NA
ATOM     11  H   UNL     1      45.570 128.593  24.763  1.00  0.00     0.119 HD
ATOM     12  H   UNL     1      46.084 129.889  23.852  1.00  0.00     0.119 HD
ENDBRANCH   3  10
BRANCH   3  13
ATOM     13  C   UNL     1      43.421 130.192  22.716  1.00  0.00    -0.025 A 
ATOM     14  C   UNL     1      42.749 130.950  23.725  1.00  0.00     0.008 A 
ATOM     15  C   UNL     1      43.276 130.606  21.361  1.00  0.00     0.016 A 
ATOM     16  C   UNL     1      41.926 132.041  23.397  1.00  0.00     0.027 A 
ATOM     17  C   UNL     1      42.451 131.691  21.077  1.00  0.00    -0.000 A 
ATOM     18  C   UNL     1      41.797 132.380  22.056  1.00  0.00     0.045 A 
ATOM     19  C   UNL     1      42.135 132.284  19.874  1.00  0.00     0.028 A 
ATOM     20  N   UNL     1      41.077 133.386  21.535  1.00  0.00    -0.361 N 
ATOM     21  C   UNL     1      41.279 133.331  20.199  1.00  0.00     0.083 A 
ATOM     22  H   UNL     1      40.484 134.074  22.051  1.00  0.00     0.166 HD
ENDBRANCH   3  13
BRANCH   4  23
ATOM     23  N   UNL     1      46.030 129.555  21.302  1.00  0.00    -0.372 N 
ATOM     24  H   UNL     1      46.795 129.939  21.898  1.00  0.00     0.161 HD
BRANCH  23  25
ATOM     25  C   UNL     1      45.858 130.171  20.009  1.00  0.00     0.140 A 
ATOM     26  C   UNL     1      45.832 129.420  18.820  1.00  0.00     0.042 A 
ATOM     27  C   UNL     1      45.681 131.562  19.920  1.00  0.00     0.381 A 
ATOM     28  C   UNL     1      45.647 130.055  17.593  1.00  0.00     0.076 A 
ATOM     29  N   UNL     1      45.503 132.160  18.710  1.00  0.00    -0.182 N 
ATOM     30  C   UNL     1      45.469 131.441  17.551  1.00  0.00     0.179 A 
ATOM     31  F   UNL     1      45.705 132.327  21.041  1.00  0.00    -0.134 F 
ATOM     32  H   UNL     1      45.390 133.199  18.678  1.00  0.00     0.456 HD
ATOM     33  C   UNL     1      45.307 132.140  16.233  1.00  0.00     0.123 C 
ENDBRANCH  23  25
ENDBRANCH   4  23
TORSDOF 5
ENDMDL


