REMARK SMILES CCNC(=O)CCOc1ccc(C(=O)[N-][C@H]2CC23CCC3)c(C)c1
REMARK SMILES IDX 7 1 6 2 4 3 3 4 5 6 2 7 1 8 8 9 9 10 10 11 24 12 11 13 22 14
REMARK SMILES IDX 12 15 23 16 13 17 14 18 15 19 16 20 17 21 18 22 19 23 21 24
REMARK SMILES IDX 20 25
REMARK H PARENT 3 5
ROOT
ATOM      1  C   UNL     1      -2.997  -2.476   2.006  1.00  0.00     0.239 C 
ENDROOT
BRANCH   1   2
ATOM      2  C   UNL     1      -3.951  -1.339   1.621  1.00  0.00     0.141 C 
BRANCH   2   3
ATOM      3  C   UNL     1      -4.009  -0.296   2.698  1.00  0.00     0.223 C 
ATOM      4  N   UNL     1      -3.165   0.862   2.624  1.00  0.00    -0.356 N 
ATOM      5  H   UNL     1      -2.497   0.952   1.825  1.00  0.00     0.163 HD
ATOM      6  O   UNL     1      -4.769  -0.469   3.689  1.00  0.00    -0.275 OA
BRANCH   4   7
ATOM      7  C   UNL     1      -3.135   1.885   3.668  1.00  0.00     0.112 C 
ATOM      8  C   UNL     1      -4.383   2.758   3.602  1.00  0.00     0.027 C 
ENDBRANCH   4   7
ENDBRANCH   2   3
ENDBRANCH   1   2
BRANCH   1   9
ATOM      9  O   UNL     1      -1.696  -1.980   2.329  1.00  0.00    -0.493 OA
BRANCH   9  10
ATOM     10  C   UNL     1      -0.771  -1.448   1.417  1.00  0.00     0.119 A 
ATOM     11  C   UNL     1       0.358  -0.809   1.928  1.00  0.00     0.047 A 
ATOM     12  C   UNL     1      -0.935  -1.539   0.024  1.00  0.00     0.050 A 
ATOM     13  C   UNL     1       1.302  -0.241   1.074  1.00  0.00     0.014 A 
ATOM     14  C   UNL     1       0.014  -0.983  -0.854  1.00  0.00    -0.038 A 
ATOM     15  C   UNL     1       1.142  -0.302  -0.322  1.00  0.00     0.002 A 
ATOM     16  C   UNL     1      -0.200  -1.143  -2.338  1.00  0.00     0.045 C 
BRANCH  15  17
ATOM     17  C   UNL     1       2.170   0.347  -1.177  1.00  0.00     0.082 C 
ATOM     18  O   UNL     1       1.874   0.780  -2.324  1.00  0.00    -0.315 OA
BRANCH  17  19
ATOM     19  N   UNL     1       3.505   0.504  -0.689  1.00  0.00    -0.646 NA
BRANCH  19  20
ATOM     20  C   UNL     1       4.564   1.106  -1.488  1.00  0.00    -0.100 C 
ATOM     21  C   UNL     1       5.961   0.585  -1.130  1.00  0.00    -0.010 C 
ATOM     22  C   UNL     1       5.255   0.121  -2.398  1.00  0.00    -0.044 C 
ATOM     23  C   UNL     1       5.953   0.346  -3.706  1.00  0.00     0.006 C 
ATOM     24  C   UNL     1       5.063  -1.355  -2.592  1.00  0.00     0.006 C 
ATOM     25  C   UNL     1       5.777  -1.169  -3.948  1.00  0.00     0.001 C 
ENDBRANCH  19  20
ENDBRANCH  17  19
ENDBRANCH  15  17
ENDBRANCH   9  10
ENDBRANCH   1   9
TORSDOF 8


