REMARK SMILES [NH3+]CCc1ccc(-c2c[nH+]c3cc[nH+]n3c2)cc1
REMARK SMILES IDX 3 1 2 2 1 3 4 7 5 8 18 9 6 10 17 11 7 12 8 13 9 14 16 15
REMARK SMILES IDX 10 16 15 17 11 18 14 19 12 20 13 21
REMARK H PARENT 1 4 1 5 1 6 10 22 14 23
ROOT
ATOM      1  C   UNL     1      -1.015   1.987  -3.271  1.00  0.00     0.096 C 
ENDROOT
BRANCH   1   2
ATOM      2  C   UNL     1      -0.905   3.440  -2.785  1.00  0.00     0.263 C 
BRANCH   2   3
ATOM      3  N   UNL     1      -1.953   3.772  -1.817  1.00  0.00    -0.357 N 
ATOM      4  H   UNL     1      -1.816   3.230  -0.934  1.00  0.00     0.344 HD
ATOM      5  H   UNL     1      -1.898   4.792  -1.593  1.00  0.00     0.344 HD
ATOM      6  H   UNL     1      -2.896   3.566  -2.219  1.00  0.00     0.344 HD
ENDBRANCH   2   3
ENDBRANCH   1   2
BRANCH   1   7
ATOM      7  C   UNL     1      -0.737   1.001  -2.165  1.00  0.00    -0.042 A 
ATOM      8  C   UNL     1      -1.795   0.382  -1.483  1.00  0.00     0.004 A 
ATOM      9  C   UNL     1       0.583   0.723  -1.784  1.00  0.00     0.004 A 
ATOM     10  C   UNL     1      -1.535  -0.513  -0.441  1.00  0.00     0.009 A 
ATOM     11  C   UNL     1       0.844  -0.172  -0.742  1.00  0.00     0.009 A 
ATOM     12  C   UNL     1      -0.212  -0.801  -0.059  1.00  0.00    -0.011 A 
BRANCH  12  13
ATOM     13  C   UNL     1       0.063  -1.751   1.049  1.00  0.00     0.067 A 
ATOM     14  C   UNL     1       1.109  -1.510   1.977  1.00  0.00     0.210 A 
ATOM     15  C   UNL     1      -0.707  -2.921   1.210  1.00  0.00     0.290 A 
ATOM     16  N   UNL     1       1.357  -2.388   2.993  1.00  0.00    -0.242 N 
ATOM     17  N   UNL     1      -0.404  -3.747   2.240  1.00  0.00     0.008 N 
ATOM     18  C   UNL     1       0.586  -3.498   3.100  1.00  0.00     0.346 A 
ATOM     19  N   UNL     1      -0.991  -4.884   2.563  1.00  0.00    -0.055 N 
ATOM     20  C   UNL     1       0.661  -4.508   4.036  1.00  0.00     0.180 A 
ATOM     21  C   UNL     1      -0.364  -5.374   3.658  1.00  0.00     0.364 A 
ATOM     22  H   UNL     1       2.126  -2.204   3.676  1.00  0.00     0.312 HD
ATOM     23  H   UNL     1      -1.796  -5.317   2.057  1.00  0.00     0.514 HD
ENDBRANCH  12  13
ENDBRANCH   1   7
TORSDOF 4


