MODEL 1
REMARK VINA RESULT:      -6.4      0.000      0.000
REMARK SMILES Cc1ccc(-c2ccc([O-])cc2)c2cn(C(=O)NC3(C(F)(F)F)CC3)nc12
REMARK SMILES IDX 16 1 17 2 18 3 15 5 2 6 3 7 27 8 4 9 26 10 13 11 5 12 14 13
REMARK SMILES IDX 1 14 6 15 7 16 12 17 8 18 11 19 9 20 10 21 19 22 24 23 25 24
REMARK SMILES IDX 20 25 21 26 22 27 23 28
REMARK H PARENT 18 4
ROOT
ATOM      1  C   UNL     1      45.272 130.880  18.942  1.00  0.00     0.342 C 
ATOM      2  O   UNL     1      45.611 132.076  18.730  1.00  0.00    -0.246 OA
ATOM      3  N   UNL     1      45.097 129.978  17.840  1.00  0.00    -0.322 N 
ATOM      4  H   UNL     1      44.849 128.980  18.026  1.00  0.00     0.166 HD
ENDROOT
BRANCH   1   5
ATOM      5  N   UNL     1      45.057 130.429  20.286  1.00  0.00    -0.189 N 
ATOM      6  C   UNL     1      44.076 130.801  23.634  1.00  0.00    -0.023 A 
ATOM      7  C   UNL     1      44.026 129.794  24.620  1.00  0.00     0.006 A 
ATOM      8  C   UNL     1      44.527 130.434  22.364  1.00  0.00     0.096 A 
ATOM      9  C   UNL     1      44.444 128.476  24.328  1.00  0.00     0.010 A 
ATOM     10  N   UNL     1      44.606 131.206  21.265  1.00  0.00    -0.164 NA
ATOM     11  C   UNL     1      44.935 129.155  22.079  1.00  0.00     0.029 A 
ATOM     12  C   UNL     1      44.918 128.134  23.040  1.00  0.00    -0.007 A 
ATOM     13  C   UNL     1      45.264 129.170  20.741  1.00  0.00     0.129 A 
ATOM     14  C   UNL     1      43.592 132.192  23.918  1.00  0.00     0.047 C 
BRANCH  12  15
ATOM     15  C   UNL     1      45.363 126.754  22.738  1.00  0.00    -0.018 A 
ATOM     16  C   UNL     1      46.712 126.494  22.440  1.00  0.00     0.008 A 
ATOM     17  C   UNL     1      44.441 125.692  22.717  1.00  0.00     0.008 A 
ATOM     18  C   UNL     1      47.133 125.194  22.146  1.00  0.00    -0.008 A 
ATOM     19  C   UNL     1      44.866 124.393  22.423  1.00  0.00    -0.008 A 
ATOM     20  C   UNL     1      46.212 124.143  22.138  1.00  0.00    -0.109 A 
ATOM     21  O   UNL     1      46.632 122.852  21.845  1.00  0.00    -0.872 OA
ENDBRANCH  12  15
ENDBRANCH   1   5
BRANCH   3  22
ATOM     22  C   UNL     1      45.365 130.374  16.458  1.00  0.00     0.137 C 
ATOM     23  C   UNL     1      46.777 130.056  15.990  1.00  0.00     0.041 C 
ATOM     24  C   UNL     1      45.600 129.227  15.485  1.00  0.00     0.041 C 
BRANCH  22  25
ATOM     25  C   UNL     1      44.722 131.675  15.956  1.00  0.00     0.411 C 
ATOM     26  F   UNL     1      45.587 132.732  16.174  1.00  0.00    -0.168 F 
ATOM     27  F   UNL     1      44.480 131.569  14.598  1.00  0.00    -0.168 F 
ATOM     28  F   UNL     1      43.527 131.941  16.602  1.00  0.00    -0.168 F 
ENDBRANCH  22  25
ENDBRANCH   3  22
TORSDOF 4
ENDMDL
MODEL 2
REMARK VINA RESULT:      -5.8      3.384      5.320
REMARK SMILES Cc1ccc(-c2ccc([O-])cc2)c2cn(C(=O)NC3(C(F)(F)F)CC3)nc12
REMARK SMILES IDX 16 1 17 2 18 3 15 5 2 6 3 7 27 8 4 9 26 10 13 11 5 12 14 13
REMARK SMILES IDX 1 14 6 15 7 16 12 17 8 18 11 19 9 20 10 21 19 22 24 23 25 24
REMARK SMILES IDX 20 25 21 26 22 27 23 28
REMARK H PARENT 18 4
ROOT
ATOM      1  C   UNL     1      43.923 128.860  23.487  1.00  0.00     0.342 C 
ATOM      2  O   UNL     1      44.690 129.401  24.329  1.00  0.00    -0.246 OA
ATOM      3  N   UNL     1      43.355 129.645  22.427  1.00  0.00    -0.322 N 
ATOM      4  H   UNL     1      42.748 129.183  21.714  1.00  0.00     0.166 HD
ENDROOT
BRANCH   1   5
ATOM      5  N   UNL     1      43.617 127.464  23.595  1.00  0.00    -0.189 N 
ATOM      6  C   UNL     1      41.488 124.714  24.059  1.00  0.00    -0.023 A 
ATOM      7  C   UNL     1      41.834 123.350  23.972  1.00  0.00     0.006 A 
ATOM      8  C   UNL     1      42.508 125.648  23.864  1.00  0.00     0.096 A 
ATOM      9  C   UNL     1      43.168 122.958  23.723  1.00  0.00     0.010 A 
ATOM     10  N   UNL     1      42.401 126.989  23.847  1.00  0.00    -0.164 NA
ATOM     11  C   UNL     1      43.805 125.270  23.625  1.00  0.00     0.029 A 
ATOM     12  C   UNL     1      44.187 123.922  23.551  1.00  0.00    -0.007 A 
ATOM     13  C   UNL     1      44.498 126.447  23.448  1.00  0.00     0.129 A 
ATOM     14  C   UNL     1      40.067 125.143  24.277  1.00  0.00     0.047 C 
BRANCH  12  15
ATOM     15  C   UNL     1      45.588 123.510  23.298  1.00  0.00    -0.018 A 
ATOM     16  C   UNL     1      46.532 123.532  24.339  1.00  0.00     0.008 A 
ATOM     17  C   UNL     1      45.997 123.117  22.011  1.00  0.00     0.008 A 
ATOM     18  C   UNL     1      47.856 123.152  24.100  1.00  0.00    -0.008 A 
ATOM     19  C   UNL     1      47.322 122.737  21.776  1.00  0.00    -0.008 A 
ATOM     20  C   UNL     1      48.251 122.753  22.821  1.00  0.00    -0.109 A 
ATOM     21  O   UNL     1      49.568 122.375  22.586  1.00  0.00    -0.872 OA
ENDBRANCH  12  15
ENDBRANCH   1   5
BRANCH   3  22
ATOM     22  C   UNL     1      43.686 131.057  22.238  1.00  0.00     0.137 C 
ATOM     23  C   UNL     1      42.482 131.985  22.307  1.00  0.00     0.041 C 
ATOM     24  C   UNL     1      43.482 131.943  23.459  1.00  0.00     0.041 C 
BRANCH  22  25
ATOM     25  C   UNL     1      44.793 131.397  21.229  1.00  0.00     0.411 C 
ATOM     26  F   UNL     1      45.650 132.332  21.780  1.00  0.00    -0.168 F 
ATOM     27  F   UNL     1      45.510 130.250  20.938  1.00  0.00    -0.168 F 
ATOM     28  F   UNL     1      44.275 131.909  20.052  1.00  0.00    -0.168 F 
ENDBRANCH  22  25
ENDBRANCH   3  22
TORSDOF 4
ENDMDL
MODEL 3
REMARK VINA RESULT:      -5.8      0.934      1.125
REMARK SMILES Cc1ccc(-c2ccc([O-])cc2)c2cn(C(=O)NC3(C(F)(F)F)CC3)nc12
REMARK SMILES IDX 16 1 17 2 18 3 15 5 2 6 3 7 27 8 4 9 26 10 13 11 5 12 14 13
REMARK SMILES IDX 1 14 6 15 7 16 12 17 8 18 11 19 9 20 10 21 19 22 24 23 25 24
REMARK SMILES IDX 20 25 21 26 22 27 23 28
REMARK H PARENT 18 4
ROOT
ATOM      1  C   UNL     1      45.389 130.791  19.210  1.00  0.00     0.342 C 
ATOM      2  O   UNL     1      46.158 131.779  19.052  1.00  0.00    -0.246 OA
ATOM      3  N   UNL     1      44.914 130.064  18.068  1.00  0.00    -0.322 N 
ATOM      4  H   UNL     1      44.306 129.226  18.208  1.00  0.00     0.166 HD
ENDROOT
BRANCH   1   5
ATOM      5  N   UNL     1      44.990 130.404  20.531  1.00  0.00    -0.189 N 
ATOM      6  C   UNL     1      43.224 130.767  23.542  1.00  0.00    -0.023 A 
ATOM      7  C   UNL     1      43.191 129.858  24.619  1.00  0.00     0.006 A 
ATOM      8  C   UNL     1      44.022 130.432  22.444  1.00  0.00     0.096 A 
ATOM      9  C   UNL     1      43.959 128.673  24.589  1.00  0.00     0.010 A 
ATOM     10  N   UNL     1      44.163 131.112  21.293  1.00  0.00    -0.164 NA
ATOM     11  C   UNL     1      44.770 129.282  22.414  1.00  0.00     0.029 A 
ATOM     12  C   UNL     1      44.775 128.366  23.476  1.00  0.00    -0.007 A 
ATOM     13  C   UNL     1      45.377 129.278  21.177  1.00  0.00     0.129 A 
ATOM     14  C   UNL     1      42.378 132.005  23.542  1.00  0.00     0.047 C 
BRANCH  12  15
ATOM     15  C   UNL     1      45.587 127.127  23.449  1.00  0.00    -0.018 A 
ATOM     16  C   UNL     1      45.632 126.336  22.289  1.00  0.00     0.008 A 
ATOM     17  C   UNL     1      46.299 126.712  24.589  1.00  0.00     0.008 A 
ATOM     18  C   UNL     1      46.391 125.161  22.264  1.00  0.00    -0.008 A 
ATOM     19  C   UNL     1      47.056 125.537  24.560  1.00  0.00    -0.008 A 
ATOM     20  C   UNL     1      47.103 124.762  23.397  1.00  0.00    -0.109 A 
ATOM     21  O   UNL     1      47.856 123.594  23.370  1.00  0.00    -0.872 OA
ENDBRANCH  12  15
ENDBRANCH   1   5
BRANCH   3  22
ATOM     22  C   UNL     1      45.343 130.382  16.706  1.00  0.00     0.137 C 
ATOM     23  C   UNL     1      46.765 129.942  16.392  1.00  0.00     0.041 C 
ATOM     24  C   UNL     1      45.581 129.182  15.801  1.00  0.00     0.041 C 
BRANCH  22  25
ATOM     25  C   UNL     1      44.853 131.705  16.100  1.00  0.00     0.411 C 
ATOM     26  F   UNL     1      45.724 132.722  16.445  1.00  0.00    -0.168 F 
ATOM     27  F   UNL     1      44.824 131.590  14.722  1.00  0.00    -0.168 F 
ATOM     28  F   UNL     1      43.586 132.037  16.546  1.00  0.00    -0.168 F 
ENDBRANCH  22  25
ENDBRANCH   3  22
TORSDOF 4
ENDMDL
MODEL 4
REMARK VINA RESULT:      -5.7      1.129      1.597
REMARK SMILES Cc1ccc(-c2ccc([O-])cc2)c2cn(C(=O)NC3(C(F)(F)F)CC3)nc12
REMARK SMILES IDX 16 1 17 2 18 3 15 5 2 6 3 7 27 8 4 9 26 10 13 11 5 12 14 13
REMARK SMILES IDX 1 14 6 15 7 16 12 17 8 18 11 19 9 20 10 21 19 22 24 23 25 24
REMARK SMILES IDX 20 25 21 26 22 27 23 28
REMARK H PARENT 18 4
ROOT
ATOM      1  C   UNL     1      45.179 131.090  19.003  1.00  0.00     0.342 C 
ATOM      2  O   UNL     1      45.589 132.272  18.840  1.00  0.00    -0.246 OA
ATOM      3  N   UNL     1      44.970 130.241  17.866  1.00  0.00    -0.322 N 
ATOM      4  H   UNL     1      44.663 129.253  18.011  1.00  0.00     0.166 HD
ENDROOT
BRANCH   1   5
ATOM      5  N   UNL     1      44.918 130.604  20.326  1.00  0.00    -0.189 N 
ATOM      6  C   UNL     1      43.821 130.886  23.647  1.00  0.00    -0.023 A 
ATOM      7  C   UNL     1      43.738 129.853  24.604  1.00  0.00     0.006 A 
ATOM      8  C   UNL     1      44.317 130.553  22.384  1.00  0.00     0.096 A 
ATOM      9  C   UNL     1      44.169 128.544  24.291  1.00  0.00     0.010 A 
ATOM     10  N   UNL     1      44.432 131.354  21.309  1.00  0.00    -0.164 NA
ATOM     11  C   UNL     1      44.737 129.283  22.080  1.00  0.00     0.029 A 
ATOM     12  C   UNL     1      44.688 128.237  23.013  1.00  0.00    -0.007 A 
ATOM     13  C   UNL     1      45.112 129.334  20.755  1.00  0.00     0.129 A 
ATOM     14  C   UNL     1      43.324 132.268  23.950  1.00  0.00     0.047 C 
BRANCH  12  15
ATOM     15  C   UNL     1      45.147 126.866  22.690  1.00  0.00    -0.018 A 
ATOM     16  C   UNL     1      46.483 126.635  22.319  1.00  0.00     0.008 A 
ATOM     17  C   UNL     1      44.249 125.783  22.723  1.00  0.00     0.008 A 
ATOM     18  C   UNL     1      46.916 125.343  22.006  1.00  0.00    -0.008 A 
ATOM     19  C   UNL     1      44.685 124.493  22.409  1.00  0.00    -0.008 A 
ATOM     20  C   UNL     1      46.019 124.272  22.051  1.00  0.00    -0.109 A 
ATOM     21  O   UNL     1      46.451 122.989  21.739  1.00  0.00    -0.872 OA
ENDBRANCH  12  15
ENDBRANCH   1   5
BRANCH   3  22
ATOM     22  C   UNL     1      45.281 130.671  16.503  1.00  0.00     0.137 C 
ATOM     23  C   UNL     1      44.051 130.927  15.644  1.00  0.00     0.041 C 
ATOM     24  C   UNL     1      44.880 132.099  16.163  1.00  0.00     0.041 C 
BRANCH  22  25
ATOM     25  C   UNL     1      46.507 130.044  15.824  1.00  0.00     0.411 C 
ATOM     26  F   UNL     1      46.094 129.085  14.917  1.00  0.00    -0.168 F 
ATOM     27  F   UNL     1      47.205 131.028  15.147  1.00  0.00    -0.168 F 
ATOM     28  F   UNL     1      47.354 129.448  16.743  1.00  0.00    -0.168 F 
ENDBRANCH  22  25
ENDBRANCH   3  22
TORSDOF 4
ENDMDL
MODEL 5
REMARK VINA RESULT:      -5.5      1.152      1.829
REMARK SMILES Cc1ccc(-c2ccc([O-])cc2)c2cn(C(=O)NC3(C(F)(F)F)CC3)nc12
REMARK SMILES IDX 16 1 17 2 18 3 15 5 2 6 3 7 27 8 4 9 26 10 13 11 5 12 14 13
REMARK SMILES IDX 1 14 6 15 7 16 12 17 8 18 11 19 9 20 10 21 19 22 24 23 25 24
REMARK SMILES IDX 20 25 21 26 22 27 23 28
REMARK H PARENT 18 4
ROOT
ATOM      1  C   UNL     1      45.520 130.879  19.184  1.00  0.00     0.342 C 
ATOM      2  O   UNL     1      46.373 131.805  19.094  1.00  0.00    -0.246 OA
ATOM      3  N   UNL     1      44.918 130.342  17.997  1.00  0.00    -0.322 N 
ATOM      4  H   UNL     1      44.239 129.552  18.078  1.00  0.00     0.166 HD
ENDROOT
BRANCH   1   5
ATOM      5  N   UNL     1      45.154 130.372  20.474  1.00  0.00    -0.189 N 
ATOM      6  C   UNL     1      43.771 130.596  23.691  1.00  0.00    -0.023 A 
ATOM      7  C   UNL     1      43.621 129.549  24.624  1.00  0.00     0.006 A 
ATOM      8  C   UNL     1      44.378 130.286  22.471  1.00  0.00     0.096 A 
ATOM      9  C   UNL     1      44.096 128.250  24.334  1.00  0.00     0.010 A 
ATOM     10  N   UNL     1      44.574 131.103  21.420  1.00  0.00    -0.164 NA
ATOM     11  C   UNL     1      44.841 129.026  22.189  1.00  0.00     0.029 A 
ATOM     12  C   UNL     1      44.727 127.967  23.102  1.00  0.00    -0.007 A 
ATOM     13  C   UNL     1      45.328 129.099  20.902  1.00  0.00     0.129 A 
ATOM     14  C   UNL     1      43.230 131.967  23.967  1.00  0.00     0.047 C 
BRANCH  12  15
ATOM     15  C   UNL     1      45.231 126.606  22.803  1.00  0.00    -0.018 A 
ATOM     16  C   UNL     1      44.355 125.507  22.816  1.00  0.00     0.008 A 
ATOM     17  C   UNL     1      46.594 126.391  22.528  1.00  0.00     0.008 A 
ATOM     18  C   UNL     1      44.831 124.221  22.542  1.00  0.00    -0.008 A 
ATOM     19  C   UNL     1      47.066 125.104  22.255  1.00  0.00    -0.008 A 
ATOM     20  C   UNL     1      46.184 124.019  22.261  1.00  0.00    -0.109 A 
ATOM     21  O   UNL     1      46.655 122.740  21.989  1.00  0.00    -0.872 OA
ENDBRANCH  12  15
ENDBRANCH   1   5
BRANCH   3  22
ATOM     22  C   UNL     1      45.305 130.783  16.658  1.00  0.00     0.137 C 
ATOM     23  C   UNL     1      44.147 131.320  15.830  1.00  0.00     0.041 C 
ATOM     24  C   UNL     1      45.186 132.279  16.404  1.00  0.00     0.041 C 
BRANCH  22  25
ATOM     25  C   UNL     1      46.388 129.973  15.930  1.00  0.00     0.411 C 
ATOM     26  F   UNL     1      47.265 129.438  16.855  1.00  0.00    -0.168 F 
ATOM     27  F   UNL     1      45.790 128.940  15.230  1.00  0.00    -0.168 F 
ATOM     28  F   UNL     1      47.105 130.757  15.042  1.00  0.00    -0.168 F 
ENDBRANCH  22  25
ENDBRANCH   3  22
TORSDOF 4
ENDMDL
MODEL 6
REMARK VINA RESULT:      -5.4      4.048      7.031
REMARK SMILES Cc1ccc(-c2ccc([O-])cc2)c2cn(C(=O)NC3(C(F)(F)F)CC3)nc12
REMARK SMILES IDX 16 1 17 2 18 3 15 5 2 6 3 7 27 8 4 9 26 10 13 11 5 12 14 13
REMARK SMILES IDX 1 14 6 15 7 16 12 17 8 18 11 19 9 20 10 21 19 22 24 23 25 24
REMARK SMILES IDX 20 25 21 26 22 27 23 28
REMARK H PARENT 18 4
ROOT
ATOM      1  C   UNL     1      45.205 127.374  23.110  1.00  0.00     0.342 C 
ATOM      2  O   UNL     1      45.387 127.141  24.336  1.00  0.00    -0.246 OA
ATOM      3  N   UNL     1      45.619 126.413  22.128  1.00  0.00    -0.322 N 
ATOM      4  H   UNL     1      45.434 126.598  21.117  1.00  0.00     0.166 HD
ENDROOT
BRANCH   1   5
ATOM      5  N   UNL     1      44.591 128.604  22.703  1.00  0.00    -0.189 N 
ATOM      6  C   UNL     1      42.713 131.525  23.204  1.00  0.00    -0.023 A 
ATOM      7  C   UNL     1      42.474 132.551  22.267  1.00  0.00     0.006 A 
ATOM      8  C   UNL     1      43.470 130.431  22.779  1.00  0.00     0.096 A 
ATOM      9  C   UNL     1      42.965 132.450  20.946  1.00  0.00     0.010 A 
ATOM     10  N   UNL     1      43.866 129.372  23.509  1.00  0.00    -0.164 NA
ATOM     11  C   UNL     1      43.946 130.331  21.496  1.00  0.00     0.029 A 
ATOM     12  C   UNL     1      43.711 131.322  20.533  1.00  0.00    -0.007 A 
ATOM     13  C   UNL     1      44.668 129.157  21.469  1.00  0.00     0.129 A 
ATOM     14  C   UNL     1      42.237 131.641  24.622  1.00  0.00     0.047 C 
BRANCH  12  15
ATOM     15  C   UNL     1      44.218 131.214  19.146  1.00  0.00    -0.018 A 
ATOM     16  C   UNL     1      45.438 130.566  18.885  1.00  0.00     0.008 A 
ATOM     17  C   UNL     1      43.502 131.780  18.075  1.00  0.00     0.008 A 
ATOM     18  C   UNL     1      45.922 130.470  17.578  1.00  0.00    -0.008 A 
ATOM     19  C   UNL     1      43.990 131.682  16.768  1.00  0.00    -0.008 A 
ATOM     20  C   UNL     1      45.199 131.027  16.519  1.00  0.00    -0.109 A 
ATOM     21  O   UNL     1      45.683 130.930  15.220  1.00  0.00    -0.872 OA
ENDBRANCH  12  15
ENDBRANCH   1   5
BRANCH   3  22
ATOM     22  C   UNL     1      46.193 125.119  22.496  1.00  0.00     0.137 C 
ATOM     23  C   UNL     1      47.623 124.923  22.017  1.00  0.00     0.041 C 
ATOM     24  C   UNL     1      47.340 125.175  23.495  1.00  0.00     0.041 C 
BRANCH  22  25
ATOM     25  C   UNL     1      45.260 123.899  22.479  1.00  0.00     0.411 C 
ATOM     26  F   UNL     1      43.990 124.294  22.102  1.00  0.00    -0.168 F 
ATOM     27  F   UNL     1      45.732 122.978  21.561  1.00  0.00    -0.168 F 
ATOM     28  F   UNL     1      45.185 123.292  23.721  1.00  0.00    -0.168 F 
ENDBRANCH  22  25
ENDBRANCH   3  22
TORSDOF 4
ENDMDL
MODEL 7
REMARK VINA RESULT:      -5.4      4.239      7.104
REMARK SMILES Cc1ccc(-c2ccc([O-])cc2)c2cn(C(=O)NC3(C(F)(F)F)CC3)nc12
REMARK SMILES IDX 16 1 17 2 18 3 15 5 2 6 3 7 27 8 4 9 26 10 13 11 5 12 14 13
REMARK SMILES IDX 1 14 6 15 7 16 12 17 8 18 11 19 9 20 10 21 19 22 24 23 25 24
REMARK SMILES IDX 20 25 21 26 22 27 23 28
REMARK H PARENT 18 4
ROOT
ATOM      1  C   UNL     1      45.840 126.965  22.847  1.00  0.00     0.342 C 
ATOM      2  O   UNL     1      45.473 126.317  23.866  1.00  0.00    -0.246 OA
ATOM      3  N   UNL     1      46.910 126.468  22.030  1.00  0.00    -0.322 N 
ATOM      4  H   UNL     1      47.185 126.992  21.169  1.00  0.00     0.166 HD
ENDROOT
BRANCH   1   5
ATOM      5  N   UNL     1      45.190 128.198  22.515  1.00  0.00    -0.189 N 
ATOM      6  C   UNL     1      43.242 131.036  23.195  1.00  0.00    -0.023 A 
ATOM      7  C   UNL     1      42.968 132.106  22.318  1.00  0.00     0.006 A 
ATOM      8  C   UNL     1      44.023 129.988  22.703  1.00  0.00     0.096 A 
ATOM      9  C   UNL     1      43.448 132.092  20.989  1.00  0.00     0.010 A 
ATOM     10  N   UNL     1      44.454 128.901  23.369  1.00  0.00    -0.164 NA
ATOM     11  C   UNL     1      44.489 129.972  21.412  1.00  0.00     0.029 A 
ATOM     12  C   UNL     1      44.218 131.009  20.508  1.00  0.00    -0.007 A 
ATOM     13  C   UNL     1      45.240 128.821  21.314  1.00  0.00     0.129 A 
ATOM     14  C   UNL     1      42.778 131.061  24.621  1.00  0.00     0.047 C 
BRANCH  12  15
ATOM     15  C   UNL     1      44.714 130.992  19.112  1.00  0.00    -0.018 A 
ATOM     16  C   UNL     1      45.824 130.202  18.764  1.00  0.00     0.008 A 
ATOM     17  C   UNL     1      44.101 131.783  18.124  1.00  0.00     0.008 A 
ATOM     18  C   UNL     1      46.298 130.191  17.450  1.00  0.00    -0.008 A 
ATOM     19  C   UNL     1      44.578 131.769  16.810  1.00  0.00    -0.008 A 
ATOM     20  C   UNL     1      45.677 130.973  16.472  1.00  0.00    -0.109 A 
ATOM     21  O   UNL     1      46.150 130.960  15.166  1.00  0.00    -0.872 OA
ENDBRANCH  12  15
ENDBRANCH   1   5
BRANCH   3  22
ATOM     22  C   UNL     1      47.562 125.185  22.292  1.00  0.00     0.137 C 
ATOM     23  C   UNL     1      46.632 123.987  22.165  1.00  0.00     0.041 C 
ATOM     24  C   UNL     1      47.683 124.258  21.092  1.00  0.00     0.041 C 
BRANCH  22  25
ATOM     25  C   UNL     1      48.631 125.145  23.393  1.00  0.00     0.411 C 
ATOM     26  F   UNL     1      48.664 126.362  24.050  1.00  0.00    -0.168 F 
ATOM     27  F   UNL     1      48.311 124.154  24.303  1.00  0.00    -0.168 F 
ATOM     28  F   UNL     1      49.890 124.887  22.877  1.00  0.00    -0.168 F 
ENDBRANCH  22  25
ENDBRANCH   3  22
TORSDOF 4
ENDMDL
MODEL 8
REMARK VINA RESULT:      -5.4      1.750      2.530
REMARK SMILES Cc1ccc(-c2ccc([O-])cc2)c2cn(C(=O)NC3(C(F)(F)F)CC3)nc12
REMARK SMILES IDX 16 1 17 2 18 3 15 5 2 6 3 7 27 8 4 9 26 10 13 11 5 12 14 13
REMARK SMILES IDX 1 14 6 15 7 16 12 17 8 18 11 19 9 20 10 21 19 22 24 23 25 24
REMARK SMILES IDX 20 25 21 26 22 27 23 28
REMARK H PARENT 18 4
ROOT
ATOM      1  C   UNL     1      45.005 131.332  17.734  1.00  0.00     0.342 C 
ATOM      2  O   UNL     1      45.648 132.353  17.365  1.00  0.00    -0.246 OA
ATOM      3  N   UNL     1      44.875 130.209  16.849  1.00  0.00    -0.322 N 
ATOM      4  H   UNL     1      44.370 129.355  17.174  1.00  0.00     0.166 HD
ENDROOT
BRANCH   1   5
ATOM      5  N   UNL     1      44.401 131.302  19.033  1.00  0.00    -0.189 N 
ATOM      6  C   UNL     1      42.179 132.391  21.521  1.00  0.00    -0.023 A 
ATOM      7  C   UNL     1      41.976 131.810  22.790  1.00  0.00     0.006 A 
ATOM      8  C   UNL     1      43.141 131.806  20.694  1.00  0.00     0.096 A 
ATOM      9  C   UNL     1      42.742 130.698  23.205  1.00  0.00     0.010 A 
ATOM     10  N   UNL     1      43.462 132.153  19.434  1.00  0.00    -0.164 NA
ATOM     11  C   UNL     1      43.887 130.727  21.097  1.00  0.00     0.029 A 
ATOM     12  C   UNL     1      43.725 130.137  22.359  1.00  0.00    -0.007 A 
ATOM     13  C   UNL     1      44.683 130.414  20.016  1.00  0.00     0.129 A 
ATOM     14  C   UNL     1      41.342 133.543  21.050  1.00  0.00     0.047 C 
BRANCH  12  15
ATOM     15  C   UNL     1      44.532 128.975  22.799  1.00  0.00    -0.018 A 
ATOM     16  C   UNL     1      44.637 128.662  24.165  1.00  0.00     0.008 A 
ATOM     17  C   UNL     1      45.225 128.188  21.861  1.00  0.00     0.008 A 
ATOM     18  C   UNL     1      45.405 127.572  24.583  1.00  0.00    -0.008 A 
ATOM     19  C   UNL     1      45.992 127.098  22.283  1.00  0.00    -0.008 A 
ATOM     20  C   UNL     1      46.082 126.789  23.644  1.00  0.00    -0.109 A 
ATOM     21  O   UNL     1      46.845 125.705  24.061  1.00  0.00    -0.872 OA
ENDBRANCH  12  15
ENDBRANCH   1   5
BRANCH   3  22
ATOM     22  C   UNL     1      45.524 130.168  15.540  1.00  0.00     0.137 C 
ATOM     23  C   UNL     1      47.036 130.009  15.609  1.00  0.00     0.041 C 
ATOM     24  C   UNL     1      46.163 128.837  15.170  1.00  0.00     0.041 C 
BRANCH  22  25
ATOM     25  C   UNL     1      44.950 131.067  14.435  1.00  0.00     0.411 C 
ATOM     26  F   UNL     1      45.713 130.935  13.289  1.00  0.00    -0.168 F 
ATOM     27  F   UNL     1      43.654 130.673  14.156  1.00  0.00    -0.168 F 
ATOM     28  F   UNL     1      44.941 132.399  14.810  1.00  0.00    -0.168 F 
ENDBRANCH  22  25
ENDBRANCH   3  22
TORSDOF 4
ENDMDL
MODEL 9
REMARK VINA RESULT:      -5.4      1.346      1.948
REMARK SMILES Cc1ccc(-c2ccc([O-])cc2)c2cn(C(=O)NC3(C(F)(F)F)CC3)nc12
REMARK SMILES IDX 16 1 17 2 18 3 15 5 2 6 3 7 27 8 4 9 26 10 13 11 5 12 14 13
REMARK SMILES IDX 1 14 6 15 7 16 12 17 8 18 11 19 9 20 10 21 19 22 24 23 25 24
REMARK SMILES IDX 20 25 21 26 22 27 23 28
REMARK H PARENT 18 4
ROOT
ATOM      1  C   UNL     1      45.458 130.599  19.297  1.00  0.00     0.342 C 
ATOM      2  O   UNL     1      46.658 130.961  19.150  1.00  0.00    -0.246 OA
ATOM      3  N   UNL     1      44.575 130.571  18.166  1.00  0.00    -0.322 N 
ATOM      4  H   UNL     1      43.593 130.237  18.289  1.00  0.00     0.166 HD
ENDROOT
BRANCH   1   5
ATOM      5  N   UNL     1      44.982 130.224  20.596  1.00  0.00    -0.189 N 
ATOM      6  C   UNL     1      43.197 130.706  23.577  1.00  0.00    -0.023 A 
ATOM      7  C   UNL     1      43.027 129.776  24.624  1.00  0.00     0.006 A 
ATOM      8  C   UNL     1      43.976 130.310  22.487  1.00  0.00     0.096 A 
ATOM      9  C   UNL     1      43.649 128.509  24.572  1.00  0.00     0.010 A 
ATOM     10  N   UNL     1      44.226 131.003  21.362  1.00  0.00    -0.164 NA
ATOM     11  C   UNL     1      44.582 129.080  22.436  1.00  0.00     0.029 A 
ATOM     12  C   UNL     1      44.451 128.140  23.468  1.00  0.00    -0.007 A 
ATOM     13  C   UNL     1      45.216 129.041  21.213  1.00  0.00     0.129 A 
ATOM     14  C   UNL     1      42.504 132.036  23.599  1.00  0.00     0.047 C 
BRANCH  12  15
ATOM     15  C   UNL     1      45.109 126.814  23.418  1.00  0.00    -0.018 A 
ATOM     16  C   UNL     1      44.412 125.694  22.932  1.00  0.00     0.008 A 
ATOM     17  C   UNL     1      46.429 126.650  23.879  1.00  0.00     0.008 A 
ATOM     18  C   UNL     1      45.028 124.440  22.892  1.00  0.00    -0.008 A 
ATOM     19  C   UNL     1      47.042 125.395  23.837  1.00  0.00    -0.008 A 
ATOM     20  C   UNL     1      46.342 124.290  23.343  1.00  0.00    -0.109 A 
ATOM     21  O   UNL     1      46.953 123.042  23.302  1.00  0.00    -0.872 OA
ENDBRANCH  12  15
ENDBRANCH   1   5
BRANCH   3  22
ATOM     22  C   UNL     1      45.030 130.884  16.812  1.00  0.00     0.137 C 
ATOM     23  C   UNL     1      44.066 131.763  16.028  1.00  0.00     0.041 C 
ATOM     24  C   UNL     1      45.371 132.346  16.562  1.00  0.00     0.041 C 
BRANCH  22  25
ATOM     25  C   UNL     1      45.782 129.787  16.045  1.00  0.00     0.411 C 
ATOM     26  F   UNL     1      45.894 130.147  14.714  1.00  0.00    -0.168 F 
ATOM     27  F   UNL     1      47.050 129.646  16.578  1.00  0.00    -0.168 F 
ATOM     28  F   UNL     1      45.129 128.569  16.120  1.00  0.00    -0.168 F 
ENDBRANCH  22  25
ENDBRANCH   3  22
TORSDOF 4
ENDMDL


