REMARK SMILES Cc1ccc(-c2ccc([O-])cc2)c2c[n-]nc12
REMARK SMILES IDX 1 1 2 2 3 3 4 4 5 5 13 6 14 7 15 8 16 9 17 10 6 11 7 12
REMARK SMILES IDX 12 13 8 14 11 15 9 16 10 17
REMARK H PARENT
ROOT
ATOM      1  C   UNL     1      -0.547  -3.635   1.477  1.00  0.00     0.046 C 
ATOM      2  C   UNL     1      -0.334  -2.260   0.918  1.00  0.00    -0.027 A 
ATOM      3  C   UNL     1      -0.304  -1.126   1.758  1.00  0.00     0.006 A 
ATOM      4  C   UNL     1      -0.059   0.159   1.226  1.00  0.00     0.010 A 
ATOM      5  C   UNL     1       0.168   0.340  -0.157  1.00  0.00    -0.011 A 
ATOM      6  C   UNL     1       0.151  -0.812  -0.957  1.00  0.00    -0.014 A 
ATOM      7  C   UNL     1       0.388  -1.023  -2.298  1.00  0.00    -0.113 A 
ATOM      8  N   UNL     1       0.281  -2.349  -2.544  1.00  0.00    -0.581 NA
ATOM      9  N   UNL     1      -0.007  -2.983  -1.412  1.00  0.00    -0.367 NA
ATOM     10  C   UNL     1      -0.084  -2.056  -0.441  1.00  0.00     0.050 A 
ENDROOT
BRANCH   5  11
ATOM     11  C   UNL     1       0.418   1.689  -0.715  1.00  0.00    -0.018 A 
ATOM     12  C   UNL     1       1.340   2.552  -0.097  1.00  0.00     0.008 A 
ATOM     13  C   UNL     1      -0.280   2.134  -1.852  1.00  0.00     0.008 A 
ATOM     14  C   UNL     1       1.570   3.830  -0.617  1.00  0.00    -0.008 A 
ATOM     15  C   UNL     1      -0.047   3.413  -2.369  1.00  0.00    -0.008 A 
ATOM     16  C   UNL     1       0.878   4.260  -1.753  1.00  0.00    -0.109 A 
ATOM     17  O   UNL     1       1.109   5.529  -2.268  1.00  0.00    -0.872 OA
ENDBRANCH   5  11
TORSDOF 1


