REMARK SMILES Cc1ccc(Nc2[n-]cnc2[N+](=O)[O-])c(-c2ccc3c(c2)[N-]C(=O)C3)c1
REMARK SMILES IDX 6 1 5 3 2 4 3 5 26 6 4 7 15 8 1 9 16 10 17 11 21 12 18 13
REMARK SMILES IDX 20 14 19 15 22 16 25 17 23 18 24 19 7 20 8 21 11 22 9 23
REMARK SMILES IDX 10 24 12 25 13 26 14 27
REMARK H PARENT 6 2
ROOT
ATOM      1  N   UNL     1      -0.899   1.193  -1.690  1.00  0.00    -0.406 N 
ATOM      2  H   UNL     1      -1.059   1.258  -2.719  1.00  0.00     0.075 HD
ENDROOT
BRANCH   1   3
ATOM      3  C   UNL     1      -1.760   0.334  -0.924  1.00  0.00    -0.009 A 
ATOM      4  C   UNL     1      -3.539  -1.247   0.582  1.00  0.00    -0.050 A 
ATOM      5  C   UNL     1      -4.000  -0.520  -0.522  1.00  0.00     0.004 A 
ATOM      6  C   UNL     1      -2.175  -1.222   0.904  1.00  0.00     0.013 A 
ATOM      7  C   UNL     1      -3.117   0.265  -1.267  1.00  0.00     0.011 A 
ATOM      8  C   UNL     1      -1.273  -0.446   0.155  1.00  0.00    -0.009 A 
ATOM      9  C   UNL     1      -4.482  -2.116   1.360  1.00  0.00     0.044 C 
BRANCH   8  10
ATOM     10  C   UNL     1       0.171  -0.510   0.485  1.00  0.00    -0.019 A 
ATOM     11  C   UNL     1       0.610  -0.261   1.808  1.00  0.00     0.009 A 
ATOM     12  C   UNL     1       1.119  -0.804  -0.519  1.00  0.00    -0.007 A 
ATOM     13  C   UNL     1       1.978  -0.279   2.122  1.00  0.00     0.003 A 
ATOM     14  C   UNL     1       2.470  -0.812  -0.181  1.00  0.00    -0.130 A 
ATOM     15  C   UNL     1       2.891  -0.554   1.105  1.00  0.00    -0.057 A 
ATOM     16  N   UNL     1       3.544  -1.064  -1.071  1.00  0.00    -0.626 NA
ATOM     17  C   UNL     1       4.375  -0.614   1.192  1.00  0.00     0.089 C 
ATOM     18  C   UNL     1       4.694  -0.942  -0.235  1.00  0.00     0.059 C 
ATOM     19  O   UNL     1       5.864  -1.099  -0.671  1.00  0.00    -0.320 OA
ENDBRANCH   8  10
ENDBRANCH   1   3
BRANCH   1  20
ATOM     20  C   UNL     1      -0.019   2.143  -1.072  1.00  0.00     0.104 A 
ATOM     21  N   UNL     1      -0.177   2.605   0.180  1.00  0.00    -0.321 NA
ATOM     22  C   UNL     1       1.085   2.738  -1.644  1.00  0.00     0.375 A 
ATOM     23  C   UNL     1       0.847   3.473   0.332  1.00  0.00     0.282 A 
ATOM     24  N   UNL     1       1.641   3.581  -0.757  1.00  0.00    -0.042 NA
BRANCH  22  25
ATOM     25  N   UNL     1       1.642   2.481  -2.938  1.00  0.00    -0.023 N 
ATOM     26  O   UNL     1       1.222   1.543  -3.645  1.00  0.00    -0.358 OA
ATOM     27  O   UNL     1       2.721   3.216  -3.371  1.00  0.00    -0.358 OA
ENDBRANCH  22  25
ENDBRANCH   1  20
TORSDOF 4


