MODEL 1
REMARK VINA RESULT:     -10.6      0.000      0.000
REMARK SMILES Cn1cc2ccc(-c3ccc4[nH]ccc4c3)cc2[nH+]1
REMARK SMILES IDX 1 1 2 2 3 3 4 4 5 5 6 6 7 7 17 8 18 9 19 10 8 12 9 13 16 14
REMARK SMILES IDX 10 15 15 16 11 17 14 18 12 19 13 20
REMARK H PARENT 19 11 12 21
ROOT
ATOM      1  C   UNL     1      48.664 129.316  13.279  1.00  0.00     0.223 C 
ATOM      2  N   UNL     1      47.596 129.936  14.053  1.00  0.00    -0.165 N 
ATOM      3  C   UNL     1      46.533 130.603  13.541  1.00  0.00     0.165 A 
ATOM      4  C   UNL     1      45.725 130.955  14.602  1.00  0.00     0.070 A 
ATOM      5  C   UNL     1      44.518 131.640  14.664  1.00  0.00     0.017 A 
ATOM      6  C   UNL     1      43.937 131.823  15.933  1.00  0.00     0.010 A 
ATOM      7  C   UNL     1      44.567 131.319  17.106  1.00  0.00    -0.012 A 
ATOM      8  C   UNL     1      45.795 130.621  16.991  1.00  0.00     0.091 A 
ATOM      9  C   UNL     1      46.340 130.464  15.720  1.00  0.00     0.236 A 
ATOM     10  N   UNL     1      47.477 129.840  15.372  1.00  0.00    -0.124 N 
ATOM     11  H   UNL     1      48.148 129.351  16.008  1.00  0.00     0.488 HD
ENDROOT
BRANCH   7  12
ATOM     12  C   UNL     1      43.942 131.519  18.437  1.00  0.00    -0.017 A 
ATOM     13  C   UNL     1      42.599 131.976  18.539  1.00  0.00     0.011 A 
ATOM     14  C   UNL     1      44.676 131.256  19.619  1.00  0.00     0.019 A 
ATOM     15  C   UNL     1      41.996 132.169  19.795  1.00  0.00     0.027 A 
ATOM     16  C   UNL     1      44.046 131.458  20.844  1.00  0.00    -0.000 A 
ATOM     17  C   UNL     1      42.754 131.898  20.930  1.00  0.00     0.045 A 
ATOM     18  C   UNL     1      44.508 131.281  22.129  1.00  0.00     0.028 A 
ATOM     19  N   UNL     1      42.373 132.011  22.214  1.00  0.00    -0.361 N 
ATOM     20  C   UNL     1      43.443 131.635  22.951  1.00  0.00     0.083 A 
ATOM     21  H   UNL     1      41.442 132.323  22.572  1.00  0.00     0.166 HD
ENDBRANCH   7  12
TORSDOF 1
ENDMDL
MODEL 2
REMARK VINA RESULT:     -10.0      1.263      7.016
REMARK SMILES Cn1cc2ccc(-c3ccc4[nH]ccc4c3)cc2[nH+]1
REMARK SMILES IDX 1 1 2 2 3 3 4 4 5 5 6 6 7 7 17 8 18 9 19 10 8 12 9 13 16 14
REMARK SMILES IDX 10 15 15 16 11 17 14 18 12 19 13 20
REMARK H PARENT 19 11 12 21
ROOT
ATOM      1  C   UNL     1      44.045 131.448  24.055  1.00  0.00     0.223 C 
ATOM      2  N   UNL     1      43.995 131.432  22.599  1.00  0.00    -0.165 N 
ATOM      3  C   UNL     1      42.913 131.732  21.841  1.00  0.00     0.165 A 
ATOM      4  C   UNL     1      43.312 131.679  20.522  1.00  0.00     0.070 A 
ATOM      5  C   UNL     1      42.626 131.896  19.334  1.00  0.00     0.017 A 
ATOM      6  C   UNL     1      43.349 131.769  18.132  1.00  0.00     0.010 A 
ATOM      7  C   UNL     1      44.733 131.435  18.142  1.00  0.00    -0.012 A 
ATOM      8  C   UNL     1      45.390 131.227  19.380  1.00  0.00     0.091 A 
ATOM      9  C   UNL     1      44.641 131.357  20.546  1.00  0.00     0.236 A 
ATOM     10  N   UNL     1      45.048 131.215  21.818  1.00  0.00    -0.124 N 
ATOM     11  H   UNL     1      46.014 130.990  22.150  1.00  0.00     0.488 HD
ENDROOT
BRANCH   7  12
ATOM     12  C   UNL     1      45.482 131.306  16.867  1.00  0.00    -0.017 A 
ATOM     13  C   UNL     1      45.562 132.403  15.966  1.00  0.00     0.011 A 
ATOM     14  C   UNL     1      46.124 130.089  16.535  1.00  0.00     0.019 A 
ATOM     15  C   UNL     1      46.269 132.293  14.755  1.00  0.00     0.027 A 
ATOM     16  C   UNL     1      46.816 130.017  15.328  1.00  0.00    -0.000 A 
ATOM     17  C   UNL     1      46.886 131.079  14.470  1.00  0.00     0.045 A 
ATOM     18  C   UNL     1      47.525 128.980  14.762  1.00  0.00     0.028 A 
ATOM     19  N   UNL     1      47.607 130.765  13.380  1.00  0.00    -0.361 N 
ATOM     20  C   UNL     1      48.000 129.482  13.555  1.00  0.00     0.083 A 
ATOM     21  H   UNL     1      47.823 131.382  12.565  1.00  0.00     0.166 HD
ENDBRANCH   7  12
TORSDOF 1
ENDMDL
MODEL 3
REMARK VINA RESULT:      -9.4      1.146      7.228
REMARK SMILES Cn1cc2ccc(-c3ccc4[nH]ccc4c3)cc2[nH+]1
REMARK SMILES IDX 1 1 2 2 3 3 4 4 5 5 6 6 7 7 17 8 18 9 19 10 8 12 9 13 16 14
REMARK SMILES IDX 10 15 15 16 11 17 14 18 12 19 13 20
REMARK H PARENT 19 11 12 21
ROOT
ATOM      1  C   UNL     1      41.768 132.206  23.519  1.00  0.00     0.223 C 
ATOM      2  N   UNL     1      42.731 131.879  22.476  1.00  0.00    -0.165 N 
ATOM      3  C   UNL     1      43.879 131.180  22.651  1.00  0.00     0.165 A 
ATOM      4  C   UNL     1      44.452 131.020  21.407  1.00  0.00     0.070 A 
ATOM      5  C   UNL     1      45.619 130.390  20.994  1.00  0.00     0.017 A 
ATOM      6  C   UNL     1      45.912 130.399  19.617  1.00  0.00     0.010 A 
ATOM      7  C   UNL     1      45.038 131.027  18.686  1.00  0.00    -0.012 A 
ATOM      8  C   UNL     1      43.856 131.652  19.154  1.00  0.00     0.091 A 
ATOM      9  C   UNL     1      43.603 131.627  20.523  1.00  0.00     0.236 A 
ATOM     10  N   UNL     1      42.554 132.142  21.186  1.00  0.00    -0.124 N 
ATOM     11  H   UNL     1      41.735 132.647  20.776  1.00  0.00     0.488 HD
ENDROOT
BRANCH   7  12
ATOM     12  C   UNL     1      45.360 131.027  17.237  1.00  0.00    -0.017 A 
ATOM     13  C   UNL     1      44.594 131.809  16.330  1.00  0.00     0.011 A 
ATOM     14  C   UNL     1      46.434 130.248  16.744  1.00  0.00     0.019 A 
ATOM     15  C   UNL     1      44.891 131.817  14.955  1.00  0.00     0.027 A 
ATOM     16  C   UNL     1      46.699 130.281  15.377  1.00  0.00    -0.000 A 
ATOM     17  C   UNL     1      45.956 131.038  14.514  1.00  0.00     0.045 A 
ATOM     18  C   UNL     1      47.667 129.640  14.636  1.00  0.00     0.028 A 
ATOM     19  N   UNL     1      46.406 130.905  13.255  1.00  0.00    -0.361 N 
ATOM     20  C   UNL     1      47.452 130.051  13.325  1.00  0.00     0.083 A 
ATOM     21  H   UNL     1      46.028 131.366  12.397  1.00  0.00     0.166 HD
ENDBRANCH   7  12
TORSDOF 1
ENDMDL
MODEL 4
REMARK VINA RESULT:      -9.2      0.864      1.617
REMARK SMILES Cn1cc2ccc(-c3ccc4[nH]ccc4c3)cc2[nH+]1
REMARK SMILES IDX 1 1 2 2 3 3 4 4 5 5 6 6 7 7 17 8 18 9 19 10 8 12 9 13 16 14
REMARK SMILES IDX 10 15 15 16 11 17 14 18 12 19 13 20
REMARK H PARENT 19 11 12 21
ROOT
ATOM      1  C   UNL     1      48.641 129.235  12.751  1.00  0.00     0.223 C 
ATOM      2  N   UNL     1      47.778 129.842  13.755  1.00  0.00    -0.165 N 
ATOM      3  C   UNL     1      46.787 130.734  13.511  1.00  0.00     0.165 A 
ATOM      4  C   UNL     1      46.165 130.990  14.715  1.00  0.00     0.070 A 
ATOM      5  C   UNL     1      45.098 131.813  15.053  1.00  0.00     0.017 A 
ATOM      6  C   UNL     1      44.695 131.835  16.402  1.00  0.00     0.010 A 
ATOM      7  C   UNL     1      45.357 131.037  17.378  1.00  0.00    -0.012 A 
ATOM      8  C   UNL     1      46.437 130.209  16.982  1.00  0.00     0.091 A 
ATOM      9  C   UNL     1      46.810 130.218  15.641  1.00  0.00     0.236 A 
ATOM     10  N   UNL     1      47.787 129.518  15.043  1.00  0.00    -0.124 N 
ATOM     11  H   UNL     1      48.435 128.830  15.491  1.00  0.00     0.488 HD
ENDROOT
BRANCH   7  12
ATOM     12  C   UNL     1      44.919 131.069  18.795  1.00  0.00    -0.017 A 
ATOM     13  C   UNL     1      45.683 130.412  19.799  1.00  0.00     0.011 A 
ATOM     14  C   UNL     1      43.738 131.757  19.163  1.00  0.00     0.019 A 
ATOM     15  C   UNL     1      45.278 130.437  21.145  1.00  0.00     0.027 A 
ATOM     16  C   UNL     1      43.369 131.761  20.506  1.00  0.00    -0.000 A 
ATOM     17  C   UNL     1      44.111 131.125  21.462  1.00  0.00     0.045 A 
ATOM     18  C   UNL     1      42.292 132.343  21.137  1.00  0.00     0.028 A 
ATOM     19  N   UNL     1      43.554 131.274  22.676  1.00  0.00    -0.361 N 
ATOM     20  C   UNL     1      42.441 132.018  22.482  1.00  0.00     0.083 A 
ATOM     21  H   UNL     1      43.905 130.896  23.584  1.00  0.00     0.166 HD
ENDBRANCH   7  12
TORSDOF 1
ENDMDL
MODEL 5
REMARK VINA RESULT:      -9.0      1.229      7.096
REMARK SMILES Cn1cc2ccc(-c3ccc4[nH]ccc4c3)cc2[nH+]1
REMARK SMILES IDX 1 1 2 2 3 3 4 4 5 5 6 6 7 7 17 8 18 9 19 10 8 12 9 13 16 14
REMARK SMILES IDX 10 15 15 16 11 17 14 18 12 19 13 20
REMARK H PARENT 19 11 12 21
ROOT
ATOM      1  C   UNL     1      43.380 131.979  23.643  1.00  0.00     0.223 C 
ATOM      2  N   UNL     1      43.437 131.810  22.197  1.00  0.00    -0.165 N 
ATOM      3  C   UNL     1      42.497 132.228  21.314  1.00  0.00     0.165 A 
ATOM      4  C   UNL     1      42.974 131.950  20.051  1.00  0.00     0.070 A 
ATOM      5  C   UNL     1      42.438 132.162  18.787  1.00  0.00     0.017 A 
ATOM      6  C   UNL     1      43.207 131.764  17.677  1.00  0.00     0.010 A 
ATOM      7  C   UNL     1      44.490 131.170  17.851  1.00  0.00    -0.012 A 
ATOM      8  C   UNL     1      44.997 130.979  19.160  1.00  0.00     0.091 A 
ATOM      9  C   UNL     1      44.205 131.382  20.232  1.00  0.00     0.236 A 
ATOM     10  N   UNL     1      44.478 131.307  21.544  1.00  0.00    -0.124 N 
ATOM     11  H   UNL     1      45.351 130.938  21.987  1.00  0.00     0.488 HD
ENDROOT
BRANCH   7  12
ATOM     12  C   UNL     1      45.290 130.756  16.671  1.00  0.00    -0.017 A 
ATOM     13  C   UNL     1      45.429 129.379  16.344  1.00  0.00     0.011 A 
ATOM     14  C   UNL     1      45.921 131.728  15.859  1.00  0.00     0.019 A 
ATOM     15  C   UNL     1      46.184 128.976  15.228  1.00  0.00     0.027 A 
ATOM     16  C   UNL     1      46.659 131.292  14.761  1.00  0.00    -0.000 A 
ATOM     17  C   UNL     1      46.787 129.965  14.457  1.00  0.00     0.045 A 
ATOM     18  C   UNL     1      47.362 132.003  13.814  1.00  0.00     0.028 A 
ATOM     19  N   UNL     1      47.541 129.798  13.357  1.00  0.00    -0.361 N 
ATOM     20  C   UNL     1      47.895 131.041  12.961  1.00  0.00     0.083 A 
ATOM     21  H   UNL     1      47.801 128.895  12.900  1.00  0.00     0.166 HD
ENDBRANCH   7  12
TORSDOF 1
ENDMDL
MODEL 6
REMARK VINA RESULT:      -8.5      1.003      1.437
REMARK SMILES Cn1cc2ccc(-c3ccc4[nH]ccc4c3)cc2[nH+]1
REMARK SMILES IDX 1 1 2 2 3 3 4 4 5 5 6 6 7 7 17 8 18 9 19 10 8 12 9 13 16 14
REMARK SMILES IDX 10 15 15 16 11 17 14 18 12 19 13 20
REMARK H PARENT 19 11 12 21
ROOT
ATOM      1  C   UNL     1      47.979 129.277  14.089  1.00  0.00     0.223 C 
ATOM      2  N   UNL     1      47.085 129.942  15.027  1.00  0.00    -0.165 N 
ATOM      3  C   UNL     1      46.123 130.840  14.703  1.00  0.00     0.165 A 
ATOM      4  C   UNL     1      45.454 131.158  15.866  1.00  0.00     0.070 A 
ATOM      5  C   UNL     1      44.389 132.013  16.122  1.00  0.00     0.017 A 
ATOM      6  C   UNL     1      43.929 132.100  17.449  1.00  0.00     0.010 A 
ATOM      7  C   UNL     1      44.534 131.334  18.486  1.00  0.00    -0.012 A 
ATOM      8  C   UNL     1      45.614 130.472  18.174  1.00  0.00     0.091 A 
ATOM      9  C   UNL     1      46.044 130.417  16.852  1.00  0.00     0.236 A 
ATOM     10  N   UNL     1      47.033 129.675  16.327  1.00  0.00    -0.124 N 
ATOM     11  H   UNL     1      47.648 128.996  16.833  1.00  0.00     0.488 HD
ENDROOT
BRANCH   7  12
ATOM     12  C   UNL     1      44.036 131.437  19.881  1.00  0.00    -0.017 A 
ATOM     13  C   UNL     1      42.888 132.221  20.178  1.00  0.00     0.011 A 
ATOM     14  C   UNL     1      44.699 130.753  20.928  1.00  0.00     0.019 A 
ATOM     15  C   UNL     1      42.407 132.324  21.496  1.00  0.00     0.027 A 
ATOM     16  C   UNL     1      44.193 130.879  22.220  1.00  0.00    -0.000 A 
ATOM     17  C   UNL     1      43.088 131.636  22.495  1.00  0.00     0.045 A 
ATOM     18  C   UNL     1      44.625 130.332  23.408  1.00  0.00     0.028 A 
ATOM     19  N   UNL     1      42.797 131.597  23.806  1.00  0.00    -0.361 N 
ATOM     20  C   UNL     1      43.735 130.801  24.368  1.00  0.00     0.083 A 
ATOM     21  H   UNL     1      42.010 132.080  24.293  1.00  0.00     0.166 HD
ENDBRANCH   7  12
TORSDOF 1
ENDMDL
MODEL 7
REMARK VINA RESULT:      -8.4      1.122      1.945
REMARK SMILES Cn1cc2ccc(-c3ccc4[nH]ccc4c3)cc2[nH+]1
REMARK SMILES IDX 1 1 2 2 3 3 4 4 5 5 6 6 7 7 17 8 18 9 19 10 8 12 9 13 16 14
REMARK SMILES IDX 10 15 15 16 11 17 14 18 12 19 13 20
REMARK H PARENT 19 11 12 21
ROOT
ATOM      1  C   UNL     1      47.510 130.678  13.057  1.00  0.00     0.223 C 
ATOM      2  N   UNL     1      46.644 130.939  14.200  1.00  0.00    -0.165 N 
ATOM      3  C   UNL     1      45.346 131.322  14.139  1.00  0.00     0.165 A 
ATOM      4  C   UNL     1      44.876 131.377  15.434  1.00  0.00     0.070 A 
ATOM      5  C   UNL     1      43.632 131.705  15.959  1.00  0.00     0.017 A 
ATOM      6  C   UNL     1      43.480 131.648  17.357  1.00  0.00     0.010 A 
ATOM      7  C   UNL     1      44.564 131.263  18.197  1.00  0.00    -0.012 A 
ATOM      8  C   UNL     1      45.812 130.933  17.614  1.00  0.00     0.091 A 
ATOM      9  C   UNL     1      45.925 131.006  16.229  1.00  0.00     0.236 A 
ATOM     10  N   UNL     1      46.996 130.735  15.465  1.00  0.00    -0.124 N 
ATOM     11  H   UNL     1      47.936 130.410  15.788  1.00  0.00     0.488 HD
ENDROOT
BRANCH   7  12
ATOM     12  C   UNL     1      44.387 131.207  19.670  1.00  0.00    -0.017 A 
ATOM     13  C   UNL     1      45.378 130.601  20.489  1.00  0.00     0.011 A 
ATOM     14  C   UNL     1      43.231 131.757  20.272  1.00  0.00     0.019 A 
ATOM     15  C   UNL     1      45.222 130.543  21.886  1.00  0.00     0.027 A 
ATOM     16  C   UNL     1      43.110 131.681  21.658  1.00  0.00    -0.000 A 
ATOM     17  C   UNL     1      44.070 131.096  22.437  1.00  0.00     0.045 A 
ATOM     18  C   UNL     1      42.113 132.128  22.496  1.00  0.00     0.028 A 
ATOM     19  N   UNL     1      43.728 131.149  23.735  1.00  0.00    -0.361 N 
ATOM     20  C   UNL     1      42.532 131.780  23.776  1.00  0.00     0.083 A 
ATOM     21  H   UNL     1      44.272 130.781  24.548  1.00  0.00     0.166 HD
ENDBRANCH   7  12
TORSDOF 1
ENDMDL
MODEL 8
REMARK VINA RESULT:      -7.9      1.129      1.401
REMARK SMILES Cn1cc2ccc(-c3ccc4[nH]ccc4c3)cc2[nH+]1
REMARK SMILES IDX 1 1 2 2 3 3 4 4 5 5 6 6 7 7 17 8 18 9 19 10 8 12 9 13 16 14
REMARK SMILES IDX 10 15 15 16 11 17 14 18 12 19 13 20
REMARK H PARENT 19 11 12 21
ROOT
ATOM      1  C   UNL     1      48.387 131.599  12.312  1.00  0.00     0.223 C 
ATOM      2  N   UNL     1      47.479 131.222  13.387  1.00  0.00    -0.165 N 
ATOM      3  C   UNL     1      47.068 129.962  13.670  1.00  0.00     0.165 A 
ATOM      4  C   UNL     1      46.290 130.034  14.806  1.00  0.00     0.070 A 
ATOM      5  C   UNL     1      45.619 129.061  15.537  1.00  0.00     0.017 A 
ATOM      6  C   UNL     1      44.910 129.478  16.679  1.00  0.00     0.010 A 
ATOM      7  C   UNL     1      44.888 130.847  17.069  1.00  0.00    -0.012 A 
ATOM      8  C   UNL     1      45.592 131.802  16.294  1.00  0.00     0.091 A 
ATOM      9  C   UNL     1      46.278 131.352  15.169  1.00  0.00     0.236 A 
ATOM     10  N   UNL     1      47.012 132.066  14.300  1.00  0.00    -0.124 N 
ATOM     11  H   UNL     1      47.201 133.094  14.330  1.00  0.00     0.488 HD
ENDROOT
BRANCH   7  12
ATOM     12  C   UNL     1      44.136 131.271  18.276  1.00  0.00    -0.017 A 
ATOM     13  C   UNL     1      42.835 131.829  18.153  1.00  0.00     0.011 A 
ATOM     14  C   UNL     1      44.707 131.121  19.563  1.00  0.00     0.019 A 
ATOM     15  C   UNL     1      42.112 132.234  19.290  1.00  0.00     0.027 A 
ATOM     16  C   UNL     1      43.963 131.532  20.666  1.00  0.00    -0.000 A 
ATOM     17  C   UNL     1      42.712 132.068  20.536  1.00  0.00     0.045 A 
ATOM     18  C   UNL     1      44.261 131.501  22.010  1.00  0.00     0.028 A 
ATOM     19  N   UNL     1      42.200 132.382  21.737  1.00  0.00    -0.361 N 
ATOM     20  C   UNL     1      43.144 132.037  22.642  1.00  0.00     0.083 A 
ATOM     21  H   UNL     1      41.265 132.804  21.936  1.00  0.00     0.166 HD
ENDBRANCH   7  12
TORSDOF 1
ENDMDL
MODEL 9
REMARK VINA RESULT:      -7.7      1.424      7.272
REMARK SMILES Cn1cc2ccc(-c3ccc4[nH]ccc4c3)cc2[nH+]1
REMARK SMILES IDX 1 1 2 2 3 3 4 4 5 5 6 6 7 7 17 8 18 9 19 10 8 12 9 13 16 14
REMARK SMILES IDX 10 15 15 16 11 17 14 18 12 19 13 20
REMARK H PARENT 19 11 12 21
ROOT
ATOM      1  C   UNL     1      40.573 133.499  21.200  1.00  0.00     0.223 C 
ATOM      2  N   UNL     1      41.766 132.930  20.587  1.00  0.00    -0.165 N 
ATOM      3  C   UNL     1      42.817 132.392  21.251  1.00  0.00     0.165 A 
ATOM      4  C   UNL     1      43.688 131.897  20.304  1.00  0.00     0.070 A 
ATOM      5  C   UNL     1      44.910 131.246  20.413  1.00  0.00     0.017 A 
ATOM      6  C   UNL     1      45.548 130.853  19.222  1.00  0.00     0.010 A 
ATOM      7  C   UNL     1      44.955 131.112  17.953  1.00  0.00    -0.012 A 
ATOM      8  C   UNL     1      43.704 131.775  17.893  1.00  0.00     0.091 A 
ATOM      9  C   UNL     1      43.106 132.151  19.092  1.00  0.00     0.236 A 
ATOM     10  N   UNL     1      41.933 132.776  19.278  1.00  0.00    -0.124 N 
ATOM     11  H   UNL     1      41.256 133.080  18.540  1.00  0.00     0.488 HD
ENDROOT
BRANCH   7  12
ATOM     12  C   UNL     1      45.640 130.691  16.706  1.00  0.00    -0.017 A 
ATOM     13  C   UNL     1      45.755 129.311  16.380  1.00  0.00     0.011 A 
ATOM     14  C   UNL     1      46.184 131.658  15.827  1.00  0.00     0.019 A 
ATOM     15  C   UNL     1      46.401 128.900  15.200  1.00  0.00     0.027 A 
ATOM     16  C   UNL     1      46.816 131.214  14.668  1.00  0.00    -0.000 A 
ATOM     17  C   UNL     1      46.921 129.885  14.365  1.00  0.00     0.045 A 
ATOM     18  C   UNL     1      47.420 131.919  13.651  1.00  0.00     0.028 A 
ATOM     19  N   UNL     1      47.566 129.711  13.200  1.00  0.00    -0.361 N 
ATOM     20  C   UNL     1      47.874 130.952  12.759  1.00  0.00     0.083 A 
ATOM     21  H   UNL     1      47.787 128.805  12.728  1.00  0.00     0.166 HD
ENDBRANCH   7  12
TORSDOF 1
ENDMDL


