REMARK SMILES Cn1c[nH+]c2cc(-c3ccc(CCN)cc3)cnc21
REMARK SMILES IDX 12 1 11 2 8 3 9 4 16 5 10 6 15 7 7 8 2 9 3 10 19 11 4 12
REMARK SMILES IDX 18 13 5 14 17 15 6 16 1 17 13 19 14 20
REMARK H PARENT 4 18 14 21 14 22
ROOT
ATOM      1  C   UNL     1      -2.903  -0.115  -5.081  1.00  0.00     0.050 C 
ENDROOT
BRANCH   1   2
ATOM      2  C   UNL     1      -2.187  -0.152  -3.756  1.00  0.00    -0.047 A 
ATOM      3  C   UNL     1      -0.888  -0.266  -1.254  1.00  0.00    -0.017 A 
ATOM      4  C   UNL     1      -0.557  -1.176  -2.273  1.00  0.00     0.009 A 
ATOM      5  C   UNL     1      -1.883   0.698  -1.500  1.00  0.00     0.009 A 
ATOM      6  C   UNL     1      -1.204  -1.122  -3.511  1.00  0.00     0.004 A 
ATOM      7  C   UNL     1      -2.528   0.752  -2.738  1.00  0.00     0.004 A 
BRANCH   3   8
ATOM      8  C   UNL     1      -0.204  -0.325   0.063  1.00  0.00     0.005 A 
ATOM      9  N   UNL     1       1.537  -0.480   3.749  1.00  0.00    -0.217 N 
ATOM     10  C   UNL     1       0.420  -0.261   4.488  1.00  0.00     0.404 A 
ATOM     11  C   UNL     1       1.104  -0.444   2.479  1.00  0.00     0.268 A 
ATOM     12  N   UNL     1      -0.681  -0.067   3.716  1.00  0.00    -0.242 N 
ATOM     13  N   UNL     1       1.828  -0.654   1.354  1.00  0.00    -0.213 NA
ATOM     14  C   UNL     1      -0.228  -0.187   2.457  1.00  0.00     0.192 A 
ATOM     15  C   UNL     1       1.193  -0.595   0.144  1.00  0.00     0.124 A 
ATOM     16  C   UNL     1      -0.930  -0.118   1.261  1.00  0.00     0.068 A 
ATOM     17  C   UNL     1       2.867  -0.827   4.234  1.00  0.00     0.298 C 
ATOM     18  H   UNL     1      -1.660   0.111   4.033  1.00  0.00     0.312 HD
ENDBRANCH   3   8
ENDBRANCH   1   2
BRANCH   1  19
ATOM     19  C   UNL     1      -4.068  -1.110  -5.116  1.00  0.00     0.082 C 
BRANCH  19  20
ATOM     20  N   UNL     1      -5.089  -0.751  -4.136  1.00  0.00    -0.330 NA
ATOM     21  H   UNL     1      -5.546   0.136  -4.449  1.00  0.00     0.118 HD
ATOM     22  H   UNL     1      -5.827  -1.491  -4.159  1.00  0.00     0.118 HD
ENDBRANCH  19  20
ENDBRANCH   1  19
TORSDOF 4


