REMARK SMILES Cc1ccc(-c2cc(C=O)c(/N=C(\O)N[C@@H](c3ccc(F)cc3)C(C)C)cc2F)cc1
REMARK SMILES IDX 13 1 15 2 14 4 12 6 11 7 27 8 8 9 28 10 7 11 6 12 29 13 9 14
REMARK SMILES IDX 10 15 5 16 4 17 30 18 3 19 31 20 2 21 1 22 16 23 17 24 18 25
REMARK SMILES IDX 23 26 19 27 22 28 20 29 21 30 24 31 25 32 26 33
REMARK H PARENT 15 3 14 5
ROOT
ATOM      1  C   UNL     1      -1.415  -1.179  -0.859  1.00  0.00     0.287 C 
ATOM      2  N   UNL     1      -2.842  -1.040  -0.814  1.00  0.00    -0.333 N 
ATOM      3  H   UNL     1      -3.401  -1.810  -1.244  1.00  0.00     0.165 HD
ENDROOT
BRANCH   1   4
ATOM      4  O   UNL     1      -0.880  -2.349  -1.406  1.00  0.00    -0.481 OA
ATOM      5  H   UNL     1       0.102  -2.461  -1.620  1.00  0.00     0.296 HD
ENDBRANCH   1   4
BRANCH   1   6
ATOM      6  N   UNL     1      -0.654  -0.211  -0.433  1.00  0.00    -0.197 NA
BRANCH   6   7
ATOM      7  C   UNL     1       0.778  -0.228  -0.321  1.00  0.00     0.082 A 
ATOM      8  C   UNL     1       1.424  -1.294   0.326  1.00  0.00     0.069 A 
ATOM      9  C   UNL     1       1.533   0.879  -0.759  1.00  0.00     0.041 A 
ATOM     10  C   UNL     1       2.810  -1.294   0.490  1.00  0.00     0.133 A 
ATOM     11  C   UNL     1       2.930   0.871  -0.591  1.00  0.00     0.025 A 
ATOM     12  C   UNL     1       3.577  -0.211   0.030  1.00  0.00     0.018 A 
ATOM     13  F   UNL     1       3.401  -2.367   1.077  1.00  0.00    -0.206 F 
BRANCH   9  14
ATOM     14  C   UNL     1       0.870   2.037  -1.400  1.00  0.00     0.262 C 
ATOM     15  O   UNL     1       1.535   3.031  -1.795  1.00  0.00    -0.298 OA
ENDBRANCH   9  14
BRANCH  12  16
ATOM     16  C   UNL     1       5.051  -0.193   0.199  1.00  0.00    -0.015 A 
ATOM     17  C   UNL     1       5.633  -0.502   1.440  1.00  0.00     0.009 A 
ATOM     18  C   UNL     1       5.885   0.157  -0.878  1.00  0.00     0.009 A 
ATOM     19  C   UNL     1       7.022  -0.476   1.598  1.00  0.00     0.004 A 
ATOM     20  C   UNL     1       7.273   0.181  -0.719  1.00  0.00     0.004 A 
ATOM     21  C   UNL     1       7.851  -0.151   0.514  1.00  0.00    -0.051 A 
ATOM     22  C   UNL     1       9.339  -0.085   0.695  1.00  0.00     0.044 C 
ENDBRANCH  12  16
ENDBRANCH   6   7
ENDBRANCH   1   6
BRANCH   2  23
ATOM     23  C   UNL     1      -3.514   0.137  -0.238  1.00  0.00     0.116 C 
BRANCH  23  24
ATOM     24  C   UNL     1      -4.945   0.268  -0.750  1.00  0.00    -0.025 A 
ATOM     25  C   UNL     1      -5.408   1.519  -1.203  1.00  0.00     0.009 A 
ATOM     26  C   UNL     1      -5.839  -0.823  -0.750  1.00  0.00     0.009 A 
ATOM     27  C   UNL     1      -6.722   1.671  -1.655  1.00  0.00     0.039 A 
ATOM     28  C   UNL     1      -7.152  -0.665  -1.204  1.00  0.00     0.039 A 
ATOM     29  C   UNL     1      -7.593   0.580  -1.657  1.00  0.00     0.123 A 
ATOM     30  F   UNL     1      -8.867   0.730  -2.095  1.00  0.00    -0.207 F 
ENDBRANCH  23  24
BRANCH  23  31
ATOM     31  C   UNL     1      -3.414   0.135   1.317  1.00  0.00     0.010 C 
ATOM     32  C   UNL     1      -4.075  -1.085   1.975  1.00  0.00     0.010 C 
ATOM     33  C   UNL     1      -3.966   1.434   1.922  1.00  0.00     0.010 C 
ENDBRANCH  23  31
ENDBRANCH   2  23
TORSDOF 8


