REMARK SMILES N[NH2+]c1ccc2cc3ccccc3cc2c1C=O
REMARK SMILES IDX 3 1 4 2 5 3 6 4 7 5 8 6 9 7 10 8 11 9 12 10 13 11 14 12
REMARK SMILES IDX 15 13 16 14 2 15 1 18 17 21 18 22
REMARK H PARENT 2 16 2 17 1 19 1 20
ROOT
ATOM      1  C   UNL     1       2.565  -0.522  -0.433  1.00  0.00     0.159 A 
ATOM      2  C   UNL     1       2.122  -1.156  -1.605  1.00  0.00     0.071 A 
ATOM      3  C   UNL     1       0.770  -1.232  -1.914  1.00  0.00     0.015 A 
ATOM      4  C   UNL     1      -0.185  -0.679  -1.058  1.00  0.00    -0.017 A 
ATOM      5  C   UNL     1      -1.546  -0.772  -1.389  1.00  0.00     0.017 A 
ATOM      6  C   UNL     1      -2.522  -0.239  -0.540  1.00  0.00    -0.018 A 
ATOM      7  C   UNL     1      -3.884  -0.333  -0.871  1.00  0.00     0.009 A 
ATOM      8  C   UNL     1      -4.852   0.196  -0.012  1.00  0.00     0.001 A 
ATOM      9  C   UNL     1      -4.471   0.818   1.179  1.00  0.00     0.001 A 
ATOM     10  C   UNL     1      -3.118   0.916   1.518  1.00  0.00     0.009 A 
ATOM     11  C   UNL     1      -2.135   0.391   0.663  1.00  0.00    -0.018 A 
ATOM     12  C   UNL     1      -0.776   0.487   0.996  1.00  0.00     0.018 A 
ATOM     13  C   UNL     1       0.222  -0.032   0.138  1.00  0.00    -0.001 A 
ATOM     14  C   UNL     1       1.609   0.054   0.453  1.00  0.00     0.085 A 
ENDROOT
BRANCH   1  15
ATOM     15  N   UNL     1       3.989  -0.421  -0.196  1.00  0.00    -0.239 N 
ATOM     16  H   UNL     1       4.224  -0.788   0.753  1.00  0.00     0.376 HD
ATOM     17  H   UNL     1       4.538  -0.981  -0.892  1.00  0.00     0.376 HD
BRANCH  15  18
ATOM     18  N   UNL     1       4.377   0.930  -0.292  1.00  0.00    -0.178 NA
ATOM     19  H   UNL     1       4.341   1.214  -1.300  1.00  0.00     0.183 HD
ATOM     20  H   UNL     1       5.380   0.999  -0.000  1.00  0.00     0.183 HD
ENDBRANCH  15  18
ENDBRANCH   1  15
BRANCH  14  21
ATOM     21  C   UNL     1       2.051   0.788   1.665  1.00  0.00     0.266 C 
ATOM     22  O   UNL     1       2.921   0.311   2.440  1.00  0.00    -0.298 OA
ENDBRANCH  14  21
TORSDOF 3


