REMARK SMILES Oc1nccc2cc(F)c(-c3c[n-]c4nccc-4c3)c(F)c12
REMARK SMILES IDX 2 1 3 2 4 3 5 4 6 5 7 6 8 7 9 8 10 9 20 10 21 11 22 12 1 13
REMARK SMILES IDX 11 15 12 16 19 17 13 18 18 19 14 20 17 21 15 22 16 23
REMARK H PARENT 1 14
ROOT
ATOM      1  C   UNL     1      -3.440  -0.149  -1.445  1.00  0.00     0.221 A 
ATOM      2  N   UNL     1      -4.727   0.204  -1.179  1.00  0.00    -0.222 NA
ATOM      3  C   UNL     1      -5.100   0.742   0.010  1.00  0.00     0.116 A 
ATOM      4  C   UNL     1      -4.153   0.952   1.011  1.00  0.00     0.029 A 
ATOM      5  C   UNL     1      -2.816   0.604   0.779  1.00  0.00    -0.006 A 
ATOM      6  C   UNL     1      -1.852   0.809   1.774  1.00  0.00     0.049 A 
ATOM      7  C   UNL     1      -0.519   0.464   1.548  1.00  0.00     0.134 A 
ATOM      8  F   UNL     1       0.385   0.651   2.543  1.00  0.00    -0.206 F 
ATOM      9  C   UNL     1      -0.127  -0.095   0.319  1.00  0.00     0.054 A 
ATOM     10  C   UNL     1      -1.090  -0.304  -0.688  1.00  0.00     0.147 A 
ATOM     11  F   UNL     1      -0.698  -0.812  -1.886  1.00  0.00    -0.205 F 
ATOM     12  C   UNL     1      -2.441   0.042  -0.466  1.00  0.00     0.080 A 
ENDROOT
BRANCH   1  13
ATOM     13  O   UNL     1      -3.134  -0.697  -2.688  1.00  0.00    -0.493 OA
ATOM     14  H   UNL     1      -3.852  -0.833  -3.389  1.00  0.00     0.295 HD
ENDBRANCH   1  13
BRANCH   9  15
ATOM     15  C   UNL     1       1.290  -0.460   0.086  1.00  0.00    -0.016 A 
ATOM     16  C   UNL     1       1.628  -1.773  -0.354  1.00  0.00    -0.013 A 
ATOM     17  C   UNL     1       2.311   0.494   0.302  1.00  0.00     0.016 A 
ATOM     18  N   UNL     1       2.928  -2.139  -0.576  1.00  0.00    -0.442 NA
ATOM     19  C   UNL     1       3.616   0.094   0.068  1.00  0.00    -0.026 A 
ATOM     20  C   UNL     1       3.905  -1.228  -0.372  1.00  0.00    -0.052 A 
ATOM     21  C   UNL     1       4.826   0.731   0.163  1.00  0.00     0.003 A 
ATOM     22  N   UNL     1       5.223  -1.417  -0.544  1.00  0.00    -0.442 NA
ATOM     23  C   UNL     1       5.777  -0.219  -0.216  1.00  0.00    -0.022 A 
ENDBRANCH   9  15
TORSDOF 2


