MODEL 1
REMARK VINA RESULT:      -8.1      0.000      0.000
REMARK SMILES Nc1cc(NC2CC(=O)C2)c(C=O)cc1-c1ccc2c(c1)[N-]C(=O)C2
REMARK SMILES IDX 2 1 3 2 4 3 11 4 14 5 15 6 1 7 16 10 17 11 21 12 18 13 20 14
REMARK SMILES IDX 19 15 22 16 25 17 23 18 24 19 5 20 6 22 7 23 10 24 8 25 9 26
REMARK SMILES IDX 12 27 13 28
REMARK H PARENT 1 8 1 9 5 21
ROOT
ATOM      1  C   UNL     1      45.159 130.756  20.330  1.00  0.00     0.041 A 
ATOM      2  C   UNL     1      44.801 130.904  21.676  1.00  0.00     0.052 A 
ATOM      3  C   UNL     1      43.620 131.570  22.049  1.00  0.00     0.047 A 
ATOM      4  C   UNL     1      42.785 132.112  21.042  1.00  0.00     0.038 A 
ATOM      5  C   UNL     1      43.143 131.952  19.694  1.00  0.00     0.024 A 
ATOM      6  C   UNL     1      44.325 131.294  19.326  1.00  0.00     0.005 A 
ENDROOT
BRANCH   1   7
ATOM      7  N   UNL     1      46.339 130.008  20.004  1.00  0.00    -0.398 N 
ATOM      8  H   UNL     1      46.407 128.994  20.245  1.00  0.00     0.156 HD
ATOM      9  H   UNL     1      47.127 130.424  19.462  1.00  0.00     0.156 HD
ENDBRANCH   1   7
BRANCH   6  10
ATOM     10  C   UNL     1      44.674 131.214  17.891  1.00  0.00    -0.018 A 
ATOM     11  C   UNL     1      43.805 131.752  16.912  1.00  0.00     0.009 A 
ATOM     12  C   UNL     1      45.857 130.560  17.487  1.00  0.00    -0.007 A 
ATOM     13  C   UNL     1      44.121 131.659  15.547  1.00  0.00     0.003 A 
ATOM     14  C   UNL     1      46.147 130.482  16.126  1.00  0.00    -0.130 A 
ATOM     15  C   UNL     1      45.302 131.018  15.180  1.00  0.00    -0.057 A 
ATOM     16  N   UNL     1      47.291 129.866  15.558  1.00  0.00    -0.626 NA
ATOM     17  C   UNL     1      45.842 130.795  13.811  1.00  0.00     0.089 C 
ATOM     18  C   UNL     1      47.100 130.060  14.158  1.00  0.00     0.059 C 
ATOM     19  O   UNL     1      47.924 129.645  13.300  1.00  0.00    -0.320 OA
ENDBRANCH   6  10
BRANCH   3  20
ATOM     20  N   UNL     1      43.238 131.618  23.435  1.00  0.00    -0.381 N 
ATOM     21  H   UNL     1      43.183 132.552  23.901  1.00  0.00     0.160 HD
BRANCH  20  22
ATOM     22  C   UNL     1      42.745 130.439  24.153  1.00  0.00     0.094 C 
ATOM     23  C   UNL     1      42.347 129.316  23.238  1.00  0.00     0.100 C 
ATOM     24  C   UNL     1      43.860 129.552  24.625  1.00  0.00     0.100 C 
ATOM     25  C   UNL     1      43.471 128.408  23.705  1.00  0.00     0.137 C 
ATOM     26  O   UNL     1      43.874 127.284  23.457  1.00  0.00    -0.300 OA
ENDBRANCH  20  22
ENDBRANCH   3  20
BRANCH   4  27
ATOM     27  C   UNL     1      41.562 132.892  21.340  1.00  0.00     0.262 C 
ATOM     28  O   UNL     1      40.849 133.384  20.427  1.00  0.00    -0.298 OA
ENDBRANCH   4  27
TORSDOF 5
ENDMDL
MODEL 2
REMARK VINA RESULT:      -7.4      1.876      2.291
REMARK SMILES Nc1cc(NC2CC(=O)C2)c(C=O)cc1-c1ccc2c(c1)[N-]C(=O)C2
REMARK SMILES IDX 2 1 3 2 4 3 11 4 14 5 15 6 1 7 16 10 17 11 21 12 18 13 20 14
REMARK SMILES IDX 19 15 22 16 25 17 23 18 24 19 5 20 6 22 7 23 10 24 8 25 9 26
REMARK SMILES IDX 12 27 13 28
REMARK H PARENT 1 8 1 9 5 21
ROOT
ATOM      1  C   UNL     1      42.919 131.699  18.801  1.00  0.00     0.041 A 
ATOM      2  C   UNL     1      42.503 131.853  20.128  1.00  0.00     0.052 A 
ATOM      3  C   UNL     1      43.432 131.948  21.179  1.00  0.00     0.047 A 
ATOM      4  C   UNL     1      44.815 131.873  20.887  1.00  0.00     0.038 A 
ATOM      5  C   UNL     1      45.228 131.729  19.553  1.00  0.00     0.024 A 
ATOM      6  C   UNL     1      44.299 131.627  18.508  1.00  0.00     0.005 A 
ENDROOT
BRANCH   1   7
ATOM      7  N   UNL     1      41.930 131.677  17.761  1.00  0.00    -0.398 N 
ATOM      8  H   UNL     1      41.773 132.517  17.161  1.00  0.00     0.156 HD
ATOM      9  H   UNL     1      41.394 130.814  17.525  1.00  0.00     0.156 HD
ENDBRANCH   1   7
BRANCH   6  10
ATOM     10  C   UNL     1      44.799 131.414  17.133  1.00  0.00    -0.018 A 
ATOM     11  C   UNL     1      44.058 131.886  16.022  1.00  0.00     0.009 A 
ATOM     12  C   UNL     1      45.996 130.702  16.918  1.00  0.00    -0.007 A 
ATOM     13  C   UNL     1      44.516 131.668  14.713  1.00  0.00     0.003 A 
ATOM     14  C   UNL     1      46.429 130.499  15.609  1.00  0.00    -0.130 A 
ATOM     15  C   UNL     1      45.710 130.971  14.534  1.00  0.00    -0.057 A 
ATOM     16  N   UNL     1      47.608 129.811  15.224  1.00  0.00    -0.626 NA
ATOM     17  C   UNL     1      46.387 130.617  13.256  1.00  0.00     0.089 C 
ATOM     18  C   UNL     1      47.576 129.887  13.800  1.00  0.00     0.059 C 
ATOM     19  O   UNL     1      48.474 129.381  13.077  1.00  0.00    -0.320 OA
ENDBRANCH   6  10
BRANCH   3  20
ATOM     20  N   UNL     1      42.969 132.202  22.517  1.00  0.00    -0.381 N 
ATOM     21  H   UNL     1      42.777 133.191  22.796  1.00  0.00     0.160 HD
BRANCH  20  22
ATOM     22  C   UNL     1      42.578 131.122  23.429  1.00  0.00     0.094 C 
ATOM     23  C   UNL     1      43.099 129.778  23.006  1.00  0.00     0.100 C 
ATOM     24  C   UNL     1      43.495 131.016  24.611  1.00  0.00     0.100 C 
ATOM     25  C   UNL     1      44.032 129.657  24.197  1.00  0.00     0.137 C 
ATOM     26  O   UNL     1      44.838 128.847  24.623  1.00  0.00    -0.300 OA
ENDBRANCH  20  22
ENDBRANCH   3  20
BRANCH   4  27
ATOM     27  C   UNL     1      45.864 131.889  21.933  1.00  0.00     0.262 C 
ATOM     28  O   UNL     1      46.915 132.571  21.809  1.00  0.00    -0.298 OA
ENDBRANCH   4  27
TORSDOF 5
ENDMDL
MODEL 3
REMARK VINA RESULT:      -7.1      1.162      1.519
REMARK SMILES Nc1cc(NC2CC(=O)C2)c(C=O)cc1-c1ccc2c(c1)[N-]C(=O)C2
REMARK SMILES IDX 2 1 3 2 4 3 11 4 14 5 15 6 1 7 16 10 17 11 21 12 18 13 20 14
REMARK SMILES IDX 19 15 22 16 25 17 23 18 24 19 5 20 6 22 7 23 10 24 8 25 9 26
REMARK SMILES IDX 12 27 13 28
REMARK H PARENT 1 8 1 9 5 21
ROOT
ATOM      1  C   UNL     1      45.225 130.536  19.089  1.00  0.00     0.041 A 
ATOM      2  C   UNL     1      44.551 130.617  20.313  1.00  0.00     0.052 A 
ATOM      3  C   UNL     1      43.328 131.301  20.431  1.00  0.00     0.047 A 
ATOM      4  C   UNL     1      42.778 131.933  19.289  1.00  0.00     0.038 A 
ATOM      5  C   UNL     1      43.452 131.841  18.061  1.00  0.00     0.024 A 
ATOM      6  C   UNL     1      44.675 131.164  17.949  1.00  0.00     0.005 A 
ENDROOT
BRANCH   1   7
ATOM      7  N   UNL     1      46.434 129.766  19.011  1.00  0.00    -0.398 N 
ATOM      8  H   UNL     1      47.324 130.137  19.411  1.00  0.00     0.156 HD
ATOM      9  H   UNL     1      46.449 128.798  18.624  1.00  0.00     0.156 HD
ENDBRANCH   1   7
BRANCH   6  10
ATOM     10  C   UNL     1      45.364 131.156  16.641  1.00  0.00    -0.018 A 
ATOM     11  C   UNL     1      45.046 132.126  15.660  1.00  0.00     0.009 A 
ATOM     12  C   UNL     1      46.312 130.154  16.347  1.00  0.00    -0.007 A 
ATOM     13  C   UNL     1      45.681 132.110  14.408  1.00  0.00     0.003 A 
ATOM     14  C   UNL     1      46.928 130.162  15.097  1.00  0.00    -0.130 A 
ATOM     15  C   UNL     1      46.623 131.115  14.152  1.00  0.00    -0.057 A 
ATOM     16  N   UNL     1      47.901 129.233  14.649  1.00  0.00    -0.626 NA
ATOM     17  C   UNL     1      47.414 130.894  12.911  1.00  0.00     0.089 C 
ATOM     18  C   UNL     1      48.191 129.682  13.326  1.00  0.00     0.059 C 
ATOM     19  O   UNL     1      49.028 129.102  12.585  1.00  0.00    -0.320 OA
ENDBRANCH   6  10
BRANCH   3  20
ATOM     20  N   UNL     1      42.619 131.281  21.682  1.00  0.00    -0.381 N 
ATOM     21  H   UNL     1      41.576 131.206  21.659  1.00  0.00     0.160 HD
BRANCH  20  22
ATOM     22  C   UNL     1      43.307 131.168  22.971  1.00  0.00     0.094 C 
ATOM     23  C   UNL     1      42.517 130.404  23.995  1.00  0.00     0.100 C 
ATOM     24  C   UNL     1      44.287 130.033  22.996  1.00  0.00     0.100 C 
ATOM     25  C   UNL     1      43.500 129.247  24.030  1.00  0.00     0.137 C 
ATOM     26  O   UNL     1      43.607 128.183  24.616  1.00  0.00    -0.300 OA
ENDBRANCH  20  22
ENDBRANCH   3  20
BRANCH   4  27
ATOM     27  C   UNL     1      41.535 132.738  19.331  1.00  0.00     0.262 C 
ATOM     28  O   UNL     1      41.263 133.488  20.304  1.00  0.00    -0.298 OA
ENDBRANCH   4  27
TORSDOF 5
ENDMDL
MODEL 4
REMARK VINA RESULT:      -6.8      1.217      1.474
REMARK SMILES Nc1cc(NC2CC(=O)C2)c(C=O)cc1-c1ccc2c(c1)[N-]C(=O)C2
REMARK SMILES IDX 2 1 3 2 4 3 11 4 14 5 15 6 1 7 16 10 17 11 21 12 18 13 20 14
REMARK SMILES IDX 19 15 22 16 25 17 23 18 24 19 5 20 6 22 7 23 10 24 8 25 9 26
REMARK SMILES IDX 12 27 13 28
REMARK H PARENT 1 8 1 9 5 21
ROOT
ATOM      1  C   UNL     1      45.144 130.880  20.152  1.00  0.00     0.041 A 
ATOM      2  C   UNL     1      44.548 131.316  21.341  1.00  0.00     0.052 A 
ATOM      3  C   UNL     1      43.312 131.986  21.337  1.00  0.00     0.047 A 
ATOM      4  C   UNL     1      42.666 132.235  20.102  1.00  0.00     0.038 A 
ATOM      5  C   UNL     1      43.262 131.787  18.913  1.00  0.00     0.024 A 
ATOM      6  C   UNL     1      44.498 131.126  18.920  1.00  0.00     0.005 A 
ENDROOT
BRANCH   1   7
ATOM      7  N   UNL     1      46.372 130.140  20.220  1.00  0.00    -0.398 N 
ATOM      8  H   UNL     1      47.203 130.539  20.711  1.00  0.00     0.156 HD
ATOM      9  H   UNL     1      46.454 129.168  19.852  1.00  0.00     0.156 HD
ENDBRANCH   1   7
BRANCH   6  10
ATOM     10  C   UNL     1      45.101 130.734  17.627  1.00  0.00    -0.018 A 
ATOM     11  C   UNL     1      45.137 129.373  17.238  1.00  0.00     0.009 A 
ATOM     12  C   UNL     1      45.683 131.712  16.795  1.00  0.00    -0.007 A 
ATOM     13  C   UNL     1      45.728 128.994  16.022  1.00  0.00     0.003 A 
ATOM     14  C   UNL     1      46.263 131.308  15.593  1.00  0.00    -0.130 A 
ATOM     15  C   UNL     1      46.284 129.984  15.215  1.00  0.00    -0.057 A 
ATOM     16  N   UNL     1      46.882 132.162  14.645  1.00  0.00    -0.626 NA
ATOM     17  C   UNL     1      46.962 129.827  13.899  1.00  0.00     0.089 C 
ATOM     18  C   UNL     1      47.302 131.259  13.623  1.00  0.00     0.059 C 
ATOM     19  O   UNL     1      47.905 131.646  12.587  1.00  0.00    -0.320 OA
ENDBRANCH   6  10
BRANCH   3  20
ATOM     20  N   UNL     1      42.687 132.333  22.585  1.00  0.00    -0.381 N 
ATOM     21  H   UNL     1      42.072 133.178  22.613  1.00  0.00     0.160 HD
BRANCH  20  22
ATOM     22  C   UNL     1      42.726 131.448  23.754  1.00  0.00     0.094 C 
ATOM     23  C   UNL     1      42.657 129.992  23.392  1.00  0.00     0.100 C 
ATOM     24  C   UNL     1      44.126 131.185  24.221  1.00  0.00     0.100 C 
ATOM     25  C   UNL     1      44.074 129.710  23.860  1.00  0.00     0.137 C 
ATOM     26  O   UNL     1      44.822 128.749  23.919  1.00  0.00    -0.300 OA
ENDBRANCH  20  22
ENDBRANCH   3  20
BRANCH   4  27
ATOM     27  C   UNL     1      41.400 132.997  19.991  1.00  0.00     0.262 C 
ATOM     28  O   UNL     1      40.916 133.625  20.968  1.00  0.00    -0.298 OA
ENDBRANCH   4  27
TORSDOF 5
ENDMDL
MODEL 5
REMARK VINA RESULT:      -6.7      2.071      2.591
REMARK SMILES Nc1cc(NC2CC(=O)C2)c(C=O)cc1-c1ccc2c(c1)[N-]C(=O)C2
REMARK SMILES IDX 2 1 3 2 4 3 11 4 14 5 15 6 1 7 16 10 17 11 21 12 18 13 20 14
REMARK SMILES IDX 19 15 22 16 25 17 23 18 24 19 5 20 6 22 7 23 10 24 8 25 9 26
REMARK SMILES IDX 12 27 13 28
REMARK H PARENT 1 8 1 9 5 21
ROOT
ATOM      1  C   UNL     1      43.329 131.624  18.173  1.00  0.00     0.041 A 
ATOM      2  C   UNL     1      42.673 131.692  19.408  1.00  0.00     0.052 A 
ATOM      3  C   UNL     1      43.389 131.798  20.612  1.00  0.00     0.047 A 
ATOM      4  C   UNL     1      44.805 131.821  20.574  1.00  0.00     0.038 A 
ATOM      5  C   UNL     1      45.459 131.763  19.333  1.00  0.00     0.024 A 
ATOM      6  C   UNL     1      44.741 131.650  18.134  1.00  0.00     0.005 A 
ENDROOT
BRANCH   1   7
ATOM      7  N   UNL     1      42.546 131.587  16.971  1.00  0.00    -0.398 N 
ATOM      8  H   UNL     1      41.937 130.766  16.761  1.00  0.00     0.156 HD
ATOM      9  H   UNL     1      42.504 132.395  16.313  1.00  0.00     0.156 HD
ENDBRANCH   1   7
BRANCH   6  10
ATOM     10  C   UNL     1      45.492 131.531  16.866  1.00  0.00    -0.018 A 
ATOM     11  C   UNL     1      45.473 132.587  15.922  1.00  0.00     0.009 A 
ATOM     12  C   UNL     1      46.196 130.346  16.571  1.00  0.00    -0.007 A 
ATOM     13  C   UNL     1      46.167 132.470  14.707  1.00  0.00     0.003 A 
ATOM     14  C   UNL     1      46.876 130.256  15.357  1.00  0.00    -0.130 A 
ATOM     15  C   UNL     1      46.864 131.291  14.449  1.00  0.00    -0.057 A 
ATOM     16  N   UNL     1      47.632 129.142  14.913  1.00  0.00    -0.626 NA
ATOM     17  C   UNL     1      47.660 130.938  13.242  1.00  0.00     0.089 C 
ATOM     18  C   UNL     1      48.104 129.562  13.633  1.00  0.00     0.059 C 
ATOM     19  O   UNL     1      48.828 128.830  12.908  1.00  0.00    -0.320 OA
ENDBRANCH   6  10
BRANCH   3  20
ATOM     20  N   UNL     1      42.678 131.962  21.852  1.00  0.00    -0.381 N 
ATOM     21  H   UNL     1      41.756 132.454  21.833  1.00  0.00     0.160 HD
BRANCH  20  22
ATOM     22  C   UNL     1      43.103 131.305  23.092  1.00  0.00     0.094 C 
ATOM     23  C   UNL     1      42.016 131.241  24.126  1.00  0.00     0.100 C 
ATOM     24  C   UNL     1      43.001 129.811  23.008  1.00  0.00     0.100 C 
ATOM     25  C   UNL     1      41.900 129.729  24.052  1.00  0.00     0.137 C 
ATOM     26  O   UNL     1      41.234 128.856  24.582  1.00  0.00    -0.300 OA
ENDBRANCH  20  22
ENDBRANCH   3  20
BRANCH   4  27
ATOM     27  C   UNL     1      45.646 131.856  21.793  1.00  0.00     0.262 C 
ATOM     28  O   UNL     1      46.782 132.397  21.800  1.00  0.00    -0.298 OA
ENDBRANCH   4  27
TORSDOF 5
ENDMDL


