REMARK SMILES CCNC(=O)NCC(=O)n1[nH+]c2cc(-c3cnc(F)cc3C)ccc2c1C
REMARK SMILES IDX 7 1 6 2 3 3 4 4 5 6 2 8 1 9 8 10 9 11 10 12 11 13 26 14
REMARK SMILES IDX 12 15 25 16 13 17 24 18 14 19 23 20 27 22 15 23 16 24 21 25
REMARK SMILES IDX 17 26 20 27 18 28 22 29 19 30
REMARK H PARENT 3 5 6 7 11 21
ROOT
ATOM      1  C   UNL     1      -3.118  -2.193  -0.030  1.00  0.00     0.224 C 
ENDROOT
BRANCH   1   2
ATOM      2  N   UNL     1      -4.218  -2.395  -0.973  1.00  0.00    -0.329 N 
ATOM      3  N   UNL     1      -5.388  -1.949  -3.114  1.00  0.00    -0.338 N 
ATOM      4  C   UNL     1      -4.283  -1.713  -2.233  1.00  0.00     0.315 C 
ATOM      5  H   UNL     1      -6.130  -2.622  -2.814  1.00  0.00     0.165 HD
ATOM      6  O   UNL     1      -3.371  -0.906  -2.564  1.00  0.00    -0.249 OA
ATOM      7  H   UNL     1      -4.970  -3.077  -0.725  1.00  0.00     0.165 HD
BRANCH   3   8
ATOM      8  C   UNL     1      -5.494  -1.269  -4.404  1.00  0.00     0.114 C 
ATOM      9  C   UNL     1      -6.760  -1.693  -5.143  1.00  0.00     0.027 C 
ENDBRANCH   3   8
ENDBRANCH   1   2
BRANCH   1  10
ATOM     10  C   UNL     1      -3.192  -0.828   0.597  1.00  0.00     0.301 C 
ATOM     11  O   UNL     1      -4.320  -0.300   0.790  1.00  0.00    -0.266 OA
BRANCH  10  12
ATOM     12  N   UNL     1      -1.996  -0.156   1.037  1.00  0.00    -0.089 N 
ATOM     13  N   UNL     1      -0.850  -0.779   1.300  1.00  0.00    -0.116 N 
ATOM     14  C   UNL     1      -1.844   1.176   1.278  1.00  0.00     0.097 A 
ATOM     15  C   UNL     1       0.035   0.142   1.714  1.00  0.00     0.237 A 
ATOM     16  C   UNL     1      -0.548   1.379   1.720  1.00  0.00     0.074 A 
ATOM     17  C   UNL     1       1.354  -0.056   2.115  1.00  0.00     0.091 A 
ATOM     18  C   UNL     1       0.146   2.516   2.129  1.00  0.00     0.018 A 
ATOM     19  C   UNL     1       2.097   1.075   2.523  1.00  0.00    -0.010 A 
ATOM     20  C   UNL     1       1.483   2.355   2.536  1.00  0.00     0.010 A 
ATOM     21  H   UNL     1      -0.682  -1.808   1.227  1.00  0.00     0.489 HD
ATOM     22  C   UNL     1      -2.905   2.224   1.112  1.00  0.00     0.072 C 
BRANCH  19  23
ATOM     23  C   UNL     1       3.501   0.925   2.968  1.00  0.00     0.003 A 
ATOM     24  C   UNL     1       3.849   1.332   4.266  1.00  0.00     0.123 A 
ATOM     25  C   UNL     1       4.508   0.389   2.129  1.00  0.00    -0.037 A 
ATOM     26  N   UNL     1       5.122   1.183   4.716  1.00  0.00    -0.228 NA
ATOM     27  C   UNL     1       5.808   0.237   2.637  1.00  0.00     0.064 A 
ATOM     28  C   UNL     1       6.096   0.645   3.939  1.00  0.00     0.213 A 
ATOM     29  C   UNL     1       4.226  -0.036   0.712  1.00  0.00     0.045 C 
ATOM     30  F   UNL     1       7.352   0.510   4.431  1.00  0.00    -0.185 F 
ENDBRANCH  19  23
ENDBRANCH  10  12
ENDBRANCH   1  10
TORSDOF 5


