REMARK SMILES N#Cc1[nH+]c2cnc(/N=C3\[CH]C=CC3)cc2cc1-c1ccc([O-])cc1
REMARK SMILES IDX 8 1 7 2 6 3 5 4 16 5 15 6 17 7 18 8 3 9 4 10 9 12 10 13
REMARK SMILES IDX 11 14 12 15 13 16 14 17 19 18 20 19 25 20 21 21 24 22 22 23
REMARK SMILES IDX 23 24 2 25 1 26
REMARK H PARENT 4 11
ROOT
ATOM      1  C   UNL     1      -2.362  -0.163  -0.217  1.00  0.00     0.152 A 
ATOM      2  N   UNL     1      -2.500   0.877   0.653  1.00  0.00    -0.230 NA
ATOM      3  C   UNL     1      -1.429   1.530   1.177  1.00  0.00     0.193 A 
ATOM      4  C   UNL     1      -0.129   1.144   0.824  1.00  0.00     0.230 A 
ATOM      5  C   UNL     1       0.041   0.075  -0.077  1.00  0.00     0.052 A 
ATOM      6  C   UNL     1      -1.082  -0.578  -0.600  1.00  0.00     0.064 A 
ATOM      7  C   UNL     1       1.336  -0.312  -0.434  1.00  0.00     0.031 A 
ATOM      8  C   UNL     1       2.448   0.360   0.095  1.00  0.00     0.066 A 
ATOM      9  C   UNL     1       2.230   1.421   1.006  1.00  0.00     0.290 A 
ATOM     10  N   UNL     1       0.958   1.784   1.341  1.00  0.00    -0.194 N 
ATOM     11  H   UNL     1       0.816   2.569   2.018  1.00  0.00     0.455 HD
ENDROOT
BRANCH   1  12
ATOM     12  N   UNL     1      -3.505  -0.835  -0.770  1.00  0.00    -0.237 NA
BRANCH  12  13
ATOM     13  C   UNL     1      -4.758  -0.635  -0.478  1.00  0.00     0.032 C 
ATOM     14  C   UNL     1      -5.281   0.340   0.526  1.00  0.00     0.069 C 
ATOM     15  C   UNL     1      -6.752   0.137   0.397  1.00  0.00    -0.020 C 
ATOM     16  C   UNL     1      -7.061  -0.793  -0.502  1.00  0.00    -0.025 C 
ATOM     17  C   UNL     1      -5.856  -1.383  -1.147  1.00  0.00     0.079 C 
ENDBRANCH  12  13
ENDBRANCH   1  12
BRANCH   8  18
ATOM     18  C   UNL     1       3.809  -0.065  -0.313  1.00  0.00    -0.011 A 
ATOM     19  C   UNL     1       4.711   0.859  -0.868  1.00  0.00     0.008 A 
ATOM     20  C   UNL     1       4.199  -1.409  -0.178  1.00  0.00     0.008 A 
ATOM     21  C   UNL     1       5.988   0.448  -1.264  1.00  0.00    -0.008 A 
ATOM     22  C   UNL     1       5.476  -1.816  -0.575  1.00  0.00    -0.008 A 
ATOM     23  C   UNL     1       6.372  -0.889  -1.116  1.00  0.00    -0.109 A 
ATOM     24  O   UNL     1       7.641  -1.295  -1.510  1.00  0.00    -0.872 OA
ENDBRANCH   8  18
BRANCH   9  25
ATOM     25  C   UNL     1       3.337   2.107   1.632  1.00  0.00     0.170 C 
ATOM     26  N   UNL     1       4.223   2.657   2.134  1.00  0.00    -0.186 NA
ENDBRANCH   9  25
TORSDOF 4


