MODEL 1
REMARK VINA RESULT:      -7.9      0.000      0.000
REMARK SMILES Nc1cccc([NH2+]c2cc(F)cc3cc[nH]c23)c1[O-]
REMARK SMILES IDX 2 1 3 2 4 3 5 4 6 5 18 6 19 7 1 8 7 11 8 14 9 15 17 16 10 17
REMARK SMILES IDX 16 18 13 19 12 20 15 21 14 22 11 23
REMARK H PARENT 1 9 1 10 7 12 7 13 16 24
ROOT
ATOM      1  C   UNL     1      46.852 129.832  14.483  1.00  0.00     0.029 A 
ATOM      2  C   UNL     1      47.434 131.056  14.130  1.00  0.00     0.025 A 
ATOM      3  C   UNL     1      46.839 132.257  14.516  1.00  0.00     0.008 A 
ATOM      4  C   UNL     1      45.657 132.248  15.258  1.00  0.00     0.067 A 
ATOM      5  C   UNL     1      45.054 131.031  15.628  1.00  0.00     0.128 A 
ATOM      6  C   UNL     1      45.660 129.818  15.232  1.00  0.00    -0.021 A 
ATOM      7  O   UNL     1      45.081 128.604  15.584  1.00  0.00    -0.867 OA
ENDROOT
BRANCH   1   8
ATOM      8  N   UNL     1      47.476 128.607  14.079  1.00  0.00    -0.399 N 
ATOM      9  H   UNL     1      47.386 127.746  14.662  1.00  0.00     0.156 HD
ATOM     10  H   UNL     1      48.033 128.546  13.198  1.00  0.00     0.156 HD
ENDBRANCH   1   8
BRANCH   5  11
ATOM     11  N   UNL     1      43.817 131.036  16.373  1.00  0.00    -0.280 N 
ATOM     12  H   UNL     1      43.177 131.767  15.989  1.00  0.00     0.358 HD
ATOM     13  H   UNL     1      43.317 130.123  16.252  1.00  0.00     0.358 HD
BRANCH  11  14
ATOM     14  C   UNL     1      44.082 131.234  17.778  1.00  0.00     0.161 A 
ATOM     15  C   UNL     1      45.309 130.808  18.343  1.00  0.00     0.109 A 
ATOM     16  C   UNL     1      43.159 131.852  18.645  1.00  0.00     0.108 A 
ATOM     17  C   UNL     1      45.589 131.014  19.711  1.00  0.00     0.129 A 
ATOM     18  N   UNL     1      41.924 132.315  18.365  1.00  0.00    -0.356 N 
ATOM     19  C   UNL     1      43.444 132.046  19.975  1.00  0.00     0.008 A 
ATOM     20  C   UNL     1      44.649 131.643  20.542  1.00  0.00     0.050 A 
ATOM     21  C   UNL     1      41.435 132.809  19.524  1.00  0.00     0.083 A 
ATOM     22  C   UNL     1      42.356 132.660  20.553  1.00  0.00     0.028 A 
ATOM     23  F   UNL     1      46.773 130.600  20.225  1.00  0.00    -0.207 F 
ATOM     24  H   UNL     1      41.419 132.299  17.453  1.00  0.00     0.166 HD
ENDBRANCH  11  14
ENDBRANCH   5  11
TORSDOF 3
ENDMDL
MODEL 2
REMARK VINA RESULT:      -7.4      3.932      6.667
REMARK SMILES Nc1cccc([NH2+]c2cc(F)cc3cc[nH]c23)c1[O-]
REMARK SMILES IDX 2 1 3 2 4 3 5 4 6 5 18 6 19 7 1 8 7 11 8 14 9 15 17 16 10 17
REMARK SMILES IDX 16 18 13 19 12 20 15 21 14 22 11 23
REMARK H PARENT 1 9 1 10 7 12 7 13 16 24
ROOT
ATOM      1  C   UNL     1      42.307 128.904  23.934  1.00  0.00     0.029 A 
ATOM      2  C   UNL     1      42.936 127.663  23.773  1.00  0.00     0.025 A 
ATOM      3  C   UNL     1      44.176 127.577  23.141  1.00  0.00     0.008 A 
ATOM      4  C   UNL     1      44.800 128.730  22.663  1.00  0.00     0.067 A 
ATOM      5  C   UNL     1      44.190 129.989  22.815  1.00  0.00     0.128 A 
ATOM      6  C   UNL     1      42.933 130.070  23.454  1.00  0.00    -0.021 A 
ATOM      7  O   UNL     1      42.311 131.302  23.613  1.00  0.00    -0.867 OA
ENDROOT
BRANCH   1   8
ATOM      8  N   UNL     1      41.033 128.974  24.585  1.00  0.00    -0.399 N 
ATOM      9  H   UNL     1      40.176 129.243  24.051  1.00  0.00     0.156 HD
ATOM     10  H   UNL     1      40.929 128.762  25.602  1.00  0.00     0.156 HD
ENDBRANCH   1   8
BRANCH   5  11
ATOM     11  N   UNL     1      44.835 131.171  22.291  1.00  0.00    -0.280 N 
ATOM     12  H   UNL     1      44.484 132.016  22.795  1.00  0.00     0.358 HD
ATOM     13  H   UNL     1      45.866 131.133  22.474  1.00  0.00     0.358 HD
BRANCH  11  14
ATOM     14  C   UNL     1      44.622 131.266  20.867  1.00  0.00     0.161 A 
ATOM     15  C   UNL     1      45.603 130.791  19.962  1.00  0.00     0.109 A 
ATOM     16  C   UNL     1      43.452 131.819  20.308  1.00  0.00     0.108 A 
ATOM     17  C   UNL     1      45.398 130.859  18.567  1.00  0.00     0.129 A 
ATOM     18  N   UNL     1      42.394 132.360  20.944  1.00  0.00    -0.356 N 
ATOM     19  C   UNL     1      43.266 131.880  18.949  1.00  0.00     0.008 A 
ATOM     20  C   UNL     1      44.215 131.407  18.048  1.00  0.00     0.050 A 
ATOM     21  C   UNL     1      41.535 132.756  19.978  1.00  0.00     0.083 A 
ATOM     22  C   UNL     1      42.045 132.472  18.718  1.00  0.00     0.028 A 
ATOM     23  F   UNL     1      46.352 130.393  17.724  1.00  0.00    -0.207 F 
ATOM     24  H   UNL     1      42.244 132.474  21.970  1.00  0.00     0.166 HD
ENDBRANCH  11  14
ENDBRANCH   5  11
TORSDOF 3
ENDMDL
MODEL 3
REMARK VINA RESULT:      -7.2      1.421      1.845
REMARK SMILES Nc1cccc([NH2+]c2cc(F)cc3cc[nH]c23)c1[O-]
REMARK SMILES IDX 2 1 3 2 4 3 5 4 6 5 18 6 19 7 1 8 7 11 8 14 9 15 17 16 10 17
REMARK SMILES IDX 16 18 13 19 12 20 15 21 14 22 11 23
REMARK H PARENT 1 9 1 10 7 12 7 13 16 24
ROOT
ATOM      1  C   UNL     1      46.743 130.616  14.498  1.00  0.00     0.029 A 
ATOM      2  C   UNL     1      46.459 129.249  14.612  1.00  0.00     0.025 A 
ATOM      3  C   UNL     1      45.445 128.808  15.462  1.00  0.00     0.008 A 
ATOM      4  C   UNL     1      44.705 129.728  16.206  1.00  0.00     0.067 A 
ATOM      5  C   UNL     1      44.968 131.106  16.107  1.00  0.00     0.128 A 
ATOM      6  C   UNL     1      45.998 131.547  15.246  1.00  0.00    -0.021 A 
ATOM      7  O   UNL     1      46.277 132.904  15.134  1.00  0.00    -0.867 OA
ENDROOT
BRANCH   1   8
ATOM      8  N   UNL     1      47.788 131.053  13.621  1.00  0.00    -0.399 N 
ATOM      9  H   UNL     1      48.772 130.733  13.765  1.00  0.00     0.156 HD
ATOM     10  H   UNL     1      47.595 131.699  12.824  1.00  0.00     0.156 HD
ENDBRANCH   1   8
BRANCH   5  11
ATOM     11  N   UNL     1      44.211 132.045  16.903  1.00  0.00    -0.280 N 
ATOM     12  H   UNL     1      44.553 133.015  16.723  1.00  0.00     0.358 HD
ATOM     13  H   UNL     1      43.204 132.035  16.615  1.00  0.00     0.358 HD
BRANCH  11  14
ATOM     14  C   UNL     1      44.296 131.695  18.301  1.00  0.00     0.161 A 
ATOM     15  C   UNL     1      45.373 130.908  18.779  1.00  0.00     0.109 A 
ATOM     16  C   UNL     1      43.337 132.108  19.247  1.00  0.00     0.108 A 
ATOM     17  C   UNL     1      45.478 130.575  20.146  1.00  0.00     0.129 A 
ATOM     18  N   UNL     1      42.216 132.829  19.046  1.00  0.00    -0.356 N 
ATOM     19  C   UNL     1      43.451 131.776  20.575  1.00  0.00     0.008 A 
ATOM     20  C   UNL     1      44.509 131.014  21.061  1.00  0.00     0.050 A 
ATOM     21  C   UNL     1      41.629 132.958  20.256  1.00  0.00     0.083 A 
ATOM     22  C   UNL     1      42.371 132.314  21.237  1.00  0.00     0.028 A 
ATOM     23  F   UNL     1      46.522 129.825  20.577  1.00  0.00    -0.207 F 
ATOM     24  H   UNL     1      41.847 133.215  18.149  1.00  0.00     0.166 HD
ENDBRANCH  11  14
ENDBRANCH   5  11
TORSDOF 3
ENDMDL
MODEL 4
REMARK VINA RESULT:      -7.0      4.129      5.789
REMARK SMILES Nc1cccc([NH2+]c2cc(F)cc3cc[nH]c23)c1[O-]
REMARK SMILES IDX 2 1 3 2 4 3 5 4 6 5 18 6 19 7 1 8 7 11 8 14 9 15 17 16 10 17
REMARK SMILES IDX 16 18 13 19 12 20 15 21 14 22 11 23
REMARK H PARENT 1 9 1 10 7 12 7 13 16 24
ROOT
ATOM      1  C   UNL     1      42.981 132.048  19.160  1.00  0.00     0.029 A 
ATOM      2  C   UNL     1      43.932 131.722  18.185  1.00  0.00     0.025 A 
ATOM      3  C   UNL     1      45.139 131.126  18.549  1.00  0.00     0.008 A 
ATOM      4  C   UNL     1      45.409 130.851  19.890  1.00  0.00     0.067 A 
ATOM      5  C   UNL     1      44.469 131.167  20.888  1.00  0.00     0.128 A 
ATOM      6  C   UNL     1      43.249 131.772  20.514  1.00  0.00    -0.021 A 
ATOM      7  O   UNL     1      42.306 132.094  21.484  1.00  0.00    -0.867 OA
ENDROOT
BRANCH   1   8
ATOM      8  N   UNL     1      41.746 132.660  18.770  1.00  0.00    -0.399 N 
ATOM      9  H   UNL     1      40.900 132.588  19.378  1.00  0.00     0.156 HD
ATOM     10  H   UNL     1      41.660 133.189  17.873  1.00  0.00     0.156 HD
ENDBRANCH   1   8
BRANCH   5  11
ATOM     11  N   UNL     1      44.772 130.900  22.276  1.00  0.00    -0.280 N 
ATOM     12  H   UNL     1      45.777 131.113  22.464  1.00  0.00     0.358 HD
ATOM     13  H   UNL     1      44.220 131.539  22.896  1.00  0.00     0.358 HD
BRANCH  11  14
ATOM     14  C   UNL     1      44.440 129.535  22.605  1.00  0.00     0.161 A 
ATOM     15  C   UNL     1      45.297 128.475  22.220  1.00  0.00     0.109 A 
ATOM     16  C   UNL     1      43.273 129.187  23.315  1.00  0.00     0.108 A 
ATOM     17  C   UNL     1      44.994 127.138  22.553  1.00  0.00     0.129 A 
ATOM     18  N   UNL     1      42.292 129.995  23.764  1.00  0.00    -0.356 N 
ATOM     19  C   UNL     1      42.990 127.882  23.633  1.00  0.00     0.008 A 
ATOM     20  C   UNL     1      43.828 126.831  23.271  1.00  0.00     0.050 A 
ATOM     21  C   UNL     1      41.392 129.192  24.374  1.00  0.00     0.083 A 
ATOM     22  C   UNL     1      41.793 127.865  24.313  1.00  0.00     0.028 A 
ATOM     23  F   UNL     1      45.834 126.143  22.175  1.00  0.00    -0.207 F 
ATOM     24  H   UNL     1      42.212 131.031  23.668  1.00  0.00     0.166 HD
ENDBRANCH  11  14
ENDBRANCH   5  11
TORSDOF 3
ENDMDL
MODEL 5
REMARK VINA RESULT:      -7.0      2.654      6.267
REMARK SMILES Nc1cccc([NH2+]c2cc(F)cc3cc[nH]c23)c1[O-]
REMARK SMILES IDX 2 1 3 2 4 3 5 4 6 5 18 6 19 7 1 8 7 11 8 14 9 15 17 16 10 17
REMARK SMILES IDX 16 18 13 19 12 20 15 21 14 22 11 23
REMARK H PARENT 1 9 1 10 7 12 7 13 16 24
ROOT
ATOM      1  C   UNL     1      42.969 131.823  20.881  1.00  0.00     0.029 A 
ATOM      2  C   UNL     1      41.917 132.347  20.118  1.00  0.00     0.025 A 
ATOM      3  C   UNL     1      42.004 132.381  18.726  1.00  0.00     0.008 A 
ATOM      4  C   UNL     1      43.142 131.894  18.083  1.00  0.00     0.067 A 
ATOM      5  C   UNL     1      44.212 131.361  18.826  1.00  0.00     0.128 A 
ATOM      6  C   UNL     1      44.119 131.330  20.235  1.00  0.00    -0.021 A 
ATOM      7  O   UNL     1      45.164 130.810  20.989  1.00  0.00    -0.867 OA
ENDROOT
BRANCH   1   8
ATOM      8  N   UNL     1      42.865 131.796  22.309  1.00  0.00    -0.399 N 
ATOM      9  H   UNL     1      42.017 131.400  22.773  1.00  0.00     0.156 HD
ATOM     10  H   UNL     1      43.627 132.169  22.918  1.00  0.00     0.156 HD
ENDBRANCH   1   8
BRANCH   5  11
ATOM     11  N   UNL     1      45.395 130.884  18.148  1.00  0.00    -0.280 N 
ATOM     12  H   UNL     1      46.224 131.442  18.451  1.00  0.00     0.358 HD
ATOM     13  H   UNL     1      45.597 129.894  18.423  1.00  0.00     0.358 HD
BRANCH  11  14
ATOM     14  C   UNL     1      45.205 130.936  16.718  1.00  0.00     0.161 A 
ATOM     15  C   UNL     1      44.034 131.515  16.171  1.00  0.00     0.109 A 
ATOM     16  C   UNL     1      46.152 130.428  15.807  1.00  0.00     0.108 A 
ATOM     17  C   UNL     1      43.844 131.590  14.775  1.00  0.00     0.129 A 
ATOM     18  N   UNL     1      47.321 129.810  16.068  1.00  0.00    -0.356 N 
ATOM     19  C   UNL     1      45.955 130.507  14.450  1.00  0.00     0.008 A 
ATOM     20  C   UNL     1      44.815 131.083  13.898  1.00  0.00     0.050 A 
ATOM     21  C   UNL     1      47.864 129.506  14.868  1.00  0.00     0.083 A 
ATOM     22  C   UNL     1      47.040 129.926  13.833  1.00  0.00     0.028 A 
ATOM     23  F   UNL     1      42.716 132.154  14.278  1.00  0.00    -0.207 F 
ATOM     24  H   UNL     1      47.742 129.588  16.997  1.00  0.00     0.166 HD
ENDBRANCH  11  14
ENDBRANCH   5  11
TORSDOF 3
ENDMDL
MODEL 6
REMARK VINA RESULT:      -6.7      2.584      6.215
REMARK SMILES Nc1cccc([NH2+]c2cc(F)cc3cc[nH]c23)c1[O-]
REMARK SMILES IDX 2 1 3 2 4 3 5 4 6 5 18 6 19 7 1 8 7 11 8 14 9 15 17 16 10 17
REMARK SMILES IDX 16 18 13 19 12 20 15 21 14 22 11 23
REMARK H PARENT 1 9 1 10 7 12 7 13 16 24
ROOT
ATOM      1  C   UNL     1      44.638 131.690  20.754  1.00  0.00     0.029 A 
ATOM      2  C   UNL     1      43.457 132.268  20.270  1.00  0.00     0.025 A 
ATOM      3  C   UNL     1      43.074 132.083  18.942  1.00  0.00     0.008 A 
ATOM      4  C   UNL     1      43.867 131.320  18.084  1.00  0.00     0.067 A 
ATOM      5  C   UNL     1      45.056 130.727  18.546  1.00  0.00     0.128 A 
ATOM      6  C   UNL     1      45.440 130.919  19.892  1.00  0.00    -0.021 A 
ATOM      7  O   UNL     1      46.612 130.344  20.369  1.00  0.00    -0.867 OA
ENDROOT
BRANCH   1   8
ATOM      8  N   UNL     1      45.017 131.891  22.121  1.00  0.00    -0.399 N 
ATOM      9  H   UNL     1      45.907 132.383  22.359  1.00  0.00     0.156 HD
ATOM     10  H   UNL     1      44.420 131.551  22.907  1.00  0.00     0.156 HD
ENDBRANCH   1   8
BRANCH   5  11
ATOM     11  N   UNL     1      45.881 129.961  17.640  1.00  0.00    -0.280 N 
ATOM     12  H   UNL     1      46.884 130.055  17.912  1.00  0.00     0.358 HD
ATOM     13  H   UNL     1      45.654 128.941  17.717  1.00  0.00     0.358 HD
BRANCH  11  14
ATOM     14  C   UNL     1      45.650 130.383  16.279  1.00  0.00     0.161 A 
ATOM     15  C   UNL     1      44.445 131.040  15.926  1.00  0.00     0.109 A 
ATOM     16  C   UNL     1      46.588 130.174  15.249  1.00  0.00     0.108 A 
ATOM     17  C   UNL     1      44.214 131.475  14.604  1.00  0.00     0.129 A 
ATOM     18  N   UNL     1      47.784 129.556  15.316  1.00  0.00    -0.356 N 
ATOM     19  C   UNL     1      46.352 130.603  13.966  1.00  0.00     0.008 A 
ATOM     20  C   UNL     1      45.178 131.259  13.607  1.00  0.00     0.050 A 
ATOM     21  C   UNL     1      48.304 129.603  14.069  1.00  0.00     0.083 A 
ATOM     22  C   UNL     1      47.438 130.251  13.197  1.00  0.00     0.028 A 
ATOM     23  F   UNL     1      43.054 132.105  14.295  1.00  0.00    -0.207 F 
ATOM     24  H   UNL     1      48.237 129.112  16.144  1.00  0.00     0.166 HD
ENDBRANCH  11  14
ENDBRANCH   5  11
TORSDOF 3
ENDMDL
MODEL 7
REMARK VINA RESULT:      -6.6      3.611      6.608
REMARK SMILES Nc1cccc([NH2+]c2cc(F)cc3cc[nH]c23)c1[O-]
REMARK SMILES IDX 2 1 3 2 4 3 5 4 6 5 18 6 19 7 1 8 7 11 8 14 9 15 17 16 10 17
REMARK SMILES IDX 16 18 13 19 12 20 15 21 14 22 11 23
REMARK H PARENT 1 9 1 10 7 12 7 13 16 24
ROOT
ATOM      1  C   UNL     1      43.873 128.629  23.515  1.00  0.00     0.029 A 
ATOM      2  C   UNL     1      43.102 129.415  24.380  1.00  0.00     0.025 A 
ATOM      3  C   UNL     1      43.057 130.800  24.223  1.00  0.00     0.008 A 
ATOM      4  C   UNL     1      43.783 131.414  23.202  1.00  0.00     0.067 A 
ATOM      5  C   UNL     1      44.563 130.646  22.317  1.00  0.00     0.128 A 
ATOM      6  C   UNL     1      44.607 129.244  22.482  1.00  0.00    -0.021 A 
ATOM      7  O   UNL     1      45.373 128.466  21.622  1.00  0.00    -0.867 OA
ENDROOT
BRANCH   1   8
ATOM      8  N   UNL     1      43.909 127.207  23.689  1.00  0.00    -0.399 N 
ATOM      9  H   UNL     1      43.140 126.714  24.194  1.00  0.00     0.156 HD
ATOM     10  H   UNL     1      44.700 126.634  23.321  1.00  0.00     0.156 HD
ENDBRANCH   1   8
BRANCH   5  11
ATOM     11  N   UNL     1      45.331 131.297  21.281  1.00  0.00    -0.280 N 
ATOM     12  H   UNL     1      45.705 132.205  21.637  1.00  0.00     0.358 HD
ATOM     13  H   UNL     1      46.167 130.718  21.031  1.00  0.00     0.358 HD
BRANCH  11  14
ATOM     14  C   UNL     1      44.522 131.474  20.098  1.00  0.00     0.161 A 
ATOM     15  C   UNL     1      43.229 132.045  20.193  1.00  0.00     0.109 A 
ATOM     16  C   UNL     1      44.963 131.101  18.813  1.00  0.00     0.108 A 
ATOM     17  C   UNL     1      42.435 132.242  19.043  1.00  0.00     0.129 A 
ATOM     18  N   UNL     1      46.126 130.518  18.462  1.00  0.00    -0.356 N 
ATOM     19  C   UNL     1      44.180 131.298  17.702  1.00  0.00     0.008 A 
ATOM     20  C   UNL     1      42.913 131.868  17.778  1.00  0.00     0.050 A 
ATOM     21  C   UNL     1      46.076 130.355  17.121  1.00  0.00     0.083 A 
ATOM     22  C   UNL     1      44.875 130.831  16.610  1.00  0.00     0.028 A 
ATOM     23  F   UNL     1      41.203 132.795  19.162  1.00  0.00    -0.207 F 
ATOM     24  H   UNL     1      46.917 130.230  19.077  1.00  0.00     0.166 HD
ENDBRANCH  11  14
ENDBRANCH   5  11
TORSDOF 3
ENDMDL
MODEL 8
REMARK VINA RESULT:      -6.5      4.405      7.009
REMARK SMILES Nc1cccc([NH2+]c2cc(F)cc3cc[nH]c23)c1[O-]
REMARK SMILES IDX 2 1 3 2 4 3 5 4 6 5 18 6 19 7 1 8 7 11 8 14 9 15 17 16 10 17
REMARK SMILES IDX 16 18 13 19 12 20 15 21 14 22 11 23
REMARK H PARENT 1 9 1 10 7 12 7 13 16 24
ROOT
ATOM      1  C   UNL     1      43.713 126.796  23.155  1.00  0.00     0.029 A 
ATOM      2  C   UNL     1      42.550 126.863  23.932  1.00  0.00     0.025 A 
ATOM      3  C   UNL     1      42.075 128.093  24.386  1.00  0.00     0.008 A 
ATOM      4  C   UNL     1      42.757 129.268  24.069  1.00  0.00     0.067 A 
ATOM      5  C   UNL     1      43.926 129.229  23.287  1.00  0.00     0.128 A 
ATOM      6  C   UNL     1      44.404 127.980  22.832  1.00  0.00    -0.021 A 
ATOM      7  O   UNL     1      45.558 127.916  22.060  1.00  0.00    -0.867 OA
ENDROOT
BRANCH   1   8
ATOM      8  N   UNL     1      44.189 125.525  22.697  1.00  0.00    -0.399 N 
ATOM      9  H   UNL     1      44.384 125.363  21.684  1.00  0.00     0.156 HD
ATOM     10  H   UNL     1      44.349 124.733  23.358  1.00  0.00     0.156 HD
ENDBRANCH   1   8
BRANCH   5  11
ATOM     11  N   UNL     1      44.637 130.451  22.988  1.00  0.00    -0.280 N 
ATOM     12  H   UNL     1      44.621 131.080  23.822  1.00  0.00     0.358 HD
ATOM     13  H   UNL     1      45.647 130.246  22.799  1.00  0.00     0.358 HD
BRANCH  11  14
ATOM     14  C   UNL     1      44.069 131.085  21.823  1.00  0.00     0.161 A 
ATOM     15  C   UNL     1      42.872 131.836  21.927  1.00  0.00     0.109 A 
ATOM     16  C   UNL     1      44.660 130.999  20.547  1.00  0.00     0.108 A 
ATOM     17  C   UNL     1      42.317 132.478  20.800  1.00  0.00     0.129 A 
ATOM     18  N   UNL     1      45.771 130.329  20.180  1.00  0.00    -0.356 N 
ATOM     19  C   UNL     1      44.109 131.628  19.458  1.00  0.00     0.008 A 
ATOM     20  C   UNL     1      42.940 132.378  19.546  1.00  0.00     0.050 A 
ATOM     21  C   UNL     1      45.922 130.547  18.855  1.00  0.00     0.083 A 
ATOM     22  C   UNL     1      44.903 131.354  18.367  1.00  0.00     0.028 A 
ATOM     23  F   UNL     1      41.173 133.194  20.929  1.00  0.00    -0.207 F 
ATOM     24  H   UNL     1      46.400 129.746  20.773  1.00  0.00     0.166 HD
ENDBRANCH  11  14
ENDBRANCH   5  11
TORSDOF 3
ENDMDL
MODEL 9
REMARK VINA RESULT:      -6.5      2.943      6.181
REMARK SMILES Nc1cccc([NH2+]c2cc(F)cc3cc[nH]c23)c1[O-]
REMARK SMILES IDX 2 1 3 2 4 3 5 4 6 5 18 6 19 7 1 8 7 11 8 14 9 15 17 16 10 17
REMARK SMILES IDX 16 18 13 19 12 20 15 21 14 22 11 23
REMARK H PARENT 1 9 1 10 7 12 7 13 16 24
ROOT
ATOM      1  C   UNL     1      44.315 129.734  22.624  1.00  0.00     0.029 A 
ATOM      2  C   UNL     1      43.667 130.960  22.819  1.00  0.00     0.025 A 
ATOM      3  C   UNL     1      43.826 131.997  21.900  1.00  0.00     0.008 A 
ATOM      4  C   UNL     1      44.635 131.819  20.777  1.00  0.00     0.067 A 
ATOM      5  C   UNL     1      45.295 130.596  20.556  1.00  0.00     0.128 A 
ATOM      6  C   UNL     1      45.132 129.551  21.492  1.00  0.00    -0.021 A 
ATOM      7  O   UNL     1      45.777 128.335  21.296  1.00  0.00    -0.867 OA
ENDROOT
BRANCH   1   8
ATOM      8  N   UNL     1      44.142 128.680  23.579  1.00  0.00    -0.399 N 
ATOM      9  H   UNL     1      43.427 127.936  23.425  1.00  0.00     0.156 HD
ATOM     10  H   UNL     1      44.721 128.631  24.446  1.00  0.00     0.156 HD
ENDBRANCH   1   8
BRANCH   5  11
ATOM     11  N   UNL     1      46.151 130.435  19.403  1.00  0.00    -0.280 N 
ATOM     12  H   UNL     1      47.001 131.033  19.509  1.00  0.00     0.358 HD
ATOM     13  H   UNL     1      46.497 129.448  19.344  1.00  0.00     0.358 HD
BRANCH  11  14
ATOM     14  C   UNL     1      45.423 130.743  18.196  1.00  0.00     0.161 A 
ATOM     15  C   UNL     1      44.173 131.407  18.261  1.00  0.00     0.109 A 
ATOM     16  C   UNL     1      45.904 130.412  16.913  1.00  0.00     0.108 A 
ATOM     17  C   UNL     1      43.460 131.731  17.088  1.00  0.00     0.129 A 
ATOM     18  N   UNL     1      47.037 129.761  16.584  1.00  0.00    -0.356 N 
ATOM     19  C   UNL     1      45.200 130.733  15.779  1.00  0.00     0.008 A 
ATOM     20  C   UNL     1      43.977 131.395  15.827  1.00  0.00     0.050 A 
ATOM     21  C   UNL     1      47.048 129.681  15.235  1.00  0.00     0.083 A 
ATOM     22  C   UNL     1      45.917 130.277  14.696  1.00  0.00     0.028 A 
ATOM     23  F   UNL     1      42.268 132.370  17.179  1.00  0.00    -0.207 F 
ATOM     24  H   UNL     1      47.771 129.377  17.220  1.00  0.00     0.166 HD
ENDBRANCH  11  14
ENDBRANCH   5  11
TORSDOF 3
ENDMDL


