REMARK SMILES C=Cc1cc([S-])cc(-c2ccc3c(c2)CC3)c1
REMARK SMILES IDX 3 1 4 2 5 3 6 4 7 5 8 6 17 7 2 8 1 9 9 10 10 11 14 12 11 13
REMARK SMILES IDX 13 14 12 15 15 16 16 17
REMARK H PARENT
ROOT
ATOM      1  C   UNL     1       3.105   0.314  -0.149  1.00  0.00    -0.027 A 
ATOM      2  C   UNL     1       3.404   1.681  -0.254  1.00  0.00    -0.013 A 
ATOM      3  C   UNL     1       2.382   2.623  -0.401  1.00  0.00    -0.174 A 
ATOM      4  S   UNL     1       2.785   4.377  -0.515  1.00  0.00    -0.780 S 
ATOM      5  C   UNL     1       1.050   2.209  -0.455  1.00  0.00    -0.012 A 
ATOM      6  C   UNL     1       0.724   0.845  -0.370  1.00  0.00    -0.019 A 
ATOM      7  C   UNL     1       1.758  -0.097  -0.221  1.00  0.00     0.016 A 
ENDROOT
BRANCH   1   8
ATOM      8  C   UNL     1       4.226  -0.646  -0.004  1.00  0.00     0.000 C 
ATOM      9  C   UNL     1       4.090  -1.892   0.453  1.00  0.00     0.009 C 
ENDBRANCH   1   8
BRANCH   6  10
ATOM     10  C   UNL     1      -0.692   0.405  -0.439  1.00  0.00    -0.018 A 
ATOM     11  C   UNL     1      -1.589   1.019  -1.384  1.00  0.00     0.009 A 
ATOM     12  C   UNL     1      -1.153  -0.625   0.432  1.00  0.00     0.012 A 
ATOM     13  C   UNL     1      -2.949   0.636  -1.489  1.00  0.00     0.004 A 
ATOM     14  C   UNL     1      -2.482  -0.973   0.304  1.00  0.00    -0.044 A 
ATOM     15  C   UNL     1      -3.353  -0.361  -0.628  1.00  0.00    -0.044 A 
ATOM     16  C   UNL     1      -3.586  -1.846   0.791  1.00  0.00     0.040 C 
ATOM     17  C   UNL     1      -4.479  -1.219  -0.166  1.00  0.00     0.040 C 
ENDBRANCH   6  10
TORSDOF 2


