REMARK SMILES C[C@@H]1CCc2ccc(-c3cccnc3F)nc2[C@H]1F
REMARK SMILES IDX 1 1 2 2 3 3 4 4 5 5 6 6 7 7 8 8 16 9 17 10 18 11 19 12 9 13
REMARK SMILES IDX 10 14 14 15 11 16 13 17 12 18 15 19
REMARK H PARENT
ROOT
ATOM      1  C   UNL     1      -4.144   1.991   0.233  1.00  0.00     0.011 C 
ATOM      2  C   UNL     1      -3.176   0.809   0.109  1.00  0.00     0.027 C 
ATOM      3  C   UNL     1      -3.294  -0.114   1.333  1.00  0.00     0.011 C 
ATOM      4  C   UNL     1      -2.434  -1.367   1.144  1.00  0.00     0.038 C 
ATOM      5  C   UNL     1      -1.031  -1.041   0.693  1.00  0.00    -0.023 A 
ATOM      6  C   UNL     1      -0.032  -2.016   0.798  1.00  0.00     0.008 A 
ATOM      7  C   UNL     1       1.256  -1.759   0.330  1.00  0.00     0.029 A 
ATOM      8  C   UNL     1       1.546  -0.517  -0.257  1.00  0.00     0.075 A 
ATOM      9  N   UNL     1       0.554   0.409  -0.366  1.00  0.00    -0.249 NA
ATOM     10  C   UNL     1      -0.717   0.185   0.067  1.00  0.00     0.079 A 
ATOM     11  C   UNL     1      -1.723   1.303  -0.039  1.00  0.00     0.218 C 
ATOM     12  F   UNL     1      -1.576   1.937  -1.262  1.00  0.00    -0.240 F 
ENDROOT
BRANCH   8  13
ATOM     13  C   UNL     1       2.906  -0.197  -0.760  1.00  0.00     0.055 A 
ATOM     14  C   UNL     1       4.053  -0.704  -0.123  1.00  0.00     0.017 A 
ATOM     15  C   UNL     1       3.083   0.645  -1.877  1.00  0.00     0.222 A 
ATOM     16  C   UNL     1       5.324  -0.383  -0.600  1.00  0.00     0.021 A 
ATOM     17  N   UNL     1       4.335   0.939  -2.320  1.00  0.00    -0.228 NA
ATOM     18  C   UNL     1       5.447   0.449  -1.713  1.00  0.00     0.114 A 
ATOM     19  F   UNL     1       2.017   1.154  -2.543  1.00  0.00    -0.184 F 
ENDBRANCH   8  13
TORSDOF 1


