REMARK SMILES C#Cc1cncc(Nc2cc(C=C)cc(-c3ccc4cc[n-]c(=O)c4c3)c2[O-])c1
REMARK SMILES IDX 8 1 7 3 3 4 4 5 29 6 5 7 6 8 2 9 1 10 9 11 10 12 27 13 11 14
REMARK SMILES IDX 15 15 14 16 28 17 12 18 13 19 16 20 17 21 26 22 18 23 25 24
REMARK SMILES IDX 19 25 23 26 20 27 22 28 21 29 24 30
REMARK H PARENT 8 2
ROOT
ATOM      1  N   UNL     1      -2.748  -0.386  -1.051  1.00  0.00    -0.355 N 
ATOM      2  H   UNL     1      -3.320  -0.594  -1.901  1.00  0.00     0.167 HD
ENDROOT
BRANCH   1   3
ATOM      3  C   UNL     1      -3.321   0.465  -0.042  1.00  0.00     0.058 A 
ATOM      4  C   UNL     1      -4.896   2.202   0.583  1.00  0.00     0.045 A 
ATOM      5  C   UNL     1      -4.475   2.080   1.911  1.00  0.00     0.128 A 
ATOM      6  C   UNL     1      -4.318   1.385  -0.394  1.00  0.00     0.046 A 
ATOM      7  N   UNL     1      -3.521   1.170   2.241  1.00  0.00    -0.261 NA
ATOM      8  C   UNL     1      -2.944   0.367   1.309  1.00  0.00     0.137 A 
BRANCH   4   9
ATOM      9  C   UNL     1      -5.912   3.157   0.226  1.00  0.00    -0.069 C 
ATOM     10  C   UNL     1      -6.764   3.957  -0.073  1.00  0.00     0.010 C 
ENDBRANCH   4   9
ENDBRANCH   1   3
BRANCH   1  11
ATOM     11  C   UNL     1      -1.486  -1.057  -0.915  1.00  0.00     0.032 A 
ATOM     12  C   UNL     1      -1.401  -2.418  -1.234  1.00  0.00     0.033 A 
ATOM     13  C   UNL     1      -0.328  -0.358  -0.525  1.00  0.00    -0.077 A 
ATOM     14  C   UNL     1      -0.183  -3.111  -1.110  1.00  0.00    -0.024 A 
ATOM     15  C   UNL     1       0.903  -1.034  -0.418  1.00  0.00    -0.024 A 
ATOM     16  C   UNL     1       0.961  -2.408  -0.704  1.00  0.00     0.016 A 
ATOM     17  O   UNL     1      -0.402   1.005  -0.251  1.00  0.00    -0.871 OA
BRANCH  14  18
ATOM     18  C   UNL     1      -0.051  -4.556  -1.425  1.00  0.00     0.000 C 
ATOM     19  C   UNL     1      -1.076  -5.407  -1.485  1.00  0.00     0.009 C 
ENDBRANCH  14  18
BRANCH  15  20
ATOM     20  C   UNL     1       2.137  -0.321  -0.010  1.00  0.00    -0.018 A 
ATOM     21  C   UNL     1       2.934  -0.829   1.028  1.00  0.00     0.009 A 
ATOM     22  C   UNL     1       2.533   0.855  -0.670  1.00  0.00     0.019 A 
ATOM     23  C   UNL     1       4.102  -0.169   1.416  1.00  0.00     0.009 A 
ATOM     24  C   UNL     1       3.708   1.528  -0.288  1.00  0.00     0.007 A 
ATOM     25  C   UNL     1       4.496   1.009   0.766  1.00  0.00    -0.018 A 
ATOM     26  C   UNL     1       4.129   2.712  -0.928  1.00  0.00     0.086 A 
ATOM     27  C   UNL     1       5.666   1.676   1.149  1.00  0.00    -0.015 A 
ATOM     28  N   UNL     1       5.271   3.330  -0.526  1.00  0.00    -0.629 NA
ATOM     29  C   UNL     1       6.038   2.845   0.484  1.00  0.00    -0.136 A 
ATOM     30  O   UNL     1       3.459   3.211  -1.872  1.00  0.00    -0.315 OA
ENDBRANCH  15  20
ENDBRANCH   1  11
TORSDOF 5


