REMARK SMILES CCC(=O)[C@H](O)[N@@H+]1C[C@H](c2ccc3cc[nH]c3c2)[C@H](C)C[C@H]1F
REMARK SMILES IDX 5 1 3 2 4 3 2 4 1 5 6 6 7 8 8 9 22 10 9 11 21 12 19 13 23 15
REMARK SMILES IDX 20 16 10 17 11 18 18 19 12 20 17 21 13 22 16 23 14 24 15 25
REMARK H PARENT 6 7 7 14 16 26
ROOT
ATOM      1  C   UNL     1      -0.451   0.849  -3.216  1.00  0.00     0.391 C 
ENDROOT
BRANCH   1   2
ATOM      2  C   UNL     1      -1.592  -0.130  -3.002  1.00  0.00     0.218 C 
ATOM      3  O   UNL     1      -2.587   0.233  -2.393  1.00  0.00    -0.290 OA
BRANCH   2   4
ATOM      4  C   UNL     1      -1.507  -1.551  -3.497  1.00  0.00     0.082 C 
ATOM      5  C   UNL     1      -2.578  -1.827  -4.548  1.00  0.00     0.012 C 
ENDBRANCH   2   4
ENDBRANCH   1   2
BRANCH   1   6
ATOM      6  O   UNL     1      -0.158   0.879  -4.591  1.00  0.00    -0.339 OA
ATOM      7  H   UNL     1      -0.884   1.394  -5.032  1.00  0.00     0.217 HD
ENDBRANCH   1   6
BRANCH   1   8
ATOM      8  N   UNL     1       0.765   0.478  -2.432  1.00  0.00    -0.274 N 
ATOM      9  C   UNL     1       0.445   0.402  -0.981  1.00  0.00     0.275 C 
ATOM     10  C   UNL     1       1.858   1.465  -2.659  1.00  0.00     0.369 C 
ATOM     11  C   UNL     1       1.679  -0.013  -0.147  1.00  0.00     0.078 C 
ATOM     12  C   UNL     1       3.129   1.105  -1.867  1.00  0.00     0.107 C 
ATOM     13  C   UNL     1       2.861   0.961  -0.360  1.00  0.00     0.008 C 
ATOM     14  H   UNL     1       1.096  -0.462  -2.755  1.00  0.00     0.353 HD
ATOM     15  F   UNL     1       2.215   1.503  -3.998  1.00  0.00    -0.186 F 
ATOM     16  C   UNL     1       2.672   2.335   0.312  1.00  0.00     0.009 C 
BRANCH  11  17
ATOM     17  C   UNL     1       1.372  -0.246   1.326  1.00  0.00    -0.037 A 
ATOM     18  C   UNL     1       2.033  -1.305   2.007  1.00  0.00     0.005 A 
ATOM     19  C   UNL     1       0.491   0.597   2.052  1.00  0.00     0.031 A 
ATOM     20  C   UNL     1       1.805  -1.541   3.374  1.00  0.00     0.010 A 
ATOM     21  C   UNL     1       0.290   0.334   3.405  1.00  0.00     0.046 A 
ATOM     22  C   UNL     1       0.922  -0.699   4.041  1.00  0.00    -0.001 A 
ATOM     23  N   UNL     1      -0.497   1.009   4.259  1.00  0.00    -0.361 N 
ATOM     24  C   UNL     1       0.520  -0.682   5.358  1.00  0.00     0.028 A 
ATOM     25  C   UNL     1      -0.361   0.391   5.455  1.00  0.00     0.083 A 
ATOM     26  H   UNL     1      -1.091   1.841   4.048  1.00  0.00     0.166 HD
ENDBRANCH  11  17
ENDBRANCH   1   8
TORSDOF 5


