REMARK SMILES N#C[C@H]1c2ccccc2C[C@@H]1NC(=O)C1CCCC1
REMARK SMILES IDX 3 1 4 2 5 3 6 4 7 5 8 6 9 7 10 8 11 9 2 10 1 11 12 12 13 13
REMARK SMILES IDX 14 15 15 16 16 17 19 18 17 19 18 20
REMARK H PARENT 12 14
ROOT
ATOM      1  C   UNL     1       0.498   1.674   0.852  1.00  0.00     0.145 C 
ATOM      2  C   UNL     1       0.328   2.548  -0.336  1.00  0.00    -0.025 A 
ATOM      3  C   UNL     1      -0.715   3.451  -0.573  1.00  0.00     0.005 A 
ATOM      4  C   UNL     1      -0.704   4.198  -1.761  1.00  0.00     0.000 A 
ATOM      5  C   UNL     1       0.341   4.035  -2.689  1.00  0.00     0.000 A 
ATOM      6  C   UNL     1       1.375   3.122  -2.433  1.00  0.00     0.004 A 
ATOM      7  C   UNL     1       1.341   2.383  -1.248  1.00  0.00    -0.041 A 
ATOM      8  C   UNL     1       2.340   1.388  -0.796  1.00  0.00     0.062 C 
ATOM      9  C   UNL     1       1.695   0.760   0.466  1.00  0.00     0.108 C 
ENDROOT
BRANCH   1  10
ATOM     10  C   UNL     1       0.809   2.489   2.037  1.00  0.00     0.073 C 
ATOM     11  N   UNL     1       1.052   3.130   2.969  1.00  0.00    -0.198 NA
ENDBRANCH   1  10
BRANCH   9  12
ATOM     12  N   UNL     1       1.213  -0.599   0.187  1.00  0.00    -0.351 N 
ATOM     13  C   UNL     1       0.839  -1.501   1.240  1.00  0.00     0.223 C 
ATOM     14  H   UNL     1       1.105  -0.918  -0.802  1.00  0.00     0.163 HD
ATOM     15  O   UNL     1       0.969  -1.154   2.446  1.00  0.00    -0.275 OA
BRANCH  13  16
ATOM     16  C   UNL     1       0.270  -2.862   0.922  1.00  0.00     0.078 C 
ATOM     17  C   UNL     1      -1.073  -2.761   0.191  1.00  0.00     0.013 C 
ATOM     18  C   UNL     1       1.202  -3.692   0.026  1.00  0.00     0.013 C 
ATOM     19  C   UNL     1      -1.040  -3.835  -0.882  1.00  0.00     0.001 C 
ATOM     20  C   UNL     1       0.424  -3.989  -1.248  1.00  0.00     0.001 C 
ENDBRANCH  13  16
ENDBRANCH   9  12
TORSDOF 3


