REMARK SMILES Cc1ccc(-c2ccc(N=[N+]=[N-])cc2)c2c[n-]nc12
REMARK SMILES IDX 8 1 7 2 6 3 14 4 13 5 9 6 10 7 11 8 12 9 5 10 4 11 15 12
REMARK SMILES IDX 3 13 16 14 19 15 2 16 17 17 18 18 1 19
REMARK H PARENT
ROOT
ATOM      1  C   UNL     1       1.600  -2.236  -2.813  1.00  0.00     0.011 A 
ATOM      2  C   UNL     1       1.333  -1.034  -2.152  1.00  0.00     0.009 A 
ATOM      3  C   UNL     1       0.718  -1.038  -0.889  1.00  0.00    -0.018 A 
ATOM      4  C   UNL     1       0.390  -2.267  -0.293  1.00  0.00     0.009 A 
ATOM      5  C   UNL     1       0.657  -3.469  -0.954  1.00  0.00     0.011 A 
ATOM      6  C   UNL     1       1.264  -3.460  -2.223  1.00  0.00     0.038 A 
ENDROOT
BRANCH   6   7
ATOM      7  N   UNL     1       1.554  -4.673  -2.931  1.00  0.00    -0.061 NA
BRANCH   7   8
ATOM      8  N   UNL     1       1.286  -5.784  -2.472  1.00  0.00     0.005 N 
ATOM      9  N   UNL     1       1.019  -6.894  -2.014  1.00  0.00    -0.003 NA
ENDBRANCH   7   8
ENDBRANCH   6   7
BRANCH   3  10
ATOM     10  C   UNL     1       0.441   0.233  -0.180  1.00  0.00    -0.011 A 
ATOM     11  C   UNL     1       0.800   0.398   1.177  1.00  0.00     0.010 A 
ATOM     12  C   UNL     1      -0.187   1.319  -0.805  1.00  0.00    -0.014 A 
ATOM     13  C   UNL     1       0.544   1.613   1.851  1.00  0.00     0.006 A 
ATOM     14  C   UNL     1      -0.720   1.494  -2.064  1.00  0.00    -0.113 A 
ATOM     15  C   UNL     1      -0.437   2.494  -0.152  1.00  0.00     0.050 A 
ATOM     16  C   UNL     1      -0.072   2.691   1.183  1.00  0.00    -0.027 A 
ATOM     17  N   UNL     1      -1.250   2.737  -2.132  1.00  0.00    -0.581 NA
ATOM     18  N   UNL     1      -1.080   3.350  -0.965  1.00  0.00    -0.367 NA
ATOM     19  C   UNL     1      -0.393   3.969   1.900  1.00  0.00     0.046 C 
ENDBRANCH   3  10
TORSDOF 3


