REMARK SMILES Cc1cc(N(N)C(=O)O[C@H]2CS(=O)(=O)C[C@@H]2Cl)c([O-])c(-n2nc3ccccc3n2)c1
REMARK SMILES IDX 7 1 8 2 5 3 4 4 2 5 3 6 30 7 20 8 18 9 1 10 19 11 21 12
REMARK SMILES IDX 22 13 29 14 23 15 28 16 24 17 27 18 25 19 26 20 6 21 9 24
REMARK SMILES IDX 10 25 11 26 16 27 12 28 15 29 17 30 13 31 14 32
REMARK H PARENT 6 22 6 23
ROOT
ATOM      1  C   UNL     1      -1.986   1.311  -1.809  1.00  0.00     0.429 C 
ATOM      2  O   UNL     1      -2.772   2.095  -2.408  1.00  0.00    -0.222 OA
ENDROOT
BRANCH   1   3
ATOM      3  N   UNL     1      -2.458   0.027  -1.362  1.00  0.00    -0.214 N 
BRANCH   3   4
ATOM      4  C   UNL     1      -1.608  -0.841  -0.594  1.00  0.00     0.059 A 
ATOM      5  C   UNL     1      -0.536  -3.007  -0.322  1.00  0.00    -0.047 A 
ATOM      6  C   UNL     1      -1.380  -2.150  -1.036  1.00  0.00     0.031 A 
ATOM      7  C   UNL     1       0.058  -2.560   0.866  1.00  0.00     0.033 A 
ATOM      8  C   UNL     1      -0.166  -1.255   1.341  1.00  0.00     0.080 A 
ATOM      9  C   UNL     1      -1.020  -0.399   0.607  1.00  0.00    -0.054 A 
ATOM     10  C   UNL     1      -0.319  -4.416  -0.790  1.00  0.00     0.044 C 
ATOM     11  O   UNL     1      -1.312   0.878   1.076  1.00  0.00    -0.870 OA
BRANCH   8  12
ATOM     12  N   UNL     1       0.473  -0.820   2.561  1.00  0.00    -0.151 N 
ATOM     13  N   UNL     1       0.427   0.429   3.026  1.00  0.00    -0.148 NA
ATOM     14  N   UNL     1       1.196  -1.627   3.337  1.00  0.00    -0.148 NA
ATOM     15  C   UNL     1       1.153   0.407   4.153  1.00  0.00     0.113 A 
ATOM     16  C   UNL     1       1.625  -0.852   4.343  1.00  0.00     0.113 A 
ATOM     17  C   UNL     1       1.430   1.447   5.036  1.00  0.00     0.032 A 
ATOM     18  C   UNL     1       2.419  -1.191   5.434  1.00  0.00     0.032 A 
ATOM     19  C   UNL     1       2.232   1.146   6.156  1.00  0.00     0.002 A 
ATOM     20  C   UNL     1       2.725  -0.167   6.353  1.00  0.00     0.002 A 
ENDBRANCH   8  12
ENDBRANCH   3   4
BRANCH   3  21
ATOM     21  N   UNL     1      -3.707  -0.456  -1.790  1.00  0.00    -0.238 NA
ATOM     22  H   UNL     1      -4.436   0.233  -1.494  1.00  0.00     0.144 HD
ATOM     23  H   UNL     1      -3.697  -0.485  -2.835  1.00  0.00     0.144 HD
ENDBRANCH   3  21
ENDBRANCH   1   3
BRANCH   1  24
ATOM     24  O   UNL     1      -0.654   1.680  -1.581  1.00  0.00    -0.442 OA
BRANCH  24  25
ATOM     25  C   UNL     1      -0.065   2.892  -2.054  1.00  0.00     0.212 C 
ATOM     26  C   UNL     1       1.068   3.302  -1.112  1.00  0.00     0.183 C 
ATOM     27  C   UNL     1       0.537   2.699  -3.461  1.00  0.00     0.138 C 
ATOM     28  S   UNL     1       2.209   4.203  -2.115  1.00  0.00     0.155 S 
ATOM     29  C   UNL     1       1.552   3.815  -3.708  1.00  0.00     0.160 C 
ATOM     30  Cl  UNL     1      -0.720   2.705  -4.729  1.00  0.00    -0.118 Cl
ATOM     31  O   UNL     1       2.147   5.678  -1.837  1.00  0.00    -0.229 OA
ATOM     32  O   UNL     1       3.612   3.688  -1.954  1.00  0.00    -0.229 OA
ENDBRANCH  24  25
ENDBRANCH   1  24
TORSDOF 6


