REMARK SMILES C[NH2+]/C=C(\O)N1CCC[C@H](Cc2cc3ccccc3[nH]2)C1
REMARK SMILES IDX 6 1 7 2 8 3 9 4 10 5 21 6 4 7 5 8 3 10 2 11 1 14 11 15 12 16
REMARK SMILES IDX 13 17 20 18 14 19 19 20 15 21 18 22 16 23 17 24
REMARK H PARENT 5 9 2 12 2 13 20 25
ROOT
ATOM      1  N   UNL     1       1.835  -0.861  -0.471  1.00  0.00    -0.338 N 
ATOM      2  C   UNL     1       3.252  -1.237  -0.467  1.00  0.00     0.120 C 
ATOM      3  C   UNL     1       3.972  -0.564   0.705  1.00  0.00     0.022 C 
ATOM      4  C   UNL     1       3.238  -0.826   2.026  1.00  0.00     0.007 C 
ATOM      5  C   UNL     1       1.771  -0.359   1.944  1.00  0.00     0.014 C 
ATOM      6  C   UNL     1       1.066  -1.059   0.765  1.00  0.00     0.123 C 
ENDROOT
BRANCH   1   7
ATOM      7  C   UNL     1       1.159  -0.634  -1.721  1.00  0.00     0.242 C 
BRANCH   7   8
ATOM      8  O   UNL     1       1.429  -1.452  -2.818  1.00  0.00    -0.491 OA
ATOM      9  H   UNL     1       2.060  -2.241  -2.747  1.00  0.00     0.295 HD
ENDBRANCH   7   8
BRANCH   7  10
ATOM     10  C   UNL     1       0.280   0.369  -1.845  1.00  0.00     0.286 C 
BRANCH  10  11
ATOM     11  N   UNL     1      -0.412   0.603  -3.086  1.00  0.00    -0.318 N 
ATOM     12  H   UNL     1      -0.974  -0.244  -3.334  1.00  0.00     0.351 HD
ATOM     13  H   UNL     1       0.286   0.797  -3.841  1.00  0.00     0.351 HD
ATOM     14  C   UNL     1      -1.315   1.750  -2.972  1.00  0.00     0.336 C 
ENDBRANCH  10  11
ENDBRANCH   7  10
ENDBRANCH   1   7
BRANCH   5  15
ATOM     15  C   UNL     1       1.049  -0.630   3.280  1.00  0.00     0.059 C 
BRANCH  15  16
ATOM     16  C   UNL     1      -0.325  -0.027   3.298  1.00  0.00     0.016 A 
ATOM     17  C   UNL     1      -0.603   1.325   3.486  1.00  0.00     0.031 A 
ATOM     18  N   UNL     1      -1.455  -0.727   3.040  1.00  0.00    -0.358 N 
ATOM     19  C   UNL     1      -1.969   1.428   3.340  1.00  0.00    -0.000 A 
ATOM     20  C   UNL     1      -2.451   0.173   3.071  1.00  0.00     0.046 A 
ATOM     21  C   UNL     1      -2.806   2.539   3.408  1.00  0.00     0.010 A 
ATOM     22  C   UNL     1      -3.808  -0.057   2.848  1.00  0.00     0.026 A 
ATOM     23  C   UNL     1      -4.182   2.337   3.192  1.00  0.00     0.001 A 
ATOM     24  C   UNL     1      -4.681   1.045   2.913  1.00  0.00     0.002 A 
ATOM     25  H   UNL     1      -1.534  -1.748   2.835  1.00  0.00     0.166 HD
ENDBRANCH  15  16
ENDBRANCH   5  15
TORSDOF 6


