REMARK SMILES O=C(Oc1ccc([NH2+]c2ccc3cc[nH]c3c2)c(F)c1)[C@H](O)CC1CC1
REMARK SMILES IDX 3 1 2 2 1 3 21 4 22 5 23 7 24 8 25 9 26 10 4 11 5 12 20 13
REMARK SMILES IDX 6 14 18 15 7 16 19 17 8 18 9 21 10 22 17 23 11 24 16 25
REMARK SMILES IDX 12 26 15 27 13 28 14 29
REMARK H PARENT 22 6 8 19 8 20 15 30
ROOT
ATOM      1  O   UNL     1       2.472   0.535   1.299  1.00  0.00    -0.425 OA
ENDROOT
BRANCH   1   2
ATOM      2  C   UNL     1       3.225   0.561   0.116  1.00  0.00     0.340 C 
ATOM      3  O   UNL     1       2.832  -0.040  -0.920  1.00  0.00    -0.249 OA
BRANCH   2   4
ATOM      4  C   UNL     1       4.447   1.431   0.044  1.00  0.00     0.224 C 
BRANCH   4   5
ATOM      5  O   UNL     1       5.083   1.484   1.295  1.00  0.00    -0.381 OA
ATOM      6  H   UNL     1       5.590   0.637   1.394  1.00  0.00     0.211 HD
ENDBRANCH   4   5
BRANCH   4   7
ATOM      7  C   UNL     1       4.081   2.850  -0.416  1.00  0.00     0.047 C 
BRANCH   7   8
ATOM      8  C   UNL     1       3.160   3.571   0.583  1.00  0.00    -0.008 C 
ATOM      9  C   UNL     1       2.423   4.773   0.009  1.00  0.00     0.004 C 
ATOM     10  C   UNL     1       1.667   3.486   0.298  1.00  0.00     0.004 C 
ENDBRANCH   7   8
ENDBRANCH   4   7
ENDBRANCH   2   4
ENDBRANCH   1   2
BRANCH   1  11
ATOM     11  C   UNL     1       1.332  -0.248   1.526  1.00  0.00     0.134 A 
ATOM     12  C   UNL     1       0.345   0.252   2.380  1.00  0.00     0.053 A 
ATOM     13  C   UNL     1       1.161  -1.520   0.951  1.00  0.00     0.093 A 
ATOM     14  C   UNL     1      -0.821  -0.477   2.624  1.00  0.00     0.075 A 
ATOM     15  C   UNL     1      -0.007  -2.253   1.189  1.00  0.00     0.187 A 
ATOM     16  C   UNL     1      -1.014  -1.734   2.027  1.00  0.00     0.170 A 
ATOM     17  F   UNL     1      -0.152  -3.469   0.606  1.00  0.00    -0.200 F 
BRANCH  16  18
ATOM     18  N   UNL     1      -2.244  -2.457   2.245  1.00  0.00    -0.279 N 
ATOM     19  H   UNL     1      -2.565  -2.320   3.233  1.00  0.00     0.358 HD
ATOM     20  H   UNL     1      -2.098  -3.486   2.119  1.00  0.00     0.358 HD
BRANCH  18  21
ATOM     21  C   UNL     1      -3.249  -1.984   1.328  1.00  0.00     0.136 A 
ATOM     22  C   UNL     1      -4.102  -0.908   1.693  1.00  0.00     0.069 A 
ATOM     23  C   UNL     1      -3.350  -2.542   0.032  1.00  0.00     0.094 A 
ATOM     24  C   UNL     1      -5.052  -0.401   0.788  1.00  0.00     0.016 A 
ATOM     25  C   UNL     1      -4.295  -2.009  -0.844  1.00  0.00     0.051 A 
ATOM     26  C   UNL     1      -5.118  -0.980  -0.476  1.00  0.00    -0.000 A 
ATOM     27  N   UNL     1      -4.529  -2.374  -2.116  1.00  0.00    -0.361 N 
ATOM     28  C   UNL     1      -5.912  -0.677  -1.560  1.00  0.00     0.028 A 
ATOM     29  C   UNL     1      -5.517  -1.563  -2.558  1.00  0.00     0.083 A 
ATOM     30  H   UNL     1      -4.036  -3.116  -2.663  1.00  0.00     0.166 HD
ENDBRANCH  18  21
ENDBRANCH  16  18
ENDBRANCH   1  11
TORSDOF 8


