REMARK SMILES C=C1CC[C@H]2CC(c3nc[nH+]c4c3COC4)=N[C@H]2C1
REMARK SMILES IDX 1 1 2 2 3 3 4 4 5 5 6 6 7 7 17 8 18 9 19 10 8 11 9 12 13 13
REMARK SMILES IDX 10 14 12 15 14 16 11 17 16 18 15 19
REMARK H PARENT 11 20
ROOT
ATOM      1  C   UNL     1      -3.803  -3.815   2.467  1.00  0.00     0.008 C 
ATOM      2  C   UNL     1      -2.667  -3.121   2.311  1.00  0.00    -0.075 C 
ATOM      3  C   UNL     1      -1.652  -3.075   3.430  1.00  0.00     0.031 C 
ATOM      4  C   UNL     1      -0.366  -2.367   2.984  1.00  0.00     0.010 C 
ATOM      5  C   UNL     1      -0.678  -0.984   2.373  1.00  0.00     0.020 C 
ATOM      6  C   UNL     1       0.543  -0.373   1.669  1.00  0.00     0.066 C 
ATOM      7  C   UNL     1       0.064  -0.149   0.280  1.00  0.00     0.087 C 
ATOM      8  N   UNL     1      -1.161  -0.495   0.083  1.00  0.00    -0.281 NA
ATOM      9  C   UNL     1      -1.784  -1.019   1.284  1.00  0.00     0.113 C 
ATOM     10  C   UNL     1      -2.363  -2.418   1.009  1.00  0.00     0.058 C 
ENDROOT
BRANCH   7  11
ATOM     11  C   UNL     1       0.917   0.415  -0.788  1.00  0.00     0.205 A 
ATOM     12  N   UNL     1       2.202   0.777  -0.500  1.00  0.00    -0.047 NA
ATOM     13  C   UNL     1       0.471   0.601  -2.104  1.00  0.00     0.076 A 
ATOM     14  C   UNL     1       3.028   1.301  -1.455  1.00  0.00     0.449 A 
ATOM     15  C   UNL     1       1.301   1.117  -3.026  1.00  0.00     0.137 A 
ATOM     16  C   UNL     1      -0.826   0.323  -2.758  1.00  0.00     0.205 C 
ATOM     17  N   UNL     1       2.576   1.473  -2.730  1.00  0.00    -0.245 N 
ATOM     18  C   UNL     1       0.614   1.211  -4.322  1.00  0.00     0.241 C 
ATOM     19  O   UNL     1      -0.702   0.710  -4.123  1.00  0.00    -0.368 OA
ATOM     20  H   UNL     1       3.202   1.872  -3.465  1.00  0.00     0.311 HD
ENDBRANCH   7  11
TORSDOF 1


