MODEL 1
REMARK VINA RESULT:      -6.8      0.000      0.000
REMARK SMILES C[C@H](Cn1cccc1C[N-]C(=O)c1ccc2cc[nH]c2c1N)OCCC#N
REMARK SMILES IDX 4 1 5 2 6 3 7 4 8 5 3 6 2 7 1 8 23 9 24 10 25 11 26 12 27 13
REMARK SMILES IDX 9 14 10 15 11 16 12 17 13 18 14 19 21 20 15 21 20 22 16 23
REMARK SMILES IDX 19 24 17 25 18 26 22 28
REMARK H PARENT 19 27 22 29 22 30
ROOT
ATOM      1  N   UNL     1      44.360 131.222  18.792  1.00  0.00    -0.350 N 
ATOM      2  C   UNL     1      43.302 131.619  18.056  1.00  0.00     0.086 A 
ATOM      3  C   UNL     1      42.397 132.290  18.854  1.00  0.00     0.020 A 
ATOM      4  C   UNL     1      42.923 132.298  20.132  1.00  0.00     0.021 A 
ATOM      5  C   UNL     1      44.127 131.622  20.063  1.00  0.00     0.000 A 
ENDROOT
BRANCH   1   6
ATOM      6  C   UNL     1      45.490 130.435  18.291  1.00  0.00     0.153 C 
BRANCH   6   7
ATOM      7  C   UNL     1      45.562 130.518  16.760  1.00  0.00     0.135 C 
ATOM      8  C   UNL     1      45.580 131.979  16.309  1.00  0.00     0.040 C 
BRANCH   7   9
ATOM      9  O   UNL     1      46.751 129.886  16.317  1.00  0.00    -0.376 OA
BRANCH   9  10
ATOM     10  C   UNL     1      46.576 129.329  15.030  1.00  0.00     0.176 C 
BRANCH  10  11
ATOM     11  C   UNL     1      47.903 129.350  14.276  1.00  0.00     0.148 C 
BRANCH  11  12
ATOM     12  C   UNL     1      47.941 130.454  13.309  1.00  0.00     0.065 C 
ATOM     13  N   UNL     1      47.971 131.323  12.544  1.00  0.00    -0.198 NA
ENDBRANCH  11  12
ENDBRANCH  10  11
ENDBRANCH   9  10
ENDBRANCH   7   9
ENDBRANCH   6   7
ENDBRANCH   1   6
BRANCH   5  14
ATOM     14  C   UNL     1      45.058 131.416  21.218  1.00  0.00    -0.062 C 
BRANCH  14  15
ATOM     15  N   UNL     1      44.353 131.689  22.461  1.00  0.00    -0.644 NA
BRANCH  15  16
ATOM     16  C   UNL     1      43.221 130.929  22.897  1.00  0.00     0.084 C 
ATOM     17  O   UNL     1      42.092 131.482  22.989  1.00  0.00    -0.315 OA
BRANCH  16  18
ATOM     18  C   UNL     1      43.374 129.484  23.178  1.00  0.00     0.024 A 
ATOM     19  C   UNL     1      44.541 128.828  22.706  1.00  0.00     0.013 A 
ATOM     20  C   UNL     1      42.373 128.731  23.865  1.00  0.00     0.065 A 
ATOM     21  C   UNL     1      44.716 127.447  22.876  1.00  0.00     0.011 A 
ATOM     22  C   UNL     1      42.582 127.349  24.001  1.00  0.00     0.069 A 
ATOM     23  C   UNL     1      43.712 126.739  23.522  1.00  0.00     0.002 A 
ATOM     24  N   UNL     1      41.788 126.445  24.608  1.00  0.00    -0.359 N 
ATOM     25  C   UNL     1      43.630 125.400  23.829  1.00  0.00     0.028 A 
ATOM     26  C   UNL     1      42.424 125.256  24.502  1.00  0.00     0.083 A 
ATOM     27  H   UNL     1      40.871 126.606  25.077  1.00  0.00     0.166 HD
BRANCH  20  28
ATOM     28  N   UNL     1      41.221 129.355  24.452  1.00  0.00    -0.396 N 
ATOM     29  H   UNL     1      41.167 129.548  25.475  1.00  0.00     0.156 HD
ATOM     30  H   UNL     1      40.363 129.544  23.893  1.00  0.00     0.156 HD
ENDBRANCH  20  28
ENDBRANCH  16  18
ENDBRANCH  15  16
ENDBRANCH  14  15
ENDBRANCH   5  14
TORSDOF 11
ENDMDL
MODEL 2
REMARK VINA RESULT:      -6.7      1.483      1.990
REMARK SMILES C[C@H](Cn1cccc1C[N-]C(=O)c1ccc2cc[nH]c2c1N)OCCC#N
REMARK SMILES IDX 4 1 5 2 6 3 7 4 8 5 3 6 2 7 1 8 23 9 24 10 25 11 26 12 27 13
REMARK SMILES IDX 9 14 10 15 11 16 12 17 13 18 14 19 21 20 15 21 20 22 16 23
REMARK SMILES IDX 19 24 17 25 18 26 22 28
REMARK H PARENT 19 27 22 29 22 30
ROOT
ATOM      1  N   UNL     1      42.973 131.763  19.406  1.00  0.00    -0.350 N 
ATOM      2  C   UNL     1      41.946 132.630  19.302  1.00  0.00     0.086 A 
ATOM      3  C   UNL     1      41.613 133.119  20.550  1.00  0.00     0.020 A 
ATOM      4  C   UNL     1      42.470 132.521  21.453  1.00  0.00     0.021 A 
ATOM      5  C   UNL     1      43.288 131.682  20.719  1.00  0.00     0.000 A 
ENDROOT
BRANCH   1   6
ATOM      6  C   UNL     1      43.556 131.007  18.295  1.00  0.00     0.153 C 
BRANCH   6   7
ATOM      7  C   UNL     1      44.941 131.564  17.938  1.00  0.00     0.135 C 
ATOM      8  C   UNL     1      45.984 130.447  17.963  1.00  0.00     0.040 C 
BRANCH   7   9
ATOM      9  O   UNL     1      44.895 132.121  16.635  1.00  0.00    -0.376 OA
BRANCH   9  10
ATOM     10  C   UNL     1      44.013 131.392  15.806  1.00  0.00     0.176 C 
BRANCH  10  11
ATOM     11  C   UNL     1      44.427 131.555  14.345  1.00  0.00     0.148 C 
BRANCH  11  12
ATOM     12  C   UNL     1      45.775 131.020  14.118  1.00  0.00     0.065 C 
ATOM     13  N   UNL     1      46.839 130.600  13.938  1.00  0.00    -0.198 NA
ENDBRANCH  11  12
ENDBRANCH  10  11
ENDBRANCH   9  10
ENDBRANCH   7   9
ENDBRANCH   6   7
ENDBRANCH   1   6
BRANCH   5  14
ATOM     14  C   UNL     1      44.395 130.852  21.293  1.00  0.00    -0.062 C 
BRANCH  14  15
ATOM     15  N   UNL     1      44.210 130.726  22.731  1.00  0.00    -0.644 NA
BRANCH  15  16
ATOM     16  C   UNL     1      43.373 129.726  23.322  1.00  0.00     0.084 C 
ATOM     17  O   UNL     1      42.313 130.065  23.913  1.00  0.00    -0.315 OA
BRANCH  16  18
ATOM     18  C   UNL     1      43.730 128.297  23.182  1.00  0.00     0.024 A 
ATOM     19  C   UNL     1      44.960 127.971  22.554  1.00  0.00     0.013 A 
ATOM     20  C   UNL     1      42.862 127.249  23.616  1.00  0.00     0.065 A 
ATOM     21  C   UNL     1      45.327 126.636  22.325  1.00  0.00     0.011 A 
ATOM     22  C   UNL     1      43.262 125.928  23.355  1.00  0.00     0.069 A 
ATOM     23  C   UNL     1      44.449 125.642  22.734  1.00  0.00     0.002 A 
ATOM     24  N   UNL     1      42.618 124.788  23.673  1.00  0.00    -0.359 N 
ATOM     25  C   UNL     1      44.560 124.272  22.646  1.00  0.00     0.028 A 
ATOM     26  C   UNL     1      43.406 123.778  23.239  1.00  0.00     0.083 A 
ATOM     27  H   UNL     1      41.701 124.680  24.159  1.00  0.00     0.166 HD
BRANCH  20  28
ATOM     28  N   UNL     1      41.655 127.514  24.346  1.00  0.00    -0.396 N 
ATOM     29  H   UNL     1      41.119 126.751  24.811  1.00  0.00     0.156 HD
ATOM     30  H   UNL     1      41.221 128.462  24.350  1.00  0.00     0.156 HD
ENDBRANCH  20  28
ENDBRANCH  16  18
ENDBRANCH  15  16
ENDBRANCH  14  15
ENDBRANCH   5  14
TORSDOF 11
ENDMDL
MODEL 3
REMARK VINA RESULT:      -5.3      1.485      1.919
REMARK SMILES C[C@H](Cn1cccc1C[N-]C(=O)c1ccc2cc[nH]c2c1N)OCCC#N
REMARK SMILES IDX 4 1 5 2 6 3 7 4 8 5 3 6 2 7 1 8 23 9 24 10 25 11 26 12 27 13
REMARK SMILES IDX 9 14 10 15 11 16 12 17 13 18 14 19 21 20 15 21 20 22 16 23
REMARK SMILES IDX 19 24 17 25 18 26 22 28
REMARK H PARENT 19 27 22 29 22 30
ROOT
ATOM      1  N   UNL     1      44.722 131.068  18.680  1.00  0.00    -0.350 N 
ATOM      2  C   UNL     1      43.872 131.810  17.942  1.00  0.00     0.086 A 
ATOM      3  C   UNL     1      42.849 132.286  18.738  1.00  0.00     0.020 A 
ATOM      4  C   UNL     1      43.082 131.810  20.014  1.00  0.00     0.021 A 
ATOM      5  C   UNL     1      44.236 131.053  19.943  1.00  0.00     0.000 A 
ENDROOT
BRANCH   1   6
ATOM      6  C   UNL     1      45.893 130.358  18.160  1.00  0.00     0.153 C 
BRANCH   6   7
ATOM      7  C   UNL     1      45.733 130.092  16.658  1.00  0.00     0.135 C 
ATOM      8  C   UNL     1      44.305 130.408  16.213  1.00  0.00     0.040 C 
BRANCH   7   9
ATOM      9  O   UNL     1      46.631 130.923  15.942  1.00  0.00    -0.376 OA
BRANCH   9  10
ATOM     10  C   UNL     1      45.956 131.642  14.931  1.00  0.00     0.176 C 
BRANCH  10  11
ATOM     11  C   UNL     1      46.327 131.077  13.561  1.00  0.00     0.148 C 
BRANCH  11  12
ATOM     12  C   UNL     1      47.530 130.240  13.647  1.00  0.00     0.065 C 
ATOM     13  N   UNL     1      48.480 129.582  13.714  1.00  0.00    -0.198 NA
ENDBRANCH  11  12
ENDBRANCH  10  11
ENDBRANCH   9  10
ENDBRANCH   7   9
ENDBRANCH   6   7
ENDBRANCH   1   6
BRANCH   5  14
ATOM     14  C   UNL     1      44.880 130.367  21.109  1.00  0.00    -0.062 C 
BRANCH  14  15
ATOM     15  N   UNL     1      44.694 131.172  22.306  1.00  0.00    -0.644 NA
BRANCH  15  16
ATOM     16  C   UNL     1      44.208 130.630  23.539  1.00  0.00     0.084 C 
ATOM     17  O   UNL     1      44.426 131.240  24.621  1.00  0.00    -0.315 OA
BRANCH  16  18
ATOM     18  C   UNL     1      43.402 129.389  23.527  1.00  0.00     0.024 A 
ATOM     19  C   UNL     1      42.017 129.486  23.826  1.00  0.00     0.013 A 
ATOM     20  C   UNL     1      43.978 128.108  23.271  1.00  0.00     0.065 A 
ATOM     21  C   UNL     1      41.210 128.342  23.902  1.00  0.00     0.011 A 
ATOM     22  C   UNL     1      43.137 126.988  23.371  1.00  0.00     0.069 A 
ATOM     23  C   UNL     1      41.806 127.110  23.675  1.00  0.00     0.002 A 
ATOM     24  N   UNL     1      43.451 125.693  23.169  1.00  0.00    -0.359 N 
ATOM     25  C   UNL     1      41.257 125.847  23.674  1.00  0.00     0.028 A 
ATOM     26  C   UNL     1      42.307 124.996  23.357  1.00  0.00     0.083 A 
ATOM     27  H   UNL     1      44.378 125.288  22.914  1.00  0.00     0.166 HD
BRANCH  20  28
ATOM     28  N   UNL     1      45.347 127.957  22.866  1.00  0.00    -0.396 N 
ATOM     29  H   UNL     1      46.002 127.331  23.380  1.00  0.00     0.156 HD
ATOM     30  H   UNL     1      45.756 128.543  22.107  1.00  0.00     0.156 HD
ENDBRANCH  20  28
ENDBRANCH  16  18
ENDBRANCH  15  16
ENDBRANCH  14  15
ENDBRANCH   5  14
TORSDOF 11
ENDMDL
MODEL 4
REMARK VINA RESULT:      -5.1      2.815      7.563
REMARK SMILES C[C@H](Cn1cccc1C[N-]C(=O)c1ccc2cc[nH]c2c1N)OCCC#N
REMARK SMILES IDX 4 1 5 2 6 3 7 4 8 5 3 6 2 7 1 8 23 9 24 10 25 11 26 12 27 13
REMARK SMILES IDX 9 14 10 15 11 16 12 17 13 18 14 19 21 20 15 21 20 22 16 23
REMARK SMILES IDX 19 24 17 25 18 26 22 28
REMARK H PARENT 19 27 22 29 22 30
ROOT
ATOM      1  N   UNL     1      43.650 128.038  24.035  1.00  0.00    -0.350 N 
ATOM      2  C   UNL     1      42.444 127.811  24.595  1.00  0.00     0.086 A 
ATOM      3  C   UNL     1      41.505 128.667  24.055  1.00  0.00     0.020 A 
ATOM      4  C   UNL     1      42.166 129.452  23.131  1.00  0.00     0.021 A 
ATOM      5  C   UNL     1      43.488 129.049  23.150  1.00  0.00     0.000 A 
ENDROOT
BRANCH   1   6
ATOM      6  C   UNL     1      44.894 127.356  24.402  1.00  0.00     0.153 C 
BRANCH   6   7
ATOM      7  C   UNL     1      45.228 126.267  23.375  1.00  0.00     0.135 C 
ATOM      8  C   UNL     1      44.570 126.585  22.031  1.00  0.00     0.040 C 
BRANCH   7   9
ATOM      9  O   UNL     1      46.634 126.213  23.196  1.00  0.00    -0.376 OA
BRANCH   9  10
ATOM     10  C   UNL     1      47.215 125.257  24.059  1.00  0.00     0.176 C 
BRANCH  10  11
ATOM     11  C   UNL     1      48.526 125.802  24.622  1.00  0.00     0.148 C 
BRANCH  11  12
ATOM     12  C   UNL     1      49.471 126.117  23.543  1.00  0.00     0.065 C 
ATOM     13  N   UNL     1      50.214 126.366  22.692  1.00  0.00    -0.198 NA
ENDBRANCH  11  12
ENDBRANCH  10  11
ENDBRANCH   9  10
ENDBRANCH   7   9
ENDBRANCH   6   7
ENDBRANCH   1   6
BRANCH   5  14
ATOM     14  C   UNL     1      44.567 129.614  22.277  1.00  0.00    -0.062 C 
BRANCH  14  15
ATOM     15  N   UNL     1      44.260 131.001  21.967  1.00  0.00    -0.644 NA
BRANCH  15  16
ATOM     16  C   UNL     1      43.529 131.394  20.800  1.00  0.00     0.084 C 
ATOM     17  O   UNL     1      42.374 131.885  20.920  1.00  0.00    -0.315 OA
BRANCH  16  18
ATOM     18  C   UNL     1      44.159 131.276  19.467  1.00  0.00     0.024 A 
ATOM     19  C   UNL     1      45.413 130.616  19.373  1.00  0.00     0.013 A 
ATOM     20  C   UNL     1      43.571 131.838  18.293  1.00  0.00     0.065 A 
ATOM     21  C   UNL     1      46.099 130.532  18.153  1.00  0.00     0.011 A 
ATOM     22  C   UNL     1      44.299 131.743  17.095  1.00  0.00     0.069 A 
ATOM     23  C   UNL     1      45.514 131.112  17.037  1.00  0.00     0.002 A 
ATOM     24  N   UNL     1      43.947 132.189  15.873  1.00  0.00    -0.359 N 
ATOM     25  C   UNL     1      45.954 131.167  15.733  1.00  0.00     0.028 A 
ATOM     26  C   UNL     1      44.957 131.842  15.042  1.00  0.00     0.083 A 
ATOM     27  H   UNL     1      43.078 132.696  15.598  1.00  0.00     0.166 HD
BRANCH  20  28
ATOM     28  N   UNL     1      42.263 132.428  18.305  1.00  0.00    -0.396 N 
ATOM     29  H   UNL     1      41.501 132.078  17.686  1.00  0.00     0.156 HD
ATOM     30  H   UNL     1      42.060 133.286  18.860  1.00  0.00     0.156 HD
ENDBRANCH  20  28
ENDBRANCH  16  18
ENDBRANCH  15  16
ENDBRANCH  14  15
ENDBRANCH   5  14
TORSDOF 11
ENDMDL
MODEL 5
REMARK VINA RESULT:      -4.4      2.504      7.908
REMARK SMILES C[C@H](Cn1cccc1C[N-]C(=O)c1ccc2cc[nH]c2c1N)OCCC#N
REMARK SMILES IDX 4 1 5 2 6 3 7 4 8 5 3 6 2 7 1 8 23 9 24 10 25 11 26 12 27 13
REMARK SMILES IDX 9 14 10 15 11 16 12 17 13 18 14 19 21 20 15 21 20 22 16 23
REMARK SMILES IDX 19 24 17 25 18 26 22 28
REMARK H PARENT 19 27 22 29 22 30
ROOT
ATOM      1  N   UNL     1      44.328 129.355  23.460  1.00  0.00    -0.350 N 
ATOM      2  C   UNL     1      44.104 129.999  24.624  1.00  0.00     0.086 A 
ATOM      3  C   UNL     1      43.746 131.309  24.376  1.00  0.00     0.020 A 
ATOM      4  C   UNL     1      43.758 131.474  23.005  1.00  0.00     0.021 A 
ATOM      5  C   UNL     1      44.132 130.255  22.469  1.00  0.00     0.000 A 
ENDROOT
BRANCH   1   6
ATOM      6  C   UNL     1      44.779 127.967  23.336  1.00  0.00     0.153 C 
BRANCH   6   7
ATOM      7  C   UNL     1      43.981 127.060  24.281  1.00  0.00     0.135 C 
ATOM      8  C   UNL     1      42.508 127.031  23.871  1.00  0.00     0.040 C 
BRANCH   7   9
ATOM      9  O   UNL     1      44.503 125.743  24.211  1.00  0.00    -0.376 OA
BRANCH   9  10
ATOM     10  C   UNL     1      43.968 125.047  23.105  1.00  0.00     0.176 C 
BRANCH  10  11
ATOM     11  C   UNL     1      44.995 124.045  22.581  1.00  0.00     0.148 C 
BRANCH  11  12
ATOM     12  C   UNL     1      46.337 124.638  22.548  1.00  0.00     0.065 C 
ATOM     13  N   UNL     1      47.396 125.106  22.524  1.00  0.00    -0.198 NA
ENDBRANCH  11  12
ENDBRANCH  10  11
ENDBRANCH   9  10
ENDBRANCH   7   9
ENDBRANCH   6   7
ENDBRANCH   1   6
BRANCH   5  14
ATOM     14  C   UNL     1      44.246 129.966  21.003  1.00  0.00    -0.062 C 
BRANCH  14  15
ATOM     15  N   UNL     1      43.854 131.144  20.246  1.00  0.00    -0.644 NA
BRANCH  15  16
ATOM     16  C   UNL     1      44.792 131.958  19.534  1.00  0.00     0.084 C 
ATOM     17  O   UNL     1      45.347 132.929  20.114  1.00  0.00    -0.315 OA
BRANCH  16  18
ATOM     18  C   UNL     1      45.147 131.616  18.138  1.00  0.00     0.024 A 
ATOM     19  C   UNL     1      44.775 132.521  17.110  1.00  0.00     0.013 A 
ATOM     20  C   UNL     1      45.805 130.395  17.797  1.00  0.00     0.065 A 
ATOM     21  C   UNL     1      45.018 132.227  15.761  1.00  0.00     0.011 A 
ATOM     22  C   UNL     1      46.016 130.134  16.432  1.00  0.00     0.069 A 
ATOM     23  C   UNL     1      45.634 131.020  15.460  1.00  0.00     0.002 A 
ATOM     24  N   UNL     1      46.615 129.063  15.876  1.00  0.00    -0.359 N 
ATOM     25  C   UNL     1      45.996 130.490  14.242  1.00  0.00     0.028 A 
ATOM     26  C   UNL     1      46.601 129.277  14.540  1.00  0.00     0.083 A 
ATOM     27  H   UNL     1      47.020 128.230  16.356  1.00  0.00     0.166 HD
BRANCH  20  28
ATOM     28  N   UNL     1      46.294 129.489  18.796  1.00  0.00    -0.396 N 
ATOM     29  H   UNL     1      45.837 128.569  18.969  1.00  0.00     0.156 HD
ATOM     30  H   UNL     1      47.060 129.762  19.448  1.00  0.00     0.156 HD
ENDBRANCH  20  28
ENDBRANCH  16  18
ENDBRANCH  15  16
ENDBRANCH  14  15
ENDBRANCH   5  14
TORSDOF 11
ENDMDL
MODEL 6
REMARK VINA RESULT:      -4.3      1.535      1.933
REMARK SMILES C[C@H](Cn1cccc1C[N-]C(=O)c1ccc2cc[nH]c2c1N)OCCC#N
REMARK SMILES IDX 4 1 5 2 6 3 7 4 8 5 3 6 2 7 1 8 23 9 24 10 25 11 26 12 27 13
REMARK SMILES IDX 9 14 10 15 11 16 12 17 13 18 14 19 21 20 15 21 20 22 16 23
REMARK SMILES IDX 19 24 17 25 18 26 22 28
REMARK H PARENT 19 27 22 29 22 30
ROOT
ATOM      1  N   UNL     1      44.388 131.589  19.381  1.00  0.00    -0.350 N 
ATOM      2  C   UNL     1      43.765 132.740  19.056  1.00  0.00     0.086 A 
ATOM      3  C   UNL     1      42.627 132.893  19.823  1.00  0.00     0.020 A 
ATOM      4  C   UNL     1      42.550 131.787  20.647  1.00  0.00     0.021 A 
ATOM      5  C   UNL     1      43.643 130.997  20.343  1.00  0.00     0.000 A 
ENDROOT
BRANCH   1   6
ATOM      6  C   UNL     1      45.597 131.072  18.735  1.00  0.00     0.153 C 
BRANCH   6   7
ATOM      7  C   UNL     1      45.412 131.027  17.213  1.00  0.00     0.135 C 
ATOM      8  C   UNL     1      43.981 130.615  16.865  1.00  0.00     0.040 C 
BRANCH   7   9
ATOM      9  O   UNL     1      45.662 132.315  16.677  1.00  0.00    -0.376 OA
BRANCH   9  10
ATOM     10  C   UNL     1      45.924 132.242  15.290  1.00  0.00     0.176 C 
BRANCH  10  11
ATOM     11  C   UNL     1      46.743 130.989  14.986  1.00  0.00     0.148 C 
BRANCH  11  12
ATOM     12  C   UNL     1      47.205 130.989  13.593  1.00  0.00     0.065 C 
ATOM     13  N   UNL     1      47.571 130.991  12.495  1.00  0.00    -0.198 NA
ENDBRANCH  11  12
ENDBRANCH  10  11
ENDBRANCH   9  10
ENDBRANCH   7   9
ENDBRANCH   6   7
ENDBRANCH   1   6
BRANCH   5  14
ATOM     14  C   UNL     1      43.978 129.704  21.021  1.00  0.00    -0.062 C 
BRANCH  14  15
ATOM     15  N   UNL     1      44.693 129.978  22.257  1.00  0.00    -0.644 NA
BRANCH  15  16
ATOM     16  C   UNL     1      44.617 129.127  23.405  1.00  0.00     0.084 C 
ATOM     17  O   UNL     1      44.644 129.629  24.561  1.00  0.00    -0.315 OA
BRANCH  16  18
ATOM     18  C   UNL     1      44.445 127.668  23.226  1.00  0.00     0.024 A 
ATOM     19  C   UNL     1      45.494 126.941  22.602  1.00  0.00     0.013 A 
ATOM     20  C   UNL     1      43.253 126.986  23.617  1.00  0.00     0.065 A 
ATOM     21  C   UNL     1      45.368 125.570  22.336  1.00  0.00     0.011 A 
ATOM     22  C   UNL     1      43.164 125.616  23.320  1.00  0.00     0.069 A 
ATOM     23  C   UNL     1      44.186 124.943  22.704  1.00  0.00     0.002 A 
ATOM     24  N   UNL     1      42.150 124.772  23.595  1.00  0.00    -0.359 N 
ATOM     25  C   UNL     1      43.805 123.626  22.576  1.00  0.00     0.028 A 
ATOM     26  C   UNL     1      42.538 123.559  23.139  1.00  0.00     0.083 A 
ATOM     27  H   UNL     1      41.245 124.985  24.067  1.00  0.00     0.166 HD
BRANCH  20  28
ATOM     28  N   UNL     1      42.203 127.645  24.341  1.00  0.00    -0.396 N 
ATOM     29  H   UNL     1      41.752 128.512  23.980  1.00  0.00     0.156 HD
ATOM     30  H   UNL     1      41.926 127.334  25.296  1.00  0.00     0.156 HD
ENDBRANCH  20  28
ENDBRANCH  16  18
ENDBRANCH  15  16
ENDBRANCH  14  15
ENDBRANCH   5  14
TORSDOF 11
ENDMDL
MODEL 7
REMARK VINA RESULT:      -4.2      4.370      6.904
REMARK SMILES C[C@H](Cn1cccc1C[N-]C(=O)c1ccc2cc[nH]c2c1N)OCCC#N
REMARK SMILES IDX 4 1 5 2 6 3 7 4 8 5 3 6 2 7 1 8 23 9 24 10 25 11 26 12 27 13
REMARK SMILES IDX 9 14 10 15 11 16 12 17 13 18 14 19 21 20 15 21 20 22 16 23
REMARK SMILES IDX 19 24 17 25 18 26 22 28
REMARK H PARENT 19 27 22 29 22 30
ROOT
ATOM      1  N   UNL     1      44.329 132.053  19.004  1.00  0.00    -0.350 N 
ATOM      2  C   UNL     1      43.060 131.640  19.196  1.00  0.00     0.086 A 
ATOM      3  C   UNL     1      42.764 131.638  20.544  1.00  0.00     0.020 A 
ATOM      4  C   UNL     1      43.901 132.063  21.203  1.00  0.00     0.021 A 
ATOM      5  C   UNL     1      44.851 132.300  20.228  1.00  0.00     0.000 A 
ENDROOT
BRANCH   1   6
ATOM      6  C   UNL     1      45.006 132.129  17.707  1.00  0.00     0.153 C 
BRANCH   6   7
ATOM      7  C   UNL     1      44.528 130.997  16.788  1.00  0.00     0.135 C 
ATOM      8  C   UNL     1      43.825 131.573  15.558  1.00  0.00     0.040 C 
BRANCH   7   9
ATOM      9  O   UNL     1      45.649 130.239  16.364  1.00  0.00    -0.376 OA
BRANCH   9  10
ATOM     10  C   UNL     1      45.608 130.017  14.970  1.00  0.00     0.176 C 
BRANCH  10  11
ATOM     11  C   UNL     1      46.608 128.925  14.593  1.00  0.00     0.148 C 
BRANCH  11  12
ATOM     12  C   UNL     1      47.741 129.485  13.846  1.00  0.00     0.065 C 
ATOM     13  N   UNL     1      48.633 129.929  13.257  1.00  0.00    -0.198 NA
ENDBRANCH  11  12
ENDBRANCH  10  11
ENDBRANCH   9  10
ENDBRANCH   7   9
ENDBRANCH   6   7
ENDBRANCH   1   6
BRANCH   5  14
ATOM     14  C   UNL     1      46.236 132.809  20.490  1.00  0.00    -0.062 C 
BRANCH  14  15
ATOM     15  N   UNL     1      46.610 132.507  21.863  1.00  0.00    -0.644 NA
BRANCH  15  16
ATOM     16  C   UNL     1      46.924 133.519  22.824  1.00  0.00     0.084 C 
ATOM     17  O   UNL     1      46.257 133.601  23.891  1.00  0.00    -0.315 OA
BRANCH  16  18
ATOM     18  C   UNL     1      48.069 134.426  22.585  1.00  0.00     0.024 A 
ATOM     19  C   UNL     1      47.984 135.345  21.506  1.00  0.00     0.013 A 
ATOM     20  C   UNL     1      49.260 134.374  23.372  1.00  0.00     0.065 A 
ATOM     21  C   UNL     1      49.060 136.183  21.180  1.00  0.00     0.011 A 
ATOM     22  C   UNL     1      50.318 135.221  23.002  1.00  0.00     0.069 A 
ATOM     23  C   UNL     1      50.213 136.088  21.946  1.00  0.00     0.002 A 
ATOM     24  N   UNL     1      51.522 135.350  23.591  1.00  0.00    -0.359 N 
ATOM     25  C   UNL     1      51.396 136.787  21.857  1.00  0.00     0.028 A 
ATOM     26  C   UNL     1      52.182 136.302  22.893  1.00  0.00     0.083 A 
ATOM     27  H   UNL     1      51.892 134.836  24.421  1.00  0.00     0.166 HD
BRANCH  20  28
ATOM     28  N   UNL     1      49.368 133.539  24.534  1.00  0.00    -0.396 N 
ATOM     29  H   UNL     1      50.264 133.443  25.056  1.00  0.00     0.156 HD
ATOM     30  H   UNL     1      48.581 132.925  24.836  1.00  0.00     0.156 HD
ENDBRANCH  20  28
ENDBRANCH  16  18
ENDBRANCH  15  16
ENDBRANCH  14  15
ENDBRANCH   5  14
TORSDOF 11
ENDMDL
MODEL 8
REMARK VINA RESULT:      -4.1      4.542      7.015
REMARK SMILES C[C@H](Cn1cccc1C[N-]C(=O)c1ccc2cc[nH]c2c1N)OCCC#N
REMARK SMILES IDX 4 1 5 2 6 3 7 4 8 5 3 6 2 7 1 8 23 9 24 10 25 11 26 12 27 13
REMARK SMILES IDX 9 14 10 15 11 16 12 17 13 18 14 19 21 20 15 21 20 22 16 23
REMARK SMILES IDX 19 24 17 25 18 26 22 28
REMARK H PARENT 19 27 22 29 22 30
ROOT
ATOM      1  N   UNL     1      44.419 131.155  19.358  1.00  0.00    -0.350 N 
ATOM      2  C   UNL     1      43.106 131.374  19.135  1.00  0.00     0.086 A 
ATOM      3  C   UNL     1      42.576 132.138  20.155  1.00  0.00     0.020 A 
ATOM      4  C   UNL     1      43.607 132.393  21.039  1.00  0.00     0.021 A 
ATOM      5  C   UNL     1      44.726 131.764  20.526  1.00  0.00     0.000 A 
ENDROOT
BRANCH   1   6
ATOM      6  C   UNL     1      45.294 130.338  18.513  1.00  0.00     0.153 C 
BRANCH   6   7
ATOM      7  C   UNL     1      45.383 130.934  17.102  1.00  0.00     0.135 C 
ATOM      8  C   UNL     1      45.254 132.456  17.161  1.00  0.00     0.040 C 
BRANCH   7   9
ATOM      9  O   UNL     1      46.639 130.600  16.536  1.00  0.00    -0.376 OA
BRANCH   9  10
ATOM     10  C   UNL     1      46.503 129.574  15.575  1.00  0.00     0.176 C 
BRANCH  10  11
ATOM     11  C   UNL     1      46.328 130.188  14.188  1.00  0.00     0.148 C 
BRANCH  11  12
ATOM     12  C   UNL     1      45.027 130.859  14.071  1.00  0.00     0.065 C 
ATOM     13  N   UNL     1      44.001 131.388  13.982  1.00  0.00    -0.198 NA
ENDBRANCH  11  12
ENDBRANCH  10  11
ENDBRANCH   9  10
ENDBRANCH   7   9
ENDBRANCH   6   7
ENDBRANCH   1   6
BRANCH   5  14
ATOM     14  C   UNL     1      46.088 131.803  21.149  1.00  0.00    -0.062 C 
BRANCH  14  15
ATOM     15  N   UNL     1      46.530 133.184  21.257  1.00  0.00    -0.644 NA
BRANCH  15  16
ATOM     16  C   UNL     1      47.057 133.740  22.466  1.00  0.00     0.084 C 
ATOM     17  O   UNL     1      46.508 133.473  23.570  1.00  0.00    -0.315 OA
BRANCH  16  18
ATOM     18  C   UNL     1      48.277 134.575  22.419  1.00  0.00     0.024 A 
ATOM     19  C   UNL     1      48.352 135.599  21.437  1.00  0.00     0.013 A 
ATOM     20  C   UNL     1      49.386 134.356  23.291  1.00  0.00     0.065 A 
ATOM     21  C   UNL     1      49.507 136.380  21.290  1.00  0.00     0.011 A 
ATOM     22  C   UNL     1      50.528 135.151  23.100  1.00  0.00     0.069 A 
ATOM     23  C   UNL     1      50.577 136.123  22.135  1.00  0.00     0.002 A 
ATOM     24  N   UNL     1      51.680 135.130  23.798  1.00  0.00    -0.359 N 
ATOM     25  C   UNL     1      51.808 136.735  22.218  1.00  0.00     0.028 A 
ATOM     26  C   UNL     1      52.463 136.092  23.259  1.00  0.00     0.083 A 
ATOM     27  H   UNL     1      51.938 134.511  24.597  1.00  0.00     0.166 HD
BRANCH  20  28
ATOM     28  N   UNL     1      49.332 133.406  24.366  1.00  0.00    -0.396 N 
ATOM     29  H   UNL     1      49.942 133.496  25.206  1.00  0.00     0.156 HD
ATOM     30  H   UNL     1      48.753 132.542  24.297  1.00  0.00     0.156 HD
ENDBRANCH  20  28
ENDBRANCH  16  18
ENDBRANCH  15  16
ENDBRANCH  14  15
ENDBRANCH   5  14
TORSDOF 11
ENDMDL


