REMARK SMILES C/C(O)=N/c1cc(F)c(-c2ccc(C)cc2)cc1C=O
REMARK SMILES IDX 4 1 2 2 1 3 3 4 5 6 6 7 18 8 7 9 17 10 9 11 8 12 19 13 20 14
REMARK SMILES IDX 10 15 11 16 16 17 12 18 15 19 13 20 14 21
REMARK H PARENT 3 5
ROOT
ATOM      1  N   UNL     1      -1.302   2.503   2.487  1.00  0.00    -0.218 NA
ENDROOT
BRANCH   1   2
ATOM      2  C   UNL     1      -2.570   2.466   2.768  1.00  0.00     0.182 C 
ATOM      3  C   UNL     1      -3.126   3.407   3.787  1.00  0.00     0.111 C 
BRANCH   2   4
ATOM      4  O   UNL     1      -3.404   1.526   2.162  1.00  0.00    -0.497 OA
ATOM      5  H   UNL     1      -4.390   1.477   2.388  1.00  0.00     0.294 HD
ENDBRANCH   2   4
ENDBRANCH   1   2
BRANCH   1   6
ATOM      6  C   UNL     1      -0.671   1.650   1.521  1.00  0.00     0.080 A 
ATOM      7  C   UNL     1       0.318   0.766   1.965  1.00  0.00     0.069 A 
ATOM      8  C   UNL     1      -0.996   1.705   0.144  1.00  0.00     0.041 A 
ATOM      9  C   UNL     1       0.951  -0.103   1.075  1.00  0.00     0.133 A 
ATOM     10  C   UNL     1      -0.357   0.819  -0.744  1.00  0.00     0.025 A 
ATOM     11  C   UNL     1       0.609  -0.093  -0.288  1.00  0.00     0.018 A 
ATOM     12  F   UNL     1       1.919  -0.931   1.544  1.00  0.00    -0.206 F 
BRANCH   8  13
ATOM     13  C   UNL     1      -1.954   2.705  -0.380  1.00  0.00     0.262 C 
ATOM     14  O   UNL     1      -2.318   2.686  -1.586  1.00  0.00    -0.298 OA
ENDBRANCH   8  13
BRANCH  11  15
ATOM     15  C   UNL     1       1.266  -1.017  -1.245  1.00  0.00    -0.015 A 
ATOM     16  C   UNL     1       1.387  -2.386  -0.950  1.00  0.00     0.009 A 
ATOM     17  C   UNL     1       1.769  -0.535  -2.466  1.00  0.00     0.009 A 
ATOM     18  C   UNL     1       2.001  -3.255  -1.857  1.00  0.00     0.004 A 
ATOM     19  C   UNL     1       2.383  -1.405  -3.372  1.00  0.00     0.004 A 
ATOM     20  C   UNL     1       2.490  -2.772  -3.080  1.00  0.00    -0.051 A 
ATOM     21  C   UNL     1       3.183  -3.698  -4.035  1.00  0.00     0.044 C 
ENDBRANCH  11  15
ENDBRANCH   1   6
TORSDOF 5


