REMARK SMILES Cc1cc(NN)c([O-])c([O-])c1F
REMARK SMILES IDX 5 1 4 3 2 4 3 5 11 6 9 7 7 8 1 9 12 10 10 11 8 12 6 13
REMARK H PARENT 5 2 6 14 6 15
ROOT
ATOM      1  N   UNL     1      -0.158  -0.786   1.775  1.00  0.00    -0.325 N 
ATOM      2  H   UNL     1       0.214  -1.760   1.839  1.00  0.00     0.181 HD
ENDROOT
BRANCH   1   3
ATOM      3  C   UNL     1      -0.528  -0.245   0.490  1.00  0.00     0.040 A 
ATOM      4  C   UNL     1      -1.396   1.578  -0.888  1.00  0.00    -0.014 A 
ATOM      5  C   UNL     1      -1.031   1.065   0.366  1.00  0.00     0.032 A 
ATOM      6  C   UNL     1      -1.233   0.784  -2.034  1.00  0.00     0.117 A 
ATOM      7  C   UNL     1      -0.734  -0.516  -1.922  1.00  0.00    -0.078 A 
ATOM      8  C   UNL     1      -0.384  -1.033  -0.669  1.00  0.00    -0.089 A 
ATOM      9  C   UNL     1      -1.906   2.985  -1.013  1.00  0.00     0.047 C 
ATOM     10  F   UNL     1      -1.557   1.273  -3.259  1.00  0.00    -0.207 F 
ATOM     11  O   UNL     1      -0.583  -1.298  -3.062  1.00  0.00    -0.871 OA
ATOM     12  O   UNL     1       0.108  -2.331  -0.581  1.00  0.00    -0.871 OA
ENDBRANCH   1   3
BRANCH   1  13
ATOM     13  N   UNL     1      -0.274  -0.060   2.973  1.00  0.00    -0.250 NA
ATOM     14  H   UNL     1      -1.275   0.215   3.089  1.00  0.00     0.143 HD
ATOM     15  H   UNL     1       0.308   0.804   2.885  1.00  0.00     0.143 HD
ENDBRANCH   1  13
TORSDOF 2


