REMARK SMILES O=C1NCc2[nH+]cc(-c3ccc4[nH]ccc4c3)cc21
REMARK SMILES IDX 1 1 2 2 3 3 4 4 5 5 6 6 7 7 8 8 18 9 19 10 9 13 10 14 17 15
REMARK SMILES IDX 11 16 16 17 12 18 15 19 13 20 14 21
REMARK H PARENT 3 11 6 12 13 22
ROOT
ATOM      1  O   UNL     1       4.823  -0.018  -0.843  1.00  0.00    -0.269 OA
ATOM      2  C   UNL     1       4.337  -0.826  -0.010  1.00  0.00     0.258 C 
ATOM      3  N   UNL     1       5.098  -1.794   0.704  1.00  0.00    -0.342 N 
ATOM      4  C   UNL     1       4.195  -2.549   1.576  1.00  0.00     0.225 C 
ATOM      5  C   UNL     1       2.857  -1.929   1.296  1.00  0.00     0.211 A 
ATOM      6  N   UNL     1       1.664  -2.268   1.847  1.00  0.00    -0.212 N 
ATOM      7  C   UNL     1       0.530  -1.600   1.477  1.00  0.00     0.315 A 
ATOM      8  C   UNL     1       0.583  -0.552   0.520  1.00  0.00     0.046 A 
ATOM      9  C   UNL     1       1.832  -0.210  -0.043  1.00  0.00     0.035 A 
ATOM     10  C   UNL     1       2.951  -0.922   0.370  1.00  0.00     0.109 A 
ATOM     11  H   UNL     1       6.129  -1.940   0.620  1.00  0.00     0.164 HD
ATOM     12  H   UNL     1       1.611  -3.035   2.554  1.00  0.00     0.453 HD
ENDROOT
BRANCH   8  13
ATOM     13  C   UNL     1      -0.650   0.171   0.119  1.00  0.00    -0.012 A 
ATOM     14  C   UNL     1      -1.873  -0.533  -0.056  1.00  0.00     0.011 A 
ATOM     15  C   UNL     1      -0.619   1.571  -0.093  1.00  0.00     0.019 A 
ATOM     16  C   UNL     1      -3.046   0.143  -0.436  1.00  0.00     0.027 A 
ATOM     17  C   UNL     1      -1.800   2.206  -0.468  1.00  0.00    -0.000 A 
ATOM     18  C   UNL     1      -2.971   1.519  -0.633  1.00  0.00     0.045 A 
ATOM     19  C   UNL     1      -2.060   3.533  -0.733  1.00  0.00     0.028 A 
ATOM     20  N   UNL     1      -3.965   2.348  -0.993  1.00  0.00    -0.361 N 
ATOM     21  C   UNL     1      -3.413   3.581  -1.055  1.00  0.00     0.083 A 
ATOM     22  H   UNL     1      -4.960   2.096  -1.185  1.00  0.00     0.166 HD
ENDBRANCH   8  13
TORSDOF 1


