REMARK SMILES C=Cc1cc(NN)c(O)c(-n2nc3ccccc3n2)c1
REMARK SMILES IDX 3 1 4 2 5 3 8 4 10 5 20 6 2 7 1 8 6 9 7 11 11 14 12 15 19 16
REMARK SMILES IDX 13 17 18 18 14 19 17 20 15 21 16 22 9 23
REMARK H PARENT 6 10 7 12 7 13 9 24
ROOT
ATOM      1  C   UNL     1      -0.489  -3.348   0.055  1.00  0.00    -0.022 A 
ATOM      2  C   UNL     1      -1.847  -3.307   0.409  1.00  0.00     0.039 A 
ATOM      3  C   UNL     1      -2.526  -2.082   0.544  1.00  0.00     0.094 A 
ATOM      4  C   UNL     1      -1.834  -0.875   0.275  1.00  0.00     0.167 A 
ATOM      5  C   UNL     1      -0.462  -0.907  -0.066  1.00  0.00     0.130 A 
ATOM      6  C   UNL     1       0.187  -2.147  -0.183  1.00  0.00     0.042 A 
ENDROOT
BRANCH   1   7
ATOM      7  C   UNL     1       0.258  -4.622  -0.099  1.00  0.00     0.000 C 
ATOM      8  C   UNL     1      -0.114  -5.780   0.448  1.00  0.00     0.009 C 
ENDBRANCH   1   7
BRANCH   3   9
ATOM      9  N   UNL     1      -3.904  -2.064   0.979  1.00  0.00    -0.321 N 
ATOM     10  H   UNL     1      -4.306  -1.210   1.421  1.00  0.00     0.181 HD
BRANCH   9  11
ATOM     11  N   UNL     1      -4.756  -3.174   0.851  1.00  0.00    -0.250 NA
ATOM     12  H   UNL     1      -4.421  -3.920   1.501  1.00  0.00     0.143 HD
ATOM     13  H   UNL     1      -4.689  -3.525  -0.132  1.00  0.00     0.143 HD
ENDBRANCH   9  11
ENDBRANCH   3   9
BRANCH   5  14
ATOM     14  N   UNL     1       0.281   0.305  -0.316  1.00  0.00    -0.146 N 
ATOM     15  N   UNL     1      -0.133   1.524   0.034  1.00  0.00    -0.148 NA
ATOM     16  N   UNL     1       1.478   0.323  -0.904  1.00  0.00    -0.148 NA
ATOM     17  C   UNL     1       0.847   2.351  -0.357  1.00  0.00     0.113 A 
ATOM     18  C   UNL     1       1.834   1.615  -0.932  1.00  0.00     0.113 A 
ATOM     19  C   UNL     1       0.926   3.734  -0.234  1.00  0.00     0.032 A 
ATOM     20  C   UNL     1       2.994   2.194  -1.438  1.00  0.00     0.032 A 
ATOM     21  C   UNL     1       2.085   4.361  -0.735  1.00  0.00     0.002 A 
ATOM     22  C   UNL     1       3.114   3.595  -1.334  1.00  0.00     0.002 A 
ENDBRANCH   5  14
BRANCH   4  23
ATOM     23  O   UNL     1      -2.493   0.358   0.299  1.00  0.00    -0.504 OA
ATOM     24  H   UNL     1      -3.495   0.464   0.375  1.00  0.00     0.293 HD
ENDBRANCH   4  23
TORSDOF 5


