MODEL 1
REMARK VINA RESULT:      -8.0      0.000      0.000
REMARK SMILES NNc1cc(C(=O)[C@H]2O[C@@H]2c2ccc(Cl)c(F)c2)ccc1F
REMARK SMILES IDX 3 1 4 2 5 3 19 4 20 5 21 6 22 7 2 8 1 10 6 13 7 14 8 15 9 16
REMARK SMILES IDX 10 17 11 18 12 19 18 20 13 21 16 22 14 23 17 24 15 25
REMARK H PARENT 2 9 1 11 1 12
ROOT
ATOM      1  C   UNL     1      45.384 131.922  21.261  1.00  0.00     0.085 A 
ATOM      2  C   UNL     1      44.863 131.987  19.958  1.00  0.00     0.042 A 
ATOM      3  C   UNL     1      43.498 131.754  19.704  1.00  0.00     0.023 A 
ATOM      4  C   UNL     1      42.650 131.460  20.783  1.00  0.00     0.015 A 
ATOM      5  C   UNL     1      43.155 131.393  22.081  1.00  0.00     0.042 A 
ATOM      6  C   UNL     1      44.510 131.618  22.329  1.00  0.00     0.147 A 
ATOM      7  F   UNL     1      44.945 131.539  23.611  1.00  0.00    -0.205 F 
ENDROOT
BRANCH   1   8
ATOM      8  N   UNL     1      46.795 132.166  21.451  1.00  0.00    -0.321 N 
ATOM      9  H   UNL     1      47.456 131.359  21.402  1.00  0.00     0.181 HD
BRANCH   8  10
ATOM     10  N   UNL     1      47.345 133.433  21.702  1.00  0.00    -0.250 NA
ATOM     11  H   UNL     1      46.592 134.147  21.580  1.00  0.00     0.143 HD
ATOM     12  H   UNL     1      48.108 133.602  21.007  1.00  0.00     0.143 HD
ENDBRANCH   8  10
ENDBRANCH   1   8
BRANCH   3  13
ATOM     13  C   UNL     1      42.975 131.825  18.316  1.00  0.00     0.194 C 
ATOM     14  O   UNL     1      41.887 132.421  18.085  1.00  0.00    -0.291 OA
BRANCH  13  15
ATOM     15  C   UNL     1      43.700 131.180  17.172  1.00  0.00     0.224 C 
ATOM     16  O   UNL     1      43.453 131.855  15.960  1.00  0.00    -0.356 OA
ATOM     17  C   UNL     1      44.738 132.019  16.519  1.00  0.00     0.186 C 
BRANCH  17  18
ATOM     18  C   UNL     1      45.777 131.284  15.727  1.00  0.00    -0.013 A 
ATOM     19  C   UNL     1      46.319 130.081  16.209  1.00  0.00     0.008 A 
ATOM     20  C   UNL     1      46.167 131.759  14.466  1.00  0.00     0.047 A 
ATOM     21  C   UNL     1      47.265 129.383  15.453  1.00  0.00     0.024 A 
ATOM     22  C   UNL     1      47.113 131.060  13.710  1.00  0.00     0.142 A 
ATOM     23  C   UNL     1      47.666 129.871  14.204  1.00  0.00     0.076 A 
ATOM     24  F   UNL     1      47.487 131.535  12.496  1.00  0.00    -0.205 F 
ATOM     25  Cl  UNL     1      48.853 128.984  13.263  1.00  0.00    -0.081 Cl
ENDBRANCH  17  18
ENDBRANCH  13  15
ENDBRANCH   3  13
TORSDOF 5
ENDMDL
MODEL 2
REMARK VINA RESULT:      -7.1      1.616      2.062
REMARK SMILES NNc1cc(C(=O)[C@H]2O[C@@H]2c2ccc(Cl)c(F)c2)ccc1F
REMARK SMILES IDX 3 1 4 2 5 3 19 4 20 5 21 6 22 7 2 8 1 10 6 13 7 14 8 15 9 16
REMARK SMILES IDX 10 17 11 18 12 19 18 20 13 21 16 22 14 23 17 24 15 25
REMARK H PARENT 2 9 1 11 1 12
ROOT
ATOM      1  C   UNL     1      43.438 131.377  21.956  1.00  0.00     0.085 A 
ATOM      2  C   UNL     1      43.006 131.326  20.620  1.00  0.00     0.042 A 
ATOM      3  C   UNL     1      43.823 131.784  19.570  1.00  0.00     0.023 A 
ATOM      4  C   UNL     1      45.096 132.292  19.875  1.00  0.00     0.015 A 
ATOM      5  C   UNL     1      45.537 132.348  21.196  1.00  0.00     0.042 A 
ATOM      6  C   UNL     1      44.721 131.898  22.237  1.00  0.00     0.147 A 
ATOM      7  F   UNL     1      45.203 131.977  23.502  1.00  0.00    -0.205 F 
ENDROOT
BRANCH   1   8
ATOM      8  N   UNL     1      42.549 130.895  22.987  1.00  0.00    -0.321 N 
ATOM      9  H   UNL     1      42.210 131.566  23.713  1.00  0.00     0.181 HD
BRANCH   8  10
ATOM     10  N   UNL     1      42.102 129.568  23.081  1.00  0.00    -0.250 NA
ATOM     11  H   UNL     1      42.446 129.169  23.983  1.00  0.00     0.143 HD
ATOM     12  H   UNL     1      42.504 129.029  22.280  1.00  0.00     0.143 HD
ENDBRANCH   8  10
ENDBRANCH   1   8
BRANCH   3  13
ATOM     13  C   UNL     1      43.339 131.722  18.167  1.00  0.00     0.194 C 
ATOM     14  O   UNL     1      42.270 132.310  17.846  1.00  0.00    -0.291 OA
BRANCH  13  15
ATOM     15  C   UNL     1      44.082 130.951  17.115  1.00  0.00     0.224 C 
ATOM     16  O   UNL     1      43.517 131.148  15.840  1.00  0.00    -0.356 OA
ATOM     17  C   UNL     1      44.758 131.774  16.080  1.00  0.00     0.186 C 
BRANCH  17  18
ATOM     18  C   UNL     1      45.866 131.103  15.325  1.00  0.00    -0.013 A 
ATOM     19  C   UNL     1      46.356 129.855  15.742  1.00  0.00     0.008 A 
ATOM     20  C   UNL     1      46.375 131.687  14.156  1.00  0.00     0.047 A 
ATOM     21  C   UNL     1      47.367 129.217  15.018  1.00  0.00     0.024 A 
ATOM     22  C   UNL     1      47.387 131.048  13.431  1.00  0.00     0.142 A 
ATOM     23  C   UNL     1      47.886 129.813  13.863  1.00  0.00     0.076 A 
ATOM     24  F   UNL     1      47.876 131.629  12.307  1.00  0.00    -0.205 F 
ATOM     25  Cl  UNL     1      49.154 129.002  12.960  1.00  0.00    -0.081 Cl
ENDBRANCH  17  18
ENDBRANCH  13  15
ENDBRANCH   3  13
TORSDOF 5
ENDMDL
MODEL 3
REMARK VINA RESULT:      -7.1      3.759      4.679
REMARK SMILES NNc1cc(C(=O)[C@H]2O[C@@H]2c2ccc(Cl)c(F)c2)ccc1F
REMARK SMILES IDX 3 1 4 2 5 3 19 4 20 5 21 6 22 7 2 8 1 10 6 13 7 14 8 15 9 16
REMARK SMILES IDX 10 17 11 18 12 19 18 20 13 21 16 22 14 23 17 24 15 25
REMARK H PARENT 2 9 1 11 1 12
ROOT
ATOM      1  C   UNL     1      42.627 127.938  23.968  1.00  0.00     0.085 A 
ATOM      2  C   UNL     1      42.357 129.159  23.328  1.00  0.00     0.042 A 
ATOM      3  C   UNL     1      43.373 129.885  22.678  1.00  0.00     0.023 A 
ATOM      4  C   UNL     1      44.676 129.363  22.668  1.00  0.00     0.015 A 
ATOM      5  C   UNL     1      44.958 128.152  23.299  1.00  0.00     0.042 A 
ATOM      6  C   UNL     1      43.948 127.438  23.949  1.00  0.00     0.147 A 
ATOM      7  F   UNL     1      44.280 126.266  24.545  1.00  0.00    -0.205 F 
ENDROOT
BRANCH   1   8
ATOM      8  N   UNL     1      41.540 127.247  24.620  1.00  0.00    -0.321 N 
ATOM      9  H   UNL     1      41.444 127.328  25.658  1.00  0.00     0.181 HD
BRANCH   8  10
ATOM     10  N   UNL     1      40.590 126.464  23.946  1.00  0.00    -0.250 NA
ATOM     11  H   UNL     1      39.974 127.100  23.392  1.00  0.00     0.143 HD
ATOM     12  H   UNL     1      40.020 125.954  24.660  1.00  0.00     0.143 HD
ENDBRANCH   8  10
ENDBRANCH   1   8
BRANCH   3  13
ATOM     13  C   UNL     1      43.060 131.176  22.013  1.00  0.00     0.194 C 
ATOM     14  O   UNL     1      42.629 132.145  22.696  1.00  0.00    -0.291 OA
BRANCH  13  15
ATOM     15  C   UNL     1      43.221 131.353  20.532  1.00  0.00     0.224 C 
ATOM     16  O   UNL     1      43.728 132.630  20.220  1.00  0.00    -0.356 OA
ATOM     17  C   UNL     1      44.616 131.546  20.061  1.00  0.00     0.186 C 
BRANCH  17  18
ATOM     18  C   UNL     1      44.869 131.253  18.612  1.00  0.00    -0.013 A 
ATOM     19  C   UNL     1      45.973 130.476  18.226  1.00  0.00     0.008 A 
ATOM     20  C   UNL     1      43.964 131.697  17.636  1.00  0.00     0.047 A 
ATOM     21  C   UNL     1      46.187 130.179  16.877  1.00  0.00     0.024 A 
ATOM     22  C   UNL     1      44.179 131.400  16.287  1.00  0.00     0.142 A 
ATOM     23  C   UNL     1      45.293 130.642  15.905  1.00  0.00     0.076 A 
ATOM     24  F   UNL     1      43.301 131.844  15.353  1.00  0.00    -0.205 F 
ATOM     25  Cl  UNL     1      45.572 130.260  14.214  1.00  0.00    -0.081 Cl
ENDBRANCH  17  18
ENDBRANCH  13  15
ENDBRANCH   3  13
TORSDOF 5
ENDMDL
MODEL 4
REMARK VINA RESULT:      -6.7      2.717      3.236
REMARK SMILES NNc1cc(C(=O)[C@H]2O[C@@H]2c2ccc(Cl)c(F)c2)ccc1F
REMARK SMILES IDX 3 1 4 2 5 3 19 4 20 5 21 6 22 7 2 8 1 10 6 13 7 14 8 15 9 16
REMARK SMILES IDX 10 17 11 18 12 19 18 20 13 21 16 22 14 23 17 24 15 25
REMARK H PARENT 2 9 1 11 1 12
ROOT
ATOM      1  C   UNL     1      45.011 128.588  22.410  1.00  0.00     0.085 A 
ATOM      2  C   UNL     1      45.034 129.522  21.360  1.00  0.00     0.042 A 
ATOM      3  C   UNL     1      44.334 130.740  21.449  1.00  0.00     0.023 A 
ATOM      4  C   UNL     1      43.608 131.019  22.618  1.00  0.00     0.015 A 
ATOM      5  C   UNL     1      43.576 130.101  23.667  1.00  0.00     0.042 A 
ATOM      6  C   UNL     1      44.267 128.890  23.573  1.00  0.00     0.147 A 
ATOM      7  F   UNL     1      44.200 128.036  24.624  1.00  0.00    -0.205 F 
ENDROOT
BRANCH   1   8
ATOM      8  N   UNL     1      45.747 127.356  22.252  1.00  0.00    -0.321 N 
ATOM      9  H   UNL     1      46.666 127.379  21.755  1.00  0.00     0.181 HD
BRANCH   8  10
ATOM     10  N   UNL     1      45.306 126.112  22.729  1.00  0.00    -0.250 NA
ATOM     11  H   UNL     1      45.797 125.362  22.192  1.00  0.00     0.143 HD
ATOM     12  H   UNL     1      44.275 126.045  22.567  1.00  0.00     0.143 HD
ENDBRANCH   8  10
ENDBRANCH   1   8
BRANCH   3  13
ATOM     13  C   UNL     1      44.373 131.706  20.322  1.00  0.00     0.194 C 
ATOM     14  O   UNL     1      43.583 132.689  20.311  1.00  0.00    -0.291 OA
BRANCH  13  15
ATOM     15  C   UNL     1      45.321 131.531  19.172  1.00  0.00     0.224 C 
ATOM     16  O   UNL     1      45.838 130.221  19.129  1.00  0.00    -0.356 OA
ATOM     17  C   UNL     1      44.893 130.555  18.137  1.00  0.00     0.186 C 
BRANCH  17  18
ATOM     18  C   UNL     1      45.539 130.697  16.791  1.00  0.00    -0.013 A 
ATOM     19  C   UNL     1      45.590 131.948  16.156  1.00  0.00     0.008 A 
ATOM     20  C   UNL     1      46.158 129.592  16.188  1.00  0.00     0.047 A 
ATOM     21  C   UNL     1      46.220 132.083  14.915  1.00  0.00     0.024 A 
ATOM     22  C   UNL     1      46.789 129.727  14.947  1.00  0.00     0.142 A 
ATOM     23  C   UNL     1      46.819 130.974  14.308  1.00  0.00     0.076 A 
ATOM     24  F   UNL     1      47.376 128.648  14.370  1.00  0.00    -0.205 F 
ATOM     25  Cl  UNL     1      47.610 131.155  12.751  1.00  0.00    -0.081 Cl
ENDBRANCH  17  18
ENDBRANCH  13  15
ENDBRANCH   3  13
TORSDOF 5
ENDMDL
MODEL 5
REMARK VINA RESULT:      -6.7      1.907      2.351
REMARK SMILES NNc1cc(C(=O)[C@H]2O[C@@H]2c2ccc(Cl)c(F)c2)ccc1F
REMARK SMILES IDX 3 1 4 2 5 3 19 4 20 5 21 6 22 7 2 8 1 10 6 13 7 14 8 15 9 16
REMARK SMILES IDX 10 17 11 18 12 19 18 20 13 21 16 22 14 23 17 24 15 25
REMARK H PARENT 2 9 1 11 1 12
ROOT
ATOM      1  C   UNL     1      43.760 130.937  22.514  1.00  0.00     0.085 A 
ATOM      2  C   UNL     1      43.713 131.015  21.112  1.00  0.00     0.042 A 
ATOM      3  C   UNL     1      42.792 131.854  20.456  1.00  0.00     0.023 A 
ATOM      4  C   UNL     1      41.914 132.629  21.230  1.00  0.00     0.015 A 
ATOM      5  C   UNL     1      41.951 132.561  22.623  1.00  0.00     0.042 A 
ATOM      6  C   UNL     1      42.861 131.723  23.269  1.00  0.00     0.147 A 
ATOM      7  F   UNL     1      42.851 131.698  24.625  1.00  0.00    -0.205 F 
ENDROOT
BRANCH   1   8
ATOM      8  N   UNL     1      44.726 130.052  23.122  1.00  0.00    -0.321 N 
ATOM      9  H   UNL     1      45.338 130.424  23.883  1.00  0.00     0.181 HD
BRANCH   8  10
ATOM     10  N   UNL     1      44.899 128.709  22.757  1.00  0.00    -0.250 NA
ATOM     11  H   UNL     1      45.305 128.197  23.573  1.00  0.00     0.143 HD
ATOM     12  H   UNL     1      45.564 128.672  21.951  1.00  0.00     0.143 HD
ENDBRANCH   8  10
ENDBRANCH   1   8
BRANCH   3  13
ATOM     13  C   UNL     1      42.762 131.913  18.973  1.00  0.00     0.194 C 
ATOM     14  O   UNL     1      41.655 131.949  18.369  1.00  0.00    -0.291 OA
BRANCH  13  15
ATOM     15  C   UNL     1      44.025 131.907  18.163  1.00  0.00     0.224 C 
ATOM     16  O   UNL     1      44.926 130.927  18.624  1.00  0.00    -0.356 OA
ATOM     17  C   UNL     1      44.285 130.663  17.395  1.00  0.00     0.186 C 
BRANCH  17  18
ATOM     18  C   UNL     1      45.237 130.786  16.243  1.00  0.00    -0.013 A 
ATOM     19  C   UNL     1      45.608 132.051  15.760  1.00  0.00     0.008 A 
ATOM     20  C   UNL     1      45.816 129.637  15.684  1.00  0.00     0.047 A 
ATOM     21  C   UNL     1      46.519 132.163  14.706  1.00  0.00     0.024 A 
ATOM     22  C   UNL     1      46.729 129.749  14.629  1.00  0.00     0.142 A 
ATOM     23  C   UNL     1      47.079 131.013  14.137  1.00  0.00     0.076 A 
ATOM     24  F   UNL     1      47.275 128.630  14.092  1.00  0.00    -0.205 F 
ATOM     25  Cl  UNL     1      48.225 131.165  12.816  1.00  0.00    -0.081 Cl
ENDBRANCH  17  18
ENDBRANCH  13  15
ENDBRANCH   3  13
TORSDOF 5
ENDMDL
MODEL 6
REMARK VINA RESULT:      -6.6      3.711      4.723
REMARK SMILES NNc1cc(C(=O)[C@H]2O[C@@H]2c2ccc(Cl)c(F)c2)ccc1F
REMARK SMILES IDX 3 1 4 2 5 3 19 4 20 5 21 6 22 7 2 8 1 10 6 13 7 14 8 15 9 16
REMARK SMILES IDX 10 17 11 18 12 19 18 20 13 21 16 22 14 23 17 24 15 25
REMARK H PARENT 2 9 1 11 1 12
ROOT
ATOM      1  C   UNL     1      44.436 127.427  23.599  1.00  0.00     0.085 A 
ATOM      2  C   UNL     1      44.784 128.738  23.233  1.00  0.00     0.042 A 
ATOM      3  C   UNL     1      43.808 129.743  23.095  1.00  0.00     0.023 A 
ATOM      4  C   UNL     1      42.464 129.417  23.339  1.00  0.00     0.015 A 
ATOM      5  C   UNL     1      42.105 128.120  23.704  1.00  0.00     0.042 A 
ATOM      6  C   UNL     1      43.076 127.124  23.833  1.00  0.00     0.147 A 
ATOM      7  F   UNL     1      42.669 125.881  24.190  1.00  0.00    -0.205 F 
ENDROOT
BRANCH   1   8
ATOM      8  N   UNL     1      45.487 126.443  23.718  1.00  0.00    -0.321 N 
ATOM      9  H   UNL     1      45.413 125.560  23.165  1.00  0.00     0.181 HD
BRANCH   8  10
ATOM     10  N   UNL     1      46.616 126.595  24.537  1.00  0.00    -0.250 NA
ATOM     11  H   UNL     1      46.450 127.404  25.177  1.00  0.00     0.143 HD
ATOM     12  H   UNL     1      47.441 126.792  23.926  1.00  0.00     0.143 HD
ENDBRANCH   8  10
ENDBRANCH   1   8
BRANCH   3  13
ATOM     13  C   UNL     1      44.204 131.119  22.702  1.00  0.00     0.194 C 
ATOM     14  O   UNL     1      44.481 131.970  23.591  1.00  0.00    -0.291 OA
BRANCH  13  15
ATOM     15  C   UNL     1      44.261 131.536  21.262  1.00  0.00     0.224 C 
ATOM     16  O   UNL     1      45.481 132.174  20.960  1.00  0.00    -0.356 OA
ATOM     17  C   UNL     1      45.310 130.872  20.447  1.00  0.00     0.186 C 
BRANCH  17  18
ATOM     18  C   UNL     1      45.101 130.892  18.962  1.00  0.00    -0.013 A 
ATOM     19  C   UNL     1      44.017 131.590  18.406  1.00  0.00     0.008 A 
ATOM     20  C   UNL     1      46.026 130.267  18.112  1.00  0.00     0.047 A 
ATOM     21  C   UNL     1      43.842 131.633  17.020  1.00  0.00     0.024 A 
ATOM     22  C   UNL     1      45.852 130.310  16.725  1.00  0.00     0.142 A 
ATOM     23  C   UNL     1      44.757 130.991  16.177  1.00  0.00     0.076 A 
ATOM     24  F   UNL     1      46.750 129.695  15.916  1.00  0.00    -0.205 F 
ATOM     25  Cl  UNL     1      44.530 131.053  14.437  1.00  0.00    -0.081 Cl
ENDBRANCH  17  18
ENDBRANCH  13  15
ENDBRANCH   3  13
TORSDOF 5
ENDMDL
MODEL 7
REMARK VINA RESULT:      -6.5      1.079      1.415
REMARK SMILES NNc1cc(C(=O)[C@H]2O[C@@H]2c2ccc(Cl)c(F)c2)ccc1F
REMARK SMILES IDX 3 1 4 2 5 3 19 4 20 5 21 6 22 7 2 8 1 10 6 13 7 14 8 15 9 16
REMARK SMILES IDX 10 17 11 18 12 19 18 20 13 21 16 22 14 23 17 24 15 25
REMARK H PARENT 2 9 1 11 1 12
ROOT
ATOM      1  C   UNL     1      45.367 132.093  21.273  1.00  0.00     0.085 A 
ATOM      2  C   UNL     1      44.718 132.081  20.027  1.00  0.00     0.042 A 
ATOM      3  C   UNL     1      43.344 131.797  19.921  1.00  0.00     0.023 A 
ATOM      4  C   UNL     1      42.616 131.529  21.092  1.00  0.00     0.015 A 
ATOM      5  C   UNL     1      43.248 131.538  22.335  1.00  0.00     0.042 A 
ATOM      6  C   UNL     1      44.613 131.814  22.436  1.00  0.00     0.147 A 
ATOM      7  F   UNL     1      45.174 131.809  23.670  1.00  0.00    -0.205 F 
ENDROOT
BRANCH   1   8
ATOM      8  N   UNL     1      46.780 132.387  21.311  1.00  0.00    -0.321 N 
ATOM      9  H   UNL     1      47.436 131.778  20.771  1.00  0.00     0.181 HD
BRANCH   8  10
ATOM     10  N   UNL     1      47.342 133.451  22.034  1.00  0.00    -0.250 NA
ATOM     11  H   UNL     1      46.980 133.409  23.014  1.00  0.00     0.143 HD
ATOM     12  H   UNL     1      47.042 134.347  21.586  1.00  0.00     0.143 HD
ENDBRANCH   8  10
ENDBRANCH   1   8
BRANCH   3  13
ATOM     13  C   UNL     1      42.685 131.787  18.590  1.00  0.00     0.194 C 
ATOM     14  O   UNL     1      41.529 132.274  18.459  1.00  0.00    -0.291 OA
BRANCH  13  15
ATOM     15  C   UNL     1      43.354 131.185  17.390  1.00  0.00     0.224 C 
ATOM     16  O   UNL     1      43.005 131.871  16.210  1.00  0.00    -0.356 OA
ATOM     17  C   UNL     1      44.318 132.069  16.687  1.00  0.00     0.186 C 
BRANCH  17  18
ATOM     18  C   UNL     1      45.326 131.383  15.815  1.00  0.00    -0.013 A 
ATOM     19  C   UNL     1      46.276 132.131  15.101  1.00  0.00     0.008 A 
ATOM     20  C   UNL     1      45.370 129.981  15.759  1.00  0.00     0.047 A 
ATOM     21  C   UNL     1      47.234 131.486  14.314  1.00  0.00     0.024 A 
ATOM     22  C   UNL     1      46.329 129.336  14.971  1.00  0.00     0.142 A 
ATOM     23  C   UNL     1      47.261 130.089  14.245  1.00  0.00     0.076 A 
ATOM     24  F   UNL     1      46.354 127.981  14.920  1.00  0.00    -0.205 F 
ATOM     25  Cl  UNL     1      48.471 129.289  13.255  1.00  0.00    -0.081 Cl
ENDBRANCH  17  18
ENDBRANCH  13  15
ENDBRANCH   3  13
TORSDOF 5
ENDMDL
MODEL 8
REMARK VINA RESULT:      -6.0      4.323      7.705
REMARK SMILES NNc1cc(C(=O)[C@H]2O[C@@H]2c2ccc(Cl)c(F)c2)ccc1F
REMARK SMILES IDX 3 1 4 2 5 3 19 4 20 5 21 6 22 7 2 8 1 10 6 13 7 14 8 15 9 16
REMARK SMILES IDX 10 17 11 18 12 19 18 20 13 21 16 22 14 23 17 24 15 25
REMARK H PARENT 2 9 1 11 1 12
ROOT
ATOM      1  C   UNL     1      47.350 130.763  13.469  1.00  0.00     0.085 A 
ATOM      2  C   UNL     1      46.264 131.290  14.189  1.00  0.00     0.042 A 
ATOM      3  C   UNL     1      45.644 130.557  15.218  1.00  0.00     0.023 A 
ATOM      4  C   UNL     1      46.135 129.278  15.528  1.00  0.00     0.015 A 
ATOM      5  C   UNL     1      47.213 128.744  14.822  1.00  0.00     0.042 A 
ATOM      6  C   UNL     1      47.821 129.472  13.797  1.00  0.00     0.147 A 
ATOM      7  F   UNL     1      48.864 128.902  13.145  1.00  0.00    -0.205 F 
ENDROOT
BRANCH   1   8
ATOM      8  N   UNL     1      47.937 131.566  12.422  1.00  0.00    -0.321 N 
ATOM      9  H   UNL     1      48.409 132.462  12.680  1.00  0.00     0.181 HD
BRANCH   8  10
ATOM     10  N   UNL     1      47.916 131.220  11.062  1.00  0.00    -0.250 NA
ATOM     11  H   UNL     1      48.795 131.573  10.621  1.00  0.00     0.143 HD
ATOM     12  H   UNL     1      47.088 131.680  10.619  1.00  0.00     0.143 HD
ENDBRANCH   8  10
ENDBRANCH   1   8
BRANCH   3  13
ATOM     13  C   UNL     1      44.495 131.136  15.959  1.00  0.00     0.194 C 
ATOM     14  O   UNL     1      43.707 131.929  15.375  1.00  0.00    -0.291 OA
BRANCH  13  15
ATOM     15  C   UNL     1      44.257 130.820  17.407  1.00  0.00     0.224 C 
ATOM     16  O   UNL     1      45.471 130.677  18.107  1.00  0.00    -0.356 OA
ATOM     17  C   UNL     1      44.729 131.847  18.370  1.00  0.00     0.186 C 
BRANCH  17  18
ATOM     18  C   UNL     1      44.107 131.806  19.734  1.00  0.00    -0.013 A 
ATOM     19  C   UNL     1      44.773 131.181  20.800  1.00  0.00     0.008 A 
ATOM     20  C   UNL     1      42.884 132.452  19.969  1.00  0.00     0.047 A 
ATOM     21  C   UNL     1      44.205 131.172  22.077  1.00  0.00     0.024 A 
ATOM     22  C   UNL     1      42.316 132.443  21.247  1.00  0.00     0.142 A 
ATOM     23  C   UNL     1      42.975 131.799  22.303  1.00  0.00     0.076 A 
ATOM     24  F   UNL     1      41.128 133.063  21.458  1.00  0.00    -0.205 F 
ATOM     25  Cl  UNL     1      42.271 131.783  23.911  1.00  0.00    -0.081 Cl
ENDBRANCH  17  18
ENDBRANCH  13  15
ENDBRANCH   3  13
TORSDOF 5
ENDMDL
MODEL 9
REMARK VINA RESULT:      -5.9      3.841      4.876
REMARK SMILES NNc1cc(C(=O)[C@H]2O[C@@H]2c2ccc(Cl)c(F)c2)ccc1F
REMARK SMILES IDX 3 1 4 2 5 3 19 4 20 5 21 6 22 7 2 8 1 10 6 13 7 14 8 15 9 16
REMARK SMILES IDX 10 17 11 18 12 19 18 20 13 21 16 22 14 23 17 24 15 25
REMARK H PARENT 2 9 1 11 1 12
ROOT
ATOM      1  C   UNL     1      43.590 127.635  23.333  1.00  0.00     0.085 A 
ATOM      2  C   UNL     1      44.209 128.844  22.973  1.00  0.00     0.042 A 
ATOM      3  C   UNL     1      43.606 130.085  23.247  1.00  0.00     0.023 A 
ATOM      4  C   UNL     1      42.365 130.104  23.903  1.00  0.00     0.015 A 
ATOM      5  C   UNL     1      41.739 128.912  24.266  1.00  0.00     0.042 A 
ATOM      6  C   UNL     1      42.337 127.681  23.986  1.00  0.00     0.147 A 
ATOM      7  F   UNL     1      41.683 126.555  24.362  1.00  0.00    -0.205 F 
ENDROOT
BRANCH   1   8
ATOM      8  N   UNL     1      44.260 126.396  23.017  1.00  0.00    -0.321 N 
ATOM      9  H   UNL     1      43.696 125.600  22.642  1.00  0.00     0.181 HD
BRANCH   8  10
ATOM     10  N   UNL     1      45.638 126.185  23.180  1.00  0.00    -0.250 NA
ATOM     11  H   UNL     1      46.145 127.010  22.786  1.00  0.00     0.143 HD
ATOM     12  H   UNL     1      45.903 125.323  22.651  1.00  0.00     0.143 HD
ENDBRANCH   8  10
ENDBRANCH   1   8
BRANCH   3  13
ATOM     13  C   UNL     1      44.282 131.347  22.851  1.00  0.00     0.194 C 
ATOM     14  O   UNL     1      44.756 132.110  23.737  1.00  0.00    -0.291 OA
BRANCH  13  15
ATOM     15  C   UNL     1      44.396 131.756  21.412  1.00  0.00     0.224 C 
ATOM     16  O   UNL     1      45.688 132.230  21.113  1.00  0.00    -0.356 OA
ATOM     17  C   UNL     1      45.351 130.961  20.597  1.00  0.00     0.186 C 
BRANCH  17  18
ATOM     18  C   UNL     1      45.149 131.010  19.112  1.00  0.00    -0.013 A 
ATOM     19  C   UNL     1      46.088 130.426  18.247  1.00  0.00     0.008 A 
ATOM     20  C   UNL     1      43.984 131.583  18.579  1.00  0.00     0.047 A 
ATOM     21  C   UNL     1      45.881 130.447  16.865  1.00  0.00     0.024 A 
ATOM     22  C   UNL     1      43.777 131.603  17.196  1.00  0.00     0.142 A 
ATOM     23  C   UNL     1      44.728 131.037  16.336  1.00  0.00     0.076 A 
ATOM     24  F   UNL     1      42.651 132.168  16.693  1.00  0.00    -0.205 F 
ATOM     25  Cl  UNL     1      44.477 131.055  14.599  1.00  0.00    -0.081 Cl
ENDBRANCH  17  18
ENDBRANCH  13  15
ENDBRANCH   3  13
TORSDOF 5
ENDMDL


