REMARK SMILES Cc1ccc(Nc2c(F)c(N)cc(-c3ccc4cc[nH]c4c3)c2F)cc1F
REMARK SMILES IDX 7 1 8 2 9 3 10 4 12 5 13 6 23 7 24 8 6 9 5 11 2 12 3 13
REMARK SMILES IDX 26 14 4 15 25 16 1 17 27 18 11 19 14 22 15 23 22 24 16 25
REMARK SMILES IDX 21 26 17 27 20 28 18 29 19 30
REMARK H PARENT 6 10 11 20 11 21 20 31
ROOT
ATOM      1  C   UNL     1       0.459   0.874   0.632  1.00  0.00     0.114 A 
ATOM      2  C   UNL     1      -0.135   0.923   1.907  1.00  0.00     0.172 A 
ATOM      3  F   UNL     1       0.526   1.502   2.942  1.00  0.00    -0.202 F 
ATOM      4  C   UNL     1      -1.426   0.412   2.105  1.00  0.00     0.071 A 
ATOM      5  C   UNL     1      -2.128  -0.137   1.025  1.00  0.00     0.040 A 
ATOM      6  C   UNL     1      -1.556  -0.176  -0.257  1.00  0.00     0.022 A 
ATOM      7  C   UNL     1      -0.263   0.345  -0.449  1.00  0.00     0.157 A 
ATOM      8  F   UNL     1       0.295   0.354  -1.688  1.00  0.00    -0.204 F 
ENDROOT
BRANCH   1   9
ATOM      9  N   UNL     1       1.771   1.416   0.408  1.00  0.00    -0.351 N 
ATOM     10  H   UNL     1       1.921   1.990  -0.453  1.00  0.00     0.167 HD
BRANCH   9  11
ATOM     11  C   UNL     1       2.905   1.162   1.258  1.00  0.00     0.041 A 
ATOM     12  C   UNL     1       5.165   0.684   2.871  1.00  0.00    -0.015 A 
ATOM     13  C   UNL     1       5.109   1.817   2.045  1.00  0.00     0.008 A 
ATOM     14  C   UNL     1       4.097  -0.228   2.861  1.00  0.00     0.128 A 
ATOM     15  C   UNL     1       3.988   2.052   1.244  1.00  0.00     0.026 A 
ATOM     16  C   UNL     1       2.976   0.009   2.060  1.00  0.00     0.065 A 
ATOM     17  C   UNL     1       6.382   0.416   3.708  1.00  0.00     0.047 C 
ATOM     18  F   UNL     1       4.144  -1.351   3.621  1.00  0.00    -0.207 F 
ENDBRANCH   9  11
ENDBRANCH   1   9
BRANCH   4  19
ATOM     19  N   UNL     1      -2.032   0.454   3.401  1.00  0.00    -0.396 N 
ATOM     20  H   UNL     1      -1.527   0.856   4.222  1.00  0.00     0.156 HD
ATOM     21  H   UNL     1      -2.995   0.078   3.552  1.00  0.00     0.156 HD
ENDBRANCH   4  19
BRANCH   6  22
ATOM     22  C   UNL     1      -2.319  -0.760  -1.387  1.00  0.00    -0.013 A 
ATOM     23  C   UNL     1      -3.676  -0.397  -1.596  1.00  0.00     0.009 A 
ATOM     24  C   UNL     1      -1.707  -1.695  -2.255  1.00  0.00     0.035 A 
ATOM     25  C   UNL     1      -4.414  -0.948  -2.658  1.00  0.00     0.011 A 
ATOM     26  C   UNL     1      -2.467  -2.221  -3.298  1.00  0.00     0.046 A 
ATOM     27  C   UNL     1      -3.773  -1.860  -3.491  1.00  0.00    -0.001 A 
ATOM     28  N   UNL     1      -2.078  -3.114  -4.222  1.00  0.00    -0.361 N 
ATOM     29  C   UNL     1      -4.235  -2.553  -4.589  1.00  0.00     0.028 A 
ATOM     30  C   UNL     1      -3.155  -3.320  -5.014  1.00  0.00     0.083 A 
ATOM     31  H   UNL     1      -1.138  -3.561  -4.313  1.00  0.00     0.166 HD
ENDBRANCH   6  22
TORSDOF 4


