REMARK SMILES Cc1[n-]nc2cc(-c3ccc([O-])cc3)ccc12
REMARK SMILES IDX 1 1 2 2 3 3 4 4 5 5 6 6 7 7 15 8 16 9 17 10 8 11 9 12 14 13
REMARK SMILES IDX 10 14 13 15 11 16 12 17
REMARK H PARENT
ROOT
ATOM      1  C   UNL     1      -2.222   1.611   5.860  1.00  0.00     0.019 C 
ATOM      2  C   UNL     1      -2.553   1.410   4.418  1.00  0.00    -0.139 A 
ATOM      3  N   UNL     1      -3.807   1.430   3.909  1.00  0.00    -0.578 NA
ATOM      4  N   UNL     1      -3.747   1.178   2.604  1.00  0.00    -0.367 NA
ATOM      5  C   UNL     1      -2.452   0.993   2.291  1.00  0.00     0.048 A 
ATOM      6  C   UNL     1      -1.911   0.696   1.044  1.00  0.00     0.035 A 
ATOM      7  C   UNL     1      -0.507   0.528   0.948  1.00  0.00    -0.016 A 
ATOM      8  C   UNL     1       0.294   0.667   2.117  1.00  0.00     0.009 A 
ATOM      9  C   UNL     1      -0.291   0.968   3.361  1.00  0.00     0.009 A 
ATOM     10  C   UNL     1      -1.672   1.125   3.401  1.00  0.00    -0.020 A 
ENDROOT
BRANCH   7  11
ATOM     11  C   UNL     1       0.122   0.208  -0.359  1.00  0.00    -0.018 A 
ATOM     12  C   UNL     1       1.177  -0.720  -0.438  1.00  0.00     0.008 A 
ATOM     13  C   UNL     1      -0.328   0.828  -1.540  1.00  0.00     0.008 A 
ATOM     14  C   UNL     1       1.767  -1.020  -1.670  1.00  0.00    -0.008 A 
ATOM     15  C   UNL     1       0.265   0.526  -2.769  1.00  0.00    -0.008 A 
ATOM     16  C   UNL     1       1.312  -0.397  -2.835  1.00  0.00    -0.109 A 
ATOM     17  O   UNL     1       1.900  -0.696  -4.058  1.00  0.00    -0.872 OA
ENDBRANCH   7  11
TORSDOF 1


