REMARK SMILES CC(=O)/C(C)=C/C(=O)N(N)c1ccccc1-c1[nH]c2ccccc2[nH+]1
REMARK SMILES IDX 7 1 8 2 6 3 4 4 5 5 2 6 3 7 1 8 9 9 11 10 12 11 16 12 13 13
REMARK SMILES IDX 15 14 14 15 17 16 18 17 25 18 19 19 24 20 20 21 23 22 21 23
REMARK SMILES IDX 22 24 10 27
REMARK H PARENT 18 25 25 26 10 28 10 29
ROOT
ATOM      1  C   UNL     1      -0.254   0.384  -1.897  1.00  0.00     0.265 C 
ATOM      2  O   UNL     1       0.378   0.785  -2.912  1.00  0.00    -0.268 OA
ENDROOT
BRANCH   1   3
ATOM      3  C   UNL     1       0.381  -0.579  -0.965  1.00  0.00     0.080 C 
BRANCH   3   4
ATOM      4  C   UNL     1       1.698  -0.612  -0.659  1.00  0.00    -0.003 C 
ATOM      5  C   UNL     1       2.675   0.360  -1.277  1.00  0.00     0.048 C 
BRANCH   4   6
ATOM      6  C   UNL     1       2.224  -1.628   0.296  1.00  0.00     0.155 C 
ATOM      7  O   UNL     1       3.461  -1.868   0.327  1.00  0.00    -0.295 OA
ATOM      8  C   UNL     1       1.329  -2.397   1.223  1.00  0.00     0.093 C 
ENDBRANCH   4   6
ENDBRANCH   3   4
ENDBRANCH   1   3
BRANCH   1   9
ATOM      9  N   UNL     1      -1.613   0.830  -1.690  1.00  0.00    -0.244 N 
BRANCH   9  10
ATOM     10  C   UNL     1      -2.330   0.554  -0.472  1.00  0.00     0.076 A 
ATOM     11  C   UNL     1      -3.541  -0.152  -0.547  1.00  0.00     0.029 A 
ATOM     12  C   UNL     1      -1.831   0.944   0.798  1.00  0.00     0.089 A 
ATOM     13  C   UNL     1      -4.231  -0.505   0.614  1.00  0.00     0.002 A 
ATOM     14  C   UNL     1      -2.528   0.563   1.957  1.00  0.00     0.019 A 
ATOM     15  C   UNL     1      -3.721  -0.156   1.864  1.00  0.00     0.001 A 
BRANCH  12  16
ATOM     16  C   UNL     1      -0.598   1.748   0.943  1.00  0.00     0.287 A 
ATOM     17  N   UNL     1       0.350   1.495   1.882  1.00  0.00    -0.236 N 
ATOM     18  N   UNL     1      -0.270   2.788   0.133  1.00  0.00    -0.236 N 
ATOM     19  C   UNL     1       1.309   2.399   1.630  1.00  0.00     0.172 A 
ATOM     20  C   UNL     1       0.933   3.181   0.578  1.00  0.00     0.172 A 
ATOM     21  C   UNL     1       2.538   2.556   2.266  1.00  0.00     0.056 A 
ATOM     22  C   UNL     1       1.753   4.190   0.077  1.00  0.00     0.056 A 
ATOM     23  C   UNL     1       3.393   3.568   1.788  1.00  0.00     0.005 A 
ATOM     24  C   UNL     1       3.002   4.382   0.699  1.00  0.00     0.005 A 
ATOM     25  H   UNL     1       0.357   0.742   2.606  1.00  0.00     0.312 HD
ATOM     26  H   UNL     1      -0.819   3.190  -0.659  1.00  0.00     0.312 HD
ENDBRANCH  12  16
ENDBRANCH   9  10
BRANCH   9  27
ATOM     27  N   UNL     1      -2.303   1.479  -2.730  1.00  0.00    -0.240 NA
ATOM     28  H   UNL     1      -1.765   2.338  -2.984  1.00  0.00     0.144 HD
ATOM     29  H   UNL     1      -2.304   0.842  -3.559  1.00  0.00     0.144 HD
ENDBRANCH   9  27
ENDBRANCH   1   9
TORSDOF 7


