MODEL 1
REMARK VINA RESULT:      -7.7      0.000      0.000
REMARK SMILES O=C([N-]c1cc(F)c(F)cc1[NH2+]c1ccc(F)cc1)[C@H]1C[C@H](O)C[NH2+]1
REMARK SMILES IDX 3 1 2 2 1 3 20 4 21 5 25 6 22 7 24 8 23 11 4 13 5 14 11 15
REMARK SMILES IDX 6 16 10 17 8 18 7 19 9 20 12 21 13 24 14 25 19 26 15 27
REMARK SMILES IDX 18 28 16 29 17 30
REMARK H PARENT 25 9 25 10 23 12 12 22 12 23
ROOT
ATOM      1  N   UNL     1      44.758 130.927  21.516  1.00  0.00    -0.617 NA
ENDROOT
BRANCH   1   2
ATOM      2  C   UNL     1      44.415 130.393  22.801  1.00  0.00     0.113 C 
ATOM      3  O   UNL     1      44.631 131.053  23.851  1.00  0.00    -0.314 OA
BRANCH   2   4
ATOM      4  C   UNL     1      43.712 129.062  22.891  1.00  0.00     0.234 C 
ATOM      5  C   UNL     1      44.355 128.137  23.925  1.00  0.00     0.109 C 
ATOM      6  N   UNL     1      42.301 129.212  23.263  1.00  0.00    -0.337 N 
ATOM      7  C   UNL     1      43.189 127.443  24.625  1.00  0.00     0.175 C 
ATOM      8  C   UNL     1      41.936 127.962  23.927  1.00  0.00     0.293 C 
ATOM      9  H   UNL     1      41.707 129.364  22.415  1.00  0.00     0.346 HD
ATOM     10  H   UNL     1      42.162 130.003  23.937  1.00  0.00     0.346 HD
BRANCH   7  11
ATOM     11  O   UNL     1      43.276 126.048  24.501  1.00  0.00    -0.387 OA
ATOM     12  H   UNL     1      44.211 125.804  24.727  1.00  0.00     0.211 HD
ENDBRANCH   7  11
ENDBRANCH   2   4
ENDBRANCH   1   2
BRANCH   1  13
ATOM     13  C   UNL     1      43.871 131.424  20.502  1.00  0.00    -0.068 A 
ATOM     14  C   UNL     1      42.688 132.113  20.833  1.00  0.00     0.032 A 
ATOM     15  C   UNL     1      44.239 131.287  19.143  1.00  0.00     0.123 A 
ATOM     16  C   UNL     1      41.862 132.623  19.829  1.00  0.00     0.158 A 
ATOM     17  C   UNL     1      43.396 131.814  18.145  1.00  0.00     0.109 A 
ATOM     18  C   UNL     1      42.213 132.470  18.487  1.00  0.00     0.164 A 
ATOM     19  F   UNL     1      40.724 133.282  20.161  1.00  0.00    -0.204 F 
ATOM     20  F   UNL     1      41.414 132.971  17.514  1.00  0.00    -0.204 F 
BRANCH  15  21
ATOM     21  N   UNL     1      45.474 130.633  18.770  1.00  0.00    -0.283 N 
ATOM     22  H   UNL     1      46.265 131.068  19.298  1.00  0.00     0.358 HD
ATOM     23  H   UNL     1      45.456 129.622  19.038  1.00  0.00     0.358 HD
BRANCH  21  24
ATOM     24  C   UNL     1      45.683 130.729  17.345  1.00  0.00     0.134 A 
ATOM     25  C   UNL     1      45.986 129.581  16.590  1.00  0.00     0.071 A 
ATOM     26  C   UNL     1      45.589 131.971  16.689  1.00  0.00     0.071 A 
ATOM     27  C   UNL     1      46.167 129.671  15.206  1.00  0.00     0.045 A 
ATOM     28  C   UNL     1      45.772 132.058  15.307  1.00  0.00     0.045 A 
ATOM     29  C   UNL     1      46.056 130.908  14.564  1.00  0.00     0.123 A 
ATOM     30  F   UNL     1      46.228 130.994  13.223  1.00  0.00    -0.207 F 
ENDBRANCH  21  24
ENDBRANCH  15  21
ENDBRANCH   1  13
TORSDOF 6
ENDMDL
MODEL 2
REMARK VINA RESULT:      -7.6      3.504      7.290
REMARK SMILES O=C([N-]c1cc(F)c(F)cc1[NH2+]c1ccc(F)cc1)[C@H]1C[C@H](O)C[NH2+]1
REMARK SMILES IDX 3 1 2 2 1 3 20 4 21 5 25 6 22 7 24 8 23 11 4 13 5 14 11 15
REMARK SMILES IDX 6 16 10 17 8 18 7 19 9 20 12 21 13 24 14 25 19 26 15 27
REMARK SMILES IDX 18 28 16 29 17 30
REMARK H PARENT 25 9 25 10 23 12 12 22 12 23
ROOT
ATOM      1  N   UNL     1      45.048 130.786  18.402  1.00  0.00    -0.617 NA
ENDROOT
BRANCH   1   2
ATOM      2  C   UNL     1      45.016 131.167  17.021  1.00  0.00     0.113 C 
ATOM      3  O   UNL     1      43.995 131.716  16.528  1.00  0.00    -0.314 OA
BRANCH   2   4
ATOM      4  C   UNL     1      46.246 130.985  16.168  1.00  0.00     0.234 C 
ATOM      5  C   UNL     1      46.341 129.576  15.582  1.00  0.00     0.109 C 
ATOM      6  N   UNL     1      46.276 131.925  15.042  1.00  0.00    -0.337 N 
ATOM      7  C   UNL     1      46.848 129.767  14.155  1.00  0.00     0.175 C 
ATOM      8  C   UNL     1      47.069 131.269  14.005  1.00  0.00     0.293 C 
ATOM      9  H   UNL     1      46.718 132.830  15.325  1.00  0.00     0.346 HD
ATOM     10  H   UNL     1      45.315 132.106  14.665  1.00  0.00     0.346 HD
BRANCH   7  11
ATOM     11  O   UNL     1      48.049 129.072  13.942  1.00  0.00    -0.387 OA
ATOM     12  H   UNL     1      48.333 129.282  13.014  1.00  0.00     0.211 HD
ENDBRANCH   7  11
ENDBRANCH   2   4
ENDBRANCH   1   2
BRANCH   1  13
ATOM     13  C   UNL     1      44.242 131.292  19.476  1.00  0.00    -0.068 A 
ATOM     14  C   UNL     1      43.133 132.126  19.233  1.00  0.00     0.032 A 
ATOM     15  C   UNL     1      44.522 130.876  20.799  1.00  0.00     0.123 A 
ATOM     16  C   UNL     1      42.339 132.574  20.292  1.00  0.00     0.158 A 
ATOM     17  C   UNL     1      43.706 131.332  21.851  1.00  0.00     0.109 A 
ATOM     18  C   UNL     1      42.628 132.180  21.599  1.00  0.00     0.164 A 
ATOM     19  F   UNL     1      41.276 133.378  20.045  1.00  0.00    -0.204 F 
ATOM     20  F   UNL     1      41.853 132.610  22.625  1.00  0.00    -0.204 F 
BRANCH  15  21
ATOM     21  N   UNL     1      45.620 129.976  21.077  1.00  0.00    -0.283 N 
ATOM     22  H   UNL     1      45.999 129.607  20.174  1.00  0.00     0.358 HD
ATOM     23  H   UNL     1      46.407 130.482  21.546  1.00  0.00     0.358 HD
BRANCH  21  24
ATOM     24  C   UNL     1      45.184 128.902  21.937  1.00  0.00     0.134 A 
ATOM     25  C   UNL     1      44.258 129.145  22.968  1.00  0.00     0.071 A 
ATOM     26  C   UNL     1      45.678 127.596  21.759  1.00  0.00     0.071 A 
ATOM     27  C   UNL     1      43.819 128.099  23.786  1.00  0.00     0.045 A 
ATOM     28  C   UNL     1      45.239 126.554  22.579  1.00  0.00     0.045 A 
ATOM     29  C   UNL     1      44.307 126.804  23.590  1.00  0.00     0.123 A 
ATOM     30  F   UNL     1      43.878 125.791  24.381  1.00  0.00    -0.207 F 
ENDBRANCH  21  24
ENDBRANCH  15  21
ENDBRANCH   1  13
TORSDOF 6
ENDMDL
MODEL 3
REMARK VINA RESULT:      -6.8      2.007      2.839
REMARK SMILES O=C([N-]c1cc(F)c(F)cc1[NH2+]c1ccc(F)cc1)[C@H]1C[C@H](O)C[NH2+]1
REMARK SMILES IDX 3 1 2 2 1 3 20 4 21 5 25 6 22 7 24 8 23 11 4 13 5 14 11 15
REMARK SMILES IDX 6 16 10 17 8 18 7 19 9 20 12 21 13 24 14 25 19 26 15 27
REMARK SMILES IDX 18 28 16 29 17 30
REMARK H PARENT 25 9 25 10 23 12 12 22 12 23
ROOT
ATOM      1  N   UNL     1      45.771 130.428  19.777  1.00  0.00    -0.617 NA
ENDROOT
BRANCH   1   2
ATOM      2  C   UNL     1      45.437 129.788  21.015  1.00  0.00     0.113 C 
ATOM      3  O   UNL     1      45.775 128.595  21.234  1.00  0.00    -0.314 OA
BRANCH   2   4
ATOM      4  C   UNL     1      44.746 130.576  22.098  1.00  0.00     0.234 C 
ATOM      5  C   UNL     1      43.258 130.776  21.810  1.00  0.00     0.109 C 
ATOM      6  N   UNL     1      44.848 129.916  23.405  1.00  0.00    -0.337 N 
ATOM      7  C   UNL     1      42.560 130.602  23.157  1.00  0.00     0.175 C 
ATOM      8  C   UNL     1      43.681 130.363  24.162  1.00  0.00     0.293 C 
ATOM      9  H   UNL     1      45.731 130.194  23.894  1.00  0.00     0.346 HD
ATOM     10  H   UNL     1      44.810 128.873  23.314  1.00  0.00     0.346 HD
BRANCH   7  11
ATOM     11  O   UNL     1      41.828 131.748  23.504  1.00  0.00    -0.387 OA
ATOM     12  H   UNL     1      41.932 132.387  22.751  1.00  0.00     0.211 HD
ENDBRANCH   7  11
ENDBRANCH   2   4
ENDBRANCH   1   2
BRANCH   1  13
ATOM     13  C   UNL     1      44.880 130.855  18.736  1.00  0.00    -0.068 A 
ATOM     14  C   UNL     1      43.710 131.586  19.022  1.00  0.00     0.032 A 
ATOM     15  C   UNL     1      45.230 130.604  17.388  1.00  0.00     0.123 A 
ATOM     16  C   UNL     1      42.880 132.025  17.989  1.00  0.00     0.158 A 
ATOM     17  C   UNL     1      44.384 131.061  16.360  1.00  0.00     0.109 A 
ATOM     18  C   UNL     1      43.214 131.760  16.660  1.00  0.00     0.164 A 
ATOM     19  F   UNL     1      41.755 132.726  18.278  1.00  0.00    -0.204 F 
ATOM     20  F   UNL     1      42.410 132.192  15.658  1.00  0.00    -0.204 F 
BRANCH  15  21
ATOM     21  N   UNL     1      46.452 129.904  17.056  1.00  0.00    -0.283 N 
ATOM     22  H   UNL     1      47.200 130.181  17.733  1.00  0.00     0.358 HD
ATOM     23  H   UNL     1      46.328 128.870  17.155  1.00  0.00     0.358 HD
BRANCH  21  24
ATOM     24  C   UNL     1      46.844 130.194  15.698  1.00  0.00     0.134 A 
ATOM     25  C   UNL     1      46.570 131.452  15.130  1.00  0.00     0.071 A 
ATOM     26  C   UNL     1      47.505 129.224  14.920  1.00  0.00     0.071 A 
ATOM     27  C   UNL     1      46.970 131.739  13.821  1.00  0.00     0.045 A 
ATOM     28  C   UNL     1      47.902 129.514  13.613  1.00  0.00     0.045 A 
ATOM     29  C   UNL     1      47.639 130.773  13.064  1.00  0.00     0.123 A 
ATOM     30  F   UNL     1      48.029 131.054  11.797  1.00  0.00    -0.207 F 
ENDBRANCH  21  24
ENDBRANCH  15  21
ENDBRANCH   1  13
TORSDOF 6
ENDMDL
MODEL 4
REMARK VINA RESULT:      -6.8      1.909      2.572
REMARK SMILES O=C([N-]c1cc(F)c(F)cc1[NH2+]c1ccc(F)cc1)[C@H]1C[C@H](O)C[NH2+]1
REMARK SMILES IDX 3 1 2 2 1 3 20 4 21 5 25 6 22 7 24 8 23 11 4 13 5 14 11 15
REMARK SMILES IDX 6 16 10 17 8 18 7 19 9 20 12 21 13 24 14 25 19 26 15 27
REMARK SMILES IDX 18 28 16 29 17 30
REMARK H PARENT 25 9 25 10 23 12 12 22 12 23
ROOT
ATOM      1  N   UNL     1      45.753 130.776  19.847  1.00  0.00    -0.617 NA
ENDROOT
BRANCH   1   2
ATOM      2  C   UNL     1      45.566 129.866  20.938  1.00  0.00     0.113 C 
ATOM      3  O   UNL     1      46.040 128.700  20.892  1.00  0.00    -0.314 OA
BRANCH   2   4
ATOM      4  C   UNL     1      44.864 130.334  22.188  1.00  0.00     0.234 C 
ATOM      5  C   UNL     1      43.474 130.898  21.895  1.00  0.00     0.109 C 
ATOM      6  N   UNL     1      44.694 129.248  23.160  1.00  0.00    -0.337 N 
ATOM      7  C   UNL     1      42.587 130.394  23.031  1.00  0.00     0.175 C 
ATOM      8  C   UNL     1      43.518 129.609  23.949  1.00  0.00     0.293 C 
ATOM      9  H   UNL     1      45.537 129.165  23.775  1.00  0.00     0.346 HD
ATOM     10  H   UNL     1      44.513 128.331  22.686  1.00  0.00     0.346 HD
BRANCH   7  11
ATOM     11  O   UNL     1      41.996 131.459  23.728  1.00  0.00    -0.387 OA
ATOM     12  H   UNL     1      41.195 131.086  24.182  1.00  0.00     0.211 HD
ENDBRANCH   7  11
ENDBRANCH   2   4
ENDBRANCH   1   2
BRANCH   1  13
ATOM     13  C   UNL     1      44.839 131.075  18.781  1.00  0.00    -0.068 A 
ATOM     14  C   UNL     1      43.641 131.778  19.014  1.00  0.00     0.032 A 
ATOM     15  C   UNL     1      45.193 130.725  17.456  1.00  0.00     0.123 A 
ATOM     16  C   UNL     1      42.787 132.092  17.954  1.00  0.00     0.158 A 
ATOM     17  C   UNL     1      44.323 131.057  16.401  1.00  0.00     0.109 A 
ATOM     18  C   UNL     1      43.126 131.729  16.650  1.00  0.00     0.164 A 
ATOM     19  F   UNL     1      41.636 132.768  18.193  1.00  0.00    -0.204 F 
ATOM     20  F   UNL     1      42.300 132.041  15.621  1.00  0.00    -0.204 F 
BRANCH  15  21
ATOM     21  N   UNL     1      46.441 130.051  17.175  1.00  0.00    -0.283 N 
ATOM     22  H   UNL     1      47.171 130.386  17.846  1.00  0.00     0.358 HD
ATOM     23  H   UNL     1      46.351 129.019  17.326  1.00  0.00     0.358 HD
BRANCH  21  24
ATOM     24  C   UNL     1      46.842 130.285  15.809  1.00  0.00     0.134 A 
ATOM     25  C   UNL     1      47.438 129.258  15.055  1.00  0.00     0.071 A 
ATOM     26  C   UNL     1      46.646 131.544  15.210  1.00  0.00     0.071 A 
ATOM     27  C   UNL     1      47.806 129.479  13.724  1.00  0.00     0.045 A 
ATOM     28  C   UNL     1      47.015 131.762  13.881  1.00  0.00     0.045 A 
ATOM     29  C   UNL     1      47.592 130.729  13.136  1.00  0.00     0.123 A 
ATOM     30  F   UNL     1      47.945 130.941  11.845  1.00  0.00    -0.207 F 
ENDBRANCH  21  24
ENDBRANCH  15  21
ENDBRANCH   1  13
TORSDOF 6
ENDMDL
MODEL 5
REMARK VINA RESULT:      -6.7      2.118      2.365
REMARK SMILES O=C([N-]c1cc(F)c(F)cc1[NH2+]c1ccc(F)cc1)[C@H]1C[C@H](O)C[NH2+]1
REMARK SMILES IDX 3 1 2 2 1 3 20 4 21 5 25 6 22 7 24 8 23 11 4 13 5 14 11 15
REMARK SMILES IDX 6 16 10 17 8 18 7 19 9 20 12 21 13 24 14 25 19 26 15 27
REMARK SMILES IDX 18 28 16 29 17 30
REMARK H PARENT 25 9 25 10 23 12 12 22 12 23
ROOT
ATOM      1  N   UNL     1      45.437 129.132  21.539  1.00  0.00    -0.617 NA
ENDROOT
BRANCH   1   2
ATOM      2  C   UNL     1      45.167 128.146  22.543  1.00  0.00     0.113 C 
ATOM      3  O   UNL     1      44.756 128.485  23.684  1.00  0.00    -0.314 OA
BRANCH   2   4
ATOM      4  C   UNL     1      45.297 126.682  22.204  1.00  0.00     0.234 C 
ATOM      5  C   UNL     1      46.301 125.965  23.108  1.00  0.00     0.109 C 
ATOM      6  N   UNL     1      44.017 125.975  22.333  1.00  0.00    -0.337 N 
ATOM      7  C   UNL     1      45.673 124.607  23.408  1.00  0.00     0.175 C 
ATOM      8  C   UNL     1      44.365 124.586  22.624  1.00  0.00     0.293 C 
ATOM      9  H   UNL     1      43.467 126.038  21.445  1.00  0.00     0.346 HD
ATOM     10  H   UNL     1      43.447 126.352  23.127  1.00  0.00     0.346 HD
BRANCH   7  11
ATOM     11  O   UNL     1      46.507 123.556  22.996  1.00  0.00    -0.387 OA
ATOM     12  H   UNL     1      46.684 123.005  23.803  1.00  0.00     0.211 HD
ENDBRANCH   7  11
ENDBRANCH   2   4
ENDBRANCH   1   2
BRANCH   1  13
ATOM     13  C   UNL     1      44.592 130.210  21.111  1.00  0.00    -0.068 A 
ATOM     14  C   UNL     1      43.541 130.686  21.919  1.00  0.00     0.032 A 
ATOM     15  C   UNL     1      44.876 130.860  19.886  1.00  0.00     0.123 A 
ATOM     16  C   UNL     1      42.757 131.763  21.499  1.00  0.00     0.158 A 
ATOM     17  C   UNL     1      44.079 131.948  19.484  1.00  0.00     0.109 A 
ATOM     18  C   UNL     1      43.023 132.391  20.282  1.00  0.00     0.164 A 
ATOM     19  F   UNL     1      41.747 132.209  22.286  1.00  0.00    -0.204 F 
ATOM     20  F   UNL     1      42.266 133.441  19.879  1.00  0.00    -0.204 F 
BRANCH  15  21
ATOM     21  N   UNL     1      45.982 130.433  19.058  1.00  0.00    -0.283 N 
ATOM     22  H   UNL     1      46.828 131.001  19.295  1.00  0.00     0.358 HD
ATOM     23  H   UNL     1      46.229 129.434  19.253  1.00  0.00     0.358 HD
BRANCH  21  24
ATOM     24  C   UNL     1      45.642 130.560  17.661  1.00  0.00     0.134 A 
ATOM     25  C   UNL     1      45.692 129.441  16.810  1.00  0.00     0.071 A 
ATOM     26  C   UNL     1      45.259 131.806  17.128  1.00  0.00     0.071 A 
ATOM     27  C   UNL     1      45.342 129.562  15.462  1.00  0.00     0.045 A 
ATOM     28  C   UNL     1      44.911 131.923  15.780  1.00  0.00     0.045 A 
ATOM     29  C   UNL     1      44.948 130.800  14.948  1.00  0.00     0.123 A 
ATOM     30  F   UNL     1      44.606 130.915  13.641  1.00  0.00    -0.207 F 
ENDBRANCH  21  24
ENDBRANCH  15  21
ENDBRANCH   1  13
TORSDOF 6
ENDMDL
MODEL 6
REMARK VINA RESULT:      -6.7      1.783      2.556
REMARK SMILES O=C([N-]c1cc(F)c(F)cc1[NH2+]c1ccc(F)cc1)[C@H]1C[C@H](O)C[NH2+]1
REMARK SMILES IDX 3 1 2 2 1 3 20 4 21 5 25 6 22 7 24 8 23 11 4 13 5 14 11 15
REMARK SMILES IDX 6 16 10 17 8 18 7 19 9 20 12 21 13 24 14 25 19 26 15 27
REMARK SMILES IDX 18 28 16 29 17 30
REMARK H PARENT 25 9 25 10 23 12 12 22 12 23
ROOT
ATOM      1  N   UNL     1      45.694 130.721  19.684  1.00  0.00    -0.617 NA
ENDROOT
BRANCH   1   2
ATOM      2  C   UNL     1      45.539 131.093  21.059  1.00  0.00     0.113 C 
ATOM      3  O   UNL     1      46.334 131.907  21.600  1.00  0.00    -0.314 OA
BRANCH   2   4
ATOM      4  C   UNL     1      44.363 130.570  21.844  1.00  0.00     0.234 C 
ATOM      5  C   UNL     1      44.740 129.377  22.724  1.00  0.00     0.109 C 
ATOM      6  N   UNL     1      43.794 131.595  22.727  1.00  0.00    -0.337 N 
ATOM      7  C   UNL     1      43.985 129.589  24.034  1.00  0.00     0.175 C 
ATOM      8  C   UNL     1      43.172 130.863  23.828  1.00  0.00     0.293 C 
ATOM      9  H   UNL     1      43.081 132.168  22.218  1.00  0.00     0.346 HD
ATOM     10  H   UNL     1      44.536 132.223  23.118  1.00  0.00     0.346 HD
BRANCH   7  11
ATOM     11  O   UNL     1      43.136 128.507  24.316  1.00  0.00    -0.387 OA
ATOM     12  H   UNL     1      43.058 127.986  23.474  1.00  0.00     0.211 HD
ENDBRANCH   7  11
ENDBRANCH   2   4
ENDBRANCH   1   2
BRANCH   1  13
ATOM     13  C   UNL     1      44.828 131.033  18.583  1.00  0.00    -0.068 A 
ATOM     14  C   UNL     1      43.606 131.707  18.775  1.00  0.00     0.032 A 
ATOM     15  C   UNL     1      45.253 130.727  17.268  1.00  0.00     0.123 A 
ATOM     16  C   UNL     1      42.800 132.036  17.684  1.00  0.00     0.158 A 
ATOM     17  C   UNL     1      44.429 131.073  16.180  1.00  0.00     0.109 A 
ATOM     18  C   UNL     1      43.208 131.716  16.388  1.00  0.00     0.164 A 
ATOM     19  F   UNL     1      41.625 132.683  17.884  1.00  0.00    -0.204 F 
ATOM     20  F   UNL     1      42.427 132.041  15.329  1.00  0.00    -0.204 F 
BRANCH  15  21
ATOM     21  N   UNL     1      46.526 130.084  17.030  1.00  0.00    -0.283 N 
ATOM     22  H   UNL     1      47.238 130.478  17.688  1.00  0.00     0.358 HD
ATOM     23  H   UNL     1      46.470 129.058  17.231  1.00  0.00     0.358 HD
BRANCH  21  24
ATOM     24  C   UNL     1      46.931 130.264  15.657  1.00  0.00     0.134 A 
ATOM     25  C   UNL     1      46.748 131.503  15.016  1.00  0.00     0.071 A 
ATOM     26  C   UNL     1      47.514 129.203  14.937  1.00  0.00     0.071 A 
ATOM     27  C   UNL     1      47.161 131.682  13.691  1.00  0.00     0.045 A 
ATOM     28  C   UNL     1      47.924 129.385  13.614  1.00  0.00     0.045 A 
ATOM     29  C   UNL     1      47.752 130.626  12.992  1.00  0.00     0.123 A 
ATOM     30  F   UNL     1      48.155 130.802  11.710  1.00  0.00    -0.207 F 
ENDBRANCH  21  24
ENDBRANCH  15  21
ENDBRANCH   1  13
TORSDOF 6
ENDMDL
MODEL 7
REMARK VINA RESULT:      -6.3      3.662      7.409
REMARK SMILES O=C([N-]c1cc(F)c(F)cc1[NH2+]c1ccc(F)cc1)[C@H]1C[C@H](O)C[NH2+]1
REMARK SMILES IDX 3 1 2 2 1 3 20 4 21 5 25 6 22 7 24 8 23 11 4 13 5 14 11 15
REMARK SMILES IDX 6 16 10 17 8 18 7 19 9 20 12 21 13 24 14 25 19 26 15 27
REMARK SMILES IDX 18 28 16 29 17 30
REMARK H PARENT 25 9 25 10 23 12 12 22 12 23
ROOT
ATOM      1  N   UNL     1      45.641 130.556  17.013  1.00  0.00    -0.617 NA
ENDROOT
BRANCH   1   2
ATOM      2  C   UNL     1      45.467 129.505  16.055  1.00  0.00     0.113 C 
ATOM      3  O   UNL     1      44.714 128.526  16.302  1.00  0.00    -0.314 OA
BRANCH   2   4
ATOM      4  C   UNL     1      46.128 129.611  14.704  1.00  0.00     0.234 C 
ATOM      5  C   UNL     1      46.377 131.063  14.294  1.00  0.00     0.109 C 
ATOM      6  N   UNL     1      47.425 128.924  14.673  1.00  0.00    -0.337 N 
ATOM      7  C   UNL     1      47.752 131.063  13.630  1.00  0.00     0.175 C 
ATOM      8  C   UNL     1      48.205 129.607  13.643  1.00  0.00     0.293 C 
ATOM      9  H   UNL     1      47.304 127.913  14.432  1.00  0.00     0.346 HD
ATOM     10  H   UNL     1      47.928 129.010  15.588  1.00  0.00     0.346 HD
BRANCH   7  11
ATOM     11  O   UNL     1      47.683 131.542  12.312  1.00  0.00    -0.387 OA
ATOM     12  H   UNL     1      46.727 131.743  12.137  1.00  0.00     0.211 HD
ENDBRANCH   7  11
ENDBRANCH   2   4
ENDBRANCH   1   2
BRANCH   1  13
ATOM     13  C   UNL     1      44.640 131.178  17.832  1.00  0.00    -0.068 A 
ATOM     14  C   UNL     1      43.486 131.757  17.270  1.00  0.00     0.032 A 
ATOM     15  C   UNL     1      44.780 131.135  19.239  1.00  0.00     0.123 A 
ATOM     16  C   UNL     1      42.506 132.321  18.089  1.00  0.00     0.158 A 
ATOM     17  C   UNL     1      43.779 131.702  20.049  1.00  0.00     0.109 A 
ATOM     18  C   UNL     1      42.653 132.297  19.477  1.00  0.00     0.164 A 
ATOM     19  F   UNL     1      41.400 132.877  17.535  1.00  0.00    -0.204 F 
ATOM     20  F   UNL     1      41.698 132.839  20.272  1.00  0.00    -0.204 F 
BRANCH  15  21
ATOM     21  N   UNL     1      45.926 130.499  19.851  1.00  0.00    -0.283 N 
ATOM     22  H   UNL     1      46.411 129.906  19.139  1.00  0.00     0.358 HD
ATOM     23  H   UNL     1      46.623 131.213  20.169  1.00  0.00     0.358 HD
BRANCH  21  24
ATOM     24  C   UNL     1      45.517 129.715  20.991  1.00  0.00     0.134 A 
ATOM     25  C   UNL     1      45.839 128.348  21.069  1.00  0.00     0.071 A 
ATOM     26  C   UNL     1      44.787 130.303  22.041  1.00  0.00     0.071 A 
ATOM     27  C   UNL     1      45.461 127.593  22.184  1.00  0.00     0.045 A 
ATOM     28  C   UNL     1      44.409 129.547  23.153  1.00  0.00     0.045 A 
ATOM     29  C   UNL     1      44.750 128.193  23.227  1.00  0.00     0.123 A 
ATOM     30  F   UNL     1      44.387 127.462  24.309  1.00  0.00    -0.207 F 
ENDBRANCH  21  24
ENDBRANCH  15  21
ENDBRANCH   1  13
TORSDOF 6
ENDMDL
MODEL 8
REMARK VINA RESULT:      -6.2      3.676      7.411
REMARK SMILES O=C([N-]c1cc(F)c(F)cc1[NH2+]c1ccc(F)cc1)[C@H]1C[C@H](O)C[NH2+]1
REMARK SMILES IDX 3 1 2 2 1 3 20 4 21 5 25 6 22 7 24 8 23 11 4 13 5 14 11 15
REMARK SMILES IDX 6 16 10 17 8 18 7 19 9 20 12 21 13 24 14 25 19 26 15 27
REMARK SMILES IDX 18 28 16 29 17 30
REMARK H PARENT 25 9 25 10 23 12 12 22 12 23
ROOT
ATOM      1  N   UNL     1      45.404 130.929  17.548  1.00  0.00    -0.617 NA
ENDROOT
BRANCH   1   2
ATOM      2  C   UNL     1      45.798 131.494  16.291  1.00  0.00     0.113 C 
ATOM      3  O   UNL     1      45.838 132.743  16.131  1.00  0.00    -0.314 OA
BRANCH   2   4
ATOM      4  C   UNL     1      46.250 130.587  15.175  1.00  0.00     0.234 C 
ATOM      5  C   UNL     1      46.801 131.367  13.981  1.00  0.00     0.109 C 
ATOM      6  N   UNL     1      47.304 129.664  15.613  1.00  0.00    -0.337 N 
ATOM      7  C   UNL     1      48.010 130.568  13.503  1.00  0.00     0.175 C 
ATOM      8  C   UNL     1      48.068 129.343  14.409  1.00  0.00     0.293 C 
ATOM      9  H   UNL     1      46.890 128.797  16.027  1.00  0.00     0.346 HD
ATOM     10  H   UNL     1      47.946 130.114  16.308  1.00  0.00     0.346 HD
BRANCH   7  11
ATOM     11  O   UNL     1      47.868 130.178  12.162  1.00  0.00    -0.387 OA
ATOM     12  H   UNL     1      48.382 130.835  11.623  1.00  0.00     0.211 HD
ENDBRANCH   7  11
ENDBRANCH   2   4
ENDBRANCH   1   2
BRANCH   1  13
ATOM     13  C   UNL     1      44.412 131.419  18.463  1.00  0.00    -0.068 A 
ATOM     14  C   UNL     1      43.226 132.026  18.006  1.00  0.00     0.032 A 
ATOM     15  C   UNL     1      44.596 131.211  19.850  1.00  0.00     0.123 A 
ATOM     16  C   UNL     1      42.257 132.458  18.914  1.00  0.00     0.158 A 
ATOM     17  C   UNL     1      43.605 131.647  20.749  1.00  0.00     0.109 A 
ATOM     18  C   UNL     1      42.447 132.272  20.283  1.00  0.00     0.164 A 
ATOM     19  F   UNL     1      41.120 133.043  18.460  1.00  0.00    -0.204 F 
ATOM     20  F   UNL     1      41.502 132.686  21.164  1.00  0.00    -0.204 F 
BRANCH  15  21
ATOM     21  N   UNL     1      45.777 130.542  20.350  1.00  0.00    -0.283 N 
ATOM     22  H   UNL     1      46.288 130.104  19.549  1.00  0.00     0.358 HD
ATOM     23  H   UNL     1      46.437 131.227  20.787  1.00  0.00     0.358 HD
BRANCH  21  24
ATOM     24  C   UNL     1      45.414 129.555  21.339  1.00  0.00     0.134 A 
ATOM     25  C   UNL     1      44.637 129.916  22.454  1.00  0.00     0.071 A 
ATOM     26  C   UNL     1      45.834 128.218  21.205  1.00  0.00     0.071 A 
ATOM     27  C   UNL     1      44.267 128.954  23.400  1.00  0.00     0.045 A 
ATOM     28  C   UNL     1      45.465 127.260  22.152  1.00  0.00     0.045 A 
ATOM     29  C   UNL     1      44.678 127.627  23.248  1.00  0.00     0.123 A 
ATOM     30  F   UNL     1      44.317 126.695  24.164  1.00  0.00    -0.207 F 
ENDBRANCH  21  24
ENDBRANCH  15  21
ENDBRANCH   1  13
TORSDOF 6
ENDMDL
MODEL 9
REMARK VINA RESULT:      -6.0      1.964      2.462
REMARK SMILES O=C([N-]c1cc(F)c(F)cc1[NH2+]c1ccc(F)cc1)[C@H]1C[C@H](O)C[NH2+]1
REMARK SMILES IDX 3 1 2 2 1 3 20 4 21 5 25 6 22 7 24 8 23 11 4 13 5 14 11 15
REMARK SMILES IDX 6 16 10 17 8 18 7 19 9 20 12 21 13 24 14 25 19 26 15 27
REMARK SMILES IDX 18 28 16 29 17 30
REMARK H PARENT 25 9 25 10 23 12 12 22 12 23
ROOT
ATOM      1  N   UNL     1      45.015 129.565  22.095  1.00  0.00    -0.617 NA
ENDROOT
BRANCH   1   2
ATOM      2  C   UNL     1      44.583 128.470  22.911  1.00  0.00     0.113 C 
ATOM      3  O   UNL     1      43.404 128.421  23.353  1.00  0.00    -0.314 OA
BRANCH   2   4
ATOM      4  C   UNL     1      45.524 127.322  23.177  1.00  0.00     0.234 C 
ATOM      5  C   UNL     1      44.964 126.341  24.207  1.00  0.00     0.109 C 
ATOM      6  N   UNL     1      45.808 126.554  21.959  1.00  0.00    -0.337 N 
ATOM      7  C   UNL     1      45.338 124.955  23.688  1.00  0.00     0.175 C 
ATOM      8  C   UNL     1      46.138 125.206  22.414  1.00  0.00     0.293 C 
ATOM      9  H   UNL     1      46.613 126.972  21.436  1.00  0.00     0.346 HD
ATOM     10  H   UNL     1      44.970 126.502  21.332  1.00  0.00     0.346 HD
BRANCH   7  11
ATOM     11  O   UNL     1      46.115 124.252  24.623  1.00  0.00    -0.387 OA
ATOM     12  H   UNL     1      45.589 124.232  25.465  1.00  0.00     0.211 HD
ENDBRANCH   7  11
ENDBRANCH   2   4
ENDBRANCH   1   2
BRANCH   1  13
ATOM     13  C   UNL     1      44.206 130.577  21.475  1.00  0.00    -0.068 A 
ATOM     14  C   UNL     1      43.114 131.159  22.147  1.00  0.00     0.032 A 
ATOM     15  C   UNL     1      44.567 131.053  20.192  1.00  0.00     0.123 A 
ATOM     16  C   UNL     1      42.367 132.170  21.540  1.00  0.00     0.158 A 
ATOM     17  C   UNL     1      43.806 132.077  19.599  1.00  0.00     0.109 A 
ATOM     18  C   UNL     1      42.709 132.626  20.266  1.00  0.00     0.164 A 
ATOM     19  F   UNL     1      41.316 132.721  22.197  1.00  0.00    -0.204 F 
ATOM     20  F   UNL     1      41.987 133.612  19.679  1.00  0.00    -0.204 F 
BRANCH  15  21
ATOM     21  N   UNL     1      45.715 130.515  19.497  1.00  0.00    -0.283 N 
ATOM     22  H   UNL     1      46.571 131.041  19.790  1.00  0.00     0.358 HD
ATOM     23  H   UNL     1      45.876 129.515  19.760  1.00  0.00     0.358 HD
BRANCH  21  24
ATOM     24  C   UNL     1      45.520 130.592  18.069  1.00  0.00     0.134 A 
ATOM     25  C   UNL     1      44.662 131.561  17.518  1.00  0.00     0.071 A 
ATOM     26  C   UNL     1      46.181 129.697  17.206  1.00  0.00     0.071 A 
ATOM     27  C   UNL     1      44.491 131.649  16.133  1.00  0.00     0.045 A 
ATOM     28  C   UNL     1      46.005 129.785  15.823  1.00  0.00     0.045 A 
ATOM     29  C   UNL     1      45.164 130.764  15.286  1.00  0.00     0.123 A 
ATOM     30  F   UNL     1      44.999 130.852  13.943  1.00  0.00    -0.207 F 
ENDBRANCH  21  24
ENDBRANCH  15  21
ENDBRANCH   1  13
TORSDOF 6
ENDMDL


