REMARK SMILES N#Cc1c[nH+]c(N(c2cn3ccccc3n2)c2cc3ccccc3[n-]2)cn1
REMARK SMILES IDX 3 1 4 2 5 3 6 4 26 5 27 6 2 8 1 9 7 10 8 11 9 12 16 13 10 14
REMARK SMILES IDX 15 15 11 16 14 17 12 18 13 19 17 20 18 21 25 22 19 23 24 24
REMARK SMILES IDX 20 25 23 26 21 27 22 28
REMARK H PARENT 5 7
ROOT
ATOM      1  C   UNL     1      -0.014   3.124   3.069  1.00  0.00     0.179 A 
ATOM      2  C   UNL     1       0.842   2.018   3.050  1.00  0.00     0.234 A 
ATOM      3  N   UNL     1       0.720   1.094   2.060  1.00  0.00    -0.280 N 
ATOM      4  C   UNL     1      -0.222   1.225   1.082  1.00  0.00     0.137 A 
ATOM      5  C   UNL     1      -1.079   2.335   1.108  1.00  0.00     0.160 A 
ATOM      6  N   UNL     1      -0.955   3.256   2.098  1.00  0.00    -0.238 NA
ATOM      7  H   UNL     1       1.372   0.277   2.050  1.00  0.00     0.307 HD
ENDROOT
BRANCH   1   8
ATOM      8  C   UNL     1       0.092   4.116   4.103  1.00  0.00     0.123 C 
ATOM      9  N   UNL     1       0.178   4.915   4.935  1.00  0.00    -0.191 NA
ENDBRANCH   1   8
BRANCH   4  10
ATOM     10  N   UNL     1      -0.343   0.230   0.048  1.00  0.00    -0.367 N 
BRANCH  10  11
ATOM     11  C   UNL     1      -0.452  -1.163   0.406  1.00  0.00     0.077 A 
ATOM     12  C   UNL     1      -0.821  -1.650   1.653  1.00  0.00     0.117 A 
ATOM     13  N   UNL     1      -0.200  -2.184  -0.451  1.00  0.00    -0.233 NA
ATOM     14  N   UNL     1      -0.796  -2.986   1.564  1.00  0.00    -0.307 N 
ATOM     15  C   UNL     1      -0.425  -3.277   0.306  1.00  0.00     0.136 A 
ATOM     16  C   UNL     1      -1.077  -3.928   2.501  1.00  0.00     0.093 A 
ATOM     17  C   UNL     1      -0.303  -4.600  -0.115  1.00  0.00     0.048 A 
ATOM     18  C   UNL     1      -0.971  -5.277   2.133  1.00  0.00     0.018 A 
ATOM     19  C   UNL     1      -0.582  -5.610   0.820  1.00  0.00     0.005 A 
ENDBRANCH  10  11
BRANCH  10  20
ATOM     20  C   UNL     1      -0.346   0.625  -1.339  1.00  0.00    -0.049 A 
ATOM     21  C   UNL     1       0.168   1.827  -1.827  1.00  0.00     0.008 A 
ATOM     22  N   UNL     1      -0.858  -0.147  -2.331  1.00  0.00    -0.435 NA
ATOM     23  C   UNL     1      -0.050   1.770  -3.181  1.00  0.00    -0.023 A 
ATOM     24  C   UNL     1      -0.665   0.576  -3.448  1.00  0.00    -0.034 A 
ATOM     25  C   UNL     1       0.255   2.685  -4.186  1.00  0.00     0.008 A 
ATOM     26  C   UNL     1      -1.020   0.214  -4.747  1.00  0.00     0.004 A 
ATOM     27  C   UNL     1      -0.092   2.347  -5.507  1.00  0.00     0.001 A 
ATOM     28  C   UNL     1      -0.727   1.117  -5.786  1.00  0.00     0.000 A 
ENDBRANCH  10  20
ENDBRANCH   4  10
TORSDOF 4


