REMARK SMILES C/C=C(C)/C(O)=[N+]1/C[C@@H](c2ccc3c(C)[nH]nc3c2)[C@H](C)C[C@H]1F
REMARK SMILES IDX 5 1 6 2 3 4 4 5 2 6 1 7 7 8 8 9 23 10 9 11 22 12 20 13 24 14
REMARK SMILES IDX 21 15 10 16 11 17 19 18 12 19 18 20 13 21 17 22 14 23 16 24
REMARK SMILES IDX 15 25
REMARK H PARENT 6 3 16 26
ROOT
ATOM      1  C   UNL     1      -0.405  -2.287   1.329  1.00  0.00     0.365 C 
ENDROOT
BRANCH   1   2
ATOM      2  O   UNL     1      -1.558  -2.071   0.571  1.00  0.00    -0.460 OA
ATOM      3  H   UNL     1      -2.293  -2.765   0.513  1.00  0.00     0.300 HD
ENDBRANCH   1   2
BRANCH   1   4
ATOM      4  C   UNL     1      -0.293  -3.586   2.036  1.00  0.00     0.056 C 
ATOM      5  C   UNL     1      -0.339  -3.607   3.542  1.00  0.00     0.055 C 
BRANCH   4   6
ATOM      6  C   UNL     1      -0.243  -4.717   1.313  1.00  0.00    -0.017 C 
ATOM      7  C   UNL     1      -0.172  -6.082   1.927  1.00  0.00     0.036 C 
ENDBRANCH   4   6
ENDBRANCH   1   4
BRANCH   1   8
ATOM      8  N   UNL     1       0.529  -1.359   1.399  1.00  0.00    -0.166 N 
ATOM      9  C   UNL     1       0.320  -0.024   0.805  1.00  0.00     0.366 C 
ATOM     10  C   UNL     1       1.807  -1.553   2.117  1.00  0.00     0.445 C 
ATOM     11  C   UNL     1       1.483   0.331  -0.139  1.00  0.00     0.088 C 
ATOM     12  C   UNL     1       2.988  -1.200   1.206  1.00  0.00     0.119 C 
ATOM     13  C   UNL     1       2.842   0.209   0.600  1.00  0.00     0.009 C 
ATOM     14  F   UNL     1       1.828  -0.755   3.249  1.00  0.00    -0.175 F 
ATOM     15  C   UNL     1       4.024   0.491  -0.342  1.00  0.00     0.009 C 
BRANCH  11  16
ATOM     16  C   UNL     1       1.274   1.711  -0.740  1.00  0.00    -0.036 A 
ATOM     17  C   UNL     1       1.258   2.874   0.082  1.00  0.00     0.005 A 
ATOM     18  C   UNL     1       1.099   1.846  -2.138  1.00  0.00     0.035 A 
ATOM     19  C   UNL     1       1.072   4.151  -0.477  1.00  0.00     0.012 A 
ATOM     20  C   UNL     1       0.916   3.124  -2.657  1.00  0.00     0.093 A 
ATOM     21  C   UNL     1       0.900   4.231  -1.855  1.00  0.00     0.023 A 
ATOM     22  N   UNL     1       0.750   3.473  -3.946  1.00  0.00    -0.175 NA
ATOM     23  C   UNL     1       0.705   5.290  -2.712  1.00  0.00     0.040 A 
ATOM     24  N   UNL     1       0.627   4.796  -3.969  1.00  0.00    -0.282 N 
ATOM     25  C   UNL     1       0.670   6.742  -2.360  1.00  0.00     0.067 C 
ATOM     26  H   UNL     1       0.498   5.354  -4.842  1.00  0.00     0.190 HD
ENDBRANCH  11  16
ENDBRANCH   1   8
TORSDOF 5


