MODEL 1
REMARK VINA RESULT:      -8.4      0.000      0.000
REMARK SMILES C=C1CC[C@@H](N[C@H]2CCC[C@@H]([NH2+]N)[C@@H]2O)C[C@H]1F
REMARK SMILES IDX 7 1 8 2 9 3 10 4 11 5 14 6 6 7 5 9 2 10 3 11 17 12 4 13
REMARK SMILES IDX 16 14 1 15 18 16 15 17 12 19 13 22
REMARK H PARENT 6 8 15 18 12 20 12 21 13 23 13 24
ROOT
ATOM      1  C   UNL     1      44.209 131.316  18.877  1.00  0.00     0.088 C 
ATOM      2  C   UNL     1      45.537 131.132  19.644  1.00  0.00     0.022 C 
ATOM      3  C   UNL     1      45.302 130.462  20.999  1.00  0.00     0.008 C 
ATOM      4  C   UNL     1      44.319 131.276  21.844  1.00  0.00     0.070 C 
ATOM      5  C   UNL     1      42.974 131.472  21.112  1.00  0.00     0.232 C 
ATOM      6  C   UNL     1      43.211 132.138  19.728  1.00  0.00     0.191 C 
ENDROOT
BRANCH   1   7
ATOM      7  N   UNL     1      44.442 132.008  17.588  1.00  0.00    -0.308 NA
ATOM      8  H   UNL     1      44.600 133.036  17.713  1.00  0.00     0.123 HD
BRANCH   7   9
ATOM      9  C   UNL     1      45.564 131.436  16.822  1.00  0.00     0.057 C 
ATOM     10  C   UNL     1      46.794 130.323  14.443  1.00  0.00    -0.044 C 
ATOM     11  C   UNL     1      46.140 131.675  14.290  1.00  0.00     0.035 C 
ATOM     12  C   UNL     1      46.305 129.386  15.524  1.00  0.00     0.193 C 
ATOM     13  C   UNL     1      46.002 132.374  15.652  1.00  0.00     0.023 C 
ATOM     14  C   UNL     1      45.173 130.026  16.341  1.00  0.00     0.061 C 
ATOM     15  C   UNL     1      47.778 129.938  13.618  1.00  0.00     0.011 C 
ATOM     16  F   UNL     1      45.845 128.212  14.954  1.00  0.00    -0.243 F 
ENDBRANCH   7   9
ENDBRANCH   1   7
BRANCH   6  17
ATOM     17  O   UNL     1      41.989 132.238  19.040  1.00  0.00    -0.385 OA
ATOM     18  H   UNL     1      41.327 132.620  19.674  1.00  0.00     0.211 HD
ENDBRANCH   6  17
BRANCH   5  19
ATOM     19  N   UNL     1      42.065 132.278  21.955  1.00  0.00    -0.267 N 
ATOM     20  H   UNL     1      42.365 133.283  21.966  1.00  0.00     0.370 HD
ATOM     21  H   UNL     1      41.085 132.222  21.587  1.00  0.00     0.370 HD
BRANCH  19  22
ATOM     22  N   UNL     1      42.081 131.793  23.280  1.00  0.00    -0.183 NA
ATOM     23  H   UNL     1      42.097 132.617  23.926  1.00  0.00     0.183 HD
ATOM     24  H   UNL     1      42.983 131.281  23.436  1.00  0.00     0.183 HD
ENDBRANCH  19  22
ENDBRANCH   5  19
TORSDOF 5
ENDMDL
MODEL 2
REMARK VINA RESULT:      -8.4      1.269      1.753
REMARK SMILES C=C1CC[C@@H](N[C@H]2CCC[C@@H]([NH2+]N)[C@@H]2O)C[C@H]1F
REMARK SMILES IDX 7 1 8 2 9 3 10 4 11 5 14 6 6 7 5 9 2 10 3 11 17 12 4 13
REMARK SMILES IDX 16 14 1 15 18 16 15 17 12 19 13 22
REMARK H PARENT 6 8 15 18 12 20 12 21 13 23 13 24
ROOT
ATOM      1  C   UNL     1      43.934 131.377  18.185  1.00  0.00     0.088 C 
ATOM      2  C   UNL     1      45.364 131.512  18.751  1.00  0.00     0.022 C 
ATOM      3  C   UNL     1      45.448 130.959  20.174  1.00  0.00     0.008 C 
ATOM      4  C   UNL     1      44.454 131.671  21.093  1.00  0.00     0.070 C 
ATOM      5  C   UNL     1      43.008 131.549  20.564  1.00  0.00     0.232 C 
ATOM      6  C   UNL     1      42.923 132.096  19.111  1.00  0.00     0.191 C 
ENDROOT
BRANCH   1   7
ATOM      7  N   UNL     1      43.853 131.959  16.825  1.00  0.00    -0.308 NA
ATOM      8  H   UNL     1      44.168 132.958  16.802  1.00  0.00     0.123 HD
BRANCH   7   9
ATOM      9  C   UNL     1      44.612 131.189  15.823  1.00  0.00     0.057 C 
ATOM     10  C   UNL     1      47.023 130.006  14.727  1.00  0.00    -0.044 C 
ATOM     11  C   UNL     1      46.669 129.618  16.143  1.00  0.00     0.035 C 
ATOM     12  C   UNL     1      46.545 131.334  14.185  1.00  0.00     0.193 C 
ATOM     13  C   UNL     1      45.176 129.861  16.420  1.00  0.00     0.023 C 
ATOM     14  C   UNL     1      45.712 132.090  15.229  1.00  0.00     0.061 C 
ATOM     15  C   UNL     1      47.774 129.201  13.961  1.00  0.00     0.011 C 
ATOM     16  F   UNL     1      47.631 132.110  13.821  1.00  0.00    -0.243 F 
ENDBRANCH   7   9
ENDBRANCH   1   7
BRANCH   6  17
ATOM     17  O   UNL     1      41.622 131.906  18.614  1.00  0.00    -0.385 OA
ATOM     18  H   UNL     1      41.548 132.438  17.779  1.00  0.00     0.211 HD
ENDBRANCH   6  17
BRANCH   5  19
ATOM     19  N   UNL     1      42.087 132.267  21.471  1.00  0.00    -0.267 N 
ATOM     20  H   UNL     1      42.276 133.298  21.448  1.00  0.00     0.370 HD
ATOM     21  H   UNL     1      41.093 132.099  21.184  1.00  0.00     0.370 HD
BRANCH  19  22
ATOM     22  N   UNL     1      42.261 131.810  22.794  1.00  0.00    -0.183 NA
ATOM     23  H   UNL     1      42.805 132.536  23.318  1.00  0.00     0.183 HD
ATOM     24  H   UNL     1      42.863 130.952  22.773  1.00  0.00     0.183 HD
ENDBRANCH  19  22
ENDBRANCH   5  19
TORSDOF 5
ENDMDL
MODEL 3
REMARK VINA RESULT:      -7.9      1.741      2.181
REMARK SMILES C=C1CC[C@@H](N[C@H]2CCC[C@@H]([NH2+]N)[C@@H]2O)C[C@H]1F
REMARK SMILES IDX 7 1 8 2 9 3 10 4 11 5 14 6 6 7 5 9 2 10 3 11 17 12 4 13
REMARK SMILES IDX 16 14 1 15 18 16 15 17 12 19 13 22
REMARK H PARENT 6 8 15 18 12 20 12 21 13 23 13 24
ROOT
ATOM      1  C   UNL     1      43.992 131.551  18.304  1.00  0.00     0.088 C 
ATOM      2  C   UNL     1      42.515 131.877  18.613  1.00  0.00     0.022 C 
ATOM      3  C   UNL     1      42.393 132.750  19.862  1.00  0.00     0.008 C 
ATOM      4  C   UNL     1      43.040 132.066  21.068  1.00  0.00     0.070 C 
ATOM      5  C   UNL     1      44.524 131.734  20.800  1.00  0.00     0.232 C 
ATOM      6  C   UNL     1      44.652 130.859  19.521  1.00  0.00     0.191 C 
ENDROOT
BRANCH   1   7
ATOM      7  N   UNL     1      44.096 130.666  17.120  1.00  0.00    -0.308 NA
ATOM      8  H   UNL     1      43.220 130.669  16.546  1.00  0.00     0.123 HD
BRANCH   7   9
ATOM      9  C   UNL     1      45.243 130.995  16.254  1.00  0.00     0.057 C 
ATOM     10  C   UNL     1      46.776 130.852  13.797  1.00  0.00    -0.044 C 
ATOM     11  C   UNL     1      45.339 131.295  13.666  1.00  0.00     0.035 C 
ATOM     12  C   UNL     1      47.174 129.976  14.963  1.00  0.00     0.193 C 
ATOM     13  C   UNL     1      44.805 131.826  15.006  1.00  0.00     0.023 C 
ATOM     14  C   UNL     1      45.974 129.693  15.878  1.00  0.00     0.061 C 
ATOM     15  C   UNL     1      47.690 131.204  12.881  1.00  0.00     0.011 C 
ATOM     16  F   UNL     1      47.683 128.777  14.496  1.00  0.00    -0.243 F 
ENDBRANCH   7   9
ENDBRANCH   1   7
BRANCH   6  17
ATOM     17  O   UNL     1      46.011 130.631  19.244  1.00  0.00    -0.385 OA
ATOM     18  H   UNL     1      46.131 130.731  18.264  1.00  0.00     0.211 HD
ENDBRANCH   6  17
BRANCH   5  19
ATOM     19  N   UNL     1      45.101 131.058  21.982  1.00  0.00    -0.267 N 
ATOM     20  H   UNL     1      45.036 130.016  21.880  1.00  0.00     0.370 HD
ATOM     21  H   UNL     1      46.108 131.324  22.095  1.00  0.00     0.370 HD
BRANCH  19  22
ATOM     22  N   UNL     1      44.397 131.437  23.144  1.00  0.00    -0.183 NA
ATOM     23  H   UNL     1      44.891 131.025  23.970  1.00  0.00     0.183 HD
ATOM     24  H   UNL     1      43.448 130.992  23.118  1.00  0.00     0.183 HD
ENDBRANCH  19  22
ENDBRANCH   5  19
TORSDOF 5
ENDMDL
MODEL 4
REMARK VINA RESULT:      -7.8      3.090      6.824
REMARK SMILES C=C1CC[C@@H](N[C@H]2CCC[C@@H]([NH2+]N)[C@@H]2O)C[C@H]1F
REMARK SMILES IDX 7 1 8 2 9 3 10 4 11 5 14 6 6 7 5 9 2 10 3 11 17 12 4 13
REMARK SMILES IDX 16 14 1 15 18 16 15 17 12 19 13 22
REMARK H PARENT 6 8 15 18 12 20 12 21 13 23 13 24
ROOT
ATOM      1  C   UNL     1      45.034 131.037  16.463  1.00  0.00     0.088 C 
ATOM      2  C   UNL     1      44.661 129.597  16.050  1.00  0.00     0.022 C 
ATOM      3  C   UNL     1      45.879 128.846  15.511  1.00  0.00     0.008 C 
ATOM      4  C   UNL     1      46.492 129.588  14.322  1.00  0.00     0.070 C 
ATOM      5  C   UNL     1      46.889 131.032  14.701  1.00  0.00     0.232 C 
ATOM      6  C   UNL     1      45.656 131.793  15.265  1.00  0.00     0.191 C 
ENDROOT
BRANCH   1   7
ATOM      7  N   UNL     1      43.838 131.771  16.939  1.00  0.00    -0.308 NA
ATOM      8  H   UNL     1      43.011 131.630  16.311  1.00  0.00     0.123 HD
BRANCH   7   9
ATOM      9  C   UNL     1      43.460 131.422  18.321  1.00  0.00     0.057 C 
ATOM     10  C   UNL     1      42.961 132.019  21.115  1.00  0.00    -0.044 C 
ATOM     11  C   UNL     1      42.193 132.839  20.106  1.00  0.00     0.035 C 
ATOM     12  C   UNL     1      44.291 131.420  20.718  1.00  0.00     0.193 C 
ATOM     13  C   UNL     1      42.129 132.118  18.749  1.00  0.00     0.023 C 
ATOM     14  C   UNL     1      44.635 131.753  19.259  1.00  0.00     0.061 C 
ATOM     15  C   UNL     1      42.491 131.842  22.358  1.00  0.00     0.011 C 
ATOM     16  F   UNL     1      45.290 131.906  21.543  1.00  0.00    -0.243 F 
ENDBRANCH   7   9
ENDBRANCH   1   7
BRANCH   6  17
ATOM     17  O   UNL     1      46.047 133.078  15.679  1.00  0.00    -0.385 OA
ATOM     18  H   UNL     1      45.272 133.681  15.533  1.00  0.00     0.211 HD
ENDBRANCH   6  17
BRANCH   5  19
ATOM     19  N   UNL     1      47.457 131.716  13.520  1.00  0.00    -0.267 N 
ATOM     20  H   UNL     1      46.729 132.306  13.049  1.00  0.00     0.370 HD
ATOM     21  H   UNL     1      48.256 132.330  13.807  1.00  0.00     0.370 HD
BRANCH  19  22
ATOM     22  N   UNL     1      47.928 130.763  12.593  1.00  0.00    -0.183 NA
ATOM     23  H   UNL     1      47.886 129.820  13.047  1.00  0.00     0.183 HD
ATOM     24  H   UNL     1      48.941 130.953  12.405  1.00  0.00     0.183 HD
ENDBRANCH  19  22
ENDBRANCH   5  19
TORSDOF 5
ENDMDL
MODEL 5
REMARK VINA RESULT:      -7.7      3.235      6.966
REMARK SMILES C=C1CC[C@@H](N[C@H]2CCC[C@@H]([NH2+]N)[C@@H]2O)C[C@H]1F
REMARK SMILES IDX 7 1 8 2 9 3 10 4 11 5 14 6 6 7 5 9 2 10 3 11 17 12 4 13
REMARK SMILES IDX 16 14 1 15 18 16 15 17 12 19 13 22
REMARK H PARENT 6 8 15 18 12 20 12 21 13 23 13 24
ROOT
ATOM      1  C   UNL     1      44.990 131.149  16.611  1.00  0.00     0.088 C 
ATOM      2  C   UNL     1      44.395 132.011  15.477  1.00  0.00     0.022 C 
ATOM      3  C   UNL     1      44.228 131.195  14.195  1.00  0.00     0.008 C 
ATOM      4  C   UNL     1      45.566 130.601  13.751  1.00  0.00     0.070 C 
ATOM      5  C   UNL     1      46.188 129.722  14.858  1.00  0.00     0.232 C 
ATOM      6  C   UNL     1      46.344 130.544  16.168  1.00  0.00     0.191 C 
ENDROOT
BRANCH   1   7
ATOM      7  N   UNL     1      45.192 131.960  17.834  1.00  0.00    -0.308 NA
ATOM      8  H   UNL     1      44.891 132.955  17.703  1.00  0.00     0.123 HD
BRANCH   7   9
ATOM      9  C   UNL     1      44.509 131.401  19.016  1.00  0.00     0.057 C 
ATOM     10  C   UNL     1      43.130 131.592  21.560  1.00  0.00    -0.044 C 
ATOM     11  C   UNL     1      42.539 132.380  20.416  1.00  0.00     0.035 C 
ATOM     12  C   UNL     1      44.607 131.269  21.547  1.00  0.00     0.193 C 
ATOM     13  C   UNL     1      43.004 131.815  19.064  1.00  0.00     0.023 C 
ATOM     14  C   UNL     1      45.283 131.816  20.282  1.00  0.00     0.061 C 
ATOM     15  C   UNL     1      42.368 131.201  22.592  1.00  0.00     0.011 C 
ATOM     16  F   UNL     1      45.217 131.819  22.661  1.00  0.00    -0.243 F 
ENDBRANCH   7   9
ENDBRANCH   1   7
BRANCH   6  17
ATOM     17  O   UNL     1      46.837 129.712  17.188  1.00  0.00    -0.385 OA
ATOM     18  H   UNL     1      47.496 130.244  17.707  1.00  0.00     0.211 HD
ENDBRANCH   6  17
BRANCH   5  19
ATOM     19  N   UNL     1      47.486 129.186  14.394  1.00  0.00    -0.267 N 
ATOM     20  H   UNL     1      48.166 129.126  15.190  1.00  0.00     0.370 HD
ATOM     21  H   UNL     1      47.358 128.229  13.986  1.00  0.00     0.370 HD
BRANCH  19  22
ATOM     22  N   UNL     1      48.029 130.032  13.405  1.00  0.00    -0.183 NA
ATOM     23  H   UNL     1      47.522 129.849  12.507  1.00  0.00     0.183 HD
ATOM     24  H   UNL     1      49.026 129.754  13.241  1.00  0.00     0.183 HD
ENDBRANCH  19  22
ENDBRANCH   5  19
TORSDOF 5
ENDMDL
MODEL 6
REMARK VINA RESULT:      -7.1      1.063      1.070
REMARK SMILES C=C1CC[C@@H](N[C@H]2CCC[C@@H]([NH2+]N)[C@@H]2O)C[C@H]1F
REMARK SMILES IDX 7 1 8 2 9 3 10 4 11 5 14 6 6 7 5 9 2 10 3 11 17 12 4 13
REMARK SMILES IDX 16 14 1 15 18 16 15 17 12 19 13 22
REMARK H PARENT 6 8 15 18 12 20 12 21 13 23 13 24
ROOT
ATOM      1  C   UNL     1      43.899 131.264  18.713  1.00  0.00     0.088 C 
ATOM      2  C   UNL     1      45.348 131.666  19.061  1.00  0.00     0.022 C 
ATOM      3  C   UNL     1      45.724 131.205  20.470  1.00  0.00     0.008 C 
ATOM      4  C   UNL     1      44.760 131.786  21.506  1.00  0.00     0.070 C 
ATOM      5  C   UNL     1      43.298 131.396  21.197  1.00  0.00     0.232 C 
ATOM      6  C   UNL     1      42.918 131.848  19.758  1.00  0.00     0.191 C 
ENDROOT
BRANCH   1   7
ATOM      7  N   UNL     1      43.529 131.756  17.365  1.00  0.00    -0.308 NA
ATOM      8  H   UNL     1      43.072 132.698  17.399  1.00  0.00     0.123 HD
BRANCH   7   9
ATOM      9  C   UNL     1      44.673 131.807  16.437  1.00  0.00     0.057 C 
ATOM     10  C   UNL     1      46.312 130.803  14.265  1.00  0.00    -0.044 C 
ATOM     11  C   UNL     1      44.845 130.996  13.964  1.00  0.00     0.035 C 
ATOM     12  C   UNL     1      46.745 130.548  15.691  1.00  0.00     0.193 C 
ATOM     13  C   UNL     1      44.208 131.984  14.956  1.00  0.00     0.023 C 
ATOM     14  C   UNL     1      45.541 130.552  16.644  1.00  0.00     0.061 C 
ATOM     15  C   UNL     1      47.225 130.830  13.283  1.00  0.00     0.011 C 
ATOM     16  F   UNL     1      47.385 129.324  15.774  1.00  0.00    -0.243 F 
ENDBRANCH   7   9
ENDBRANCH   1   7
BRANCH   6  17
ATOM     17  O   UNL     1      41.613 131.418  19.461  1.00  0.00    -0.385 OA
ATOM     18  H   UNL     1      41.552 131.328  18.474  1.00  0.00     0.211 HD
ENDBRANCH   6  17
BRANCH   5  19
ATOM     19  N   UNL     1      42.401 131.992  22.209  1.00  0.00    -0.267 N 
ATOM     20  H   UNL     1      42.820 132.871  22.602  1.00  0.00     0.370 HD
ATOM     21  H   UNL     1      41.473 132.223  21.781  1.00  0.00     0.370 HD
BRANCH  19  22
ATOM     22  N   UNL     1      42.199 131.083  23.268  1.00  0.00    -0.183 NA
ATOM     23  H   UNL     1      42.822 130.256  23.109  1.00  0.00     0.183 HD
ATOM     24  H   UNL     1      41.216 130.724  23.215  1.00  0.00     0.183 HD
ENDBRANCH  19  22
ENDBRANCH   5  19
TORSDOF 5
ENDMDL
MODEL 7
REMARK VINA RESULT:      -7.1      3.247      6.883
REMARK SMILES C=C1CC[C@@H](N[C@H]2CCC[C@@H]([NH2+]N)[C@@H]2O)C[C@H]1F
REMARK SMILES IDX 7 1 8 2 9 3 10 4 11 5 14 6 6 7 5 9 2 10 3 11 17 12 4 13
REMARK SMILES IDX 16 14 1 15 18 16 15 17 12 19 13 22
REMARK H PARENT 6 8 15 18 12 20 12 21 13 23 13 24
ROOT
ATOM      1  C   UNL     1      45.456 130.472  16.564  1.00  0.00     0.088 C 
ATOM      2  C   UNL     1      44.520 131.527  15.936  1.00  0.00     0.022 C 
ATOM      3  C   UNL     1      44.276 131.234  14.454  1.00  0.00     0.008 C 
ATOM      4  C   UNL     1      45.598 131.187  13.686  1.00  0.00     0.070 C 
ATOM      5  C   UNL     1      46.559 130.133  14.280  1.00  0.00     0.232 C 
ATOM      6  C   UNL     1      46.795 130.418  15.790  1.00  0.00     0.191 C 
ENDROOT
BRANCH   1   7
ATOM      7  N   UNL     1      45.723 130.790  17.986  1.00  0.00    -0.308 NA
ATOM      8  H   UNL     1      46.683 131.184  18.130  1.00  0.00     0.123 HD
BRANCH   7   9
ATOM      9  C   UNL     1      44.730 131.713  18.566  1.00  0.00     0.057 C 
ATOM     10  C   UNL     1      42.453 132.374  20.236  1.00  0.00    -0.044 C 
ATOM     11  C   UNL     1      43.607 131.681  20.919  1.00  0.00     0.035 C 
ATOM     12  C   UNL     1      42.241 132.165  18.754  1.00  0.00     0.193 C 
ATOM     13  C   UNL     1      44.905 131.852  20.112  1.00  0.00     0.023 C 
ATOM     14  C   UNL     1      43.319 131.244  18.165  1.00  0.00     0.061 C 
ATOM     15  C   UNL     1      41.606 133.146  20.932  1.00  0.00     0.011 C 
ATOM     16  F   UNL     1      40.995 131.605  18.533  1.00  0.00    -0.243 F 
ENDBRANCH   7   9
ENDBRANCH   1   7
BRANCH   6  17
ATOM     17  O   UNL     1      47.606 129.408  16.336  1.00  0.00    -0.385 OA
ATOM     18  H   UNL     1      48.543 129.612  16.075  1.00  0.00     0.211 HD
ENDBRANCH   6  17
BRANCH   5  19
ATOM     19  N   UNL     1      47.827 130.135  13.521  1.00  0.00    -0.267 N 
ATOM     20  H   UNL     1      47.643 130.241  12.493  1.00  0.00     0.370 HD
ATOM     21  H   UNL     1      48.438 130.927  13.837  1.00  0.00     0.370 HD
BRANCH  19  22
ATOM     22  N   UNL     1      48.514 128.921  13.728  1.00  0.00    -0.183 NA
ATOM     23  H   UNL     1      49.481 129.025  13.340  1.00  0.00     0.183 HD
ATOM     24  H   UNL     1      48.048 128.174  13.158  1.00  0.00     0.183 HD
ENDBRANCH  19  22
ENDBRANCH   5  19
TORSDOF 5
ENDMDL
MODEL 8
REMARK VINA RESULT:      -6.8      3.398      6.931
REMARK SMILES C=C1CC[C@@H](N[C@H]2CCC[C@@H]([NH2+]N)[C@@H]2O)C[C@H]1F
REMARK SMILES IDX 7 1 8 2 9 3 10 4 11 5 14 6 6 7 5 9 2 10 3 11 17 12 4 13
REMARK SMILES IDX 16 14 1 15 18 16 15 17 12 19 13 22
REMARK H PARENT 6 8 15 18 12 20 12 21 13 23 13 24
ROOT
ATOM      1  C   UNL     1      45.538 130.487  17.148  1.00  0.00     0.088 C 
ATOM      2  C   UNL     1      44.502 131.565  16.765  1.00  0.00     0.022 C 
ATOM      3  C   UNL     1      43.930 131.308  15.370  1.00  0.00     0.008 C 
ATOM      4  C   UNL     1      45.047 131.263  14.325  1.00  0.00     0.070 C 
ATOM      5  C   UNL     1      46.099 130.186  14.670  1.00  0.00     0.232 C 
ATOM      6  C   UNL     1      46.671 130.435  16.094  1.00  0.00     0.191 C 
ENDROOT
BRANCH   1   7
ATOM      7  N   UNL     1      46.121 130.771  18.480  1.00  0.00    -0.308 NA
ATOM      8  H   UNL     1      46.636 131.684  18.501  1.00  0.00     0.123 HD
BRANCH   7   9
ATOM      9  C   UNL     1      45.119 130.757  19.562  1.00  0.00     0.057 C 
ATOM     10  C   UNL     1      44.240 131.117  22.302  1.00  0.00    -0.044 C 
ATOM     11  C   UNL     1      44.905 132.304  21.650  1.00  0.00     0.035 C 
ATOM     12  C   UNL     1      44.573 129.725  21.814  1.00  0.00     0.193 C 
ATOM     13  C   UNL     1      44.849 132.191  20.117  1.00  0.00     0.023 C 
ATOM     14  C   UNL     1      45.577 129.771  20.653  1.00  0.00     0.061 C 
ATOM     15  C   UNL     1      43.382 131.282  23.320  1.00  0.00     0.011 C 
ATOM     16  F   UNL     1      45.110 128.981  22.850  1.00  0.00    -0.243 F 
ENDBRANCH   7   9
ENDBRANCH   1   7
BRANCH   6  17
ATOM     17  O   UNL     1      47.567 129.405  16.426  1.00  0.00    -0.385 OA
ATOM     18  H   UNL     1      47.279 129.037  17.302  1.00  0.00     0.211 HD
ENDBRANCH   6  17
BRANCH   5  19
ATOM     19  N   UNL     1      47.166 130.191  13.646  1.00  0.00    -0.267 N 
ATOM     20  H   UNL     1      46.754 130.158  12.682  1.00  0.00     0.370 HD
ATOM     21  H   UNL     1      47.749 131.058  13.735  1.00  0.00     0.370 HD
BRANCH  19  22
ATOM     22  N   UNL     1      47.998 129.065  13.814  1.00  0.00    -0.183 NA
ATOM     23  H   UNL     1      48.499 128.894  12.911  1.00  0.00     0.183 HD
ATOM     24  H   UNL     1      47.393 128.225  13.977  1.00  0.00     0.183 HD
ENDBRANCH  19  22
ENDBRANCH   5  19
TORSDOF 5
ENDMDL
MODEL 9
REMARK VINA RESULT:      -6.7      3.329      6.795
REMARK SMILES C=C1CC[C@@H](N[C@H]2CCC[C@@H]([NH2+]N)[C@@H]2O)C[C@H]1F
REMARK SMILES IDX 7 1 8 2 9 3 10 4 11 5 14 6 6 7 5 9 2 10 3 11 17 12 4 13
REMARK SMILES IDX 16 14 1 15 18 16 15 17 12 19 13 22
REMARK H PARENT 6 8 15 18 12 20 12 21 13 23 13 24
ROOT
ATOM      1  C   UNL     1      44.828 130.707  15.611  1.00  0.00     0.088 C 
ATOM      2  C   UNL     1      45.540 132.077  15.638  1.00  0.00     0.022 C 
ATOM      3  C   UNL     1      46.400 132.274  14.388  1.00  0.00     0.008 C 
ATOM      4  C   UNL     1      47.431 131.151  14.255  1.00  0.00     0.070 C 
ATOM      5  C   UNL     1      46.753 129.765  14.215  1.00  0.00     0.232 C 
ATOM      6  C   UNL     1      45.866 129.567  15.476  1.00  0.00     0.191 C 
ENDROOT
BRANCH   1   7
ATOM      7  N   UNL     1      44.036 130.506  16.847  1.00  0.00    -0.308 NA
ATOM      8  H   UNL     1      43.970 129.495  17.115  1.00  0.00     0.123 HD
BRANCH   7   9
ATOM      9  C   UNL     1      44.551 131.276  17.994  1.00  0.00     0.057 C 
ATOM     10  C   UNL     1      45.084 131.712  20.811  1.00  0.00    -0.044 C 
ATOM     11  C   UNL     1      45.623 130.433  20.216  1.00  0.00     0.035 C 
ATOM     12  C   UNL     1      43.873 132.363  20.183  1.00  0.00     0.193 C 
ATOM     13  C   UNL     1      45.747 130.549  18.688  1.00  0.00     0.023 C 
ATOM     14  C   UNL     1      43.389 131.571  18.961  1.00  0.00     0.061 C 
ATOM     15  C   UNL     1      45.649 132.255  21.899  1.00  0.00     0.011 C 
ATOM     16  F   UNL     1      42.848 132.439  21.110  1.00  0.00    -0.243 F 
ENDBRANCH   7   9
ENDBRANCH   1   7
BRANCH   6  17
ATOM     17  O   UNL     1      45.194 128.336  15.388  1.00  0.00    -0.385 OA
ATOM     18  H   UNL     1      45.604 127.831  14.638  1.00  0.00     0.211 HD
ENDBRANCH   6  17
BRANCH   5  19
ATOM     19  N   UNL     1      47.786 128.712  14.106  1.00  0.00    -0.267 N 
ATOM     20  H   UNL     1      48.171 128.473  15.052  1.00  0.00     0.370 HD
ATOM     21  H   UNL     1      47.376 127.846  13.680  1.00  0.00     0.370 HD
BRANCH  19  22
ATOM     22  N   UNL     1      48.846 129.161  13.292  1.00  0.00    -0.183 NA
ATOM     23  H   UNL     1      49.434 128.332  13.038  1.00  0.00     0.183 HD
ATOM     24  H   UNL     1      49.460 129.791  13.862  1.00  0.00     0.183 HD
ENDBRANCH  19  22
ENDBRANCH   5  19
TORSDOF 5
ENDMDL


