REMARK SMILES Cc1cc(-c2c[nH+]c3ccnn3c2)ccc1C(=O)[N-][C@H]1CC12CCC2
REMARK SMILES IDX 1 1 2 2 3 3 4 4 14 5 15 6 16 7 17 8 18 9 19 10 20 11 21 12
REMARK SMILES IDX 22 13 23 14 25 15 24 16 5 17 6 18 13 19 7 20 12 21 8 22
REMARK SMILES IDX 11 23 9 24 10 25
REMARK H PARENT 7 26
ROOT
ATOM      1  C   UNL     1       0.974   0.306   1.952  1.00  0.00     0.045 C 
ATOM      2  C   UNL     1       0.126  -0.386   0.916  1.00  0.00    -0.041 A 
ATOM      3  C   UNL     1      -0.390  -1.660   1.216  1.00  0.00     0.013 A 
ATOM      4  C   UNL     1      -1.146  -2.378   0.276  1.00  0.00    -0.011 A 
ATOM      5  C   UNL     1      -1.387  -1.806  -0.981  1.00  0.00     0.010 A 
ATOM      6  C   UNL     1      -0.897  -0.537  -1.288  1.00  0.00     0.011 A 
ATOM      7  C   UNL     1      -0.154   0.199  -0.348  1.00  0.00     0.002 A 
ENDROOT
BRANCH   7   8
ATOM      8  C   UNL     1       0.306   1.558  -0.728  1.00  0.00     0.082 C 
ATOM      9  O   UNL     1       0.564   1.816  -1.936  1.00  0.00    -0.315 OA
BRANCH   8  10
ATOM     10  N   UNL     1       0.422   2.591   0.254  1.00  0.00    -0.646 NA
BRANCH  10  11
ATOM     11  C   UNL     1       0.887   3.932  -0.070  1.00  0.00    -0.100 C 
ATOM     12  C   UNL     1       1.569   4.633   1.111  1.00  0.00    -0.010 C 
ATOM     13  C   UNL     1       2.390   4.065  -0.041  1.00  0.00    -0.044 C 
ATOM     14  C   UNL     1       3.473   3.081   0.299  1.00  0.00     0.006 C 
ATOM     15  C   UNL     1       3.290   5.012  -0.778  1.00  0.00     0.006 C 
ATOM     16  C   UNL     1       4.433   4.029  -0.450  1.00  0.00     0.001 C 
ENDBRANCH  10  11
ENDBRANCH   8  10
ENDBRANCH   7   8
BRANCH   4  17
ATOM     17  C   UNL     1      -1.678  -3.725   0.606  1.00  0.00     0.063 A 
ATOM     18  C   UNL     1      -2.203  -4.010   1.892  1.00  0.00     0.210 A 
ATOM     19  C   UNL     1      -1.678  -4.760  -0.352  1.00  0.00     0.245 A 
ATOM     20  N   UNL     1      -2.690  -5.252   2.188  1.00  0.00    -0.245 N 
ATOM     21  N   UNL     1      -2.176  -5.966   0.010  1.00  0.00    -0.104 N 
ATOM     22  C   UNL     1      -2.663  -6.208   1.228  1.00  0.00     0.306 A 
ATOM     23  N   UNL     1      -2.257  -7.052  -0.738  1.00  0.00    -0.086 NA
ATOM     24  C   UNL     1      -3.093  -7.511   1.308  1.00  0.00     0.125 A 
ATOM     25  C   UNL     1      -2.817  -8.012   0.037  1.00  0.00     0.167 A 
ATOM     26  H   UNL     1      -3.078  -5.455   3.136  1.00  0.00     0.312 HD
ENDBRANCH   4  17
TORSDOF 4


