MODEL 1
REMARK VINA RESULT:      -6.2      0.000      0.000
REMARK SMILES O=C([N-]CCc1ccc(-c2c[nH+]c3ccnn3c2)cc1)[C@H]1CCCSC1
REMARK SMILES IDX 4 1 3 2 2 3 1 4 21 5 22 6 26 7 23 8 25 9 24 10 5 11 6 12
REMARK SMILES IDX 7 13 20 14 8 15 19 16 9 17 10 18 11 19 18 20 12 21 17 22
REMARK SMILES IDX 13 23 16 24 14 25 15 26
REMARK H PARENT 12 27
ROOT
ATOM      1  C   UNL     1      43.790 129.652  24.097  1.00  0.00    -0.113 C 
ENDROOT
BRANCH   1   2
ATOM      2  N   UNL     1      43.116 128.598  23.342  1.00  0.00    -0.653 NA
BRANCH   2   3
ATOM      3  C   UNL     1      43.513 127.221  23.366  1.00  0.00     0.055 C 
ATOM      4  O   UNL     1      44.649 126.878  22.941  1.00  0.00    -0.320 OA
BRANCH   3   5
ATOM      5  C   UNL     1      42.567 126.182  23.906  1.00  0.00     0.047 C 
ATOM      6  C   UNL     1      41.147 126.769  24.018  1.00  0.00     0.011 C 
ATOM      7  C   UNL     1      42.588 124.935  23.008  1.00  0.00     0.079 C 
ATOM      8  C   UNL     1      40.157 125.764  24.617  1.00  0.00     0.012 C 
ATOM      9  S   UNL     1      41.610 123.581  23.744  1.00  0.00    -0.161 SA
ATOM     10  C   UNL     1      40.038 124.508  23.754  1.00  0.00     0.069 C 
ENDBRANCH   3   5
ENDBRANCH   2   3
ENDBRANCH   1   2
BRANCH   1  11
ATOM     11  C   UNL     1      43.669 131.006  23.387  1.00  0.00     0.016 C 
BRANCH  11  12
ATOM     12  C   UNL     1      44.185 130.951  21.973  1.00  0.00    -0.049 A 
ATOM     13  C   UNL     1      43.453 131.535  20.930  1.00  0.00     0.004 A 
ATOM     14  C   UNL     1      45.365 130.253  21.677  1.00  0.00     0.004 A 
ATOM     15  C   UNL     1      43.886 131.411  19.606  1.00  0.00     0.009 A 
ATOM     16  C   UNL     1      45.798 130.127  20.355  1.00  0.00     0.009 A 
ATOM     17  C   UNL     1      45.059 130.697  19.304  1.00  0.00    -0.011 A 
BRANCH  17  18
ATOM     18  C   UNL     1      45.500 130.531  17.897  1.00  0.00     0.063 A 
ATOM     19  C   UNL     1      45.742 129.245  17.351  1.00  0.00     0.210 A 
ATOM     20  C   UNL     1      45.699 131.651  17.064  1.00  0.00     0.245 A 
ATOM     21  N   UNL     1      46.153 129.102  16.058  1.00  0.00    -0.245 N 
ATOM     22  N   UNL     1      46.107 131.435  15.791  1.00  0.00    -0.104 N 
ATOM     23  C   UNL     1      46.328 130.212  15.301  1.00  0.00     0.306 A 
ATOM     24  N   UNL     1      46.351 132.347  14.867  1.00  0.00    -0.086 NA
ATOM     25  C   UNL     1      46.735 130.302  13.992  1.00  0.00     0.125 A 
ATOM     26  C   UNL     1      46.736 131.674  13.755  1.00  0.00     0.167 A 
ATOM     27  H   UNL     1      46.327 128.151  15.659  1.00  0.00     0.312 HD
ENDBRANCH  17  18
ENDBRANCH  11  12
ENDBRANCH   1  11
TORSDOF 6
ENDMDL
MODEL 2
REMARK VINA RESULT:      -6.1      1.146      2.008
REMARK SMILES O=C([N-]CCc1ccc(-c2c[nH+]c3ccnn3c2)cc1)[C@H]1CCCSC1
REMARK SMILES IDX 4 1 3 2 2 3 1 4 21 5 22 6 26 7 23 8 25 9 24 10 5 11 6 12
REMARK SMILES IDX 7 13 20 14 8 15 19 16 9 17 10 18 11 19 18 20 12 21 17 22
REMARK SMILES IDX 13 23 16 24 14 25 15 26
REMARK H PARENT 12 27
ROOT
ATOM      1  C   UNL     1      44.561 128.641  24.007  1.00  0.00    -0.113 C 
ENDROOT
BRANCH   1   2
ATOM      2  N   UNL     1      44.071 127.817  22.905  1.00  0.00    -0.653 NA
BRANCH   2   3
ATOM      3  C   UNL     1      44.105 126.384  22.904  1.00  0.00     0.055 C 
ATOM      4  O   UNL     1      45.206 125.772  22.832  1.00  0.00    -0.320 OA
BRANCH   3   5
ATOM      5  C   UNL     1      42.819 125.608  22.992  1.00  0.00     0.047 C 
ATOM      6  C   UNL     1      43.033 124.170  22.482  1.00  0.00     0.011 C 
ATOM      7  C   UNL     1      42.297 125.617  24.437  1.00  0.00     0.079 C 
ATOM      8  C   UNL     1      41.736 123.355  22.500  1.00  0.00     0.012 C 
ATOM      9  S   UNL     1      40.639 124.861  24.542  1.00  0.00    -0.161 SA
ATOM     10  C   UNL     1      41.168 123.232  23.913  1.00  0.00     0.069 C 
ENDBRANCH   3   5
ENDBRANCH   2   3
ENDBRANCH   1   2
BRANCH   1  11
ATOM     11  C   UNL     1      44.672 130.113  23.593  1.00  0.00     0.016 C 
BRANCH  11  12
ATOM     12  C   UNL     1      44.831 130.270  22.103  1.00  0.00    -0.049 A 
ATOM     13  C   UNL     1      45.544 129.315  21.364  1.00  0.00     0.004 A 
ATOM     14  C   UNL     1      44.329 131.407  21.454  1.00  0.00     0.004 A 
ATOM     15  C   UNL     1      45.766 129.502  19.996  1.00  0.00     0.009 A 
ATOM     16  C   UNL     1      44.552 131.596  20.088  1.00  0.00     0.009 A 
ATOM     17  C   UNL     1      45.280 130.650  19.345  1.00  0.00    -0.011 A 
BRANCH  17  18
ATOM     18  C   UNL     1      45.547 130.871  17.902  1.00  0.00     0.063 A 
ATOM     19  C   UNL     1      45.012 131.992  17.220  1.00  0.00     0.210 A 
ATOM     20  C   UNL     1      46.336 129.963  17.166  1.00  0.00     0.245 A 
ATOM     21  N   UNL     1      45.258 132.184  15.892  1.00  0.00    -0.245 N 
ATOM     22  N   UNL     1      46.539 130.215  15.851  1.00  0.00    -0.104 N 
ATOM     23  C   UNL     1      46.024 131.281  15.233  1.00  0.00     0.306 A 
ATOM     24  N   UNL     1      47.238 129.487  14.999  1.00  0.00    -0.086 NA
ATOM     25  C   UNL     1      46.392 131.273  13.909  1.00  0.00     0.125 A 
ATOM     26  C   UNL     1      47.163 130.118  13.801  1.00  0.00     0.167 A 
ATOM     27  H   UNL     1      44.864 133.014  15.394  1.00  0.00     0.312 HD
ENDBRANCH  17  18
ENDBRANCH  11  12
ENDBRANCH   1  11
TORSDOF 6
ENDMDL
MODEL 3
REMARK VINA RESULT:      -5.7      2.442      3.360
REMARK SMILES O=C([N-]CCc1ccc(-c2c[nH+]c3ccnn3c2)cc1)[C@H]1CCCSC1
REMARK SMILES IDX 4 1 3 2 2 3 1 4 21 5 22 6 26 7 23 8 25 9 24 10 5 11 6 12
REMARK SMILES IDX 7 13 20 14 8 15 19 16 9 17 10 18 11 19 18 20 12 21 17 22
REMARK SMILES IDX 13 23 16 24 14 25 15 26
REMARK H PARENT 12 27
ROOT
ATOM      1  C   UNL     1      42.216 131.427  21.453  1.00  0.00    -0.113 C 
ENDROOT
BRANCH   1   2
ATOM      2  N   UNL     1      42.357 132.244  22.656  1.00  0.00    -0.653 NA
BRANCH   2   3
ATOM      3  C   UNL     1      43.098 131.839  23.813  1.00  0.00     0.055 C 
ATOM      4  O   UNL     1      43.537 132.700  24.623  1.00  0.00    -0.320 OA
BRANCH   3   5
ATOM      5  C   UNL     1      43.350 130.376  24.062  1.00  0.00     0.047 C 
ATOM      6  C   UNL     1      42.016 129.646  24.309  1.00  0.00     0.011 C 
ATOM      7  C   UNL     1      44.112 129.764  22.877  1.00  0.00     0.079 C 
ATOM      8  C   UNL     1      42.225 128.161  24.625  1.00  0.00     0.012 C 
ATOM      9  S   UNL     1      44.612 128.045  23.235  1.00  0.00    -0.161 SA
ATOM     10  C   UNL     1      42.909 127.432  23.469  1.00  0.00     0.069 C 
ENDBRANCH   3   5
ENDBRANCH   2   3
ENDBRANCH   1   2
BRANCH   1  11
ATOM     11  C   UNL     1      42.060 132.302  20.203  1.00  0.00     0.016 C 
BRANCH  11  12
ATOM     12  C   UNL     1      43.089 131.975  19.152  1.00  0.00    -0.049 A 
ATOM     13  C   UNL     1      42.765 132.070  17.792  1.00  0.00     0.004 A 
ATOM     14  C   UNL     1      44.356 131.505  19.526  1.00  0.00     0.004 A 
ATOM     15  C   UNL     1      43.691 131.686  16.816  1.00  0.00     0.009 A 
ATOM     16  C   UNL     1      45.281 131.118  18.553  1.00  0.00     0.009 A 
ATOM     17  C   UNL     1      44.956 131.196  17.188  1.00  0.00    -0.011 A 
BRANCH  17  18
ATOM     18  C   UNL     1      45.926 130.751  16.157  1.00  0.00     0.063 A 
ATOM     19  C   UNL     1      46.970 129.846  16.474  1.00  0.00     0.210 A 
ATOM     20  C   UNL     1      45.839 131.223  14.830  1.00  0.00     0.245 A 
ATOM     21  N   UNL     1      47.860 129.446  15.520  1.00  0.00    -0.245 N 
ATOM     22  N   UNL     1      46.756 130.784  13.936  1.00  0.00    -0.104 N 
ATOM     23  C   UNL     1      47.731 129.930  14.261  1.00  0.00     0.306 A 
ATOM     24  N   UNL     1      46.845 131.112  12.660  1.00  0.00    -0.086 NA
ATOM     25  C   UNL     1      48.508 129.669  13.159  1.00  0.00     0.125 A 
ATOM     26  C   UNL     1      47.911 130.438  12.162  1.00  0.00     0.167 A 
ATOM     27  H   UNL     1      48.627 128.777  15.759  1.00  0.00     0.312 HD
ENDBRANCH  17  18
ENDBRANCH  11  12
ENDBRANCH   1  11
TORSDOF 6
ENDMDL
MODEL 4
REMARK VINA RESULT:      -4.7      1.472      2.019
REMARK SMILES O=C([N-]CCc1ccc(-c2c[nH+]c3ccnn3c2)cc1)[C@H]1CCCSC1
REMARK SMILES IDX 4 1 3 2 2 3 1 4 21 5 22 6 26 7 23 8 25 9 24 10 5 11 6 12
REMARK SMILES IDX 7 13 20 14 8 15 19 16 9 17 10 18 11 19 18 20 12 21 17 22
REMARK SMILES IDX 13 23 16 24 14 25 15 26
REMARK H PARENT 12 27
ROOT
ATOM      1  C   UNL     1      44.871 129.510  22.740  1.00  0.00    -0.113 C 
ENDROOT
BRANCH   1   2
ATOM      2  N   UNL     1      44.758 128.055  22.688  1.00  0.00    -0.653 NA
BRANCH   2   3
ATOM      3  C   UNL     1      44.976 127.197  23.815  1.00  0.00     0.055 C 
ATOM      4  O   UNL     1      45.972 127.375  24.568  1.00  0.00    -0.320 OA
BRANCH   3   5
ATOM      5  C   UNL     1      44.009 126.080  24.100  1.00  0.00     0.047 C 
ATOM      6  C   UNL     1      42.562 126.573  23.907  1.00  0.00     0.011 C 
ATOM      7  C   UNL     1      44.315 124.875  23.197  1.00  0.00     0.079 C 
ATOM      8  C   UNL     1      41.536 125.486  24.241  1.00  0.00     0.012 C 
ATOM      9  S   UNL     1      43.294 123.434  23.658  1.00  0.00    -0.161 SA
ATOM     10  C   UNL     1      41.699 124.262  23.340  1.00  0.00     0.069 C 
ENDBRANCH   3   5
ENDBRANCH   2   3
ENDBRANCH   1   2
BRANCH   1  11
ATOM     11  C   UNL     1      43.867 130.179  21.793  1.00  0.00     0.016 C 
BRANCH  11  12
ATOM     12  C   UNL     1      44.446 130.399  20.419  1.00  0.00    -0.049 A 
ATOM     13  C   UNL     1      43.936 131.410  19.591  1.00  0.00     0.004 A 
ATOM     14  C   UNL     1      45.449 129.551  19.930  1.00  0.00     0.004 A 
ATOM     15  C   UNL     1      44.413 131.560  18.286  1.00  0.00     0.009 A 
ATOM     16  C   UNL     1      45.925 129.699  18.625  1.00  0.00     0.009 A 
ATOM     17  C   UNL     1      45.406 130.699  17.785  1.00  0.00    -0.011 A 
BRANCH  17  18
ATOM     18  C   UNL     1      45.887 130.832  16.388  1.00  0.00     0.063 A 
ATOM     19  C   UNL     1      45.266 131.728  15.481  1.00  0.00     0.210 A 
ATOM     20  C   UNL     1      46.972 130.063  15.920  1.00  0.00     0.245 A 
ATOM     21  N   UNL     1      45.712 131.840  14.196  1.00  0.00    -0.245 N 
ATOM     22  N   UNL     1      47.361 130.225  14.633  1.00  0.00    -0.104 N 
ATOM     23  C   UNL     1      46.759 131.077  13.799  1.00  0.00     0.306 A 
ATOM     24  N   UNL     1      48.344 129.597  14.012  1.00  0.00    -0.086 NA
ATOM     25  C   UNL     1      47.362 131.024  12.565  1.00  0.00     0.125 A 
ATOM     26  C   UNL     1      48.364 130.073  12.743  1.00  0.00     0.167 A 
ATOM     27  H   UNL     1      45.253 132.504  13.532  1.00  0.00     0.312 HD
ENDBRANCH  17  18
ENDBRANCH  11  12
ENDBRANCH   1  11
TORSDOF 6
ENDMDL
MODEL 5
REMARK VINA RESULT:      -4.3      6.530      9.595
REMARK SMILES O=C([N-]CCc1ccc(-c2c[nH+]c3ccnn3c2)cc1)[C@H]1CCCSC1
REMARK SMILES IDX 4 1 3 2 2 3 1 4 21 5 22 6 26 7 23 8 25 9 24 10 5 11 6 12
REMARK SMILES IDX 7 13 20 14 8 15 19 16 9 17 10 18 11 19 18 20 12 21 17 22
REMARK SMILES IDX 13 23 16 24 14 25 15 26
REMARK H PARENT 12 27
ROOT
ATOM      1  C   UNL     1      50.461 122.658  23.484  1.00  0.00    -0.113 C 
ENDROOT
BRANCH   1   2
ATOM      2  N   UNL     1      51.786 122.462  22.900  1.00  0.00    -0.653 NA
BRANCH   2   3
ATOM      3  C   UNL     1      52.403 123.385  21.994  1.00  0.00     0.055 C 
ATOM      4  O   UNL     1      53.056 124.371  22.434  1.00  0.00    -0.320 OA
BRANCH   3   5
ATOM      5  C   UNL     1      52.273 123.172  20.510  1.00  0.00     0.047 C 
ATOM      6  C   UNL     1      51.178 124.093  19.939  1.00  0.00     0.011 C 
ATOM      7  C   UNL     1      53.625 123.417  19.823  1.00  0.00     0.079 C 
ATOM      8  C   UNL     1      50.968 123.872  18.437  1.00  0.00     0.012 C 
ATOM      9  S   UNL     1      53.553 122.970  18.055  1.00  0.00    -0.161 SA
ATOM     10  C   UNL     1      52.240 124.168  17.642  1.00  0.00     0.069 C 
ENDBRANCH   3   5
ENDBRANCH   2   3
ENDBRANCH   1   2
BRANCH   1  11
ATOM     11  C   UNL     1      49.365 122.576  22.414  1.00  0.00     0.016 C 
BRANCH  11  12
ATOM     12  C   UNL     1      48.223 123.516  22.701  1.00  0.00    -0.049 A 
ATOM     13  C   UNL     1      47.140 123.603  21.815  1.00  0.00     0.004 A 
ATOM     14  C   UNL     1      48.266 124.361  23.819  1.00  0.00     0.004 A 
ATOM     15  C   UNL     1      46.121 124.535  22.035  1.00  0.00     0.009 A 
ATOM     16  C   UNL     1      47.251 125.293  24.039  1.00  0.00     0.009 A 
ATOM     17  C   UNL     1      46.171 125.397  23.145  1.00  0.00    -0.011 A 
BRANCH  17  18
ATOM     18  C   UNL     1      45.111 126.414  23.360  1.00  0.00     0.063 A 
ATOM     19  C   UNL     1      43.949 126.113  24.114  1.00  0.00     0.210 A 
ATOM     20  C   UNL     1      45.228 127.708  22.811  1.00  0.00     0.245 A 
ATOM     21  N   UNL     1      42.977 127.052  24.302  1.00  0.00    -0.245 N 
ATOM     22  N   UNL     1      44.225 128.589  23.038  1.00  0.00    -0.104 N 
ATOM     23  C   UNL     1      43.141 128.281  23.753  1.00  0.00     0.306 A 
ATOM     24  N   UNL     1      44.148 129.836  22.608  1.00  0.00    -0.086 NA
ATOM     25  C   UNL     1      42.297 129.364  23.811  1.00  0.00     0.125 A 
ATOM     26  C   UNL     1      42.974 130.331  23.071  1.00  0.00     0.167 A 
ATOM     27  H   UNL     1      42.124 126.827  24.862  1.00  0.00     0.312 HD
ENDBRANCH  17  18
ENDBRANCH  11  12
ENDBRANCH   1  11
TORSDOF 6
ENDMDL
MODEL 6
REMARK VINA RESULT:      -3.3      4.605      6.411
REMARK SMILES O=C([N-]CCc1ccc(-c2c[nH+]c3ccnn3c2)cc1)[C@H]1CCCSC1
REMARK SMILES IDX 4 1 3 2 2 3 1 4 21 5 22 6 26 7 23 8 25 9 24 10 5 11 6 12
REMARK SMILES IDX 7 13 20 14 8 15 19 16 9 17 10 18 11 19 18 20 12 21 17 22
REMARK SMILES IDX 13 23 16 24 14 25 15 26
REMARK H PARENT 12 27
ROOT
ATOM      1  C   UNL     1      43.830 132.919  24.452  1.00  0.00    -0.113 C 
ENDROOT
BRANCH   1   2
ATOM      2  N   UNL     1      45.281 132.882  24.623  1.00  0.00    -0.653 NA
BRANCH   2   3
ATOM      3  C   UNL     1      46.136 134.016  24.430  1.00  0.00     0.055 C 
ATOM      4  O   UNL     1      45.701 135.183  24.625  1.00  0.00    -0.320 OA
BRANCH   3   5
ATOM      5  C   UNL     1      47.561 133.808  23.995  1.00  0.00     0.047 C 
ATOM      6  C   UNL     1      47.636 133.713  22.459  1.00  0.00     0.011 C 
ATOM      7  C   UNL     1      48.446 134.946  24.529  1.00  0.00     0.079 C 
ATOM      8  C   UNL     1      49.064 133.444  21.970  1.00  0.00     0.012 C 
ATOM      9  S   UNL     1      50.209 134.619  24.195  1.00  0.00    -0.161 SA
ATOM     10  C   UNL     1      50.019 134.564  22.380  1.00  0.00     0.069 C 
ENDBRANCH   3   5
ENDBRANCH   2   3
ENDBRANCH   1   2
BRANCH   1  11
ATOM     11  C   UNL     1      43.315 131.630  23.801  1.00  0.00     0.016 C 
BRANCH  11  12
ATOM     12  C   UNL     1      43.611 131.586  22.324  1.00  0.00    -0.049 A 
ATOM     13  C   UNL     1      42.567 131.452  21.398  1.00  0.00     0.004 A 
ATOM     14  C   UNL     1      44.936 131.608  21.867  1.00  0.00     0.004 A 
ATOM     15  C   UNL     1      42.845 131.325  20.033  1.00  0.00     0.009 A 
ATOM     16  C   UNL     1      45.216 131.479  20.505  1.00  0.00     0.009 A 
ATOM     17  C   UNL     1      44.174 131.328  19.573  1.00  0.00    -0.011 A 
BRANCH  17  18
ATOM     18  C   UNL     1      44.474 131.155  18.130  1.00  0.00     0.063 A 
ATOM     19  C   UNL     1      43.555 131.572  17.135  1.00  0.00     0.210 A 
ATOM     20  C   UNL     1      45.682 130.561  17.708  1.00  0.00     0.245 A 
ATOM     21  N   UNL     1      43.837 131.404  15.810  1.00  0.00    -0.245 N 
ATOM     22  N   UNL     1      45.896 130.426  16.378  1.00  0.00    -0.104 N 
ATOM     23  C   UNL     1      45.013 130.829  15.461  1.00  0.00     0.306 A 
ATOM     24  N   UNL     1      46.954 129.896  15.791  1.00  0.00    -0.086 NA
ATOM     25  C   UNL     1      45.495 130.562  14.202  1.00  0.00     0.125 A 
ATOM     26  C   UNL     1      46.730 129.970  14.456  1.00  0.00     0.167 A 
ATOM     27  H   UNL     1      43.157 131.716  15.080  1.00  0.00     0.312 HD
ENDBRANCH  17  18
ENDBRANCH  11  12
ENDBRANCH   1  11
TORSDOF 6
ENDMDL


