REMARK SMILES Cc1ccc(-c2cc(C=O)c(N)cc2F)cc1
REMARK SMILES IDX 6 1 7 2 8 3 11 4 13 5 14 6 15 7 5 8 2 9 3 10 17 11 4 12
REMARK SMILES IDX 16 13 1 14 9 15 10 16 12 17
REMARK H PARENT 12 18 12 19
ROOT
ATOM      1  C   UNL     1      -0.321  -0.279   0.462  1.00  0.00     0.018 A 
ATOM      2  C   UNL     1       0.574  -1.321   0.757  1.00  0.00     0.025 A 
ATOM      3  C   UNL     1       0.154  -2.465   1.457  1.00  0.00     0.038 A 
ATOM      4  C   UNL     1      -1.188  -2.545   1.907  1.00  0.00     0.045 A 
ATOM      5  C   UNL     1      -2.083  -1.514   1.587  1.00  0.00     0.066 A 
ATOM      6  C   UNL     1      -1.660  -0.393   0.872  1.00  0.00     0.133 A 
ATOM      7  F   UNL     1      -2.566   0.569   0.562  1.00  0.00    -0.206 F 
ENDROOT
BRANCH   1   8
ATOM      8  C   UNL     1       0.150   0.912  -0.286  1.00  0.00    -0.015 A 
ATOM      9  C   UNL     1       1.071   3.174  -1.694  1.00  0.00    -0.051 A 
ATOM     10  C   UNL     1       0.286   3.329  -0.542  1.00  0.00     0.004 A 
ATOM     11  C   UNL     1       1.375   1.883  -2.151  1.00  0.00     0.004 A 
ATOM     12  C   UNL     1      -0.164   2.208   0.161  1.00  0.00     0.009 A 
ATOM     13  C   UNL     1       0.926   0.761  -1.448  1.00  0.00     0.009 A 
ATOM     14  C   UNL     1       1.520   4.376  -2.470  1.00  0.00     0.044 C 
ENDBRANCH   1   8
BRANCH   3  15
ATOM     15  C   UNL     1       1.144  -3.546   1.653  1.00  0.00     0.262 C 
ATOM     16  O   UNL     1       0.794  -4.747   1.796  1.00  0.00    -0.298 OA
ENDBRANCH   3  15
BRANCH   4  17
ATOM     17  N   UNL     1      -1.654  -3.624   2.728  1.00  0.00    -0.398 N 
ATOM     18  H   UNL     1      -2.674  -3.736   2.922  1.00  0.00     0.156 HD
ATOM     19  H   UNL     1      -1.002  -4.222   3.280  1.00  0.00     0.156 HD
ENDBRANCH   4  17
TORSDOF 3


