REMARK SMILES CC(=O)c1ccc(-c2[nH+]ccc(C)c2F)c(NN)c1
REMARK SMILES IDX 4 1 5 2 6 3 7 4 16 5 19 6 2 7 1 8 3 9 17 10 18 12 8 15 9 16
REMARK SMILES IDX 14 17 10 18 12 19 11 20 15 22 13 23
REMARK H PARENT 17 11 18 13 18 14 9 21
ROOT
ATOM      1  C   UNL     1       1.055  -2.825  -0.833  1.00  0.00     0.019 A 
ATOM      2  C   UNL     1       1.707  -1.770  -0.173  1.00  0.00     0.013 A 
ATOM      3  C   UNL     1       1.099  -0.520  -0.059  1.00  0.00     0.018 A 
ATOM      4  C   UNL     1      -0.173  -0.289  -0.603  1.00  0.00     0.074 A 
ATOM      5  C   UNL     1      -0.840  -1.335  -1.284  1.00  0.00     0.063 A 
ATOM      6  C   UNL     1      -0.218  -2.594  -1.385  1.00  0.00     0.039 A 
ENDROOT
BRANCH   1   7
ATOM      7  C   UNL     1       1.690  -4.166  -0.959  1.00  0.00     0.159 C 
ATOM      8  C   UNL     1       3.049  -4.457  -0.395  1.00  0.00     0.093 C 
ATOM      9  O   UNL     1       1.079  -5.095  -1.554  1.00  0.00    -0.295 OA
ENDBRANCH   1   7
BRANCH   5  10
ATOM     10  N   UNL     1      -2.120  -1.113  -1.906  1.00  0.00    -0.323 N 
ATOM     11  H   UNL     1      -2.485  -0.141  -2.034  1.00  0.00     0.181 HD
BRANCH  10  12
ATOM     12  N   UNL     1      -2.879  -2.178  -2.414  1.00  0.00    -0.250 NA
ATOM     13  H   UNL     1      -3.836  -2.098  -2.002  1.00  0.00     0.143 HD
ATOM     14  H   UNL     1      -2.974  -2.024  -3.444  1.00  0.00     0.143 HD
ENDBRANCH  10  12
ENDBRANCH   5  10
BRANCH   4  15
ATOM     15  C   UNL     1      -0.801   1.038  -0.407  1.00  0.00     0.249 A 
ATOM     16  N   UNL     1      -2.000   1.133   0.241  1.00  0.00    -0.208 N 
ATOM     17  C   UNL     1      -0.166   2.204  -0.868  1.00  0.00     0.198 A 
ATOM     18  C   UNL     1      -2.608   2.333   0.443  1.00  0.00     0.307 A 
ATOM     19  C   UNL     1      -0.770   3.452  -0.657  1.00  0.00    -0.002 A 
ATOM     20  C   UNL     1      -2.009   3.511  -0.005  1.00  0.00     0.077 A 
ATOM     21  H   UNL     1      -2.468   0.271   0.599  1.00  0.00     0.453 HD
ATOM     22  F   UNL     1       1.016   2.123  -1.534  1.00  0.00    -0.199 F 
ATOM     23  C   UNL     1      -0.122   4.705  -1.172  1.00  0.00     0.048 C 
ENDBRANCH   4  15
TORSDOF 4


