MODEL 1
REMARK VINA RESULT:      -9.9      0.000      0.000
REMARK SMILES c1cc(-c2ccc3cc[nH]c3c2)cc([C@H]2CO2)c1
REMARK SMILES IDX 4 1 5 2 6 3 7 4 8 5 9 6 10 7 11 8 12 9 3 11 1 12 2 13 18 14
REMARK SMILES IDX 14 15 13 16 15 17 16 18 17 19
REMARK H PARENT 10 10
ROOT
ATOM      1  C   UNL     1      44.673 131.262  16.891  1.00  0.00    -0.016 A 
ATOM      2  C   UNL     1      44.164 131.761  15.661  1.00  0.00     0.009 A 
ATOM      3  C   UNL     1      44.829 131.506  14.448  1.00  0.00     0.011 A 
ATOM      4  C   UNL     1      45.997 130.753  14.493  1.00  0.00    -0.001 A 
ATOM      5  C   UNL     1      46.845 130.350  13.484  1.00  0.00     0.028 A 
ATOM      6  C   UNL     1      47.844 129.620  14.120  1.00  0.00     0.083 A 
ATOM      7  N   UNL     1      47.627 129.572  15.455  1.00  0.00    -0.361 N 
ATOM      8  C   UNL     1      46.499 130.267  15.670  1.00  0.00     0.046 A 
ATOM      9  C   UNL     1      45.866 130.500  16.889  1.00  0.00     0.035 A 
ATOM     10  H   UNL     1      48.220 129.092  16.169  1.00  0.00     0.166 HD
ENDROOT
BRANCH   1  11
ATOM     11  C   UNL     1      43.962 131.537  18.165  1.00  0.00    -0.018 A 
ATOM     12  C   UNL     1      42.010 132.369  19.357  1.00  0.00     0.001 A 
ATOM     13  C   UNL     1      42.675 132.105  18.157  1.00  0.00     0.009 A 
ATOM     14  C   UNL     1      42.616 132.064  20.578  1.00  0.00     0.006 A 
ATOM     15  C   UNL     1      43.890 131.482  20.605  1.00  0.00    -0.016 A 
ATOM     16  C   UNL     1      44.565 131.234  19.400  1.00  0.00     0.015 A 
BRANCH  15  17
ATOM     17  C   UNL     1      44.554 131.192  21.918  1.00  0.00     0.174 C 
ATOM     18  C   UNL     1      43.914 130.152  22.758  1.00  0.00     0.198 C 
ATOM     19  O   UNL     1      45.050 129.874  21.974  1.00  0.00    -0.368 OA
ENDBRANCH  15  17
ENDBRANCH   1  11
TORSDOF 2
ENDMDL
MODEL 2
REMARK VINA RESULT:      -9.8      3.084      6.619
REMARK SMILES c1cc(-c2ccc3cc[nH]c3c2)cc([C@H]2CO2)c1
REMARK SMILES IDX 4 1 5 2 6 3 7 4 8 5 9 6 10 7 11 8 12 9 3 11 1 12 2 13 18 14
REMARK SMILES IDX 14 15 13 16 15 17 16 18 17 19
REMARK H PARENT 10 10
ROOT
ATOM      1  C   UNL     1      44.631 131.290  18.484  1.00  0.00    -0.016 A 
ATOM      2  C   UNL     1      45.697 130.752  19.254  1.00  0.00     0.009 A 
ATOM      3  C   UNL     1      45.618 130.698  20.658  1.00  0.00     0.011 A 
ATOM      4  C   UNL     1      44.465 131.187  21.263  1.00  0.00    -0.001 A 
ATOM      5  C   UNL     1      44.110 131.261  22.593  1.00  0.00     0.028 A 
ATOM      6  C   UNL     1      42.844 131.838  22.599  1.00  0.00     0.083 A 
ATOM      7  N   UNL     1      42.434 132.107  21.339  1.00  0.00    -0.361 N 
ATOM      8  C   UNL     1      43.430 131.707  20.533  1.00  0.00     0.046 A 
ATOM      9  C   UNL     1      43.476 131.776  19.142  1.00  0.00     0.035 A 
ATOM     10  H   UNL     1      41.526 132.540  21.054  1.00  0.00     0.166 HD
ENDROOT
BRANCH   1  11
ATOM     11  C   UNL     1      44.726 131.340  17.003  1.00  0.00    -0.018 A 
ATOM     12  C   UNL     1      43.664 131.581  14.826  1.00  0.00     0.001 A 
ATOM     13  C   UNL     1      43.574 131.540  16.220  1.00  0.00     0.009 A 
ATOM     14  C   UNL     1      44.902 131.429  14.197  1.00  0.00     0.006 A 
ATOM     15  C   UNL     1      46.062 131.246  14.961  1.00  0.00    -0.016 A 
ATOM     16  C   UNL     1      45.969 131.187  16.360  1.00  0.00     0.015 A 
BRANCH  15  17
ATOM     17  C   UNL     1      47.383 131.044  14.281  1.00  0.00     0.174 C 
ATOM     18  C   UNL     1      47.671 129.669  13.810  1.00  0.00     0.198 C 
ATOM     19  O   UNL     1      47.224 130.673  12.930  1.00  0.00    -0.368 OA
ENDBRANCH  15  17
ENDBRANCH   1  11
TORSDOF 2
ENDMDL
MODEL 3
REMARK VINA RESULT:      -9.6      1.678      2.494
REMARK SMILES c1cc(-c2ccc3cc[nH]c3c2)cc([C@H]2CO2)c1
REMARK SMILES IDX 4 1 5 2 6 3 7 4 8 5 9 6 10 7 11 8 12 9 3 11 1 12 2 13 18 14
REMARK SMILES IDX 14 15 13 16 15 17 16 18 17 19
REMARK H PARENT 10 10
ROOT
ATOM      1  C   UNL     1      45.824 131.071  16.937  1.00  0.00    -0.016 A 
ATOM      2  C   UNL     1      45.648 132.207  16.101  1.00  0.00     0.009 A 
ATOM      3  C   UNL     1      46.170 132.230  14.795  1.00  0.00     0.011 A 
ATOM      4  C   UNL     1      46.861 131.107  14.351  1.00  0.00    -0.001 A 
ATOM      5  C   UNL     1      47.469 130.847  13.142  1.00  0.00     0.028 A 
ATOM      6  C   UNL     1      47.998 129.566  13.271  1.00  0.00     0.083 A 
ATOM      7  N   UNL     1      47.731 129.058  14.496  1.00  0.00    -0.361 N 
ATOM      8  C   UNL     1      47.039 130.007  15.146  1.00  0.00     0.046 A 
ATOM      9  C   UNL     1      46.536 129.951  16.444  1.00  0.00     0.035 A 
ATOM     10  H   UNL     1      48.010 128.118  14.859  1.00  0.00     0.166 HD
ENDROOT
BRANCH   1  11
ATOM     11  C   UNL     1      45.268 131.058  18.314  1.00  0.00    -0.018 A 
ATOM     12  C   UNL     1      45.520 130.590  20.688  1.00  0.00     0.001 A 
ATOM     13  C   UNL     1      46.047 130.608  19.394  1.00  0.00     0.009 A 
ATOM     14  C   UNL     1      44.214 131.025  20.921  1.00  0.00     0.006 A 
ATOM     15  C   UNL     1      43.428 131.493  19.859  1.00  0.00    -0.016 A 
ATOM     16  C   UNL     1      43.952 131.494  18.557  1.00  0.00     0.015 A 
BRANCH  15  17
ATOM     17  C   UNL     1      42.013 131.923  20.106  1.00  0.00     0.174 C 
ATOM     18  C   UNL     1      41.795 133.378  20.285  1.00  0.00     0.198 C 
ATOM     19  O   UNL     1      41.524 132.734  19.062  1.00  0.00    -0.368 OA
ENDBRANCH  15  17
ENDBRANCH   1  11
TORSDOF 2
ENDMDL
MODEL 4
REMARK VINA RESULT:      -9.4      1.063      1.402
REMARK SMILES c1cc(-c2ccc3cc[nH]c3c2)cc([C@H]2CO2)c1
REMARK SMILES IDX 4 1 5 2 6 3 7 4 8 5 9 6 10 7 11 8 12 9 3 11 1 12 2 13 18 14
REMARK SMILES IDX 14 15 13 16 15 17 16 18 17 19
REMARK H PARENT 10 10
ROOT
ATOM      1  C   UNL     1      45.065 130.882  16.787  1.00  0.00    -0.016 A 
ATOM      2  C   UNL     1      45.213 129.498  16.499  1.00  0.00     0.009 A 
ATOM      3  C   UNL     1      45.997 129.068  15.413  1.00  0.00     0.011 A 
ATOM      4  C   UNL     1      46.619 130.038  14.635  1.00  0.00    -0.001 A 
ATOM      5  C   UNL     1      47.434 129.917  13.530  1.00  0.00     0.028 A 
ATOM      6  C   UNL     1      47.760 131.223  13.175  1.00  0.00     0.083 A 
ATOM      7  N   UNL     1      47.178 132.108  14.016  1.00  0.00    -0.361 N 
ATOM      8  C   UNL     1      46.484 131.374  14.901  1.00  0.00     0.046 A 
ATOM      9  C   UNL     1      45.716 131.835  15.968  1.00  0.00     0.035 A 
ATOM     10  H   UNL     1      47.255 133.149  13.981  1.00  0.00     0.166 HD
ENDROOT
BRANCH   1  11
ATOM     11  C   UNL     1      44.236 131.325  17.937  1.00  0.00    -0.018 A 
ATOM     12  C   UNL     1      42.180 132.290  18.810  1.00  0.00     0.001 A 
ATOM     13  C   UNL     1      42.956 131.868  17.727  1.00  0.00     0.009 A 
ATOM     14  C   UNL     1      42.667 132.172  20.113  1.00  0.00     0.006 A 
ATOM     15  C   UNL     1      43.933 131.618  20.342  1.00  0.00    -0.016 A 
ATOM     16  C   UNL     1      44.720 131.210  19.254  1.00  0.00     0.015 A 
BRANCH  15  17
ATOM     17  C   UNL     1      44.470 131.528  21.740  1.00  0.00     0.174 C 
ATOM     18  C   UNL     1      43.714 130.663  22.675  1.00  0.00     0.198 C 
ATOM     19  O   UNL     1      44.897 130.221  22.052  1.00  0.00    -0.368 OA
ENDBRANCH  15  17
ENDBRANCH   1  11
TORSDOF 2
ENDMDL
MODEL 5
REMARK VINA RESULT:      -8.9      2.765      6.377
REMARK SMILES c1cc(-c2ccc3cc[nH]c3c2)cc([C@H]2CO2)c1
REMARK SMILES IDX 4 1 5 2 6 3 7 4 8 5 9 6 10 7 11 8 12 9 3 11 1 12 2 13 18 14
REMARK SMILES IDX 14 15 13 16 15 17 16 18 17 19
REMARK H PARENT 10 10
ROOT
ATOM      1  C   UNL     1      44.085 131.466  18.160  1.00  0.00    -0.016 A 
ATOM      2  C   UNL     1      42.757 131.870  18.467  1.00  0.00     0.009 A 
ATOM      3  C   UNL     1      42.329 131.991  19.802  1.00  0.00     0.011 A 
ATOM      4  C   UNL     1      43.247 131.701  20.806  1.00  0.00    -0.001 A 
ATOM      5  C   UNL     1      43.115 131.733  22.178  1.00  0.00     0.028 A 
ATOM      6  C   UNL     1      44.359 131.349  22.670  1.00  0.00     0.083 A 
ATOM      7  N   UNL     1      45.218 131.094  21.656  1.00  0.00    -0.361 N 
ATOM      8  C   UNL     1      44.528 131.311  20.526  1.00  0.00     0.046 A 
ATOM      9  C   UNL     1      44.984 131.181  19.216  1.00  0.00     0.035 A 
ATOM     10  H   UNL     1      46.214 130.789  21.741  1.00  0.00     0.166 HD
ENDROOT
BRANCH   1  11
ATOM     11  C   UNL     1      44.525 131.343  16.747  1.00  0.00    -0.018 A 
ATOM     12  C   UNL     1      44.054 131.517  14.366  1.00  0.00     0.001 A 
ATOM     13  C   UNL     1      43.640 131.639  15.695  1.00  0.00     0.009 A 
ATOM     14  C   UNL     1      45.355 131.104  14.070  1.00  0.00     0.006 A 
ATOM     15  C   UNL     1      46.256 130.822  15.105  1.00  0.00    -0.016 A 
ATOM     16  C   UNL     1      45.834 130.927  16.440  1.00  0.00     0.015 A 
BRANCH  15  17
ATOM     17  C   UNL     1      47.640 130.341  14.785  1.00  0.00     0.174 C 
ATOM     18  C   UNL     1      47.733 129.211  13.831  1.00  0.00     0.198 C 
ATOM     19  O   UNL     1      47.960 130.541  13.426  1.00  0.00    -0.368 OA
ENDBRANCH  15  17
ENDBRANCH   1  11
TORSDOF 2
ENDMDL
MODEL 6
REMARK VINA RESULT:      -8.2      1.245      1.838
REMARK SMILES c1cc(-c2ccc3cc[nH]c3c2)cc([C@H]2CO2)c1
REMARK SMILES IDX 4 1 5 2 6 3 7 4 8 5 9 6 10 7 11 8 12 9 3 11 1 12 2 13 18 14
REMARK SMILES IDX 14 15 13 16 15 17 16 18 17 19
REMARK H PARENT 10 10
ROOT
ATOM      1  C   UNL     1      44.674 131.194  17.951  1.00  0.00    -0.016 A 
ATOM      2  C   UNL     1      45.753 130.282  18.104  1.00  0.00     0.009 A 
ATOM      3  C   UNL     1      46.533 129.894  16.999  1.00  0.00     0.011 A 
ATOM      4  C   UNL     1      46.212 130.430  15.757  1.00  0.00    -0.001 A 
ATOM      5  C   UNL     1      46.789 130.239  14.520  1.00  0.00     0.028 A 
ATOM      6  C   UNL     1      46.051 131.034  13.649  1.00  0.00     0.083 A 
ATOM      7  N   UNL     1      45.067 131.686  14.311  1.00  0.00    -0.361 N 
ATOM      8  C   UNL     1      45.175 131.309  15.595  1.00  0.00     0.046 A 
ATOM      9  C   UNL     1      44.383 131.715  16.667  1.00  0.00     0.035 A 
ATOM     10  H   UNL     1      44.368 132.346  13.902  1.00  0.00     0.166 HD
ENDROOT
BRANCH   1  11
ATOM     11  C   UNL     1      43.859 131.598  19.125  1.00  0.00    -0.018 A 
ATOM     12  C   UNL     1      41.880 132.667  20.054  1.00  0.00     0.001 A 
ATOM     13  C   UNL     1      42.643 132.282  18.948  1.00  0.00     0.009 A 
ATOM     14  C   UNL     1      42.317 132.370  21.347  1.00  0.00     0.006 A 
ATOM     15  C   UNL     1      43.518 131.674  21.541  1.00  0.00    -0.016 A 
ATOM     16  C   UNL     1      44.293 131.304  20.431  1.00  0.00     0.015 A 
BRANCH  15  17
ATOM     17  C   UNL     1      44.004 131.392  22.932  1.00  0.00     0.174 C 
ATOM     18  C   UNL     1      43.193 130.440  23.726  1.00  0.00     0.198 C 
ATOM     19  O   UNL     1      44.384 130.044  23.088  1.00  0.00    -0.368 OA
ENDBRANCH  15  17
ENDBRANCH   1  11
TORSDOF 2
ENDMDL
MODEL 7
REMARK VINA RESULT:      -7.1      1.674      3.483
REMARK SMILES c1cc(-c2ccc3cc[nH]c3c2)cc([C@H]2CO2)c1
REMARK SMILES IDX 4 1 5 2 6 3 7 4 8 5 9 6 10 7 11 8 12 9 3 11 1 12 2 13 18 14
REMARK SMILES IDX 14 15 13 16 15 17 16 18 17 19
REMARK H PARENT 10 10
ROOT
ATOM      1  C   UNL     1      44.136 131.142  20.192  1.00  0.00    -0.016 A 
ATOM      2  C   UNL     1      43.173 131.821  19.397  1.00  0.00     0.009 A 
ATOM      3  C   UNL     1      43.352 131.961  18.009  1.00  0.00     0.011 A 
ATOM      4  C   UNL     1      44.499 131.415  17.444  1.00  0.00    -0.001 A 
ATOM      5  C   UNL     1      44.934 131.395  16.136  1.00  0.00     0.028 A 
ATOM      6  C   UNL     1      46.144 130.708  16.166  1.00  0.00     0.083 A 
ATOM      7  N   UNL     1      46.444 130.321  17.427  1.00  0.00    -0.361 N 
ATOM      8  C   UNL     1      45.435 130.758  18.197  1.00  0.00     0.046 A 
ATOM      9  C   UNL     1      45.289 130.601  19.573  1.00  0.00     0.035 A 
ATOM     10  H   UNL     1      47.290 129.791  17.735  1.00  0.00     0.166 HD
ENDROOT
BRANCH   1  11
ATOM     11  C   UNL     1      43.935 130.999  21.656  1.00  0.00    -0.018 A 
ATOM     12  C   UNL     1      43.064 131.854  23.761  1.00  0.00     0.001 A 
ATOM     13  C   UNL     1      43.246 131.987  22.382  1.00  0.00     0.009 A 
ATOM     14  C   UNL     1      43.560 130.734  24.431  1.00  0.00     0.006 A 
ATOM     15  C   UNL     1      44.234 129.731  23.722  1.00  0.00    -0.016 A 
ATOM     16  C   UNL     1      44.433 129.874  22.340  1.00  0.00     0.015 A 
BRANCH  15  17
ATOM     17  C   UNL     1      44.801 128.549  24.450  1.00  0.00     0.174 C 
ATOM     18  C   UNL     1      44.049 127.279  24.317  1.00  0.00     0.198 C 
ATOM     19  O   UNL     1      45.209 127.534  23.561  1.00  0.00    -0.368 OA
ENDBRANCH  15  17
ENDBRANCH   1  11
TORSDOF 2
ENDMDL


