MODEL 1
REMARK VINA RESULT:      -8.5      0.000      0.000
REMARK SMILES NNc1ccc2cc(-c3[nH+]c[nH+]c4c3COC4)[nH]c2c1F
REMARK SMILES IDX 3 1 4 2 5 3 6 4 7 5 8 6 18 7 19 8 20 9 21 10 2 12 1 14 9 17
REMARK SMILES IDX 10 18 14 19 11 20 13 21 15 22 12 23 17 24 16 25
REMARK H PARENT 18 11 2 13 1 15 1 16 10 26 12 27
ROOT
ATOM      1  C   UNL     1      46.692 129.950  14.841  1.00  0.00     0.087 A 
ATOM      2  C   UNL     1      45.727 130.573  14.003  1.00  0.00     0.031 A 
ATOM      3  C   UNL     1      44.614 131.234  14.555  1.00  0.00     0.013 A 
ATOM      4  C   UNL     1      44.493 131.258  15.940  1.00  0.00     0.003 A 
ATOM      5  C   UNL     1      43.520 131.810  16.743  1.00  0.00     0.043 A 
ATOM      6  C   UNL     1      43.919 131.521  18.048  1.00  0.00     0.113 A 
ATOM      7  N   UNL     1      45.077 130.815  18.049  1.00  0.00    -0.347 N 
ATOM      8  C   UNL     1      45.415 130.664  16.758  1.00  0.00     0.085 A 
ATOM      9  C   UNL     1      46.527 129.996  16.245  1.00  0.00     0.171 A 
ATOM     10  F   UNL     1      47.422 129.412  17.080  1.00  0.00    -0.202 F 
ATOM     11  H   UNL     1      45.582 130.418  18.870  1.00  0.00     0.167 HD
ENDROOT
BRANCH   1  12
ATOM     12  N   UNL     1      47.826 129.270  14.279  1.00  0.00    -0.321 N 
ATOM     13  H   UNL     1      48.244 128.458  14.789  1.00  0.00     0.181 HD
BRANCH  12  14
ATOM     14  N   UNL     1      48.367 129.644  13.037  1.00  0.00    -0.250 NA
ATOM     15  H   UNL     1      48.802 128.789  12.621  1.00  0.00     0.143 HD
ATOM     16  H   UNL     1      47.573 129.907  12.409  1.00  0.00     0.143 HD
ENDBRANCH  12  14
ENDBRANCH   1  12
BRANCH   6  17
ATOM     17  C   UNL     1      43.164 131.900  19.261  1.00  0.00     0.244 A 
ATOM     18  N   UNL     1      42.081 132.734  19.164  1.00  0.00    -0.153 N 
ATOM     19  C   UNL     1      43.545 131.475  20.543  1.00  0.00     0.121 A 
ATOM     20  C   UNL     1      41.399 133.144  20.277  1.00  0.00     0.630 A 
ATOM     21  C   UNL     1      42.867 131.909  21.620  1.00  0.00     0.222 A 
ATOM     22  C   UNL     1      44.700 130.684  21.019  1.00  0.00     0.210 C 
ATOM     23  N   UNL     1      41.799 132.737  21.515  1.00  0.00    -0.156 N 
ATOM     24  C   UNL     1      43.525 131.440  22.847  1.00  0.00     0.269 C 
ATOM     25  O   UNL     1      44.692 130.739  22.441  1.00  0.00    -0.365 OA
ATOM     26  H   UNL     1      41.756 133.070  18.230  1.00  0.00     0.460 HD
ATOM     27  H   UNL     1      41.299 133.071  22.369  1.00  0.00     0.460 HD
ENDBRANCH   6  17
TORSDOF 3
ENDMDL
MODEL 2
REMARK VINA RESULT:      -8.4      1.455      1.869
REMARK SMILES NNc1ccc2cc(-c3[nH+]c[nH+]c4c3COC4)[nH]c2c1F
REMARK SMILES IDX 3 1 4 2 5 3 6 4 7 5 8 6 18 7 19 8 20 9 21 10 2 12 1 14 9 17
REMARK SMILES IDX 10 18 14 19 11 20 13 21 15 22 12 23 17 24 16 25
REMARK H PARENT 18 11 2 13 1 15 1 16 10 26 12 27
ROOT
ATOM      1  C   UNL     1      46.133 130.715  14.626  1.00  0.00     0.087 A 
ATOM      2  C   UNL     1      46.991 129.993  15.500  1.00  0.00     0.031 A 
ATOM      3  C   UNL     1      46.732 129.940  16.882  1.00  0.00     0.013 A 
ATOM      4  C   UNL     1      45.612 130.612  17.360  1.00  0.00     0.003 A 
ATOM      5  C   UNL     1      45.126 130.741  18.642  1.00  0.00     0.043 A 
ATOM      6  C   UNL     1      43.981 131.526  18.518  1.00  0.00     0.113 A 
ATOM      7  N   UNL     1      43.776 131.875  17.224  1.00  0.00    -0.347 N 
ATOM      8  C   UNL     1      44.777 131.308  16.530  1.00  0.00     0.085 A 
ATOM      9  C   UNL     1      45.006 131.387  15.157  1.00  0.00     0.171 A 
ATOM     10  F   UNL     1      44.163 132.089  14.359  1.00  0.00    -0.202 F 
ATOM     11  H   UNL     1      43.032 132.496  16.840  1.00  0.00     0.167 HD
ENDROOT
BRANCH   1  12
ATOM     12  N   UNL     1      46.399 130.775  13.215  1.00  0.00    -0.321 N 
ATOM     13  H   UNL     1      45.644 130.517  12.538  1.00  0.00     0.181 HD
BRANCH  12  14
ATOM     14  N   UNL     1      47.638 131.211  12.718  1.00  0.00    -0.250 NA
ATOM     15  H   UNL     1      47.849 132.126  13.178  1.00  0.00     0.143 HD
ATOM     16  H   UNL     1      48.369 130.539  13.047  1.00  0.00     0.143 HD
ENDBRANCH  12  14
ENDBRANCH   1  12
BRANCH   6  17
ATOM     17  C   UNL     1      43.128 131.953  19.649  1.00  0.00     0.244 A 
ATOM     18  N   UNL     1      42.080 132.809  19.435  1.00  0.00    -0.153 N 
ATOM     19  C   UNL     1      43.381 131.551  20.969  1.00  0.00     0.121 A 
ATOM     20  C   UNL     1      41.310 133.261  20.472  1.00  0.00     0.630 A 
ATOM     21  C   UNL     1      42.619 132.027  21.970  1.00  0.00     0.222 A 
ATOM     22  C   UNL     1      44.468 130.745  21.567  1.00  0.00     0.210 C 
ATOM     23  N   UNL     1      41.586 132.877  21.749  1.00  0.00    -0.156 N 
ATOM     24  C   UNL     1      43.151 131.574  23.263  1.00  0.00     0.269 C 
ATOM     25  O   UNL     1      44.332 130.835  22.981  1.00  0.00    -0.365 OA
ATOM     26  H   UNL     1      41.849 133.129  18.467  1.00  0.00     0.460 HD
ATOM     27  H   UNL     1      41.019 133.243  22.546  1.00  0.00     0.460 HD
ENDBRANCH   6  17
TORSDOF 3
ENDMDL
MODEL 3
REMARK VINA RESULT:      -7.9      2.864      7.018
REMARK SMILES NNc1ccc2cc(-c3[nH+]c[nH+]c4c3COC4)[nH]c2c1F
REMARK SMILES IDX 3 1 4 2 5 3 6 4 7 5 8 6 18 7 19 8 20 9 21 10 2 12 1 14 9 17
REMARK SMILES IDX 10 18 14 19 11 20 13 21 15 22 12 23 17 24 16 25
REMARK H PARENT 18 11 2 13 1 15 1 16 10 26 12 27
ROOT
ATOM      1  C   UNL     1      43.107 131.834  22.133  1.00  0.00     0.087 A 
ATOM      2  C   UNL     1      44.354 131.178  22.328  1.00  0.00     0.031 A 
ATOM      3  C   UNL     1      45.158 130.819  21.230  1.00  0.00     0.013 A 
ATOM      4  C   UNL     1      44.694 131.129  19.956  1.00  0.00     0.003 A 
ATOM      5  C   UNL     1      45.252 130.892  18.719  1.00  0.00     0.043 A 
ATOM      6  C   UNL     1      44.341 131.417  17.804  1.00  0.00     0.113 A 
ATOM      7  N   UNL     1      43.268 131.942  18.443  1.00  0.00    -0.347 N 
ATOM      8  C   UNL     1      43.498 131.761  19.755  1.00  0.00     0.085 A 
ATOM      9  C   UNL     1      42.674 132.126  20.818  1.00  0.00     0.171 A 
ATOM     10  F   UNL     1      41.491 132.748  20.588  1.00  0.00    -0.202 F 
ATOM     11  H   UNL     1      42.410 132.355  18.019  1.00  0.00     0.167 HD
ENDROOT
BRANCH   1  12
ATOM     12  N   UNL     1      42.283 132.196  23.253  1.00  0.00    -0.321 N 
ATOM     13  H   UNL     1      41.388 132.712  23.087  1.00  0.00     0.181 HD
BRANCH  12  14
ATOM     14  N   UNL     1      42.628 131.839  24.567  1.00  0.00    -0.250 NA
ATOM     15  H   UNL     1      43.502 131.268  24.511  1.00  0.00     0.143 HD
ATOM     16  H   UNL     1      42.879 132.714  25.081  1.00  0.00     0.143 HD
ENDBRANCH  12  14
ENDBRANCH   1  12
BRANCH   6  17
ATOM     17  C   UNL     1      44.506 131.373  16.335  1.00  0.00     0.244 A 
ATOM     18  N   UNL     1      43.521 131.861  15.518  1.00  0.00    -0.153 N 
ATOM     19  C   UNL     1      45.629 130.794  15.725  1.00  0.00     0.121 A 
ATOM     20  C   UNL     1      43.624 131.782  14.156  1.00  0.00     0.630 A 
ATOM     21  C   UNL     1      45.695 130.713  14.385  1.00  0.00     0.222 A 
ATOM     22  C   UNL     1      46.801 130.084  16.283  1.00  0.00     0.210 C 
ATOM     23  N   UNL     1      44.713 131.196  13.584  1.00  0.00    -0.156 N 
ATOM     24  C   UNL     1      46.890 129.957  13.987  1.00  0.00     0.269 C 
ATOM     25  O   UNL     1      47.519 129.528  15.187  1.00  0.00    -0.365 OA
ATOM     26  H   UNL     1      42.669 132.308  15.927  1.00  0.00     0.460 HD
ATOM     27  H   UNL     1      44.782 131.107  12.545  1.00  0.00     0.460 HD
ENDBRANCH   6  17
TORSDOF 3
ENDMDL
MODEL 4
REMARK VINA RESULT:      -7.7      1.685      2.166
REMARK SMILES NNc1ccc2cc(-c3[nH+]c[nH+]c4c3COC4)[nH]c2c1F
REMARK SMILES IDX 3 1 4 2 5 3 6 4 7 5 8 6 18 7 19 8 20 9 21 10 2 12 1 14 9 17
REMARK SMILES IDX 10 18 14 19 11 20 13 21 15 22 12 23 17 24 16 25
REMARK H PARENT 18 11 2 13 1 15 1 16 10 26 12 27
ROOT
ATOM      1  C   UNL     1      46.225 130.573  14.404  1.00  0.00     0.087 A 
ATOM      2  C   UNL     1      45.015 131.254  14.098  1.00  0.00     0.031 A 
ATOM      3  C   UNL     1      44.136 131.655  15.121  1.00  0.00     0.013 A 
ATOM      4  C   UNL     1      44.490 131.366  16.434  1.00  0.00     0.003 A 
ATOM      5  C   UNL     1      43.831 131.622  17.616  1.00  0.00     0.043 A 
ATOM      6  C   UNL     1      44.657 131.102  18.611  1.00  0.00     0.113 A 
ATOM      7  N   UNL     1      45.767 130.542  18.070  1.00  0.00    -0.347 N 
ATOM      8  C   UNL     1      45.652 130.712  16.742  1.00  0.00     0.085 A 
ATOM      9  C   UNL     1      46.543 130.296  15.755  1.00  0.00     0.171 A 
ATOM     10  F   UNL     1      47.686 129.646  16.090  1.00  0.00    -0.202 F 
ATOM     11  H   UNL     1      46.532 130.034  18.564  1.00  0.00     0.167 HD
ENDROOT
BRANCH   1  12
ATOM     12  N   UNL     1      47.121 130.158  13.361  1.00  0.00    -0.321 N 
ATOM     13  H   UNL     1      47.148 129.152  13.076  1.00  0.00     0.181 HD
BRANCH  12  14
ATOM     14  N   UNL     1      47.935 131.079  12.681  1.00  0.00    -0.250 NA
ATOM     15  H   UNL     1      48.238 131.796  13.380  1.00  0.00     0.143 HD
ATOM     16  H   UNL     1      48.801 130.578  12.378  1.00  0.00     0.143 HD
ENDBRANCH  12  14
ENDBRANCH   1  12
BRANCH   6  17
ATOM     17  C   UNL     1      44.346 131.126  20.057  1.00  0.00     0.244 A 
ATOM     18  N   UNL     1      45.066 130.349  20.927  1.00  0.00    -0.153 N 
ATOM     19  C   UNL     1      43.291 131.885  20.583  1.00  0.00     0.121 A 
ATOM     20  C   UNL     1      44.763 130.311  22.261  1.00  0.00     0.630 A 
ATOM     21  C   UNL     1      43.004 131.813  21.895  1.00  0.00     0.222 A 
ATOM     22  C   UNL     1      42.260 132.727  19.937  1.00  0.00     0.210 C 
ATOM     23  N   UNL     1      43.719 131.039  22.748  1.00  0.00    -0.156 N 
ATOM     24  C   UNL     1      41.789 132.586  22.186  1.00  0.00     0.269 C 
ATOM     25  O   UNL     1      41.318 133.086  20.942  1.00  0.00    -0.365 OA
ATOM     26  H   UNL     1      45.866 129.773  20.582  1.00  0.00     0.460 HD
ATOM     27  H   UNL     1      43.466 130.989  23.760  1.00  0.00     0.460 HD
ENDBRANCH   6  17
TORSDOF 3
ENDMDL
MODEL 5
REMARK VINA RESULT:      -7.4      1.052      1.066
REMARK SMILES NNc1ccc2cc(-c3[nH+]c[nH+]c4c3COC4)[nH]c2c1F
REMARK SMILES IDX 3 1 4 2 5 3 6 4 7 5 8 6 18 7 19 8 20 9 21 10 2 12 1 14 9 17
REMARK SMILES IDX 10 18 14 19 11 20 13 21 15 22 12 23 17 24 16 25
REMARK H PARENT 18 11 2 13 1 15 1 16 10 26 12 27
ROOT
ATOM      1  C   UNL     1      47.019 129.930  14.413  1.00  0.00     0.087 A 
ATOM      2  C   UNL     1      47.182 131.320  14.164  1.00  0.00     0.031 A 
ATOM      3  C   UNL     1      46.552 132.277  14.980  1.00  0.00     0.013 A 
ATOM      4  C   UNL     1      45.771 131.818  16.035  1.00  0.00     0.003 A 
ATOM      5  C   UNL     1      45.039 132.512  16.974  1.00  0.00     0.043 A 
ATOM      6  C   UNL     1      44.459 131.531  17.777  1.00  0.00     0.113 A 
ATOM      7  N   UNL     1      44.805 130.292  17.349  1.00  0.00    -0.347 N 
ATOM      8  C   UNL     1      45.607 130.484  16.288  1.00  0.00     0.085 A 
ATOM      9  C   UNL     1      46.212 129.508  15.496  1.00  0.00     0.171 A 
ATOM     10  F   UNL     1      46.028 128.192  15.767  1.00  0.00    -0.202 F 
ATOM     11  H   UNL     1      44.482 129.374  17.721  1.00  0.00     0.167 HD
ENDROOT
BRANCH   1  12
ATOM     12  N   UNL     1      47.658 128.952  13.577  1.00  0.00    -0.321 N 
ATOM     13  H   UNL     1      47.123 128.104  13.277  1.00  0.00     0.181 HD
BRANCH  12  14
ATOM     14  N   UNL     1      48.974 129.124  13.116  1.00  0.00    -0.250 NA
ATOM     15  H   UNL     1      49.076 130.129  12.848  1.00  0.00     0.143 HD
ATOM     16  H   UNL     1      49.619 128.966  13.924  1.00  0.00     0.143 HD
ENDBRANCH  12  14
ENDBRANCH   1  12
BRANCH   6  17
ATOM     17  C   UNL     1      43.557 131.805  18.918  1.00  0.00     0.244 A 
ATOM     18  N   UNL     1      42.384 132.483  18.718  1.00  0.00    -0.153 N 
ATOM     19  C   UNL     1      43.882 131.437  20.232  1.00  0.00     0.121 A 
ATOM     20  C   UNL     1      41.559 132.796  19.764  1.00  0.00     0.630 A 
ATOM     21  C   UNL     1      43.061 131.776  21.242  1.00  0.00     0.222 A 
ATOM     22  C   UNL     1      45.089 130.812  20.815  1.00  0.00     0.210 C 
ATOM     23  N   UNL     1      41.903 132.450  21.036  1.00  0.00    -0.156 N 
ATOM     24  C   UNL     1      43.669 131.403  22.527  1.00  0.00     0.269 C 
ATOM     25  O   UNL     1      44.951 130.867  22.231  1.00  0.00    -0.365 OA
ATOM     26  H   UNL     1      42.097 132.770  17.755  1.00  0.00     0.460 HD
ATOM     27  H   UNL     1      41.291 132.713  21.841  1.00  0.00     0.460 HD
ENDBRANCH   6  17
TORSDOF 3
ENDMDL
MODEL 6
REMARK VINA RESULT:      -7.1      1.452      1.648
REMARK SMILES NNc1ccc2cc(-c3[nH+]c[nH+]c4c3COC4)[nH]c2c1F
REMARK SMILES IDX 3 1 4 2 5 3 6 4 7 5 8 6 18 7 19 8 20 9 21 10 2 12 1 14 9 17
REMARK SMILES IDX 10 18 14 19 11 20 13 21 15 22 12 23 17 24 16 25
REMARK H PARENT 18 11 2 13 1 15 1 16 10 26 12 27
ROOT
ATOM      1  C   UNL     1      47.059 130.925  14.195  1.00  0.00     0.087 A 
ATOM      2  C   UNL     1      46.732 129.555  14.382  1.00  0.00     0.031 A 
ATOM      3  C   UNL     1      45.860 129.156  15.413  1.00  0.00     0.013 A 
ATOM      4  C   UNL     1      45.332 130.145  16.235  1.00  0.00     0.003 A 
ATOM      5  C   UNL     1      44.478 130.050  17.312  1.00  0.00     0.043 A 
ATOM      6  C   UNL     1      44.296 131.362  17.747  1.00  0.00     0.113 A 
ATOM      7  N   UNL     1      45.012 132.224  16.984  1.00  0.00    -0.347 N 
ATOM      8  C   UNL     1      45.636 131.468  16.065  1.00  0.00     0.085 A 
ATOM      9  C   UNL     1      46.500 131.897  15.058  1.00  0.00     0.171 A 
ATOM     10  F   UNL     1      46.787 133.215  14.916  1.00  0.00    -0.202 F 
ATOM     11  H   UNL     1      45.111 133.255  17.105  1.00  0.00     0.167 HD
ENDROOT
BRANCH   1  12
ATOM     12  N   UNL     1      47.952 131.333  13.146  1.00  0.00    -0.321 N 
ATOM     13  H   UNL     1      48.817 131.871  13.387  1.00  0.00     0.181 HD
BRANCH  12  14
ATOM     14  N   UNL     1      47.715 130.992  11.804  1.00  0.00    -0.250 NA
ATOM     15  H   UNL     1      48.621 131.105  11.294  1.00  0.00     0.143 HD
ATOM     16  H   UNL     1      47.481 129.974  11.769  1.00  0.00     0.143 HD
ENDBRANCH  12  14
ENDBRANCH   1  12
BRANCH   6  17
ATOM     17  C   UNL     1      43.466 131.756  18.906  1.00  0.00     0.244 A 
ATOM     18  N   UNL     1      42.341 132.514  18.720  1.00  0.00    -0.153 N 
ATOM     19  C   UNL     1      43.816 131.424  20.224  1.00  0.00     0.121 A 
ATOM     20  C   UNL     1      41.587 132.937  19.780  1.00  0.00     0.630 A 
ATOM     21  C   UNL     1      43.067 131.869  21.247  1.00  0.00     0.222 A 
ATOM     22  C   UNL     1      44.996 130.733  20.789  1.00  0.00     0.210 C 
ATOM     23  N   UNL     1      41.956 132.622  21.053  1.00  0.00    -0.156 N 
ATOM     24  C   UNL     1      43.697 131.508  22.524  1.00  0.00     0.269 C 
ATOM     25  O   UNL     1      44.922 130.861  22.205  1.00  0.00    -0.365 OA
ATOM     26  H   UNL     1      42.036 132.779  17.756  1.00  0.00     0.460 HD
ATOM     27  H   UNL     1      41.400 132.968  21.867  1.00  0.00     0.460 HD
ENDBRANCH   6  17
TORSDOF 3
ENDMDL
MODEL 7
REMARK VINA RESULT:      -6.9      2.712      6.572
REMARK SMILES NNc1ccc2cc(-c3[nH+]c[nH+]c4c3COC4)[nH]c2c1F
REMARK SMILES IDX 3 1 4 2 5 3 6 4 7 5 8 6 18 7 19 8 20 9 21 10 2 12 1 14 9 17
REMARK SMILES IDX 10 18 14 19 11 20 13 21 15 22 12 23 17 24 16 25
REMARK H PARENT 18 11 2 13 1 15 1 16 10 26 12 27
ROOT
ATOM      1  C   UNL     1      44.031 131.155  22.597  1.00  0.00     0.087 A 
ATOM      2  C   UNL     1      42.823 131.884  22.425  1.00  0.00     0.031 A 
ATOM      3  C   UNL     1      42.365 132.226  21.139  1.00  0.00     0.013 A 
ATOM      4  C   UNL     1      43.129 131.825  20.049  1.00  0.00     0.003 A 
ATOM      5  C   UNL     1      42.936 132.025  18.700  1.00  0.00     0.043 A 
ATOM      6  C   UNL     1      44.022 131.405  18.083  1.00  0.00     0.113 A 
ATOM      7  N   UNL     1      44.851 130.859  19.007  1.00  0.00    -0.347 N 
ATOM      8  C   UNL     1      44.292 131.121  20.200  1.00  0.00     0.085 A 
ATOM      9  C   UNL     1      44.779 130.771  21.459  1.00  0.00     0.171 A 
ATOM     10  F   UNL     1      45.937 130.076  21.578  1.00  0.00    -0.202 F 
ATOM     11  H   UNL     1      45.762 130.379  18.844  1.00  0.00     0.167 HD
ENDROOT
BRANCH   1  12
ATOM     12  N   UNL     1      44.502 130.809  23.910  1.00  0.00    -0.321 N 
ATOM     13  H   UNL     1      44.515 131.539  24.660  1.00  0.00     0.181 HD
BRANCH  12  14
ATOM     14  N   UNL     1      44.911 129.503  24.225  1.00  0.00    -0.250 NA
ATOM     15  H   UNL     1      45.127 129.022  23.322  1.00  0.00     0.143 HD
ATOM     16  H   UNL     1      45.813 129.567  24.749  1.00  0.00     0.143 HD
ENDBRANCH  12  14
ENDBRANCH   1  12
BRANCH   6  17
ATOM     17  C   UNL     1      44.257 131.379  16.623  1.00  0.00     0.244 A 
ATOM     18  N   UNL     1      43.319 131.895  15.768  1.00  0.00    -0.153 N 
ATOM     19  C   UNL     1      45.399 130.792  16.059  1.00  0.00     0.121 A 
ATOM     20  C   UNL     1      43.487 131.834  14.411  1.00  0.00     0.630 A 
ATOM     21  C   UNL     1      45.528 130.730  14.723  1.00  0.00     0.222 A 
ATOM     22  C   UNL     1      46.532 130.056  16.662  1.00  0.00     0.210 C 
ATOM     23  N   UNL     1      44.594 131.240  13.883  1.00  0.00    -0.156 N 
ATOM     24  C   UNL     1      46.730 129.962  14.370  1.00  0.00     0.269 C 
ATOM     25  O   UNL     1      47.293 129.505  15.593  1.00  0.00    -0.365 OA
ATOM     26  H   UNL     1      42.456 132.349  16.142  1.00  0.00     0.460 HD
ATOM     27  H   UNL     1      44.712 131.165  12.848  1.00  0.00     0.460 HD
ENDBRANCH   6  17
TORSDOF 3
ENDMDL
MODEL 8
REMARK VINA RESULT:      -6.6      2.059      2.832
REMARK SMILES NNc1ccc2cc(-c3[nH+]c[nH+]c4c3COC4)[nH]c2c1F
REMARK SMILES IDX 3 1 4 2 5 3 6 4 7 5 8 6 18 7 19 8 20 9 21 10 2 12 1 14 9 17
REMARK SMILES IDX 10 18 14 19 11 20 13 21 15 22 12 23 17 24 16 25
REMARK H PARENT 18 11 2 13 1 15 1 16 10 26 12 27
ROOT
ATOM      1  C   UNL     1      45.622 130.790  15.749  1.00  0.00     0.087 A 
ATOM      2  C   UNL     1      44.425 131.555  15.688  1.00  0.00     0.031 A 
ATOM      3  C   UNL     1      43.715 131.877  16.860  1.00  0.00     0.013 A 
ATOM      4  C   UNL     1      44.224 131.426  18.073  1.00  0.00     0.003 A 
ATOM      5  C   UNL     1      43.745 131.577  19.355  1.00  0.00     0.043 A 
ATOM      6  C   UNL     1      44.664 130.912  20.166  1.00  0.00     0.113 A 
ATOM      7  N   UNL     1      45.656 130.368  19.420  1.00  0.00    -0.347 N 
ATOM      8  C   UNL     1      45.375 130.691  18.146  1.00  0.00     0.085 A 
ATOM      9  C   UNL     1      46.101 130.349  17.006  1.00  0.00     0.171 A 
ATOM     10  F   UNL     1      47.237 129.615  17.109  1.00  0.00    -0.202 F 
ATOM     11  H   UNL     1      46.448 129.774  19.746  1.00  0.00     0.167 HD
ENDROOT
BRANCH   1  12
ATOM     12  N   UNL     1      46.345 130.457  14.553  1.00  0.00    -0.321 N 
ATOM     13  H   UNL     1      46.467 129.451  14.291  1.00  0.00     0.181 HD
BRANCH  12  14
ATOM     14  N   UNL     1      46.858 131.450  13.702  1.00  0.00    -0.250 NA
ATOM     15  H   UNL     1      46.042 131.987  13.330  1.00  0.00     0.143 HD
ATOM     16  H   UNL     1      47.410 132.117  14.287  1.00  0.00     0.143 HD
ENDBRANCH  12  14
ENDBRANCH   1  12
BRANCH   6  17
ATOM     17  C   UNL     1      44.551 130.786  21.635  1.00  0.00     0.244 A 
ATOM     18  N   UNL     1      44.364 131.902  22.408  1.00  0.00    -0.153 N 
ATOM     19  C   UNL     1      44.680 129.554  22.292  1.00  0.00     0.121 A 
ATOM     20  C   UNL     1      44.312 131.819  23.773  1.00  0.00     0.630 A 
ATOM     21  C   UNL     1      44.643 129.505  23.635  1.00  0.00     0.222 A 
ATOM     22  C   UNL     1      44.995 128.197  21.795  1.00  0.00     0.210 C 
ATOM     23  N   UNL     1      44.461 130.615  24.393  1.00  0.00    -0.156 N 
ATOM     24  C   UNL     1      44.928 128.139  24.095  1.00  0.00     0.269 C 
ATOM     25  O   UNL     1      45.204 127.368  22.934  1.00  0.00    -0.365 OA
ATOM     26  H   UNL     1      44.255 132.841  21.963  1.00  0.00     0.460 HD
ATOM     27  H   UNL     1      44.451 130.551  25.435  1.00  0.00     0.460 HD
ENDBRANCH   6  17
TORSDOF 3
ENDMDL
MODEL 9
REMARK VINA RESULT:      -6.5      2.718      7.252
REMARK SMILES NNc1ccc2cc(-c3[nH+]c[nH+]c4c3COC4)[nH]c2c1F
REMARK SMILES IDX 3 1 4 2 5 3 6 4 7 5 8 6 18 7 19 8 20 9 21 10 2 12 1 14 9 17
REMARK SMILES IDX 10 18 14 19 11 20 13 21 15 22 12 23 17 24 16 25
REMARK H PARENT 18 11 2 13 1 15 1 16 10 26 12 27
ROOT
ATOM      1  C   UNL     1      43.183 131.624  22.262  1.00  0.00     0.087 A 
ATOM      2  C   UNL     1      44.257 130.831  22.751  1.00  0.00     0.031 A 
ATOM      3  C   UNL     1      45.202 130.274  21.869  1.00  0.00     0.013 A 
ATOM      4  C   UNL     1      45.050 130.526  20.511  1.00  0.00     0.003 A 
ATOM      5  C   UNL     1      45.801 130.109  19.434  1.00  0.00     0.043 A 
ATOM      6  C   UNL     1      45.176 130.665  18.319  1.00  0.00     0.113 A 
ATOM      7  N   UNL     1      44.085 131.380  18.687  1.00  0.00    -0.347 N 
ATOM      8  C   UNL     1      44.022 131.288  20.026  1.00  0.00     0.085 A 
ATOM      9  C   UNL     1      43.066 131.851  20.870  1.00  0.00     0.171 A 
ATOM     10  F   UNL     1      42.055 132.599  20.361  1.00  0.00    -0.202 F 
ATOM     11  H   UNL     1      43.398 131.862  18.068  1.00  0.00     0.167 HD
ENDROOT
BRANCH   1  12
ATOM     12  N   UNL     1      42.216 132.189  23.161  1.00  0.00    -0.321 N 
ATOM     13  H   UNL     1      41.307 132.542  22.782  1.00  0.00     0.181 HD
BRANCH  12  14
ATOM     14  N   UNL     1      42.441 132.243  24.546  1.00  0.00    -0.250 NA
ATOM     15  H   UNL     1      43.160 131.517  24.769  1.00  0.00     0.143 HD
ATOM     16  H   UNL     1      42.879 133.167  24.763  1.00  0.00     0.143 HD
ENDBRANCH  12  14
ENDBRANCH   1  12
BRANCH   6  17
ATOM     17  C   UNL     1      45.620 130.468  16.921  1.00  0.00     0.244 A 
ATOM     18  N   UNL     1      46.851 129.926  16.662  1.00  0.00    -0.153 N 
ATOM     19  C   UNL     1      44.841 130.868  15.826  1.00  0.00     0.121 A 
ATOM     20  C   UNL     1      47.308 129.784  15.380  1.00  0.00     0.630 A 
ATOM     21  C   UNL     1      45.324 130.734  14.578  1.00  0.00     0.222 A 
ATOM     22  C   UNL     1      43.545 131.575  15.740  1.00  0.00     0.210 C 
ATOM     23  N   UNL     1      46.545 130.200  14.330  1.00  0.00    -0.156 N 
ATOM     24  C   UNL     1      44.393 131.336  13.613  1.00  0.00     0.269 C 
ATOM     25  O   UNL     1      43.333 131.904  14.371  1.00  0.00    -0.365 OA
ATOM     26  H   UNL     1      47.463 129.606  17.446  1.00  0.00     0.460 HD
ATOM     27  H   UNL     1      46.902 130.120  13.352  1.00  0.00     0.460 HD
ENDBRANCH   6  17
TORSDOF 3
ENDMDL


