REMARK SMILES CC(=O)c1ccc(-c2ccc(O)c(C(=O)[O-])c2)c2cn[nH]c12
REMARK SMILES IDX 4 1 5 2 6 3 7 4 18 5 19 6 20 7 21 8 22 9 2 11 1 12 3 13 8 14
REMARK SMILES IDX 9 15 17 16 10 17 13 18 11 19 14 20 15 21 16 22 12 23
REMARK H PARENT 21 10 12 24
ROOT
ATOM      1  C   UNL     1       1.792   0.630  -2.181  1.00  0.00     0.043 A 
ATOM      2  C   UNL     1       1.702   1.838  -1.454  1.00  0.00     0.015 A 
ATOM      3  C   UNL     1       0.926   1.924  -0.279  1.00  0.00     0.010 A 
ATOM      4  C   UNL     1       0.234   0.798   0.216  1.00  0.00    -0.007 A 
ATOM      5  C   UNL     1       0.351  -0.391  -0.516  1.00  0.00     0.028 A 
ATOM      6  C   UNL     1      -0.177  -1.653  -0.328  1.00  0.00     0.144 A 
ATOM      7  N   UNL     1       0.273  -2.457  -1.318  1.00  0.00    -0.183 NA
ATOM      8  N   UNL     1       1.050  -1.742  -2.121  1.00  0.00    -0.277 N 
ATOM      9  C   UNL     1       1.098  -0.477  -1.662  1.00  0.00     0.076 A 
ATOM     10  H   UNL     1       1.544  -2.139  -2.948  1.00  0.00     0.190 HD
ENDROOT
BRANCH   1  11
ATOM     11  C   UNL     1       2.584   0.586  -3.431  1.00  0.00     0.161 C 
ATOM     12  C   UNL     1       2.110  -0.144  -4.649  1.00  0.00     0.093 C 
ATOM     13  O   UNL     1       3.677   1.211  -3.490  1.00  0.00    -0.294 OA
ENDBRANCH   1  11
BRANCH   4  14
ATOM     14  C   UNL     1      -0.563   0.888   1.462  1.00  0.00    -0.017 A 
ATOM     15  C   UNL     1      -1.486   1.927   1.631  1.00  0.00     0.012 A 
ATOM     16  C   UNL     1      -0.383  -0.046   2.495  1.00  0.00     0.022 A 
ATOM     17  C   UNL     1      -2.234   2.022   2.805  1.00  0.00     0.047 A 
ATOM     18  C   UNL     1      -1.130   0.035   3.685  1.00  0.00     0.040 A 
ATOM     19  C   UNL     1      -2.067   1.084   3.833  1.00  0.00     0.124 A 
BRANCH  18  20
ATOM     20  C   UNL     1      -0.911  -0.979   4.749  1.00  0.00     0.075 C 
ATOM     21  O   UNL     1      -1.548  -0.929   5.835  1.00  0.00    -0.545 OA
ATOM     22  O   UNL     1       0.007  -2.006   4.561  1.00  0.00    -0.545 OA
ENDBRANCH  18  20
BRANCH  19  23
ATOM     23  O   UNL     1      -2.830   1.200   4.995  1.00  0.00    -0.507 OA
ATOM     24  H   UNL     1      -3.505   1.947   5.116  1.00  0.00     0.293 HD
ENDBRANCH  19  23
ENDBRANCH   4  14
TORSDOF 4


