REMARK SMILES Cc1ccc(-c2ccc([O-])cc2)c2cn(C(=O)NC3(C(F)(F)F)CC3)nc12
REMARK SMILES IDX 16 1 17 2 18 3 15 5 2 6 3 7 27 8 4 9 26 10 13 11 5 12 14 13
REMARK SMILES IDX 1 14 6 15 7 16 12 17 8 18 11 19 9 20 10 21 19 22 24 23 25 24
REMARK SMILES IDX 20 25 21 26 22 27 23 28
REMARK H PARENT 18 4
ROOT
ATOM      1  C   UNL     1      -2.267   0.207   0.362  1.00  0.00     0.342 C 
ATOM      2  O   UNL     1      -3.160   0.601   1.160  1.00  0.00    -0.246 OA
ATOM      3  N   UNL     1      -2.634  -0.241  -0.953  1.00  0.00    -0.322 N 
ATOM      4  H   UNL     1      -1.924  -0.693  -1.569  1.00  0.00     0.166 HD
ENDROOT
BRANCH   1   5
ATOM      5  N   UNL     1      -0.896   0.210   0.789  1.00  0.00    -0.189 N 
ATOM      6  C   UNL     1       1.650   0.643   3.167  1.00  0.00    -0.023 A 
ATOM      7  C   UNL     1       3.040   0.542   2.950  1.00  0.00     0.006 A 
ATOM      8  C   UNL     1       0.812   0.408   2.074  1.00  0.00     0.096 A 
ATOM      9  C   UNL     1       3.550   0.235   1.669  1.00  0.00     0.010 A 
ATOM     10  N   UNL     1      -0.532   0.469   2.041  1.00  0.00    -0.164 NA
ATOM     11  C   UNL     1       1.306   0.103   0.832  1.00  0.00     0.029 A 
ATOM     12  C   UNL     1       2.681   0.004   0.579  1.00  0.00    -0.007 A 
ATOM     13  C   UNL     1       0.198  -0.009   0.019  1.00  0.00     0.129 A 
ATOM     14  C   UNL     1       1.091   0.948   4.525  1.00  0.00     0.047 C 
BRANCH  12  15
ATOM     15  C   UNL     1       3.218  -0.330  -0.761  1.00  0.00    -0.018 A 
ATOM     16  C   UNL     1       2.710  -1.423  -1.484  1.00  0.00     0.008 A 
ATOM     17  C   UNL     1       4.264   0.430  -1.314  1.00  0.00     0.008 A 
ATOM     18  C   UNL     1       3.227  -1.738  -2.744  1.00  0.00    -0.008 A 
ATOM     19  C   UNL     1       4.778   0.112  -2.575  1.00  0.00    -0.008 A 
ATOM     20  C   UNL     1       4.260  -0.971  -3.291  1.00  0.00    -0.109 A 
ATOM     21  O   UNL     1       4.772  -1.285  -4.543  1.00  0.00    -0.872 OA
ENDBRANCH  12  15
ENDBRANCH   1   5
BRANCH   3  22
ATOM     22  C   UNL     1      -4.020  -0.226  -1.419  1.00  0.00     0.137 C 
ATOM     23  C   UNL     1      -4.641   1.154  -1.580  1.00  0.00     0.041 C 
ATOM     24  C   UNL     1      -4.188   0.370  -2.809  1.00  0.00     0.041 C 
BRANCH  22  25
ATOM     25  C   UNL     1      -4.906  -1.425  -1.050  1.00  0.00     0.411 C 
ATOM     26  F   UNL     1      -6.187  -1.292  -1.558  1.00  0.00    -0.168 F 
ATOM     27  F   UNL     1      -4.985  -1.534   0.326  1.00  0.00    -0.168 F 
ATOM     28  F   UNL     1      -4.342  -2.580  -1.558  1.00  0.00    -0.168 F 
ENDBRANCH  22  25
ENDBRANCH   3  22
TORSDOF 4


