MODEL 1
REMARK VINA RESULT:      -8.3      0.000      0.000
REMARK SMILES CC(=O)N1C[NH2+]C[C@H](F)[C@H]1c1cc2ccc(F)cc2[nH]1
REMARK SMILES IDX 4 1 5 2 6 3 7 4 8 5 9 6 10 7 2 10 1 11 3 12 11 13 12 14
REMARK SMILES IDX 20 15 13 16 19 17 14 18 18 19 15 20 16 21 17 23
REMARK H PARENT 6 8 6 9 20 22
ROOT
ATOM      1  N   UNL     1      43.420 131.627  19.644  1.00  0.00    -0.284 N 
ATOM      2  C   UNL     1      42.831 131.612  20.993  1.00  0.00     0.391 C 
ATOM      3  N   UNL     1      43.599 130.749  21.899  1.00  0.00    -0.327 N 
ATOM      4  C   UNL     1      45.006 131.162  21.946  1.00  0.00     0.302 C 
ATOM      5  C   UNL     1      45.648 131.010  20.568  1.00  0.00     0.250 C 
ATOM      6  F   UNL     1      46.965 131.435  20.627  1.00  0.00    -0.238 F 
ATOM      7  C   UNL     1      44.881 131.828  19.514  1.00  0.00     0.177 C 
ATOM      8  H   UNL     1      43.527 129.753  21.584  1.00  0.00     0.347 HD
ATOM      9  H   UNL     1      43.194 130.824  22.861  1.00  0.00     0.347 HD
ENDROOT
BRANCH   1  10
ATOM     10  C   UNL     1      42.519 131.932  18.557  1.00  0.00     0.224 C 
ATOM     11  C   UNL     1      41.308 132.793  18.752  1.00  0.00     0.114 C 
ATOM     12  O   UNL     1      42.753 131.466  17.409  1.00  0.00    -0.275 OA
ENDBRANCH   1  10
BRANCH   7  13
ATOM     13  C   UNL     1      45.380 131.427  18.147  1.00  0.00     0.042 A 
ATOM     14  C   UNL     1      45.802 130.147  17.793  1.00  0.00     0.034 A 
ATOM     15  N   UNL     1      45.433 132.267  17.085  1.00  0.00    -0.356 N 
ATOM     16  C   UNL     1      46.135 130.240  16.460  1.00  0.00    -0.000 A 
ATOM     17  C   UNL     1      45.901 131.531  16.064  1.00  0.00     0.049 A 
ATOM     18  C   UNL     1      46.622 129.277  15.579  1.00  0.00     0.013 A 
ATOM     19  C   UNL     1      46.139 131.950  14.756  1.00  0.00     0.065 A 
ATOM     20  C   UNL     1      46.874 129.670  14.252  1.00  0.00     0.040 A 
ATOM     21  C   UNL     1      46.633 131.002  13.841  1.00  0.00     0.125 A 
ATOM     22  H   UNL     1      45.166 133.277  17.065  1.00  0.00     0.166 HD
ATOM     23  F   UNL     1      46.878 131.367  12.559  1.00  0.00    -0.207 F 
ENDBRANCH   7  13
TORSDOF 2
ENDMDL
MODEL 2
REMARK VINA RESULT:      -7.6      0.873      1.459
REMARK SMILES CC(=O)N1C[NH2+]C[C@H](F)[C@H]1c1cc2ccc(F)cc2[nH]1
REMARK SMILES IDX 4 1 5 2 6 3 7 4 8 5 9 6 10 7 2 10 1 11 3 12 11 13 12 14
REMARK SMILES IDX 20 15 13 16 19 17 14 18 18 19 15 20 16 21 17 23
REMARK H PARENT 6 8 6 9 20 22
ROOT
ATOM      1  N   UNL     1      43.425 131.538  19.765  1.00  0.00    -0.284 N 
ATOM      2  C   UNL     1      42.852 131.444  21.118  1.00  0.00     0.391 C 
ATOM      3  N   UNL     1      43.633 130.534  21.964  1.00  0.00    -0.327 N 
ATOM      4  C   UNL     1      45.040 130.949  22.019  1.00  0.00     0.302 C 
ATOM      5  C   UNL     1      45.666 130.878  20.627  1.00  0.00     0.250 C 
ATOM      6  F   UNL     1      46.982 131.304  20.695  1.00  0.00    -0.238 F 
ATOM      7  C   UNL     1      44.884 131.752  19.630  1.00  0.00     0.177 C 
ATOM      8  H   UNL     1      43.561 129.557  21.594  1.00  0.00     0.347 HD
ATOM      9  H   UNL     1      43.239 130.552  22.934  1.00  0.00     0.347 HD
ENDROOT
BRANCH   1  10
ATOM     10  C   UNL     1      42.511 131.901  18.707  1.00  0.00     0.224 C 
ATOM     11  C   UNL     1      41.359 132.830  18.943  1.00  0.00     0.114 C 
ATOM     12  O   UNL     1      42.681 131.428  17.551  1.00  0.00    -0.275 OA
ENDBRANCH   1  10
BRANCH   7  13
ATOM     13  C   UNL     1      45.368 131.431  18.236  1.00  0.00     0.042 A 
ATOM     14  C   UNL     1      45.371 132.324  17.166  1.00  0.00     0.034 A 
ATOM     15  N   UNL     1      45.899 130.238  17.876  1.00  0.00    -0.356 N 
ATOM     16  C   UNL     1      45.918 131.618  16.118  1.00  0.00    -0.000 A 
ATOM     17  C   UNL     1      46.226 130.364  16.580  1.00  0.00     0.049 A 
ATOM     18  C   UNL     1      46.164 131.997  14.800  1.00  0.00     0.013 A 
ATOM     19  C   UNL     1      46.801 129.400  15.754  1.00  0.00     0.065 A 
ATOM     20  C   UNL     1      46.744 131.045  13.941  1.00  0.00     0.040 A 
ATOM     21  C   UNL     1      47.062 129.751  14.416  1.00  0.00     0.125 A 
ATOM     22  H   UNL     1      46.028 129.396  18.481  1.00  0.00     0.166 HD
ATOM     23  F   UNL     1      47.621 128.845  13.578  1.00  0.00    -0.207 F 
ENDBRANCH   7  13
TORSDOF 2
ENDMDL
MODEL 3
REMARK VINA RESULT:      -7.3      1.026      1.058
REMARK SMILES CC(=O)N1C[NH2+]C[C@H](F)[C@H]1c1cc2ccc(F)cc2[nH]1
REMARK SMILES IDX 4 1 5 2 6 3 7 4 8 5 9 6 10 7 2 10 1 11 3 12 11 13 12 14
REMARK SMILES IDX 20 15 13 16 19 17 14 18 18 19 15 20 16 21 17 23
REMARK H PARENT 6 8 6 9 20 22
ROOT
ATOM      1  N   UNL     1      43.079 131.877  20.321  1.00  0.00    -0.284 N 
ATOM      2  C   UNL     1      42.568 131.927  21.701  1.00  0.00     0.391 C 
ATOM      3  N   UNL     1      43.406 131.134  22.608  1.00  0.00    -0.327 N 
ATOM      4  C   UNL     1      44.803 131.578  22.551  1.00  0.00     0.302 C 
ATOM      5  C   UNL     1      45.370 131.361  21.150  1.00  0.00     0.250 C 
ATOM      6  F   UNL     1      46.677 131.816  21.108  1.00  0.00    -0.238 F 
ATOM      7  C   UNL     1      44.526 132.101  20.096  1.00  0.00     0.177 C 
ATOM      8  H   UNL     1      43.341 130.120  22.354  1.00  0.00     0.347 HD
ATOM      9  H   UNL     1      43.054 131.256  23.586  1.00  0.00     0.347 HD
ENDROOT
BRANCH   1  10
ATOM     10  C   UNL     1      42.112 132.100  19.272  1.00  0.00     0.224 C 
ATOM     11  C   UNL     1      41.451 130.963  18.553  1.00  0.00     0.114 C 
ATOM     12  O   UNL     1      41.810 133.280  18.947  1.00  0.00    -0.275 OA
ENDBRANCH   1  10
BRANCH   7  13
ATOM     13  C   UNL     1      44.957 131.632  18.728  1.00  0.00     0.042 A 
ATOM     14  C   UNL     1      45.595 130.422  18.461  1.00  0.00     0.034 A 
ATOM     15  N   UNL     1      44.730 132.325  17.585  1.00  0.00    -0.356 N 
ATOM     16  C   UNL     1      45.766 130.407  17.095  1.00  0.00    -0.000 A 
ATOM     17  C   UNL     1      45.234 131.568  16.597  1.00  0.00     0.049 A 
ATOM     18  C   UNL     1      46.350 129.451  16.265  1.00  0.00     0.013 A 
ATOM     19  C   UNL     1      45.249 131.856  15.234  1.00  0.00     0.065 A 
ATOM     20  C   UNL     1      46.381 129.714  14.883  1.00  0.00     0.040 A 
ATOM     21  C   UNL     1      45.833 130.911  14.368  1.00  0.00     0.125 A 
ATOM     22  H   UNL     1      44.262 133.254  17.493  1.00  0.00     0.166 HD
ATOM     23  F   UNL     1      45.869 131.150  13.035  1.00  0.00    -0.207 F 
ENDBRANCH   7  13
TORSDOF 2
ENDMDL
MODEL 4
REMARK VINA RESULT:      -6.8      1.387      1.766
REMARK SMILES CC(=O)N1C[NH2+]C[C@H](F)[C@H]1c1cc2ccc(F)cc2[nH]1
REMARK SMILES IDX 4 1 5 2 6 3 7 4 8 5 9 6 10 7 2 10 1 11 3 12 11 13 12 14
REMARK SMILES IDX 20 15 13 16 19 17 14 18 18 19 15 20 16 21 17 23
REMARK H PARENT 6 8 6 9 20 22
ROOT
ATOM      1  N   UNL     1      43.163 131.585  20.493  1.00  0.00    -0.284 N 
ATOM      2  C   UNL     1      42.721 131.436  21.890  1.00  0.00     0.391 C 
ATOM      3  N   UNL     1      43.343 130.268  22.523  1.00  0.00    -0.327 N 
ATOM      4  C   UNL     1      44.806 130.346  22.443  1.00  0.00     0.302 C 
ATOM      5  C   UNL     1      45.257 130.329  20.984  1.00  0.00     0.250 C 
ATOM      6  F   UNL     1      46.636 130.437  20.929  1.00  0.00    -0.238 F 
ATOM      7  C   UNL     1      44.611 131.484  20.197  1.00  0.00     0.177 C 
ATOM      8  H   UNL     1      43.005 129.392  22.059  1.00  0.00     0.347 HD
ATOM      9  H   UNL     1      43.062 130.240  23.531  1.00  0.00     0.347 HD
ENDROOT
BRANCH   1  10
ATOM     10  C   UNL     1      42.262 132.285  19.608  1.00  0.00     0.224 C 
ATOM     11  C   UNL     1      41.539 131.581  18.499  1.00  0.00     0.114 C 
ATOM     12  O   UNL     1      42.073 133.521  19.766  1.00  0.00    -0.275 OA
ENDBRANCH   1  10
BRANCH   7  13
ATOM     13  C   UNL     1      44.865 131.257  18.727  1.00  0.00     0.042 A 
ATOM     14  C   UNL     1      44.185 131.896  17.690  1.00  0.00     0.034 A 
ATOM     15  N   UNL     1      45.822 130.430  18.243  1.00  0.00    -0.356 N 
ATOM     16  C   UNL     1      44.761 131.410  16.538  1.00  0.00    -0.000 A 
ATOM     17  C   UNL     1      45.744 130.528  16.906  1.00  0.00     0.049 A 
ATOM     18  C   UNL     1      44.485 131.687  15.200  1.00  0.00     0.013 A 
ATOM     19  C   UNL     1      46.521 129.861  15.961  1.00  0.00     0.065 A 
ATOM     20  C   UNL     1      45.252 131.028  14.222  1.00  0.00     0.040 A 
ATOM     21  C   UNL     1      46.267 130.118  14.600  1.00  0.00     0.125 A 
ATOM     22  H   UNL     1      46.483 129.838  18.795  1.00  0.00     0.166 HD
ATOM     23  F   UNL     1      46.998 129.491  13.648  1.00  0.00    -0.207 F 
ENDBRANCH   7  13
TORSDOF 2
ENDMDL
MODEL 5
REMARK VINA RESULT:      -6.5      2.116      3.139
REMARK SMILES CC(=O)N1C[NH2+]C[C@H](F)[C@H]1c1cc2ccc(F)cc2[nH]1
REMARK SMILES IDX 4 1 5 2 6 3 7 4 8 5 9 6 10 7 2 10 1 11 3 12 11 13 12 14
REMARK SMILES IDX 20 15 13 16 19 17 14 18 18 19 15 20 16 21 17 23
REMARK H PARENT 6 8 6 9 20 22
ROOT
ATOM      1  N   UNL     1      44.414 131.571  19.981  1.00  0.00    -0.284 N 
ATOM      2  C   UNL     1      43.643 132.075  21.129  1.00  0.00     0.391 C 
ATOM      3  N   UNL     1      42.631 133.049  20.703  1.00  0.00    -0.327 N 
ATOM      4  C   UNL     1      41.743 132.471  19.689  1.00  0.00     0.302 C 
ATOM      5  C   UNL     1      42.537 132.108  18.436  1.00  0.00     0.250 C 
ATOM      6  F   UNL     1      41.687 131.535  17.505  1.00  0.00    -0.238 F 
ATOM      7  C   UNL     1      43.677 131.131  18.774  1.00  0.00     0.177 C 
ATOM      8  H   UNL     1      43.101 133.904  20.323  1.00  0.00     0.347 HD
ATOM      9  H   UNL     1      42.058 133.327  21.534  1.00  0.00     0.347 HD
ENDROOT
BRANCH   1  10
ATOM     10  C   UNL     1      45.744 131.087  20.267  1.00  0.00     0.224 C 
ATOM     11  C   UNL     1      46.817 131.990  20.797  1.00  0.00     0.114 C 
ATOM     12  O   UNL     1      46.019 129.873  20.069  1.00  0.00    -0.275 OA
ENDBRANCH   1  10
BRANCH   7  13
ATOM     13  C   UNL     1      44.585 131.027  17.573  1.00  0.00     0.042 A 
ATOM     14  C   UNL     1      44.981 132.098  16.774  1.00  0.00     0.034 A 
ATOM     15  N   UNL     1      45.160 129.872  17.157  1.00  0.00    -0.356 N 
ATOM     16  C   UNL     1      45.818 131.546  15.831  1.00  0.00    -0.000 A 
ATOM     17  C   UNL     1      45.905 130.203  16.090  1.00  0.00     0.049 A 
ATOM     18  C   UNL     1      46.505 132.136  14.772  1.00  0.00     0.013 A 
ATOM     19  C   UNL     1      46.686 129.354  15.307  1.00  0.00     0.065 A 
ATOM     20  C   UNL     1      47.301 131.305  13.962  1.00  0.00     0.040 A 
ATOM     21  C   UNL     1      47.392 129.919  14.228  1.00  0.00     0.125 A 
ATOM     22  H   UNL     1      45.046 128.923  17.578  1.00  0.00     0.166 HD
ATOM     23  F   UNL     1      48.162 129.131  13.441  1.00  0.00    -0.207 F 
ENDBRANCH   7  13
TORSDOF 2
ENDMDL
MODEL 6
REMARK VINA RESULT:      -6.4      1.977      2.823
REMARK SMILES CC(=O)N1C[NH2+]C[C@H](F)[C@H]1c1cc2ccc(F)cc2[nH]1
REMARK SMILES IDX 4 1 5 2 6 3 7 4 8 5 9 6 10 7 2 10 1 11 3 12 11 13 12 14
REMARK SMILES IDX 20 15 13 16 19 17 14 18 18 19 15 20 16 21 17 23
REMARK H PARENT 6 8 6 9 20 22
ROOT
ATOM      1  N   UNL     1      44.312 131.485  20.047  1.00  0.00    -0.284 N 
ATOM      2  C   UNL     1      43.535 132.036  21.169  1.00  0.00     0.391 C 
ATOM      3  N   UNL     1      42.684 133.149  20.731  1.00  0.00    -0.327 N 
ATOM      4  C   UNL     1      41.800 132.733  19.637  1.00  0.00     0.302 C 
ATOM      5  C   UNL     1      42.625 132.323  18.418  1.00  0.00     0.250 C 
ATOM      6  F   UNL     1      41.774 131.903  17.410  1.00  0.00    -0.238 F 
ATOM      7  C   UNL     1      43.608 131.194  18.777  1.00  0.00     0.177 C 
ATOM      8  H   UNL     1      43.283 133.952  20.424  1.00  0.00     0.347 HD
ATOM      9  H   UNL     1      42.096 133.463  21.539  1.00  0.00     0.347 HD
ENDROOT
BRANCH   1  10
ATOM     10  C   UNL     1      45.549 130.823  20.390  1.00  0.00     0.224 C 
ATOM     11  C   UNL     1      45.575 129.421  20.919  1.00  0.00     0.114 C 
ATOM     12  O   UNL     1      46.642 131.434  20.241  1.00  0.00    -0.275 OA
ENDBRANCH   1  10
BRANCH   7  13
ATOM     13  C   UNL     1      44.575 131.024  17.630  1.00  0.00     0.042 A 
ATOM     14  C   UNL     1      45.190 129.825  17.274  1.00  0.00     0.034 A 
ATOM     15  N   UNL     1      44.925 132.021  16.782  1.00  0.00    -0.356 N 
ATOM     16  C   UNL     1      45.952 130.133  16.169  1.00  0.00    -0.000 A 
ATOM     17  C   UNL     1      45.770 131.464  15.899  1.00  0.00     0.049 A 
ATOM     18  C   UNL     1      46.785 129.331  15.391  1.00  0.00     0.013 A 
ATOM     19  C   UNL     1      46.410 132.089  14.829  1.00  0.00     0.065 A 
ATOM     20  C   UNL     1      47.446 129.934  14.304  1.00  0.00     0.040 A 
ATOM     21  C   UNL     1      47.259 131.308  14.024  1.00  0.00     0.125 A 
ATOM     22  H   UNL     1      44.605 133.015  16.809  1.00  0.00     0.166 HD
ATOM     23  F   UNL     1      47.901 131.874  12.974  1.00  0.00    -0.207 F 
ENDBRANCH   7  13
TORSDOF 2
ENDMDL


