REMARK SMILES Cc1cc(F)[nH+]cc1-c1ccc2cc[nH]c2c1
REMARK SMILES IDX 9 1 10 2 11 3 12 4 13 5 14 6 15 7 16 8 17 9 8 11 2 12 3 13
REMARK SMILES IDX 4 14 7 15 6 16 1 17 5 18
REMARK H PARENT 15 10 6 19
ROOT
ATOM      1  C   UNL     1       0.364   0.657   0.438  1.00  0.00    -0.010 A 
ATOM      2  C   UNL     1       1.097   1.396   1.403  1.00  0.00     0.010 A 
ATOM      3  C   UNL     1       2.386   0.990   1.791  1.00  0.00     0.011 A 
ATOM      4  C   UNL     1       2.915  -0.150   1.194  1.00  0.00    -0.001 A 
ATOM      5  C   UNL     1       4.132  -0.773   1.368  1.00  0.00     0.028 A 
ATOM      6  C   UNL     1       4.111  -1.860   0.500  1.00  0.00     0.083 A 
ATOM      7  N   UNL     1       2.942  -1.911  -0.178  1.00  0.00    -0.361 N 
ATOM      8  C   UNL     1       2.221  -0.863   0.254  1.00  0.00     0.046 A 
ATOM      9  C   UNL     1       0.943  -0.488  -0.154  1.00  0.00     0.035 A 
ATOM     10  H   UNL     1       2.661  -2.620  -0.891  1.00  0.00     0.166 HD
ENDROOT
BRANCH   1  11
ATOM     11  C   UNL     1      -0.986   1.106   0.033  1.00  0.00     0.049 A 
ATOM     12  C   UNL     1      -2.131   0.286   0.172  1.00  0.00    -0.028 A 
ATOM     13  C   UNL     1      -3.371   0.764  -0.276  1.00  0.00     0.118 A 
ATOM     14  C   UNL     1      -3.467   2.047  -0.815  1.00  0.00     0.358 A 
ATOM     15  C   UNL     1      -1.141   2.394  -0.504  1.00  0.00     0.317 A 
ATOM     16  N   UNL     1      -2.362   2.833  -0.912  1.00  0.00    -0.186 N 
ATOM     17  C   UNL     1      -2.057  -1.093   0.774  1.00  0.00     0.045 C 
ATOM     18  F   UNL     1      -4.668   2.513  -1.240  1.00  0.00    -0.136 F 
ATOM     19  H   UNL     1      -2.450   3.792  -1.315  1.00  0.00     0.456 HD
ENDBRANCH   1  11
TORSDOF 1


