REMARK SMILES C[C@@H](CC(=O)[O-])/N=C(\O)N(N)c1ccc2cc3ccccc3cc2c1
REMARK SMILES IDX 7 1 8 2 9 3 10 5 12 6 13 7 25 8 14 9 24 10 15 11 23 12 16 13
REMARK SMILES IDX 22 14 17 15 21 16 18 17 20 18 19 19 11 20 2 23 1 24 3 25
REMARK SMILES IDX 4 26 5 27 6 28
REMARK H PARENT 9 4 11 21 11 22
ROOT
ATOM      1  N   UNL     1      -3.370  -0.725  -0.347  1.00  0.00    -0.231 NA
ENDROOT
BRANCH   1   2
ATOM      2  C   UNL     1      -3.418  -2.028  -0.308  1.00  0.00     0.304 C 
BRANCH   2   3
ATOM      3  O   UNL     1      -4.438  -2.751  -0.936  1.00  0.00    -0.480 OA
ATOM      4  H   UNL     1      -5.194  -2.329  -1.456  1.00  0.00     0.297 HD
ENDBRANCH   2   3
BRANCH   2   5
ATOM      5  N   UNL     1      -2.412  -2.755   0.418  1.00  0.00    -0.232 N 
BRANCH   5   6
ATOM      6  C   UNL     1      -1.189  -2.122   0.855  1.00  0.00     0.063 A 
ATOM      7  C   UNL     1      -0.703  -2.338   2.155  1.00  0.00     0.028 A 
ATOM      8  C   UNL     1      -0.455  -1.307  -0.025  1.00  0.00     0.036 A 
ATOM      9  C   UNL     1       0.483  -1.734   2.580  1.00  0.00     0.011 A 
ATOM     10  C   UNL     1       0.735  -0.693   0.393  1.00  0.00    -0.016 A 
ATOM     11  C   UNL     1       1.208  -0.907   1.709  1.00  0.00    -0.018 A 
ATOM     12  C   UNL     1       1.458   0.128  -0.484  1.00  0.00     0.017 A 
ATOM     13  C   UNL     1       2.397  -0.296   2.132  1.00  0.00     0.017 A 
ATOM     14  C   UNL     1       2.648   0.740  -0.062  1.00  0.00    -0.018 A 
ATOM     15  C   UNL     1       3.121   0.527   1.256  1.00  0.00    -0.018 A 
ATOM     16  C   UNL     1       3.375   1.565  -0.935  1.00  0.00     0.009 A 
ATOM     17  C   UNL     1       4.311   1.142   1.674  1.00  0.00     0.009 A 
ATOM     18  C   UNL     1       4.559   2.171  -0.505  1.00  0.00     0.001 A 
ATOM     19  C   UNL     1       5.026   1.960   0.794  1.00  0.00     0.001 A 
ENDBRANCH   5   6
BRANCH   5  20
ATOM     20  N   UNL     1      -2.676  -4.095   0.755  1.00  0.00    -0.239 NA
ATOM     21  H   UNL     1      -1.781  -4.633   0.701  1.00  0.00     0.144 HD
ATOM     22  H   UNL     1      -3.009  -4.114   1.745  1.00  0.00     0.144 HD
ENDBRANCH   5  20
ENDBRANCH   2   5
ENDBRANCH   1   2
BRANCH   1  23
ATOM     23  C   UNL     1      -4.271   0.191  -1.050  1.00  0.00     0.113 C 
ATOM     24  C   UNL     1      -4.324   1.504  -0.267  1.00  0.00     0.034 C 
BRANCH  23  25
ATOM     25  C   UNL     1      -3.760   0.461  -2.478  1.00  0.00     0.079 C 
BRANCH  25  26
ATOM     26  C   UNL     1      -3.833  -0.758  -3.345  1.00  0.00     0.044 C 
ATOM     27  O   UNL     1      -2.823  -1.495  -3.490  1.00  0.00    -0.550 OA
ATOM     28  O   UNL     1      -5.028  -1.096  -3.968  1.00  0.00    -0.550 OA
ENDBRANCH  25  26
ENDBRANCH  23  25
ENDBRANCH   1  23
TORSDOF 8


