REMARK SMILES C=Cc1cc(-c2ccc3cc[nH]c3c2)cc([O-])c1F
REMARK SMILES IDX 3 1 4 2 5 3 15 4 16 5 17 6 18 7 19 8 2 9 1 10 6 11 7 12
REMARK SMILES IDX 14 13 8 14 13 15 9 16 12 17 10 18 11 19
REMARK H PARENT 12 20
ROOT
ATOM      1  C   UNL     1       3.005   0.039  -1.304  1.00  0.00     0.010 A 
ATOM      2  C   UNL     1       1.724   0.403  -0.842  1.00  0.00     0.019 A 
ATOM      3  C   UNL     1       0.705  -0.558  -0.708  1.00  0.00    -0.018 A 
ATOM      4  C   UNL     1       0.982  -1.896  -1.031  1.00  0.00     0.003 A 
ATOM      5  C   UNL     1       2.252  -2.269  -1.474  1.00  0.00    -0.071 A 
ATOM      6  O   UNL     1       2.511  -3.598  -1.787  1.00  0.00    -0.870 OA
ATOM      7  C   UNL     1       3.262  -1.311  -1.605  1.00  0.00     0.122 A 
ATOM      8  F   UNL     1       4.488  -1.698  -2.043  1.00  0.00    -0.207 F 
ENDROOT
BRANCH   1   9
ATOM      9  C   UNL     1       4.102   1.031  -1.442  1.00  0.00     0.003 C 
ATOM     10  C   UNL     1       3.904   2.341  -1.597  1.00  0.00     0.009 C 
ENDBRANCH   1   9
BRANCH   3  11
ATOM     11  C   UNL     1      -0.643  -0.164  -0.225  1.00  0.00    -0.016 A 
ATOM     12  C   UNL     1      -1.242   1.045  -0.674  1.00  0.00     0.009 A 
ATOM     13  C   UNL     1      -1.345  -0.989   0.687  1.00  0.00     0.035 A 
ATOM     14  C   UNL     1      -2.518   1.429  -0.223  1.00  0.00     0.011 A 
ATOM     15  C   UNL     1      -2.606  -0.578   1.112  1.00  0.00     0.046 A 
ATOM     16  C   UNL     1      -3.171   0.588   0.673  1.00  0.00    -0.001 A 
ATOM     17  N   UNL     1      -3.425  -1.210   1.969  1.00  0.00    -0.361 N 
ATOM     18  C   UNL     1      -4.404   0.703   1.276  1.00  0.00     0.028 A 
ATOM     19  C   UNL     1      -4.526  -0.431   2.072  1.00  0.00     0.083 A 
ATOM     20  H   UNL     1      -3.250  -2.116   2.458  1.00  0.00     0.166 HD
ENDBRANCH   3  11
TORSDOF 2


