REMARK SMILES O=Cc1c(NC2CC(=O)C2)ccc2cc3ccccc3cc12
REMARK SMILES IDX 3 1 4 2 11 3 12 4 13 5 14 6 15 7 16 8 17 9 18 10 19 11 20 12
REMARK SMILES IDX 21 13 22 14 2 15 1 16 5 17 6 19 7 20 10 21 8 22 9 23
REMARK H PARENT 5 18
ROOT
ATOM      1  C   UNL     1      -0.008  -0.089  -0.113  1.00  0.00     0.045 A 
ATOM      2  C   UNL     1       0.085   0.546   1.154  1.00  0.00     0.046 A 
ATOM      3  C   UNL     1       1.190   0.284   1.980  1.00  0.00     0.027 A 
ATOM      4  C   UNL     1       2.208  -0.566   1.564  1.00  0.00     0.011 A 
ATOM      5  C   UNL     1       2.148  -1.186   0.313  1.00  0.00    -0.017 A 
ATOM      6  C   UNL     1       3.188  -2.040  -0.086  1.00  0.00     0.017 A 
ATOM      7  C   UNL     1       3.139  -2.691  -1.323  1.00  0.00    -0.018 A 
ATOM      8  C   UNL     1       4.179  -3.546  -1.722  1.00  0.00     0.009 A 
ATOM      9  C   UNL     1       4.117  -4.198  -2.957  1.00  0.00     0.001 A 
ATOM     10  C   UNL     1       3.020  -4.004  -3.799  1.00  0.00     0.001 A 
ATOM     11  C   UNL     1       1.978  -3.156  -3.412  1.00  0.00     0.009 A 
ATOM     12  C   UNL     1       2.030  -2.493  -2.175  1.00  0.00    -0.018 A 
ATOM     13  C   UNL     1       0.989  -1.639  -1.779  1.00  0.00     0.018 A 
ATOM     14  C   UNL     1       1.036  -0.961  -0.540  1.00  0.00    -0.005 A 
ENDROOT
BRANCH   1  15
ATOM     15  C   UNL     1      -1.196   0.143  -0.969  1.00  0.00     0.262 C 
ATOM     16  O   UNL     1      -2.355   0.158  -0.474  1.00  0.00    -0.298 OA
ENDBRANCH   1  15
BRANCH   2  17
ATOM     17  N   UNL     1      -0.911   1.502   1.575  1.00  0.00    -0.381 N 
ATOM     18  H   UNL     1      -1.401   2.068   0.846  1.00  0.00     0.160 HD
BRANCH  17  19
ATOM     19  C   UNL     1      -1.204   1.784   2.986  1.00  0.00     0.094 C 
ATOM     20  C   UNL     1      -1.761   0.594   3.712  1.00  0.00     0.100 C 
ATOM     21  C   UNL     1      -2.543   2.433   3.196  1.00  0.00     0.100 C 
ATOM     22  C   UNL     1      -3.115   1.241   3.942  1.00  0.00     0.137 C 
ATOM     23  O   UNL     1      -4.169   0.943   4.477  1.00  0.00    -0.300 OA
ENDBRANCH  17  19
ENDBRANCH   2  17
TORSDOF 3


