REMARK SMILES Cc1ccc(N[C@@H]2CCC[C@@H](N)[C@@]2(O)F)cc1
REMARK SMILES IDX 7 1 8 2 9 3 10 4 11 5 13 6 15 7 6 8 5 10 2 11 3 12 17 13
REMARK SMILES IDX 4 14 16 15 1 16 14 17 12 19
REMARK H PARENT 6 9 14 18 12 20 12 21
ROOT
ATOM      1  C   UNL     1       1.593   1.490   0.369  1.00  0.00     0.145 C 
ATOM      2  C   UNL     1       2.267   2.881   0.395  1.00  0.00     0.031 C 
ATOM      3  C   UNL     1       1.612   3.884  -0.567  1.00  0.00     0.004 C 
ATOM      4  C   UNL     1       1.524   3.324  -1.989  1.00  0.00     0.025 C 
ATOM      5  C   UNL     1       0.795   1.965  -2.006  1.00  0.00     0.118 C 
ATOM      6  C   UNL     1       1.505   0.949  -1.084  1.00  0.00     0.242 C 
ATOM      7  F   UNL     1       2.795   0.733  -1.559  1.00  0.00    -0.208 F 
ENDROOT
BRANCH   1   8
ATOM      8  N   UNL     1       0.265   1.543   1.007  1.00  0.00    -0.377 N 
ATOM      9  H   UNL     1      -0.231   2.462   1.036  1.00  0.00     0.161 HD
BRANCH   8  10
ATOM     10  C   UNL     1      -0.453   0.408   1.534  1.00  0.00     0.034 A 
ATOM     11  C   UNL     1      -1.928  -1.764   2.569  1.00  0.00    -0.051 A 
ATOM     12  C   UNL     1      -2.567  -0.554   2.264  1.00  0.00     0.005 A 
ATOM     13  C   UNL     1      -0.543  -1.873   2.386  1.00  0.00     0.005 A 
ATOM     14  C   UNL     1      -1.836   0.519   1.750  1.00  0.00     0.026 A 
ATOM     15  C   UNL     1       0.191  -0.800   1.871  1.00  0.00     0.026 A 
ATOM     16  C   UNL     1      -2.706  -2.903   3.159  1.00  0.00     0.044 C 
ENDBRANCH   8  10
ENDBRANCH   1   8
BRANCH   6  17
ATOM     17  O   UNL     1       0.798  -0.265  -1.115  1.00  0.00    -0.359 OA
ATOM     18  H   UNL     1       1.407  -0.966  -0.767  1.00  0.00     0.214 HD
ENDBRANCH   6  17
BRANCH   5  19
ATOM     19  N   UNL     1       0.710   1.438  -3.371  1.00  0.00    -0.323 NA
ATOM     20  H   UNL     1       1.665   1.411  -3.797  1.00  0.00     0.119 HD
ATOM     21  H   UNL     1       0.133   2.092  -3.947  1.00  0.00     0.119 HD
ENDBRANCH   5  19
TORSDOF 4


