REMARK SMILES O=C1[N-]Cc2[nH+]cc(-c3ccc4[nH]ccc4c3)cc21
REMARK SMILES IDX 1 1 2 2 3 3 4 4 5 5 6 6 7 7 8 8 18 9 19 10 9 12 10 13 17 14
REMARK SMILES IDX 11 15 16 16 12 17 15 18 13 19 14 20
REMARK H PARENT 6 11 13 21
ROOT
ATOM      1  O   UNL     1      -2.720   1.150  -4.053  1.00  0.00    -0.315 OA
ATOM      2  C   UNL     1      -2.831   0.132  -3.321  1.00  0.00     0.089 C 
ATOM      3  N   UNL     1      -3.673  -0.976  -3.626  1.00  0.00    -0.641 NA
ATOM      4  C   UNL     1      -3.530  -1.953  -2.540  1.00  0.00    -0.006 C 
ATOM      5  C   UNL     1      -2.548  -1.307  -1.609  1.00  0.00     0.171 A 
ATOM      6  N   UNL     1      -2.077  -1.804  -0.437  1.00  0.00    -0.215 N 
ATOM      7  C   UNL     1      -1.181  -1.077   0.297  1.00  0.00     0.315 A 
ATOM      8  C   UNL     1      -0.736   0.194  -0.151  1.00  0.00     0.046 A 
ATOM      9  C   UNL     1      -1.235   0.695  -1.373  1.00  0.00     0.031 A 
ATOM     10  C   UNL     1      -2.143  -0.087  -2.076  1.00  0.00     0.065 A 
ATOM     11  H   UNL     1      -2.395  -2.739  -0.097  1.00  0.00     0.453 HD
ENDROOT
BRANCH   8  12
ATOM     12  C   UNL     1       0.236   0.982   0.648  1.00  0.00    -0.012 A 
ATOM     13  C   UNL     1       1.271   1.714   0.003  1.00  0.00     0.011 A 
ATOM     14  C   UNL     1       0.141   1.014   2.060  1.00  0.00     0.019 A 
ATOM     15  C   UNL     1       2.196   2.465   0.750  1.00  0.00     0.027 A 
ATOM     16  C   UNL     1       1.074   1.769   2.766  1.00  0.00    -0.000 A 
ATOM     17  C   UNL     1       2.065   2.469   2.136  1.00  0.00     0.045 A 
ATOM     18  C   UNL     1       1.216   1.981   4.120  1.00  0.00     0.028 A 
ATOM     19  N   UNL     1       2.834   3.116   3.027  1.00  0.00    -0.361 N 
ATOM     20  C   UNL     1       2.318   2.821   4.242  1.00  0.00     0.083 A 
ATOM     21  H   UNL     1       3.659   3.724   2.828  1.00  0.00     0.166 HD
ENDBRANCH   8  12
TORSDOF 1


