REMARK SMILES C=C[C@@H]1C[NH2+][C@H](c2ccc3ncnn3c2)N(C(=O)OCCCCCC)C1
REMARK SMILES IDX 20 1 19 2 17 3 18 4 16 5 3 6 4 7 26 8 5 9 6 10 2 13 1 14
REMARK SMILES IDX 7 15 8 16 15 17 9 18 14 19 10 20 13 21 11 22 12 23 21 24
REMARK SMILES IDX 22 25 23 26 24 27 25 28
REMARK H PARENT 5 11 5 12
ROOT
ATOM      1  C   UNL     1       0.310   2.358   2.652  1.00  0.00     0.235 C 
ENDROOT
BRANCH   1   2
ATOM      2  O   UNL     1      -0.401   1.676   1.623  1.00  0.00    -0.449 OA
BRANCH   2   3
ATOM      3  C   UNL     1      -1.751   1.329   1.734  1.00  0.00     0.414 C 
ATOM      4  O   UNL     1      -2.398   1.648   2.770  1.00  0.00    -0.224 OA
BRANCH   3   5
ATOM      5  N   UNL     1      -2.393   0.596   0.670  1.00  0.00    -0.253 N 
ATOM      6  C   UNL     1      -4.560   0.618  -0.502  1.00  0.00     0.086 C 
ATOM      7  C   UNL     1      -3.717   0.423  -1.794  1.00  0.00     0.272 C 
ATOM      8  C   UNL     1      -3.802   0.193   0.769  1.00  0.00     0.143 C 
ATOM      9  N   UNL     1      -2.512  -0.386  -1.557  1.00  0.00    -0.322 N 
ATOM     10  C   UNL     1      -1.636   0.248  -0.550  1.00  0.00     0.323 C 
ATOM     11  H   UNL     1      -2.791  -1.349  -1.255  1.00  0.00     0.348 HD
ATOM     12  H   UNL     1      -1.988  -0.468  -2.460  1.00  0.00     0.348 HD
BRANCH   6  13
ATOM     13  C   UNL     1      -5.907  -0.066  -0.587  1.00  0.00    -0.024 C 
ATOM     14  C   UNL     1      -6.039  -1.387  -0.757  1.00  0.00     0.004 C 
ENDBRANCH   6  13
BRANCH  10  15
ATOM     15  C   UNL     1      -0.472  -0.672  -0.236  1.00  0.00     0.050 A 
ATOM     16  C   UNL     1      -0.598  -1.725   0.706  1.00  0.00     0.017 A 
ATOM     17  C   UNL     1       0.744  -0.532  -0.935  1.00  0.00     0.127 A 
ATOM     18  C   UNL     1       0.483  -2.582   0.968  1.00  0.00     0.050 A 
ATOM     19  N   UNL     1       1.752  -1.392  -0.648  1.00  0.00    -0.221 N 
ATOM     20  C   UNL     1       1.659  -2.370   0.256  1.00  0.00     0.155 A 
ATOM     21  N   UNL     1       2.961  -1.411  -1.172  1.00  0.00    -0.155 NA
ATOM     22  N   UNL     1       2.803  -3.069   0.362  1.00  0.00    -0.215 NA
ATOM     23  C   UNL     1       3.589  -2.435  -0.547  1.00  0.00     0.247 A 
ENDBRANCH  10  15
ENDBRANCH   3   5
ENDBRANCH   2   3
ENDBRANCH   1   2
BRANCH   1  24
ATOM     24  C   UNL     1       1.786   2.474   2.272  1.00  0.00     0.042 C 
BRANCH  24  25
ATOM     25  C   UNL     1       2.451   1.090   2.195  1.00  0.00     0.003 C 
BRANCH  25  26
ATOM     26  C   UNL     1       3.949   1.164   1.864  1.00  0.00    -0.000 C 
BRANCH  26  27
ATOM     27  C   UNL     1       4.216   1.667   0.437  1.00  0.00    -0.003 C 
ATOM     28  C   UNL     1       5.681   1.481   0.053  1.00  0.00     0.004 C 
ENDBRANCH  26  27
ENDBRANCH  25  26
ENDBRANCH  24  25
ENDBRANCH   1  24
TORSDOF 9


