REMARK SMILES [O-]c1ccc(-c2cc3cc(/N=C4/[CH]C=CC4)ncc3nc2Cl)cc1
REMARK SMILES IDX 10 1 17 2 18 3 19 4 20 5 21 6 22 7 6 8 7 9 8 10 9 11 11 12
REMARK SMILES IDX 12 13 13 14 14 15 15 16 16 17 5 18 4 19 23 20 3 21 24 22
REMARK SMILES IDX 2 23 1 24
REMARK H PARENT
ROOT
ATOM      1  C   UNL     1      -0.759   1.545  -0.467  1.00  0.00     0.152 A 
ATOM      2  N   UNL     1      -1.920   0.869  -0.697  1.00  0.00    -0.235 NA
ATOM      3  C   UNL     1      -2.058  -0.453  -0.414  1.00  0.00     0.142 A 
ATOM      4  C   UNL     1      -0.987  -1.164   0.132  1.00  0.00     0.090 A 
ATOM      5  N   UNL     1      -1.107  -2.487   0.415  1.00  0.00    -0.234 NA
ATOM      6  C   UNL     1      -0.085  -3.206   0.951  1.00  0.00     0.137 A 
ATOM      7  Cl  UNL     1      -0.334  -4.926   1.215  1.00  0.00    -0.062 Cl
ATOM      8  C   UNL     1       1.149  -2.578   1.229  1.00  0.00     0.020 A 
ATOM      9  C   UNL     1       1.295  -1.214   0.928  1.00  0.00     0.022 A 
ATOM     10  C   UNL     1       0.226  -0.496   0.381  1.00  0.00     0.006 A 
ATOM     11  C   UNL     1       0.338   0.867   0.079  1.00  0.00     0.059 A 
ENDROOT
BRANCH   1  12
ATOM     12  N   UNL     1      -0.628   2.944  -0.771  1.00  0.00    -0.237 NA
BRANCH  12  13
ATOM     13  C   UNL     1      -1.528   3.739  -1.276  1.00  0.00     0.032 C 
ATOM     14  C   UNL     1      -1.247   5.177  -1.534  1.00  0.00     0.069 C 
ATOM     15  C   UNL     1      -2.548   5.642  -2.091  1.00  0.00    -0.020 C 
ATOM     16  C   UNL     1      -3.453   4.669  -2.154  1.00  0.00    -0.025 C 
ATOM     17  C   UNL     1      -2.926   3.370  -1.653  1.00  0.00     0.079 C 
ENDBRANCH  12  13
ENDBRANCH   1  12
BRANCH   8  18
ATOM     18  C   UNL     1       2.288  -3.315   1.822  1.00  0.00    -0.015 A 
ATOM     19  C   UNL     1       3.537  -3.322   1.178  1.00  0.00     0.008 A 
ATOM     20  C   UNL     1       2.146  -3.981   3.052  1.00  0.00     0.008 A 
ATOM     21  C   UNL     1       4.619  -4.003   1.744  1.00  0.00    -0.008 A 
ATOM     22  C   UNL     1       3.230  -4.660   3.615  1.00  0.00    -0.008 A 
ATOM     23  C   UNL     1       4.466  -4.673   2.962  1.00  0.00    -0.109 A 
ATOM     24  O   UNL     1       5.542  -5.349   3.523  1.00  0.00    -0.872 OA
ENDBRANCH   8  18
TORSDOF 3


