REMARK SMILES Nc1cc(F)c(CCC(=O)c2ccccc2)c(F)c1C1CC1
REMARK SMILES IDX 7 1 6 2 2 3 3 4 19 5 4 6 17 7 5 8 18 9 1 10 20 13 21 14
REMARK SMILES IDX 22 15 8 16 9 17 10 18 11 19 12 20 16 21 13 22 15 23 14 24
REMARK H PARENT 1 11 1 12
ROOT
ATOM      1  C   UNL     1       2.661  -2.308  -0.115  1.00  0.00     0.050 C 
ENDROOT
BRANCH   1   2
ATOM      2  C   UNL     1       1.560  -1.963   0.859  1.00  0.00     0.024 A 
ATOM      3  C   UNL     1      -0.470  -1.206   2.664  1.00  0.00     0.041 A 
ATOM      4  C   UNL     1       0.868  -1.257   3.076  1.00  0.00     0.065 A 
ATOM      5  C   UNL     1      -0.798  -1.496   1.318  1.00  0.00     0.014 A 
ATOM      6  C   UNL     1       1.876  -1.621   2.183  1.00  0.00     0.131 A 
ATOM      7  C   UNL     1       0.218  -1.918   0.437  1.00  0.00     0.134 A 
ATOM      8  F   UNL     1       3.163  -1.637   2.613  1.00  0.00    -0.207 F 
ATOM      9  F   UNL     1      -0.096  -2.274  -0.836  1.00  0.00    -0.206 F 
BRANCH   3  10
ATOM     10  N   UNL     1      -1.478  -0.877   3.630  1.00  0.00    -0.398 N 
ATOM     11  H   UNL     1      -1.212  -0.610   4.604  1.00  0.00     0.156 HD
ATOM     12  H   UNL     1      -2.497  -0.953   3.417  1.00  0.00     0.156 HD
ENDBRANCH   3  10
BRANCH   5  13
ATOM     13  C   UNL     1      -2.229  -1.427   0.834  1.00  0.00     0.024 C 
ATOM     14  C   UNL     1      -2.468  -0.639  -0.451  1.00  0.00     0.009 C 
ATOM     15  C   UNL     1      -2.851  -0.035   0.883  1.00  0.00     0.009 C 
ENDBRANCH   5  13
ENDBRANCH   1   2
BRANCH   1  16
ATOM     16  C   UNL     1       3.317  -1.052  -0.712  1.00  0.00     0.086 C 
BRANCH  16  17
ATOM     17  C   UNL     1       2.396  -0.332  -1.667  1.00  0.00     0.163 C 
ATOM     18  O   UNL     1       2.390  -0.717  -2.868  1.00  0.00    -0.294 OA
BRANCH  17  19
ATOM     19  C   UNL     1       1.472   0.766  -1.253  1.00  0.00     0.017 A 
ATOM     20  C   UNL     1       0.590   1.325  -2.202  1.00  0.00     0.012 A 
ATOM     21  C   UNL     1       1.433   1.261   0.068  1.00  0.00     0.012 A 
ATOM     22  C   UNL     1      -0.308   2.333  -1.837  1.00  0.00     0.001 A 
ATOM     23  C   UNL     1       0.526   2.263   0.428  1.00  0.00     0.001 A 
ATOM     24  C   UNL     1      -0.343   2.797  -0.522  1.00  0.00     0.000 A 
ENDBRANCH  17  19
ENDBRANCH  16  17
ENDBRANCH   1  16
TORSDOF 6


