MODEL 1
REMARK VINA RESULT:      -6.5      0.000      0.000
REMARK SMILES C=C[C@H]1CCC[C@@H](c2ccc(C(C)=O)cc2)C1=C
REMARK SMILES IDX 3 1 4 2 5 3 6 4 7 5 17 6 18 7 2 8 1 9 8 10 9 11 16 12 10 13
REMARK SMILES IDX 15 14 11 15 12 16 13 17 14 18
REMARK H PARENT
ROOT
ATOM      1  C   UNL     1      44.139 131.352  22.257  1.00  0.00     0.037 C 
ATOM      2  C   UNL     1      43.825 129.867  22.532  1.00  0.00     0.012 C 
ATOM      3  C   UNL     1      45.025 128.970  22.252  1.00  0.00     0.002 C 
ATOM      4  C   UNL     1      45.348 129.031  20.764  1.00  0.00     0.013 C 
ATOM      5  C   UNL     1      45.777 130.447  20.326  1.00  0.00     0.045 C 
ATOM      6  C   UNL     1      45.100 131.587  21.091  1.00  0.00    -0.063 C 
ATOM      7  C   UNL     1      45.495 132.848  20.832  1.00  0.00     0.009 C 
ENDROOT
BRANCH   1   8
ATOM      8  C   UNL     1      42.848 132.111  22.045  1.00  0.00    -0.027 C 
ATOM      9  C   UNL     1      42.345 132.310  20.823  1.00  0.00     0.004 C 
ENDBRANCH   1   8
BRANCH   5  10
ATOM     10  C   UNL     1      45.582 130.599  18.828  1.00  0.00    -0.041 A 
ATOM     11  C   UNL     1      44.622 131.491  18.326  1.00  0.00     0.005 A 
ATOM     12  C   UNL     1      46.381 129.877  17.925  1.00  0.00     0.005 A 
ATOM     13  C   UNL     1      44.449 131.644  16.947  1.00  0.00     0.012 A 
ATOM     14  C   UNL     1      46.208 130.030  16.547  1.00  0.00     0.012 A 
ATOM     15  C   UNL     1      45.239 130.915  16.038  1.00  0.00     0.017 A 
BRANCH  15  16
ATOM     16  C   UNL     1      45.067 131.066  14.568  1.00  0.00     0.159 C 
ATOM     17  C   UNL     1      46.214 130.907  13.615  1.00  0.00     0.093 C 
ATOM     18  O   UNL     1      43.929 131.337  14.096  1.00  0.00    -0.295 OA
ENDBRANCH  15  16
ENDBRANCH   5  10
TORSDOF 3
ENDMDL
MODEL 2
REMARK VINA RESULT:      -6.4      1.912      3.334
REMARK SMILES C=C[C@H]1CCC[C@@H](c2ccc(C(C)=O)cc2)C1=C
REMARK SMILES IDX 3 1 4 2 5 3 6 4 7 5 17 6 18 7 2 8 1 9 8 10 9 11 16 12 10 13
REMARK SMILES IDX 15 14 11 15 12 16 13 17 14 18
REMARK H PARENT
ROOT
ATOM      1  C   UNL     1      44.475 132.071  20.220  1.00  0.00     0.037 C 
ATOM      2  C   UNL     1      43.304 132.956  19.747  1.00  0.00     0.012 C 
ATOM      3  C   UNL     1      42.283 132.166  18.936  1.00  0.00     0.002 C 
ATOM      4  C   UNL     1      42.946 131.679  17.654  1.00  0.00     0.013 C 
ATOM      5  C   UNL     1      44.101 130.696  17.939  1.00  0.00     0.045 C 
ATOM      6  C   UNL     1      44.867 130.968  19.236  1.00  0.00    -0.063 C 
ATOM      7  C   UNL     1      45.826 130.096  19.603  1.00  0.00     0.009 C 
ENDROOT
BRANCH   1   8
ATOM      8  C   UNL     1      45.666 132.942  20.548  1.00  0.00    -0.027 C 
ATOM      9  C   UNL     1      46.459 132.680  21.591  1.00  0.00     0.004 C 
ENDBRANCH   1   8
BRANCH   5  10
ATOM     10  C   UNL     1      45.038 130.648  16.747  1.00  0.00    -0.041 A 
ATOM     11  C   UNL     1      45.328 129.424  16.122  1.00  0.00     0.005 A 
ATOM     12  C   UNL     1      45.602 131.827  16.231  1.00  0.00     0.005 A 
ATOM     13  C   UNL     1      46.180 129.378  15.015  1.00  0.00     0.012 A 
ATOM     14  C   UNL     1      46.453 131.781  15.125  1.00  0.00     0.012 A 
ATOM     15  C   UNL     1      46.756 130.556  14.502  1.00  0.00     0.017 A 
BRANCH  15  16
ATOM     16  C   UNL     1      47.665 130.523  13.324  1.00  0.00     0.159 C 
ATOM     17  C   UNL     1      48.749 129.497  13.188  1.00  0.00     0.093 C 
ATOM     18  O   UNL     1      47.531 131.378  12.406  1.00  0.00    -0.295 OA
ENDBRANCH  15  16
ENDBRANCH   5  10
TORSDOF 3
ENDMDL
MODEL 3
REMARK VINA RESULT:      -6.3      0.619      1.399
REMARK SMILES C=C[C@H]1CCC[C@@H](c2ccc(C(C)=O)cc2)C1=C
REMARK SMILES IDX 3 1 4 2 5 3 6 4 7 5 17 6 18 7 2 8 1 9 8 10 9 11 16 12 10 13
REMARK SMILES IDX 15 14 11 15 12 16 13 17 14 18
REMARK H PARENT
ROOT
ATOM      1  C   UNL     1      44.227 131.343  22.260  1.00  0.00     0.037 C 
ATOM      2  C   UNL     1      43.909 129.856  22.515  1.00  0.00     0.012 C 
ATOM      3  C   UNL     1      45.093 128.955  22.186  1.00  0.00     0.002 C 
ATOM      4  C   UNL     1      45.377 129.042  20.692  1.00  0.00     0.013 C 
ATOM      5  C   UNL     1      45.806 130.463  20.269  1.00  0.00     0.045 C 
ATOM      6  C   UNL     1      45.158 131.593  21.074  1.00  0.00    -0.063 C 
ATOM      7  C   UNL     1      45.556 132.856  20.829  1.00  0.00     0.009 C 
ENDROOT
BRANCH   1   8
ATOM      8  C   UNL     1      42.936 132.115  22.097  1.00  0.00    -0.027 C 
ATOM      9  C   UNL     1      42.317 132.202  20.916  1.00  0.00     0.004 C 
ENDBRANCH   1   8
BRANCH   5  10
ATOM     10  C   UNL     1      45.573 130.646  18.781  1.00  0.00    -0.041 A 
ATOM     11  C   UNL     1      46.306 129.892  17.851  1.00  0.00     0.005 A 
ATOM     12  C   UNL     1      44.600 131.546  18.313  1.00  0.00     0.005 A 
ATOM     13  C   UNL     1      46.084 130.047  16.480  1.00  0.00     0.012 A 
ATOM     14  C   UNL     1      44.378 131.702  16.943  1.00  0.00     0.012 A 
ATOM     15  C   UNL     1      45.118 130.956  16.007  1.00  0.00     0.017 A 
BRANCH  15  16
ATOM     16  C   UNL     1      44.870 131.133  14.550  1.00  0.00     0.159 C 
ATOM     17  C   UNL     1      43.511 131.465  14.011  1.00  0.00     0.093 C 
ATOM     18  O   UNL     1      45.822 131.003  13.733  1.00  0.00    -0.295 OA
ENDBRANCH  15  16
ENDBRANCH   5  10
TORSDOF 3
ENDMDL
MODEL 4
REMARK VINA RESULT:      -6.1      1.902      3.215
REMARK SMILES C=C[C@H]1CCC[C@@H](c2ccc(C(C)=O)cc2)C1=C
REMARK SMILES IDX 3 1 4 2 5 3 6 4 7 5 17 6 18 7 2 8 1 9 8 10 9 11 16 12 10 13
REMARK SMILES IDX 15 14 11 15 12 16 13 17 14 18
REMARK H PARENT
ROOT
ATOM      1  C   UNL     1      44.294 132.044  20.284  1.00  0.00     0.037 C 
ATOM      2  C   UNL     1      43.146 132.954  19.801  1.00  0.00     0.012 C 
ATOM      3  C   UNL     1      42.149 132.200  18.929  1.00  0.00     0.002 C 
ATOM      4  C   UNL     1      42.853 131.751  17.655  1.00  0.00     0.013 C 
ATOM      5  C   UNL     1      43.990 130.750  17.947  1.00  0.00     0.045 C 
ATOM      6  C   UNL     1      44.713 130.972  19.277  1.00  0.00    -0.063 C 
ATOM      7  C   UNL     1      45.652 130.081  19.647  1.00  0.00     0.009 C 
ENDROOT
BRANCH   1   8
ATOM      8  C   UNL     1      45.480 132.895  20.682  1.00  0.00    -0.027 C 
ATOM      9  C   UNL     1      46.598 132.351  21.171  1.00  0.00     0.004 C 
ENDBRANCH   1   8
BRANCH   5  10
ATOM     10  C   UNL     1      44.968 130.734  16.786  1.00  0.00    -0.041 A 
ATOM     11  C   UNL     1      45.513 131.934  16.303  1.00  0.00     0.005 A 
ATOM     12  C   UNL     1      45.367 129.520  16.202  1.00  0.00     0.005 A 
ATOM     13  C   UNL     1      46.425 131.922  15.243  1.00  0.00     0.012 A 
ATOM     14  C   UNL     1      46.278 129.508  15.143  1.00  0.00     0.012 A 
ATOM     15  C   UNL     1      46.820 130.709  14.648  1.00  0.00     0.017 A 
BRANCH  15  16
ATOM     16  C   UNL     1      47.789 130.680  13.519  1.00  0.00     0.159 C 
ATOM     17  C   UNL     1      48.688 129.505  13.276  1.00  0.00     0.093 C 
ATOM     18  O   UNL     1      47.867 131.665  12.736  1.00  0.00    -0.295 OA
ENDBRANCH  15  16
ENDBRANCH   5  10
TORSDOF 3
ENDMDL
MODEL 5
REMARK VINA RESULT:      -5.9      0.783      1.063
REMARK SMILES C=C[C@H]1CCC[C@@H](c2ccc(C(C)=O)cc2)C1=C
REMARK SMILES IDX 3 1 4 2 5 3 6 4 7 5 17 6 18 7 2 8 1 9 8 10 9 11 16 12 10 13
REMARK SMILES IDX 15 14 11 15 12 16 13 17 14 18
REMARK H PARENT
ROOT
ATOM      1  C   UNL     1      44.331 130.982  22.380  1.00  0.00     0.037 C 
ATOM      2  C   UNL     1      44.101 129.468  22.570  1.00  0.00     0.012 C 
ATOM      3  C   UNL     1      45.314 128.649  22.145  1.00  0.00     0.002 C 
ATOM      4  C   UNL     1      45.526 128.826  20.647  1.00  0.00     0.013 C 
ATOM      5  C   UNL     1      45.862 130.287  20.281  1.00  0.00     0.045 C 
ATOM      6  C   UNL     1      45.194 131.340  21.170  1.00  0.00    -0.063 C 
ATOM      7  C   UNL     1      45.515 132.633  20.974  1.00  0.00     0.009 C 
ENDROOT
BRANCH   1   8
ATOM      8  C   UNL     1      42.997 131.691  22.312  1.00  0.00    -0.027 C 
ATOM      9  C   UNL     1      42.397 132.160  23.410  1.00  0.00     0.004 C 
ENDBRANCH   1   8
BRANCH   5  10
ATOM     10  C   UNL     1      45.553 130.531  18.815  1.00  0.00    -0.041 A 
ATOM     11  C   UNL     1      44.557 131.447  18.444  1.00  0.00     0.005 A 
ATOM     12  C   UNL     1      46.281 129.870  17.810  1.00  0.00     0.005 A 
ATOM     13  C   UNL     1      44.279 131.685  17.094  1.00  0.00     0.012 A 
ATOM     14  C   UNL     1      46.003 130.107  16.462  1.00  0.00     0.012 A 
ATOM     15  C   UNL     1      44.998 131.017  16.085  1.00  0.00     0.017 A 
BRANCH  15  16
ATOM     16  C   UNL     1      44.714 131.258  14.644  1.00  0.00     0.159 C 
ATOM     17  C   UNL     1      43.368 131.713  14.166  1.00  0.00     0.093 C 
ATOM     18  O   UNL     1      45.624 131.080  13.789  1.00  0.00    -0.295 OA
ENDBRANCH  15  16
ENDBRANCH   5  10
TORSDOF 3
ENDMDL
MODEL 6
REMARK VINA RESULT:      -5.9      0.627      1.381
REMARK SMILES C=C[C@H]1CCC[C@@H](c2ccc(C(C)=O)cc2)C1=C
REMARK SMILES IDX 3 1 4 2 5 3 6 4 7 5 17 6 18 7 2 8 1 9 8 10 9 11 16 12 10 13
REMARK SMILES IDX 15 14 11 15 12 16 13 17 14 18
REMARK H PARENT
ROOT
ATOM      1  C   UNL     1      44.116 130.923  22.610  1.00  0.00     0.037 C 
ATOM      2  C   UNL     1      43.872 129.406  22.749  1.00  0.00     0.012 C 
ATOM      3  C   UNL     1      45.100 128.593  22.357  1.00  0.00     0.002 C 
ATOM      4  C   UNL     1      45.380 128.809  20.875  1.00  0.00     0.013 C 
ATOM      5  C   UNL     1      45.738 130.278  20.565  1.00  0.00     0.045 C 
ATOM      6  C   UNL     1      45.035 131.309  21.451  1.00  0.00    -0.063 C 
ATOM      7  C   UNL     1      45.369 132.605  21.305  1.00  0.00     0.009 C 
ENDROOT
BRANCH   1   8
ATOM      8  C   UNL     1      42.789 131.640  22.502  1.00  0.00    -0.027 C 
ATOM      9  C   UNL     1      42.225 132.234  23.558  1.00  0.00     0.004 C 
ENDBRANCH   1   8
BRANCH   5  10
ATOM     10  C   UNL     1      45.497 130.562  19.094  1.00  0.00    -0.041 A 
ATOM     11  C   UNL     1      46.327 129.992  18.116  1.00  0.00     0.005 A 
ATOM     12  C   UNL     1      44.421 131.371  18.687  1.00  0.00     0.005 A 
ATOM     13  C   UNL     1      46.100 130.241  16.759  1.00  0.00     0.012 A 
ATOM     14  C   UNL     1      44.194 131.620  17.332  1.00  0.00     0.012 A 
ATOM     15  C   UNL     1      45.030 131.059  16.349  1.00  0.00     0.017 A 
BRANCH  15  16
ATOM     16  C   UNL     1      44.775 131.334  14.909  1.00  0.00     0.159 C 
ATOM     17  C   UNL     1      45.821 131.101  13.859  1.00  0.00     0.093 C 
ATOM     18  O   UNL     1      43.651 131.776  14.545  1.00  0.00    -0.295 OA
ENDBRANCH  15  16
ENDBRANCH   5  10
TORSDOF 3
ENDMDL
MODEL 7
REMARK VINA RESULT:      -5.8      4.294      6.541
REMARK SMILES C=C[C@H]1CCC[C@@H](c2ccc(C(C)=O)cc2)C1=C
REMARK SMILES IDX 3 1 4 2 5 3 6 4 7 5 17 6 18 7 2 8 1 9 8 10 9 11 16 12 10 13
REMARK SMILES IDX 15 14 11 15 12 16 13 17 14 18
REMARK H PARENT
ROOT
ATOM      1  C   UNL     1      43.567 131.567  22.048  1.00  0.00     0.037 C 
ATOM      2  C   UNL     1      42.692 131.891  23.276  1.00  0.00     0.012 C 
ATOM      3  C   UNL     1      43.383 131.518  24.582  1.00  0.00     0.002 C 
ATOM      4  C   UNL     1      43.570 130.007  24.625  1.00  0.00     0.013 C 
ATOM      5  C   UNL     1      44.506 129.510  23.503  1.00  0.00     0.045 C 
ATOM      6  C   UNL     1      44.432 130.316  22.204  1.00  0.00    -0.063 C 
ATOM      7  C   UNL     1      45.289 130.004  21.213  1.00  0.00     0.009 C 
ENDROOT
BRANCH   1   8
ATOM      8  C   UNL     1      42.692 131.461  20.818  1.00  0.00    -0.027 C 
ATOM      9  C   UNL     1      42.636 132.442  19.913  1.00  0.00     0.004 C 
ENDBRANCH   1   8
BRANCH   5  10
ATOM     10  C   UNL     1      44.261 128.034  23.248  1.00  0.00    -0.041 A 
ATOM     11  C   UNL     1      43.029 127.452  23.587  1.00  0.00     0.005 A 
ATOM     12  C   UNL     1      45.247 127.238  22.641  1.00  0.00     0.005 A 
ATOM     13  C   UNL     1      42.794 126.096  23.341  1.00  0.00     0.012 A 
ATOM     14  C   UNL     1      45.013 125.883  22.396  1.00  0.00     0.012 A 
ATOM     15  C   UNL     1      43.784 125.292  22.743  1.00  0.00     0.017 A 
BRANCH  15  16
ATOM     16  C   UNL     1      43.550 123.848  22.475  1.00  0.00     0.159 C 
ATOM     17  C   UNL     1      44.648 122.939  22.009  1.00  0.00     0.093 C 
ATOM     18  O   UNL     1      42.399 123.359  22.641  1.00  0.00    -0.295 OA
ENDBRANCH  15  16
ENDBRANCH   5  10
TORSDOF 3
ENDMDL
MODEL 8
REMARK VINA RESULT:      -5.5      1.970      3.448
REMARK SMILES C=C[C@H]1CCC[C@@H](c2ccc(C(C)=O)cc2)C1=C
REMARK SMILES IDX 3 1 4 2 5 3 6 4 7 5 17 6 18 7 2 8 1 9 8 10 9 11 16 12 10 13
REMARK SMILES IDX 15 14 11 15 12 16 13 17 14 18
REMARK H PARENT
ROOT
ATOM      1  C   UNL     1      42.564 128.751  24.112  1.00  0.00     0.037 C 
ATOM      2  C   UNL     1      43.341 127.422  24.011  1.00  0.00     0.012 C 
ATOM      3  C   UNL     1      44.850 127.643  24.014  1.00  0.00     0.002 C 
ATOM      4  C   UNL     1      45.235 128.417  22.759  1.00  0.00     0.013 C 
ATOM      5  C   UNL     1      44.609 129.827  22.738  1.00  0.00     0.045 C 
ATOM      6  C   UNL     1      43.234 129.928  23.403  1.00  0.00    -0.063 C 
ATOM      7  C   UNL     1      42.668 131.145  23.510  1.00  0.00     0.009 C 
ENDROOT
BRANCH   1   8
ATOM      8  C   UNL     1      41.155 128.552  23.600  1.00  0.00    -0.027 C 
ATOM      9  C   UNL     1      40.499 127.402  23.785  1.00  0.00     0.004 C 
ENDBRANCH   1   8
BRANCH   5  10
ATOM     10  C   UNL     1      44.568 130.346  21.312  1.00  0.00    -0.041 A 
ATOM     11  C   UNL     1      45.629 130.084  20.432  1.00  0.00     0.005 A 
ATOM     12  C   UNL     1      43.456 131.067  20.843  1.00  0.00     0.005 A 
ATOM     13  C   UNL     1      45.589 130.548  19.114  1.00  0.00     0.012 A 
ATOM     14  C   UNL     1      43.415 131.531  19.527  1.00  0.00     0.012 A 
ATOM     15  C   UNL     1      44.481 131.279  18.643  1.00  0.00     0.017 A 
BRANCH  15  16
ATOM     16  C   UNL     1      44.423 131.781  17.244  1.00  0.00     0.159 C 
ATOM     17  C   UNL     1      45.662 132.128  16.474  1.00  0.00     0.093 C 
ATOM     18  O   UNL     1      43.306 131.924  16.676  1.00  0.00    -0.295 OA
ENDBRANCH  15  16
ENDBRANCH   5  10
TORSDOF 3
ENDMDL
MODEL 9
REMARK VINA RESULT:      -5.3      1.419      2.227
REMARK SMILES C=C[C@H]1CCC[C@@H](c2ccc(C(C)=O)cc2)C1=C
REMARK SMILES IDX 3 1 4 2 5 3 6 4 7 5 17 6 18 7 2 8 1 9 8 10 9 11 16 12 10 13
REMARK SMILES IDX 15 14 11 15 12 16 13 17 14 18
REMARK H PARENT
ROOT
ATOM      1  C   UNL     1      43.156 131.337  22.328  1.00  0.00     0.037 C 
ATOM      2  C   UNL     1      44.509 131.305  23.068  1.00  0.00     0.012 C 
ATOM      3  C   UNL     1      45.428 132.436  22.624  1.00  0.00     0.002 C 
ATOM      4  C   UNL     1      45.782 132.235  21.156  1.00  0.00     0.013 C 
ATOM      5  C   UNL     1      44.539 132.328  20.246  1.00  0.00     0.045 C 
ATOM      6  C   UNL     1      43.242 131.820  20.880  1.00  0.00    -0.063 C 
ATOM      7  C   UNL     1      42.097 131.958  20.184  1.00  0.00     0.009 C 
ENDROOT
BRANCH   1   8
ATOM      8  C   UNL     1      42.510 129.971  22.398  1.00  0.00    -0.027 C 
ATOM      9  C   UNL     1      42.369 129.321  23.557  1.00  0.00     0.004 C 
ENDBRANCH   1   8
BRANCH   5  10
ATOM     10  C   UNL     1      44.817 131.628  18.928  1.00  0.00    -0.041 A 
ATOM     11  C   UNL     1      44.155 132.032  17.758  1.00  0.00     0.005 A 
ATOM     12  C   UNL     1      45.762 130.591  18.853  1.00  0.00     0.005 A 
ATOM     13  C   UNL     1      44.418 131.399  16.540  1.00  0.00     0.012 A 
ATOM     14  C   UNL     1      46.026 129.958  17.636  1.00  0.00     0.012 A 
ATOM     15  C   UNL     1      45.357 130.352  16.462  1.00  0.00     0.017 A 
BRANCH  15  16
ATOM     16  C   UNL     1      45.648 129.668  15.173  1.00  0.00     0.159 C 
ATOM     17  C   UNL     1      46.440 130.330  14.086  1.00  0.00     0.093 C 
ATOM     18  O   UNL     1      45.222 128.498  14.976  1.00  0.00    -0.295 OA
ENDBRANCH  15  16
ENDBRANCH   5  10
TORSDOF 3
ENDMDL


