REMARK SMILES [NH-]C(=O)c1ccc(-c2cc(F)cc(F)c2OC(O)=C2CSC2)cc1
REMARK SMILES IDX 8 1 9 2 10 3 11 4 12 5 13 6 14 7 15 8 7 9 4 10 5 11 24 12
REMARK SMILES IDX 6 13 23 14 2 15 3 16 1 17 16 19 17 20 18 21 19 23 20 24
REMARK SMILES IDX 22 25 21 26
REMARK H PARENT 1 18 18 22
ROOT
ATOM      1  C   UNL     1      -0.862   1.202  -0.384  1.00  0.00     0.031 A 
ATOM      2  C   UNL     1      -2.167   1.720  -0.309  1.00  0.00     0.052 A 
ATOM      3  C   UNL     1      -2.377   3.092  -0.157  1.00  0.00     0.127 A 
ATOM      4  F   UNL     1      -3.640   3.579  -0.075  1.00  0.00    -0.207 F 
ATOM      5  C   UNL     1      -1.289   3.962  -0.071  1.00  0.00     0.082 A 
ATOM      6  C   UNL     1       0.013   3.465  -0.157  1.00  0.00     0.169 A 
ATOM      7  F   UNL     1       1.062   4.322  -0.088  1.00  0.00    -0.203 F 
ATOM      8  C   UNL     1       0.239   2.095  -0.341  1.00  0.00     0.174 A 
ENDROOT
BRANCH   1   9
ATOM      9  C   UNL     1      -0.671  -0.267  -0.449  1.00  0.00    -0.014 A 
ATOM     10  C   UNL     1      -0.266  -3.057  -0.610  1.00  0.00    -0.001 A 
ATOM     11  C   UNL     1      -1.147  -2.409  -1.495  1.00  0.00     0.011 A 
ATOM     12  C   UNL     1       0.400  -2.293   0.365  1.00  0.00     0.011 A 
ATOM     13  C   UNL     1      -1.349  -1.028  -1.413  1.00  0.00     0.009 A 
ATOM     14  C   UNL     1       0.194  -0.914   0.448  1.00  0.00     0.009 A 
BRANCH  10  15
ATOM     15  C   UNL     1      -0.045  -4.519  -0.706  1.00  0.00     0.080 C 
ATOM     16  O   UNL     1      -0.649  -5.198  -1.579  1.00  0.00    -0.315 OA
BRANCH  15  17
ATOM     17  N   UNL     1       0.854  -5.176   0.187  1.00  0.00    -0.664 NA
ATOM     18  H   UNL     1       1.015  -6.206   0.124  1.00  0.00    -0.121 HD
ENDBRANCH  15  17
ENDBRANCH  10  15
ENDBRANCH   1   9
BRANCH   8  19
ATOM     19  O   UNL     1       1.561   1.649  -0.465  1.00  0.00    -0.423 OA
BRANCH  19  20
ATOM     20  C   UNL     1       2.000   0.839  -1.516  1.00  0.00     0.283 C 
BRANCH  20  21
ATOM     21  O   UNL     1       1.235   0.712  -2.676  1.00  0.00    -0.481 OA
ATOM     22  H   UNL     1       1.526   0.123  -3.448  1.00  0.00     0.297 HD
ENDBRANCH  20  21
BRANCH  20  23
ATOM     23  C   UNL     1       3.154   0.189  -1.395  1.00  0.00     0.030 C 
ATOM     24  C   UNL     1       4.216   0.060  -0.331  1.00  0.00     0.109 C 
ATOM     25  C   UNL     1       3.965  -0.764  -2.236  1.00  0.00     0.109 C 
ATOM     26  S   UNL     1       5.347  -1.078  -1.135  1.00  0.00    -0.152 SA
ENDBRANCH  20  23
ENDBRANCH  19  20
ENDBRANCH   8  19
TORSDOF 7


