MODEL 1
REMARK VINA RESULT:      -8.1      0.000      0.000
REMARK SMILES CC(C)c1ccc(NC(=O)N(N)c2ccccc2-c2nc3ccccc3[n-]2)cc1
REMARK SMILES IDX 8 1 9 2 10 3 7 5 4 6 5 7 29 8 6 9 28 10 2 11 1 12 3 13 11 14
REMARK SMILES IDX 12 15 13 18 14 19 18 20 15 21 17 22 16 23 19 24 20 25 27 26
REMARK SMILES IDX 21 27 26 28 22 29 25 30 23 31 24 32
REMARK H PARENT 8 4 12 16 12 17
ROOT
ATOM      1  N   UNL     1      44.578 129.061  22.528  1.00  0.00    -0.306 N 
ATOM      2  C   UNL     1      45.235 129.607  21.369  1.00  0.00     0.340 C 
ATOM      3  O   UNL     1      45.944 128.860  20.641  1.00  0.00    -0.246 OA
ATOM      4  H   UNL     1      44.170 129.713  23.233  1.00  0.00     0.171 HD
ENDROOT
BRANCH   1   5
ATOM      5  C   UNL     1      44.570 127.662  22.854  1.00  0.00     0.042 A 
ATOM      6  C   UNL     1      44.479 124.908  23.469  1.00  0.00    -0.045 A 
ATOM      7  C   UNL     1      43.473 125.777  23.927  1.00  0.00     0.006 A 
ATOM      8  C   UNL     1      45.526 125.432  22.687  1.00  0.00     0.006 A 
ATOM      9  C   UNL     1      43.515 127.138  23.615  1.00  0.00     0.026 A 
ATOM     10  C   UNL     1      45.566 126.794  22.376  1.00  0.00     0.026 A 
BRANCH   6  11
ATOM     11  C   UNL     1      44.423 123.432  23.815  1.00  0.00     0.013 C 
ATOM     12  C   UNL     1      43.595 122.653  22.785  1.00  0.00     0.012 C 
ATOM     13  C   UNL     1      45.833 122.843  23.950  1.00  0.00     0.012 C 
ENDBRANCH   6  11
ENDBRANCH   1   5
BRANCH   2  14
ATOM     14  N   UNL     1      45.122 131.008  21.038  1.00  0.00    -0.229 N 
BRANCH  14  15
ATOM     15  N   UNL     1      46.277 131.773  20.801  1.00  0.00    -0.239 NA
ATOM     16  H   UNL     1      47.030 131.125  20.475  1.00  0.00     0.144 HD
ATOM     17  H   UNL     1      46.581 132.187  21.713  1.00  0.00     0.144 HD
ENDBRANCH  14  15
BRANCH  14  18
ATOM     18  C   UNL     1      43.847 131.638  20.845  1.00  0.00     0.069 A 
ATOM     19  C   UNL     1      43.099 131.997  21.976  1.00  0.00     0.028 A 
ATOM     20  C   UNL     1      43.339 131.916  19.550  1.00  0.00    -0.001 A 
ATOM     21  C   UNL     1      41.875 132.651  21.839  1.00  0.00     0.002 A 
ATOM     22  C   UNL     1      42.109 132.590  19.433  1.00  0.00     0.010 A 
ATOM     23  C   UNL     1      41.384 132.954  20.570  1.00  0.00     0.001 A 
BRANCH  20  24
ATOM     24  C   UNL     1      44.056 131.511  18.316  1.00  0.00    -0.049 A 
ATOM     25  N   UNL     1      43.607 131.793  17.063  1.00  0.00    -0.435 NA
ATOM     26  N   UNL     1      45.240 130.838  18.344  1.00  0.00    -0.435 NA
ATOM     27  C   UNL     1      44.554 131.258  16.281  1.00  0.00    -0.038 A 
ATOM     28  C   UNL     1      45.527 130.690  17.043  1.00  0.00    -0.038 A 
ATOM     29  C   UNL     1      44.605 131.250  14.889  1.00  0.00     0.004 A 
ATOM     30  C   UNL     1      46.636 130.065  16.477  1.00  0.00     0.004 A 
ATOM     31  C   UNL     1      45.713 130.628  14.281  1.00  0.00     0.000 A 
ATOM     32  C   UNL     1      46.724 130.037  15.073  1.00  0.00     0.000 A 
ENDBRANCH  20  24
ENDBRANCH  14  18
ENDBRANCH   2  14
TORSDOF 6
ENDMDL
MODEL 2
REMARK VINA RESULT:      -7.8      4.342      6.916
REMARK SMILES CC(C)c1ccc(NC(=O)N(N)c2ccccc2-c2nc3ccccc3[n-]2)cc1
REMARK SMILES IDX 8 1 9 2 10 3 7 5 4 6 5 7 29 8 6 9 28 10 2 11 1 12 3 13 11 14
REMARK SMILES IDX 12 15 13 18 14 19 18 20 15 21 17 22 16 23 19 24 20 25 27 26
REMARK SMILES IDX 21 27 26 28 22 29 25 30 23 31 24 32
REMARK H PARENT 8 4 12 16 12 17
ROOT
ATOM      1  N   UNL     1      46.703 133.134  21.789  1.00  0.00    -0.306 N 
ATOM      2  C   UNL     1      46.780 131.957  20.963  1.00  0.00     0.340 C 
ATOM      3  O   UNL     1      47.847 131.694  20.344  1.00  0.00    -0.246 OA
ATOM      4  H   UNL     1      45.770 133.456  22.127  1.00  0.00     0.171 HD
ENDROOT
BRANCH   1   5
ATOM      5  C   UNL     1      47.825 133.988  22.065  1.00  0.00     0.042 A 
ATOM      6  C   UNL     1      49.981 135.729  22.607  1.00  0.00    -0.045 A 
ATOM      7  C   UNL     1      49.094 135.996  21.550  1.00  0.00     0.006 A 
ATOM      8  C   UNL     1      49.768 134.585  23.401  1.00  0.00     0.006 A 
ATOM      9  C   UNL     1      48.022 135.138  21.288  1.00  0.00     0.026 A 
ATOM     10  C   UNL     1      48.696 133.728  23.137  1.00  0.00     0.026 A 
BRANCH   6  11
ATOM     11  C   UNL     1      51.140 136.668  22.882  1.00  0.00     0.013 C 
ATOM     12  C   UNL     1      52.486 135.960  22.684  1.00  0.00     0.012 C 
ATOM     13  C   UNL     1      51.046 137.928  22.013  1.00  0.00     0.012 C 
ENDBRANCH   6  11
ENDBRANCH   1   5
BRANCH   2  14
ATOM     14  N   UNL     1      45.643 131.081  20.805  1.00  0.00    -0.229 N 
BRANCH  14  15
ATOM     15  N   UNL     1      45.785 129.697  21.005  1.00  0.00    -0.239 NA
ATOM     16  H   UNL     1      44.881 129.240  20.744  1.00  0.00     0.144 HD
ATOM     17  H   UNL     1      45.943 129.535  22.027  1.00  0.00     0.144 HD
ENDBRANCH  14  15
BRANCH  14  18
ATOM     18  C   UNL     1      44.328 131.590  20.538  1.00  0.00     0.069 A 
ATOM     19  C   UNL     1      43.490 131.881  21.624  1.00  0.00     0.028 A 
ATOM     20  C   UNL     1      43.868 131.817  19.215  1.00  0.00    -0.001 A 
ATOM     21  C   UNL     1      42.220 132.420  21.416  1.00  0.00     0.002 A 
ATOM     22  C   UNL     1      42.590 132.374  19.027  1.00  0.00     0.010 A 
ATOM     23  C   UNL     1      41.774 132.673  20.120  1.00  0.00     0.001 A 
BRANCH  20  24
ATOM     24  C   UNL     1      44.686 131.477  18.025  1.00  0.00    -0.049 A 
ATOM     25  N   UNL     1      44.914 132.344  17.002  1.00  0.00    -0.435 NA
ATOM     26  N   UNL     1      45.293 130.267  17.874  1.00  0.00    -0.435 NA
ATOM     27  C   UNL     1      45.691 131.630  16.175  1.00  0.00    -0.038 A 
ATOM     28  C   UNL     1      45.917 130.394  16.694  1.00  0.00    -0.038 A 
ATOM     29  C   UNL     1      46.228 132.029  14.954  1.00  0.00     0.004 A 
ATOM     30  C   UNL     1      46.700 129.449  16.036  1.00  0.00     0.004 A 
ATOM     31  C   UNL     1      47.026 131.101  14.258  1.00  0.00     0.000 A 
ATOM     32  C   UNL     1      47.261 129.815  14.798  1.00  0.00     0.000 A 
ENDBRANCH  20  24
ENDBRANCH  14  18
ENDBRANCH   2  14
TORSDOF 6
ENDMDL
MODEL 3
REMARK VINA RESULT:      -7.7      4.326      6.901
REMARK SMILES CC(C)c1ccc(NC(=O)N(N)c2ccccc2-c2nc3ccccc3[n-]2)cc1
REMARK SMILES IDX 8 1 9 2 10 3 7 5 4 6 5 7 29 8 6 9 28 10 2 11 1 12 3 13 11 14
REMARK SMILES IDX 12 15 13 18 14 19 18 20 15 21 17 22 16 23 19 24 20 25 27 26
REMARK SMILES IDX 21 27 26 28 22 29 25 30 23 31 24 32
REMARK H PARENT 8 4 12 16 12 17
ROOT
ATOM      1  N   UNL     1      46.712 133.166  21.722  1.00  0.00    -0.306 N 
ATOM      2  C   UNL     1      46.830 131.968  20.931  1.00  0.00     0.340 C 
ATOM      3  O   UNL     1      47.916 131.708  20.345  1.00  0.00    -0.246 OA
ATOM      4  H   UNL     1      45.766 133.479  22.029  1.00  0.00     0.171 HD
ENDROOT
BRANCH   1   5
ATOM      5  C   UNL     1      47.812 134.048  22.000  1.00  0.00     0.042 A 
ATOM      6  C   UNL     1      50.020 135.718  22.549  1.00  0.00    -0.045 A 
ATOM      7  C   UNL     1      49.765 134.585  23.343  1.00  0.00     0.006 A 
ATOM      8  C   UNL     1      49.164 135.998  21.467  1.00  0.00     0.006 A 
ATOM      9  C   UNL     1      48.676 133.755  23.064  1.00  0.00     0.026 A 
ATOM     10  C   UNL     1      48.075 135.166  21.191  1.00  0.00     0.026 A 
BRANCH   6  11
ATOM     11  C   UNL     1      51.206 136.611  22.861  1.00  0.00     0.013 C 
ATOM     12  C   UNL     1      51.070 137.974  22.171  1.00  0.00     0.012 C 
ATOM     13  C   UNL     1      51.389 136.775  24.375  1.00  0.00     0.012 C 
ENDBRANCH   6  11
ENDBRANCH   1   5
BRANCH   2  14
ATOM     14  N   UNL     1      45.713 131.067  20.771  1.00  0.00    -0.229 N 
BRANCH  14  15
ATOM     15  N   UNL     1      45.912 129.676  20.833  1.00  0.00    -0.239 NA
ATOM     16  H   UNL     1      46.938 129.495  20.742  1.00  0.00     0.144 HD
ATOM     17  H   UNL     1      45.435 129.246  20.008  1.00  0.00     0.144 HD
ENDBRANCH  14  15
BRANCH  14  18
ATOM     18  C   UNL     1      44.367 131.548  20.642  1.00  0.00     0.069 A 
ATOM     19  C   UNL     1      43.644 131.835  21.809  1.00  0.00     0.028 A 
ATOM     20  C   UNL     1      43.763 131.749  19.374  1.00  0.00    -0.001 A 
ATOM     21  C   UNL     1      42.348 132.347  21.733  1.00  0.00     0.002 A 
ATOM     22  C   UNL     1      42.460 132.279  19.318  1.00  0.00     0.010 A 
ATOM     23  C   UNL     1      41.761 132.575  20.490  1.00  0.00     0.001 A 
BRANCH  20  24
ATOM     24  C   UNL     1      44.455 131.410  18.106  1.00  0.00    -0.049 A 
ATOM     25  N   UNL     1      44.107 131.936  16.901  1.00  0.00    -0.435 NA
ATOM     26  N   UNL     1      45.513 130.554  18.055  1.00  0.00    -0.435 NA
ATOM     27  C   UNL     1      44.987 131.369  16.064  1.00  0.00    -0.038 A 
ATOM     28  C   UNL     1      45.825 130.546  16.751  1.00  0.00    -0.038 A 
ATOM     29  C   UNL     1      45.093 131.549  14.688  1.00  0.00     0.004 A 
ATOM     30  C   UNL     1      46.841 129.834  16.119  1.00  0.00     0.004 A 
ATOM     31  C   UNL     1      46.109 130.846  14.014  1.00  0.00     0.000 A 
ATOM     32  C   UNL     1      46.980 129.990  14.728  1.00  0.00     0.000 A 
ENDBRANCH  20  24
ENDBRANCH  14  18
ENDBRANCH   2  14
TORSDOF 6
ENDMDL
MODEL 4
REMARK VINA RESULT:      -6.7      4.378      6.984
REMARK SMILES CC(C)c1ccc(NC(=O)N(N)c2ccccc2-c2nc3ccccc3[n-]2)cc1
REMARK SMILES IDX 8 1 9 2 10 3 7 5 4 6 5 7 29 8 6 9 28 10 2 11 1 12 3 13 11 14
REMARK SMILES IDX 12 15 13 18 14 19 18 20 15 21 17 22 16 23 19 24 20 25 27 26
REMARK SMILES IDX 21 27 26 28 22 29 25 30 23 31 24 32
REMARK H PARENT 8 4 12 16 12 17
ROOT
ATOM      1  N   UNL     1      46.736 133.233  21.655  1.00  0.00    -0.306 N 
ATOM      2  C   UNL     1      46.890 131.987  20.948  1.00  0.00     0.340 C 
ATOM      3  O   UNL     1      48.020 131.660  20.494  1.00  0.00    -0.246 OA
ATOM      4  H   UNL     1      45.776 133.593  21.844  1.00  0.00     0.171 HD
ENDROOT
BRANCH   1   5
ATOM      5  C   UNL     1      47.834 134.095  21.996  1.00  0.00     0.042 A 
ATOM      6  C   UNL     1      49.942 135.852  22.662  1.00  0.00    -0.045 A 
ATOM      7  C   UNL     1      49.141 136.091  21.531  1.00  0.00     0.006 A 
ATOM      8  C   UNL     1      49.666 134.728  23.465  1.00  0.00     0.006 A 
ATOM      9  C   UNL     1      48.092 135.225  21.208  1.00  0.00     0.026 A 
ATOM     10  C   UNL     1      48.618 133.863  23.139  1.00  0.00     0.026 A 
BRANCH   6  11
ATOM     11  C   UNL     1      51.076 136.799  23.003  1.00  0.00     0.013 C 
ATOM     12  C   UNL     1      51.699 136.452  24.361  1.00  0.00     0.012 C 
ATOM     13  C   UNL     1      52.137 136.809  21.895  1.00  0.00     0.012 C 
ENDBRANCH   6  11
ENDBRANCH   1   5
BRANCH   2  14
ATOM     14  N   UNL     1      45.762 131.114  20.723  1.00  0.00    -0.229 N 
BRANCH  14  15
ATOM     15  N   UNL     1      45.969 129.752  20.443  1.00  0.00    -0.239 NA
ATOM     16  H   UNL     1      45.963 129.233  21.350  1.00  0.00     0.144 HD
ATOM     17  H   UNL     1      46.921 129.652  20.021  1.00  0.00     0.144 HD
ENDBRANCH  14  15
BRANCH  14  18
ATOM     18  C   UNL     1      44.410 131.572  20.872  1.00  0.00     0.069 A 
ATOM     19  C   UNL     1      43.886 131.704  22.166  1.00  0.00     0.028 A 
ATOM     20  C   UNL     1      43.605 131.903  19.751  1.00  0.00    -0.001 A 
ATOM     21  C   UNL     1      42.592 132.188  22.361  1.00  0.00     0.002 A 
ATOM     22  C   UNL     1      42.308 132.403  19.969  1.00  0.00     0.010 A 
ATOM     23  C   UNL     1      41.808 132.544  21.265  1.00  0.00     0.001 A 
BRANCH  20  24
ATOM     24  C   UNL     1      44.084 131.730  18.356  1.00  0.00    -0.049 A 
ATOM     25  N   UNL     1      45.388 131.513  18.035  1.00  0.00    -0.435 NA
ATOM     26  N   UNL     1      43.244 131.756  17.285  1.00  0.00    -0.435 NA
ATOM     27  C   UNL     1      45.351 131.410  16.699  1.00  0.00    -0.038 A 
ATOM     28  C   UNL     1      44.074 131.555  16.252  1.00  0.00    -0.038 A 
ATOM     29  C   UNL     1      46.417 131.186  15.832  1.00  0.00     0.004 A 
ATOM     30  C   UNL     1      43.755 131.486  14.898  1.00  0.00     0.004 A 
ATOM     31  C   UNL     1      46.133 131.109  14.455  1.00  0.00     0.000 A 
ATOM     32  C   UNL     1      44.806 131.259  13.990  1.00  0.00     0.000 A 
ENDBRANCH  20  24
ENDBRANCH  14  18
ENDBRANCH   2  14
TORSDOF 6
ENDMDL
MODEL 5
REMARK VINA RESULT:      -6.1      2.339      7.959
REMARK SMILES CC(C)c1ccc(NC(=O)N(N)c2ccccc2-c2nc3ccccc3[n-]2)cc1
REMARK SMILES IDX 8 1 9 2 10 3 7 5 4 6 5 7 29 8 6 9 28 10 2 11 1 12 3 13 11 14
REMARK SMILES IDX 12 15 13 18 14 19 18 20 15 21 17 22 16 23 19 24 20 25 27 26
REMARK SMILES IDX 21 27 26 28 22 29 25 30 23 31 24 32
REMARK H PARENT 8 4 12 16 12 17
ROOT
ATOM      1  N   UNL     1      44.390 131.410  18.554  1.00  0.00    -0.306 N 
ATOM      2  C   UNL     1      44.706 130.873  19.852  1.00  0.00     0.340 C 
ATOM      3  O   UNL     1      45.675 130.077  19.982  1.00  0.00    -0.246 OA
ATOM      4  H   UNL     1      43.478 131.896  18.414  1.00  0.00     0.171 HD
ENDROOT
BRANCH   1   5
ATOM      5  C   UNL     1      45.199 131.195  17.385  1.00  0.00     0.042 A 
ATOM      6  C   UNL     1      46.823 130.841  15.103  1.00  0.00    -0.045 A 
ATOM      7  C   UNL     1      46.125 132.045  15.305  1.00  0.00     0.006 A 
ATOM      8  C   UNL     1      46.709 129.820  16.066  1.00  0.00     0.006 A 
ATOM      9  C   UNL     1      45.327 132.221  16.439  1.00  0.00     0.026 A 
ATOM     10  C   UNL     1      45.911 129.998  17.199  1.00  0.00     0.026 A 
BRANCH   6  11
ATOM     11  C   UNL     1      47.685 130.662  13.868  1.00  0.00     0.013 C 
ATOM     12  C   UNL     1      48.195 129.220  13.752  1.00  0.00     0.012 C 
ATOM     13  C   UNL     1      46.928 131.083  12.602  1.00  0.00     0.012 C 
ENDBRANCH   6  11
ENDBRANCH   1   5
BRANCH   2  14
ATOM     14  N   UNL     1      43.912 131.208  21.011  1.00  0.00    -0.229 N 
BRANCH  14  15
ATOM     15  N   UNL     1      42.536 130.920  21.031  1.00  0.00    -0.239 NA
ATOM     16  H   UNL     1      42.201 131.027  22.016  1.00  0.00     0.144 HD
ATOM     17  H   UNL     1      42.414 129.918  20.756  1.00  0.00     0.144 HD
ENDBRANCH  14  15
BRANCH  14  18
ATOM     18  C   UNL     1      44.503 131.748  22.202  1.00  0.00     0.069 A 
ATOM     19  C   UNL     1      45.367 132.846  22.082  1.00  0.00     0.028 A 
ATOM     20  C   UNL     1      44.225 131.210  23.485  1.00  0.00    -0.001 A 
ATOM     21  C   UNL     1      45.931 133.433  23.216  1.00  0.00     0.002 A 
ATOM     22  C   UNL     1      44.792 131.824  24.617  1.00  0.00     0.010 A 
ATOM     23  C   UNL     1      45.637 132.927  24.481  1.00  0.00     0.001 A 
BRANCH  20  24
ATOM     24  C   UNL     1      43.365 130.015  23.671  1.00  0.00    -0.049 A 
ATOM     25  N   UNL     1      42.070 130.083  24.081  1.00  0.00    -0.435 NA
ATOM     26  N   UNL     1      43.804 128.750  23.424  1.00  0.00    -0.435 NA
ATOM     27  C   UNL     1      41.696 128.797  24.098  1.00  0.00    -0.038 A 
ATOM     28  C   UNL     1      42.728 128.003  23.706  1.00  0.00    -0.038 A 
ATOM     29  C   UNL     1      40.453 128.275  24.447  1.00  0.00     0.004 A 
ATOM     30  C   UNL     1      42.605 126.617  23.629  1.00  0.00     0.004 A 
ATOM     31  C   UNL     1      40.290 126.878  24.382  1.00  0.00     0.000 A 
ATOM     32  C   UNL     1      41.363 126.052  23.974  1.00  0.00     0.000 A 
ENDBRANCH  20  24
ENDBRANCH  14  18
ENDBRANCH   2  14
TORSDOF 6
ENDMDL
MODEL 6
REMARK VINA RESULT:      -6.1      2.389      7.950
REMARK SMILES CC(C)c1ccc(NC(=O)N(N)c2ccccc2-c2nc3ccccc3[n-]2)cc1
REMARK SMILES IDX 8 1 9 2 10 3 7 5 4 6 5 7 29 8 6 9 28 10 2 11 1 12 3 13 11 14
REMARK SMILES IDX 12 15 13 18 14 19 18 20 15 21 17 22 16 23 19 24 20 25 27 26
REMARK SMILES IDX 21 27 26 28 22 29 25 30 23 31 24 32
REMARK H PARENT 8 4 12 16 12 17
ROOT
ATOM      1  N   UNL     1      44.277 131.331  18.414  1.00  0.00    -0.306 N 
ATOM      2  C   UNL     1      44.728 130.990  19.739  1.00  0.00     0.340 C 
ATOM      3  O   UNL     1      45.756 130.275  19.887  1.00  0.00    -0.246 OA
ATOM      4  H   UNL     1      43.326 131.740  18.292  1.00  0.00     0.171 HD
ENDROOT
BRANCH   1   5
ATOM      5  C   UNL     1      45.006 131.009  17.218  1.00  0.00     0.042 A 
ATOM      6  C   UNL     1      46.493 130.429  14.889  1.00  0.00    -0.045 A 
ATOM      7  C   UNL     1      46.201 131.759  15.239  1.00  0.00     0.006 A 
ATOM      8  C   UNL     1      46.043 129.391  15.728  1.00  0.00     0.006 A 
ATOM      9  C   UNL     1      45.471 132.045  16.396  1.00  0.00     0.026 A 
ATOM     10  C   UNL     1      45.313 129.679  16.884  1.00  0.00     0.026 A 
BRANCH   6  11
ATOM     11  C   UNL     1      47.285 130.131  13.630  1.00  0.00     0.013 C 
ATOM     12  C   UNL     1      47.745 131.425  12.946  1.00  0.00     0.012 C 
ATOM     13  C   UNL     1      48.476 129.214  13.934  1.00  0.00     0.012 C 
ENDBRANCH   6  11
ENDBRANCH   1   5
BRANCH   2  14
ATOM     14  N   UNL     1      44.004 131.430  20.909  1.00  0.00    -0.229 N 
BRANCH  14  15
ATOM     15  N   UNL     1      42.607 131.288  20.969  1.00  0.00    -0.239 NA
ATOM     16  H   UNL     1      42.329 131.274  21.977  1.00  0.00     0.144 HD
ATOM     17  H   UNL     1      42.360 130.359  20.555  1.00  0.00     0.144 HD
ENDBRANCH  14  15
BRANCH  14  18
ATOM     18  C   UNL     1      44.680 131.929  22.072  1.00  0.00     0.069 A 
ATOM     19  C   UNL     1      45.583 132.991  21.918  1.00  0.00     0.028 A 
ATOM     20  C   UNL     1      44.447 131.386  23.362  1.00  0.00    -0.001 A 
ATOM     21  C   UNL     1      46.230 133.539  23.026  1.00  0.00     0.002 A 
ATOM     22  C   UNL     1      45.099 131.961  24.469  1.00  0.00     0.010 A 
ATOM     23  C   UNL     1      45.982 133.029  24.300  1.00  0.00     0.001 A 
BRANCH  20  24
ATOM     24  C   UNL     1      43.548 130.226  23.581  1.00  0.00    -0.049 A 
ATOM     25  N   UNL     1      43.896 128.945  23.285  1.00  0.00    -0.435 NA
ATOM     26  N   UNL     1      42.303 130.354  24.118  1.00  0.00    -0.435 NA
ATOM     27  C   UNL     1      42.808 128.251  23.647  1.00  0.00    -0.038 A 
ATOM     28  C   UNL     1      41.860 129.090  24.144  1.00  0.00    -0.038 A 
ATOM     29  C   UNL     1      42.608 126.875  23.562  1.00  0.00     0.004 A 
ATOM     30  C   UNL     1      40.629 128.624  24.600  1.00  0.00     0.004 A 
ATOM     31  C   UNL     1      41.375 126.367  24.014  1.00  0.00     0.000 A 
ATOM     32  C   UNL     1      40.389 127.239  24.531  1.00  0.00     0.000 A 
ENDBRANCH  20  24
ENDBRANCH  14  18
ENDBRANCH   2  14
TORSDOF 6
ENDMDL
MODEL 7
REMARK VINA RESULT:      -5.4      4.486      6.997
REMARK SMILES CC(C)c1ccc(NC(=O)N(N)c2ccccc2-c2nc3ccccc3[n-]2)cc1
REMARK SMILES IDX 8 1 9 2 10 3 7 5 4 6 5 7 29 8 6 9 28 10 2 11 1 12 3 13 11 14
REMARK SMILES IDX 12 15 13 18 14 19 18 20 15 21 17 22 16 23 19 24 20 25 27 26
REMARK SMILES IDX 21 27 26 28 22 29 25 30 23 31 24 32
REMARK H PARENT 8 4 12 16 12 17
ROOT
ATOM      1  N   UNL     1      47.288 132.644  21.758  1.00  0.00    -0.306 N 
ATOM      2  C   UNL     1      46.477 132.673  20.568  1.00  0.00     0.340 C 
ATOM      3  O   UNL     1      46.500 133.686  19.818  1.00  0.00    -0.246 OA
ATOM      4  H   UNL     1      47.113 131.906  22.473  1.00  0.00     0.171 HD
ENDROOT
BRANCH   1   5
ATOM      5  C   UNL     1      48.243 133.664  22.095  1.00  0.00     0.042 A 
ATOM      6  C   UNL     1      50.057 135.715  22.780  1.00  0.00    -0.045 A 
ATOM      7  C   UNL     1      48.953 135.984  21.953  1.00  0.00     0.006 A 
ATOM      8  C   UNL     1      50.236 134.409  23.274  1.00  0.00     0.006 A 
ATOM      9  C   UNL     1      48.051 134.969  21.621  1.00  0.00     0.026 A 
ATOM     10  C   UNL     1      49.333 133.395  22.940  1.00  0.00     0.026 A 
BRANCH   6  11
ATOM     11  C   UNL     1      51.029 136.825  23.133  1.00  0.00     0.013 C 
ATOM     12  C   UNL     1      50.954 137.175  24.625  1.00  0.00     0.012 C 
ATOM     13  C   UNL     1      52.461 136.455  22.725  1.00  0.00     0.012 C 
ENDBRANCH   6  11
ENDBRANCH   1   5
BRANCH   2  14
ATOM     14  N   UNL     1      45.610 131.568  20.231  1.00  0.00    -0.229 N 
BRANCH  14  15
ATOM     15  N   UNL     1      46.071 130.246  20.352  1.00  0.00    -0.239 NA
ATOM     16  H   UNL     1      46.898 130.136  19.721  1.00  0.00     0.144 HD
ATOM     17  H   UNL     1      45.316 129.610  20.006  1.00  0.00     0.144 HD
ENDBRANCH  14  15
BRANCH  14  18
ATOM     18  C   UNL     1      44.238 131.771  19.860  1.00  0.00     0.069 A 
ATOM     19  C   UNL     1      43.307 132.057  20.869  1.00  0.00     0.028 A 
ATOM     20  C   UNL     1      43.811 131.702  18.509  1.00  0.00    -0.001 A 
ATOM     21  C   UNL     1      41.971 132.305  20.552  1.00  0.00     0.002 A 
ATOM     22  C   UNL     1      42.462 131.969  18.208  1.00  0.00     0.010 A 
ATOM     23  C   UNL     1      41.551 132.268  19.223  1.00  0.00     0.001 A 
BRANCH  20  24
ATOM     24  C   UNL     1      44.737 131.347  17.404  1.00  0.00    -0.049 A 
ATOM     25  N   UNL     1      45.356 130.140  17.307  1.00  0.00    -0.435 NA
ATOM     26  N   UNL     1      45.023 132.203  16.385  1.00  0.00    -0.435 NA
ATOM     27  C   UNL     1      46.068 130.262  16.178  1.00  0.00    -0.038 A 
ATOM     28  C   UNL     1      45.869 131.490  15.628  1.00  0.00    -0.038 A 
ATOM     29  C   UNL     1      46.904 129.316  15.591  1.00  0.00     0.004 A 
ATOM     30  C   UNL     1      46.489 131.877  14.442  1.00  0.00     0.004 A 
ATOM     31  C   UNL     1      47.548 129.670  14.391  1.00  0.00     0.000 A 
ATOM     32  C   UNL     1      47.342 130.947  13.819  1.00  0.00     0.000 A 
ENDBRANCH  20  24
ENDBRANCH  14  18
ENDBRANCH   2  14
TORSDOF 6
ENDMDL


