REMARK SMILES Cc1cc(N)c(OC(=O)/C=C(\[NH3+])C(N)=O)c(-n2nc3ccccc3n2)c1
REMARK SMILES IDX 8 1 9 2 10 3 11 4 13 5 14 6 15 7 12 10 7 14 6 15 4 16 16 17
REMARK SMILES IDX 3 18 26 19 2 20 1 21 5 22 17 25 18 26 25 27 19 28 24 29
REMARK SMILES IDX 20 30 23 31 21 32 22 33
REMARK H PARENT 14 8 14 9 12 11 12 12 12 13 5 23 5 24
ROOT
ATOM      1  C   UNL     1      -0.327  -0.913  -0.021  1.00  0.00     0.342 C 
ATOM      2  O   UNL     1      -1.027   0.136   0.022  1.00  0.00    -0.246 OA
ENDROOT
BRANCH   1   3
ATOM      3  C   UNL     1       0.646  -1.227   1.042  1.00  0.00     0.167 C 
BRANCH   3   4
ATOM      4  C   UNL     1       1.232  -0.319   1.855  1.00  0.00     0.200 C 
BRANCH   4   5
ATOM      5  C   UNL     1       2.134  -0.794   2.937  1.00  0.00     0.302 C 
ATOM      6  N   UNL     1       2.327  -0.022   4.124  1.00  0.00    -0.361 N 
ATOM      7  O   UNL     1       2.734  -1.897   2.822  1.00  0.00    -0.263 OA
ATOM      8  H   UNL     1       3.001  -0.345   4.853  1.00  0.00     0.160 HD
ATOM      9  H   UNL     1       1.753   0.827   4.321  1.00  0.00     0.160 HD
ENDBRANCH   4   5
BRANCH   4  10
ATOM     10  N   UNL     1       0.988   1.093   1.703  1.00  0.00    -0.320 N 
ATOM     11  H   UNL     1       0.061   1.334   2.121  1.00  0.00     0.350 HD
ATOM     12  H   UNL     1       1.735   1.650   2.176  1.00  0.00     0.350 HD
ATOM     13  H   UNL     1       1.018   1.364   0.694  1.00  0.00     0.350 HD
ENDBRANCH   4  10
ENDBRANCH   3   4
ENDBRANCH   1   3
BRANCH   1  14
ATOM     14  O   UNL     1      -0.495  -1.829  -1.067  1.00  0.00    -0.419 OA
BRANCH  14  15
ATOM     15  C   UNL     1      -1.181  -1.530  -2.252  1.00  0.00     0.181 A 
ATOM     16  C   UNL     1      -2.220  -2.382  -2.670  1.00  0.00     0.078 A 
ATOM     17  C   UNL     1      -0.854  -0.390  -3.028  1.00  0.00     0.131 A 
ATOM     18  C   UNL     1      -2.963  -2.068  -3.816  1.00  0.00     0.033 A 
ATOM     19  C   UNL     1      -1.624  -0.082  -4.159  1.00  0.00     0.037 A 
ATOM     20  C   UNL     1      -2.668  -0.922  -4.565  1.00  0.00    -0.047 A 
ATOM     21  C   UNL     1      -3.500  -0.569  -5.763  1.00  0.00     0.044 C 
BRANCH  16  22
ATOM     22  N   UNL     1      -2.550  -3.554  -1.916  1.00  0.00    -0.396 N 
ATOM     23  H   UNL     1      -3.329  -4.181  -2.218  1.00  0.00     0.156 HD
ATOM     24  H   UNL     1      -2.022  -3.814  -1.053  1.00  0.00     0.156 HD
ENDBRANCH  16  22
BRANCH  17  25
ATOM     25  N   UNL     1       0.277   0.435  -2.703  1.00  0.00    -0.146 N 
ATOM     26  N   UNL     1       1.422  -0.041  -2.215  1.00  0.00    -0.148 NA
ATOM     27  N   UNL     1       0.292   1.757  -2.870  1.00  0.00    -0.148 NA
ATOM     28  C   UNL     1       2.198   1.039  -2.049  1.00  0.00     0.113 A 
ATOM     29  C   UNL     1       1.507   2.140  -2.450  1.00  0.00     0.113 A 
ATOM     30  C   UNL     1       3.489   1.118  -1.537  1.00  0.00     0.032 A 
ATOM     31  C   UNL     1       2.046   3.420  -2.381  1.00  0.00     0.032 A 
ATOM     32  C   UNL     1       4.072   2.398  -1.450  1.00  0.00     0.002 A 
ATOM     33  C   UNL     1       3.354   3.544  -1.872  1.00  0.00     0.002 A 
ENDBRANCH  17  25
ENDBRANCH  14  15
ENDBRANCH   1  14
TORSDOF 8


