REMARK SMILES [N-]=[N+]=Nc1nccc2ccc(-c3cccc([C@H]4CO4)c3)cc12
REMARK SMILES IDX 6 1 5 2 4 3 22 4 21 5 11 6 10 7 9 8 8 9 7 10 3 11 2 12 1 13
REMARK SMILES IDX 12 14 13 15 20 16 14 17 16 18 15 19 17 20 19 21 18 22
REMARK H PARENT
ROOT
ATOM      1  C   UNL     1       0.810  -4.988  -0.658  1.00  0.00     0.112 A 
ATOM      2  N   UNL     1       0.950  -4.238  -1.781  1.00  0.00    -0.254 NA
ATOM      3  C   UNL     1       0.679  -2.902  -1.803  1.00  0.00     0.134 A 
ATOM      4  C   UNL     1       0.238  -2.261  -0.626  1.00  0.00     0.010 A 
ATOM      5  C   UNL     1      -0.053  -0.885  -0.594  1.00  0.00     0.019 A 
ATOM      6  C   UNL     1      -0.490  -0.271   0.594  1.00  0.00    -0.018 A 
ATOM      7  C   UNL     1      -0.632  -1.050   1.755  1.00  0.00     0.009 A 
ATOM      8  C   UNL     1      -0.345  -2.416   1.735  1.00  0.00     0.009 A 
ATOM      9  C   UNL     1       0.089  -3.030   0.553  1.00  0.00    -0.015 A 
ATOM     10  C   UNL     1       0.378  -4.400   0.529  1.00  0.00     0.029 A 
ENDROOT
BRANCH   3  11
ATOM     11  N   UNL     1       0.844  -2.162  -3.018  1.00  0.00    -0.040 NA
BRANCH  11  12
ATOM     12  N   UNL     1       1.228  -2.706  -4.054  1.00  0.00     0.007 N 
ATOM     13  N   UNL     1       1.611  -3.249  -5.089  1.00  0.00    -0.003 NA
ENDBRANCH  11  12
ENDBRANCH   3  11
BRANCH   6  14
ATOM     14  C   UNL     1      -0.798   1.182   0.622  1.00  0.00    -0.018 A 
ATOM     15  C   UNL     1      -1.491   1.786  -0.443  1.00  0.00     0.009 A 
ATOM     16  C   UNL     1      -0.399   1.976   1.714  1.00  0.00     0.015 A 
ATOM     17  C   UNL     1      -1.773   3.154  -0.418  1.00  0.00     0.001 A 
ATOM     18  C   UNL     1      -0.698   3.347   1.747  1.00  0.00    -0.016 A 
ATOM     19  C   UNL     1      -1.374   3.934   0.669  1.00  0.00     0.006 A 
BRANCH  18  20
ATOM     20  C   UNL     1      -0.237   4.195   2.895  1.00  0.00     0.174 C 
ATOM     21  O   UNL     1      -0.628   3.651   4.136  1.00  0.00    -0.368 OA
ATOM     22  C   UNL     1      -1.303   4.814   3.717  1.00  0.00     0.198 C 
ENDBRANCH  18  20
ENDBRANCH   6  14
TORSDOF 4


