REMARK SMILES C=C1CC[C@H]2CC(c3nc[nH+]c4c3COC4)=N[C@H]2C1
REMARK SMILES IDX 1 1 2 2 3 3 4 4 5 5 6 6 7 7 17 8 18 9 19 10 8 11 9 12 13 13
REMARK SMILES IDX 10 14 12 15 14 16 11 17 16 18 15 19
REMARK H PARENT 11 20
ROOT
ATOM      1  C   UNL     1      -2.389  -3.853   0.517  1.00  0.00     0.008 C 
ATOM      2  C   UNL     1      -2.042  -2.919   1.414  1.00  0.00    -0.075 C 
ATOM      3  C   UNL     1      -0.824  -3.127   2.282  1.00  0.00     0.031 C 
ATOM      4  C   UNL     1      -0.693  -2.022   3.341  1.00  0.00     0.010 C 
ATOM      5  C   UNL     1      -0.801  -0.602   2.739  1.00  0.00     0.020 C 
ATOM      6  C   UNL     1       0.452  -0.208   1.937  1.00  0.00     0.066 C 
ATOM      7  C   UNL     1      -0.070  -0.004   0.561  1.00  0.00     0.087 C 
ATOM      8  N   UNL     1      -1.348  -0.125   0.462  1.00  0.00    -0.281 NA
ATOM      9  C   UNL     1      -1.974  -0.434   1.735  1.00  0.00     0.113 C 
ATOM     10  C   UNL     1      -2.875  -1.672   1.592  1.00  0.00     0.058 C 
ENDROOT
BRANCH   7  11
ATOM     11  C   UNL     1       0.796   0.306  -0.595  1.00  0.00     0.205 A 
ATOM     12  N   UNL     1       2.137   0.483  -0.403  1.00  0.00    -0.047 NA
ATOM     13  C   UNL     1       0.308   0.423  -1.905  1.00  0.00     0.076 A 
ATOM     14  C   UNL     1       2.977   0.765  -1.443  1.00  0.00     0.449 A 
ATOM     15  C   UNL     1       1.154   0.699  -2.912  1.00  0.00     0.137 A 
ATOM     16  C   UNL     1      -1.050   0.282  -2.470  1.00  0.00     0.205 C 
ATOM     17  N   UNL     1       2.484   0.873  -2.711  1.00  0.00    -0.245 N 
ATOM     18  C   UNL     1       0.417   0.757  -4.182  1.00  0.00     0.241 C 
ATOM     19  O   UNL     1      -0.946   0.492  -3.875  1.00  0.00    -0.368 OA
ATOM     20  H   UNL     1       3.121   1.085  -3.511  1.00  0.00     0.311 HD
ENDBRANCH   7  11
TORSDOF 1


