REMARK SMILES C[C@@H]1CC[C@@H]2CC=N[C@]2(C)C1
REMARK SMILES IDX 1 1 2 2 3 3 4 4 5 5 6 6 7 7 8 8 9 9 10 10 11 11
REMARK H PARENT
ROOT
ATOM      1  C   UNL     1       1.218   2.854   1.055  1.00  0.00     0.008 C 
ATOM      2  C   UNL     1       0.221   1.745   0.694  1.00  0.00    -0.012 C 
ATOM      3  C   UNL     1       0.018   0.766   1.883  1.00  0.00     0.004 C 
ATOM      4  C   UNL     1       0.677  -0.595   1.642  1.00  0.00     0.007 C 
ATOM      5  C   UNL     1       0.067  -1.269   0.395  1.00  0.00     0.022 C 
ATOM      6  C   UNL     1       0.919  -2.446  -0.106  1.00  0.00     0.053 C 
ATOM      7  C   UNL     1       1.111  -2.132  -1.543  1.00  0.00     0.078 C 
ATOM      8  N   UNL     1       0.598  -1.021  -1.907  1.00  0.00    -0.291 NA
ATOM      9  C   UNL     1      -0.057  -0.315  -0.836  1.00  0.00     0.061 C 
ATOM     10  C   UNL     1      -1.530  -0.086  -1.224  1.00  0.00     0.037 C 
ATOM     11  C   UNL     1       0.667   1.034  -0.609  1.00  0.00     0.034 C 
ENDROOT
TORSDOF 0


