REMARK SMILES C[C@H]1CC[C@H]2C=C[NH2+][C@@]2(C)C1
REMARK SMILES IDX 1 1 2 2 3 3 4 4 5 5 6 6 7 7 8 8 9 9 10 10 11 11
REMARK H PARENT 8 12 8 13
ROOT
ATOM      1  C   UNL     1       0.710  -1.386  -2.425  1.00  0.00     0.008 C 
ATOM      2  C   UNL     1       0.610  -0.718  -1.048  1.00  0.00    -0.008 C 
ATOM      3  C   UNL     1       0.451   0.798  -1.201  1.00  0.00     0.004 C 
ATOM      4  C   UNL     1       0.473   1.469   0.170  1.00  0.00     0.015 C 
ATOM      5  C   UNL     1      -0.575   0.903   1.146  1.00  0.00     0.079 C 
ATOM      6  C   UNL     1      -1.961   1.374   0.897  1.00  0.00     0.042 C 
ATOM      7  C   UNL     1      -2.808   0.397   1.185  1.00  0.00     0.216 C 
ATOM      8  N   UNL     1      -2.173  -0.824   1.584  1.00  0.00    -0.315 N 
ATOM      9  C   UNL     1      -0.765  -0.641   1.155  1.00  0.00     0.104 C 
ATOM     10  C   UNL     1       0.204  -1.306   2.158  1.00  0.00     0.080 C 
ATOM     11  C   UNL     1      -0.586  -1.278  -0.264  1.00  0.00     0.072 C 
ATOM     12  H   UNL     1      -2.259  -0.905   2.625  1.00  0.00     0.352 HD
ATOM     13  H   UNL     1      -2.642  -1.641   1.129  1.00  0.00     0.352 HD
ENDROOT
TORSDOF 0


