REMARK SMILES Nc1c([C@@H]2O[C@H]2c2ccccc2)cc(C(=O)[O-])c(Nc2cc3ccccc3[n-]2)c1O
REMARK SMILES IDX 2 1 3 2 13 3 14 4 18 5 29 6 1 7 4 10 5 11 6 12 7 13 8 14
REMARK SMILES IDX 12 15 9 16 11 17 10 18 30 19 19 21 20 23 21 24 28 25 22 26
REMARK SMILES IDX 27 27 23 28 26 29 24 30 25 31 15 32 16 33 17 34
REMARK H PARENT 1 8 1 9 30 20 19 22
ROOT
ATOM      1  C   UNL     1       0.052  -1.087   1.476  1.00  0.00     0.080 A 
ATOM      2  C   UNL     1      -0.338   0.062   2.197  1.00  0.00     0.011 A 
ATOM      3  C   UNL     1      -1.672   0.488   2.150  1.00  0.00     0.019 A 
ATOM      4  C   UNL     1      -2.622  -0.167   1.351  1.00  0.00     0.004 A 
ATOM      5  C   UNL     1      -2.221  -1.296   0.598  1.00  0.00     0.010 A 
ATOM      6  C   UNL     1      -0.892  -1.763   0.682  1.00  0.00     0.142 A 
ENDROOT
BRANCH   1   7
ATOM      7  N   UNL     1       1.396  -1.588   1.559  1.00  0.00    -0.395 N 
ATOM      8  H   UNL     1       1.704  -2.410   0.994  1.00  0.00     0.156 HD
ATOM      9  H   UNL     1       2.102  -1.170   2.200  1.00  0.00     0.156 HD
ENDBRANCH   1   7
BRANCH   2  10
ATOM     10  C   UNL     1       0.631   0.818   3.068  1.00  0.00     0.185 C 
ATOM     11  O   UNL     1       0.534   2.208   2.848  1.00  0.00    -0.359 OA
ATOM     12  C   UNL     1       1.697   1.580   2.363  1.00  0.00     0.183 C 
BRANCH  12  13
ATOM     13  C   UNL     1       2.891   1.991   3.174  1.00  0.00    -0.016 A 
ATOM     14  C   UNL     1       3.662   1.034   3.855  1.00  0.00     0.006 A 
ATOM     15  C   UNL     1       3.275   3.340   3.214  1.00  0.00     0.006 A 
ATOM     16  C   UNL     1       4.789   1.427   4.584  1.00  0.00     0.000 A 
ATOM     17  C   UNL     1       4.403   3.730   3.944  1.00  0.00     0.000 A 
ATOM     18  C   UNL     1       5.158   2.775   4.630  1.00  0.00     0.000 A 
ENDBRANCH  12  13
ENDBRANCH   2  10
BRANCH   6  19
ATOM     19  O   UNL     1      -0.495  -2.914  -0.006  1.00  0.00    -0.506 OA
ATOM     20  H   UNL     1      -1.133  -3.479  -0.551  1.00  0.00     0.293 HD
ENDBRANCH   6  19
BRANCH   5  21
ATOM     21  N   UNL     1      -3.169  -2.002  -0.216  1.00  0.00    -0.453 N 
ATOM     22  H   UNL     1      -3.967  -2.486   0.252  1.00  0.00     0.026 HD
BRANCH  21  23
ATOM     23  C   UNL     1      -3.138  -1.951  -1.648  1.00  0.00    -0.060 A 
ATOM     24  C   UNL     1      -2.221  -1.226  -2.406  1.00  0.00     0.007 A 
ATOM     25  N   UNL     1      -4.034  -2.615  -2.418  1.00  0.00    -0.436 NA
ATOM     26  C   UNL     1      -2.586  -1.472  -3.706  1.00  0.00    -0.023 A 
ATOM     27  C   UNL     1      -3.673  -2.306  -3.677  1.00  0.00    -0.034 A 
ATOM     28  C   UNL     1      -2.035  -1.016  -4.902  1.00  0.00     0.008 A 
ATOM     29  C   UNL     1      -4.286  -2.743  -4.850  1.00  0.00     0.004 A 
ATOM     30  C   UNL     1      -2.634  -1.442  -6.102  1.00  0.00     0.001 A 
ATOM     31  C   UNL     1      -3.755  -2.301  -6.076  1.00  0.00     0.000 A 
ENDBRANCH  21  23
ENDBRANCH   5  21
BRANCH   4  32
ATOM     32  C   UNL     1      -4.008   0.371   1.309  1.00  0.00     0.072 C 
ATOM     33  O   UNL     1      -4.824   0.007   0.421  1.00  0.00    -0.545 OA
ATOM     34  O   UNL     1      -4.422   1.312   2.246  1.00  0.00    -0.545 OA
ENDBRANCH   4  32
TORSDOF 7


