REMARK SMILES c1cc(-c2ccc3cc[nH]c3c2)cc([C@@H]2CO2)c1
REMARK SMILES IDX 4 1 5 2 6 3 7 4 8 5 9 6 10 7 11 8 12 9 3 11 1 12 2 13 18 14
REMARK SMILES IDX 14 15 13 16 15 17 16 18 17 19
REMARK H PARENT 10 10
ROOT
ATOM      1  C   UNL     1      -0.104   0.034   1.567  1.00  0.00    -0.016 A 
ATOM      2  C   UNL     1      -1.073   0.678   2.383  1.00  0.00     0.009 A 
ATOM      3  C   UNL     1      -2.229  -0.004   2.805  1.00  0.00     0.011 A 
ATOM      4  C   UNL     1      -2.389  -1.324   2.399  1.00  0.00    -0.001 A 
ATOM      5  C   UNL     1      -3.400  -2.226   2.655  1.00  0.00     0.028 A 
ATOM      6  C   UNL     1      -3.023  -3.390   1.993  1.00  0.00     0.083 A 
ATOM      7  N   UNL     1      -1.840  -3.220   1.359  1.00  0.00    -0.361 N 
ATOM      8  C   UNL     1      -1.465  -1.956   1.613  1.00  0.00     0.046 A 
ATOM      9  C   UNL     1      -0.309  -1.312   1.177  1.00  0.00     0.035 A 
ATOM     10  H   UNL     1      -1.327  -3.930   0.789  1.00  0.00     0.166 HD
ENDROOT
BRANCH   1  11
ATOM     11  C   UNL     1       1.113   0.763   1.128  1.00  0.00    -0.018 A 
ATOM     12  C   UNL     1       2.932   2.311   1.595  1.00  0.00     0.001 A 
ATOM     13  C   UNL     1       1.790   1.622   2.012  1.00  0.00     0.009 A 
ATOM     14  C   UNL     1       3.414   2.150   0.295  1.00  0.00     0.006 A 
ATOM     15  C   UNL     1       2.762   1.285  -0.595  1.00  0.00    -0.016 A 
ATOM     16  C   UNL     1       1.605   0.607  -0.182  1.00  0.00     0.015 A 
BRANCH  15  17
ATOM     17  C   UNL     1       3.256   1.138  -2.004  1.00  0.00     0.174 C 
ATOM     18  C   UNL     1       3.720  -0.213  -2.395  1.00  0.00     0.198 C 
ATOM     19  O   UNL     1       4.625   0.807  -2.046  1.00  0.00    -0.368 OA
ENDBRANCH  15  17
ENDBRANCH   1  11
TORSDOF 2


