REMARK SMILES C#Cc1c[nH+]cc(Nc2cc(C)cc(-n3[nH+]c4ccccc4[nH+]3)c2N=[N+]=[N-])c1
REMARK SMILES IDX 9 1 10 2 11 3 12 4 13 5 14 6 24 7 8 8 7 10 3 11 28 12 4 13
REMARK SMILES IDX 5 14 6 15 2 17 1 18 25 19 26 20 27 21 15 22 16 23 23 24
REMARK SMILES IDX 17 25 22 26 18 27 21 28 19 29 20 30
REMARK H PARENT 8 9 5 16 16 31 23 32
ROOT
ATOM      1  C   UNL     1      -0.394  -2.778  -0.500  1.00  0.00     0.051 A 
ATOM      2  C   UNL     1       0.277  -3.507  -1.488  1.00  0.00     0.030 A 
ATOM      3  C   UNL     1       1.604  -3.212  -1.819  1.00  0.00    -0.047 A 
ATOM      4  C   UNL     1       2.294  -3.965  -2.917  1.00  0.00     0.044 C 
ATOM      5  C   UNL     1       2.251  -2.147  -1.182  1.00  0.00     0.043 A 
ATOM      6  C   UNL     1       1.604  -1.411  -0.178  1.00  0.00     0.180 A 
ATOM      7  C   UNL     1       0.290  -1.756   0.208  1.00  0.00     0.097 A 
ENDROOT
BRANCH   1   8
ATOM      8  N   UNL     1      -1.778  -3.071  -0.261  1.00  0.00    -0.350 N 
ATOM      9  H   UNL     1      -2.033  -4.066  -0.069  1.00  0.00     0.167 HD
BRANCH   8  10
ATOM     10  C   UNL     1      -2.842  -2.122  -0.473  1.00  0.00     0.105 A 
ATOM     11  C   UNL     1      -3.679   0.014  -1.270  1.00  0.00     0.090 A 
ATOM     12  C   UNL     1      -2.618  -0.878  -1.089  1.00  0.00     0.056 A 
ATOM     13  C   UNL     1      -4.959  -0.350  -0.843  1.00  0.00     0.323 A 
ATOM     14  N   UNL     1      -5.165  -1.562  -0.260  1.00  0.00    -0.215 N 
ATOM     15  C   UNL     1      -4.146  -2.445  -0.072  1.00  0.00     0.332 A 
ATOM     16  H   UNL     1      -6.128  -1.821   0.052  1.00  0.00     0.453 HD
BRANCH  11  17
ATOM     17  C   UNL     1      -3.456   1.293  -1.893  1.00  0.00    -0.064 C 
ATOM     18  C   UNL     1      -3.268   2.363  -2.414  1.00  0.00     0.010 C 
ENDBRANCH  11  17
ENDBRANCH   8  10
ENDBRANCH   1   8
BRANCH   7  19
ATOM     19  N   UNL     1      -0.288  -1.090   1.345  1.00  0.00    -0.056 NA
BRANCH  19  20
ATOM     20  N   UNL     1      -1.175  -1.590   2.037  1.00  0.00     0.006 N 
ATOM     21  N   UNL     1      -2.059  -2.087   2.735  1.00  0.00    -0.003 NA
ENDBRANCH  19  20
ENDBRANCH   7  19
BRANCH   6  22
ATOM     22  N   UNL     1       2.302  -0.328   0.461  1.00  0.00     0.080 N 
ATOM     23  N   UNL     1       3.586  -0.371   0.812  1.00  0.00    -0.062 N 
ATOM     24  N   UNL     1       1.764   0.861   0.729  1.00  0.00    -0.062 N 
ATOM     25  C   UNL     1       3.870   0.834   1.333  1.00  0.00     0.306 A 
ATOM     26  C   UNL     1       2.742   1.597   1.281  1.00  0.00     0.306 A 
ATOM     27  C   UNL     1       5.071   1.316   1.846  1.00  0.00     0.089 A 
ATOM     28  C   UNL     1       2.713   2.913   1.732  1.00  0.00     0.089 A 
ATOM     29  C   UNL     1       5.082   2.644   2.319  1.00  0.00     0.007 A 
ATOM     30  C   UNL     1       3.909   3.438   2.261  1.00  0.00     0.007 A 
ATOM     31  H   UNL     1       4.229  -1.187   0.704  1.00  0.00     0.495 HD
ATOM     32  H   UNL     1       0.787   1.162   0.511  1.00  0.00     0.495 HD
ENDBRANCH   6  22
TORSDOF 6


