REMARK SMILES Cc1ccc([NH2+]c2cc(F)c(CN3CC[C@H]4CCC[C@H]43)cc2N)c(F)n1
REMARK SMILES IDX 7 1 8 2 9 3 10 4 11 5 21 6 22 7 6 8 5 11 2 12 3 13 26 14
REMARK SMILES IDX 4 15 24 16 1 17 25 18 23 19 12 22 13 23 14 24 20 25 15 26
REMARK SMILES IDX 19 27 16 28 18 29 17 30
REMARK H PARENT 6 9 6 10 23 20 23 21
ROOT
ATOM      1  C   UNL     1       1.093  -2.514   1.700  1.00  0.00     0.160 A 
ATOM      2  C   UNL     1       0.399  -2.869   0.526  1.00  0.00     0.110 A 
ATOM      3  C   UNL     1       0.660  -2.235  -0.688  1.00  0.00     0.133 A 
ATOM      4  F   UNL     1      -0.054  -2.586  -1.787  1.00  0.00    -0.206 F 
ATOM      5  C   UNL     1       1.628  -1.226  -0.761  1.00  0.00     0.004 A 
ATOM      6  C   UNL     1       2.338  -0.870   0.393  1.00  0.00     0.040 A 
ATOM      7  C   UNL     1       2.095  -1.507   1.620  1.00  0.00     0.094 A 
ENDROOT
BRANCH   1   8
ATOM      8  N   UNL     1       0.699  -3.123   2.952  1.00  0.00    -0.276 N 
ATOM      9  H   UNL     1       1.502  -3.219   3.610  1.00  0.00     0.358 HD
ATOM     10  H   UNL     1       0.375  -4.104   2.780  1.00  0.00     0.358 HD
BRANCH   8  11
ATOM     11  C   UNL     1      -0.367  -2.359   3.559  1.00  0.00     0.190 A 
ATOM     12  C   UNL     1      -2.439  -0.850   4.666  1.00  0.00     0.041 A 
ATOM     13  C   UNL     1      -1.113  -0.527   4.969  1.00  0.00     0.030 A 
ATOM     14  N   UNL     1      -2.705  -1.887   3.828  1.00  0.00    -0.220 NA
ATOM     15  C   UNL     1      -0.079  -1.286   4.419  1.00  0.00     0.075 A 
ATOM     16  C   UNL     1      -1.718  -2.642   3.277  1.00  0.00     0.274 A 
ATOM     17  C   UNL     1      -3.564  -0.031   5.215  1.00  0.00     0.067 C 
ATOM     18  F   UNL     1      -2.056  -3.672   2.463  1.00  0.00    -0.178 F 
ENDBRANCH   8  11
ENDBRANCH   1   8
BRANCH   7  19
ATOM     19  N   UNL     1       2.884  -1.112   2.753  1.00  0.00    -0.394 N 
ATOM     20  H   UNL     1       3.523  -0.288   2.686  1.00  0.00     0.156 HD
ATOM     21  H   UNL     1       2.938  -1.665   3.633  1.00  0.00     0.156 HD
ENDBRANCH   7  19
BRANCH   5  22
ATOM     22  C   UNL     1       1.847  -0.475  -2.050  1.00  0.00     0.123 C 
BRANCH  22  23
ATOM     23  N   UNL     1       0.718   0.440  -2.308  1.00  0.00    -0.296 NA
ATOM     24  C   UNL     1       0.778   0.985  -3.667  1.00  0.00     0.085 C 
ATOM     25  C   UNL     1       0.698   1.603  -1.399  1.00  0.00     0.060 C 
ATOM     26  C   UNL     1       0.046   2.308  -3.627  1.00  0.00     0.021 C 
ATOM     27  C   UNL     1      -0.388   1.433  -0.330  1.00  0.00     0.019 C 
ATOM     28  C   UNL     1       0.311   2.833  -2.221  1.00  0.00     0.007 C 
ATOM     29  C   UNL     1      -1.550   2.315  -0.755  1.00  0.00     0.002 C 
ATOM     30  C   UNL     1      -0.925   3.440  -1.559  1.00  0.00     0.005 C 
ENDBRANCH  22  23
ENDBRANCH   5  22
TORSDOF 5


