REMARK SMILES C=C[C@@H](Oc1ncnc(C)c1C)c1ccc2[nH]c(-c3cnc4oc[nH+]c4c3)cc2c1
REMARK SMILES IDX 3 1 2 2 1 3 4 4 5 5 6 6 11 7 7 8 9 9 8 10 12 11 10 12 13 13
REMARK SMILES IDX 14 14 30 15 15 16 29 17 16 18 28 19 17 20 18 21 19 23 20 24
REMARK SMILES IDX 27 25 21 26 26 27 22 28 25 29 23 30 24 31
REMARK H PARENT 17 22 25 32
ROOT
ATOM      1  C   UNL     1      -0.188  -0.643   3.435  1.00  0.00     0.228 C 
ENDROOT
BRANCH   1   2
ATOM      2  C   UNL     1      -1.102  -0.010   4.450  1.00  0.00     0.014 C 
ATOM      3  C   UNL     1      -0.923  -0.212   5.759  1.00  0.00     0.008 C 
ENDBRANCH   1   2
BRANCH   1   4
ATOM      4  O   UNL     1      -0.314  -2.064   3.509  1.00  0.00    -0.465 OA
BRANCH   4   5
ATOM      5  C   UNL     1       0.541  -2.954   2.845  1.00  0.00     0.220 A 
ATOM      6  N   UNL     1       1.587  -2.481   2.114  1.00  0.00    -0.202 NA
ATOM      7  C   UNL     1       0.322  -4.341   2.931  1.00  0.00     0.032 A 
ATOM      8  C   UNL     1       2.434  -3.319   1.469  1.00  0.00     0.226 A 
ATOM      9  C   UNL     1       1.233  -5.196   2.272  1.00  0.00     0.047 A 
ATOM     10  N   UNL     1       2.255  -4.660   1.553  1.00  0.00    -0.241 NA
ATOM     11  C   UNL     1      -0.819  -4.893   3.750  1.00  0.00     0.052 C 
ATOM     12  C   UNL     1       1.099  -6.690   2.323  1.00  0.00     0.067 C 
ENDBRANCH   4   5
ENDBRANCH   1   4
BRANCH   1  13
ATOM     13  C   UNL     1      -0.533  -0.157   2.045  1.00  0.00    -0.003 A 
ATOM     14  C   UNL     1      -1.703  -0.628   1.391  1.00  0.00     0.010 A 
ATOM     15  C   UNL     1       0.297   0.787   1.399  1.00  0.00     0.018 A 
ATOM     16  C   UNL     1      -2.035  -0.176   0.101  1.00  0.00     0.027 A 
ATOM     17  C   UNL     1      -0.063   1.210   0.122  1.00  0.00     0.000 A 
ATOM     18  C   UNL     1      -1.187   0.747  -0.505  1.00  0.00     0.046 A 
ATOM     19  C   UNL     1       0.552   2.098  -0.732  1.00  0.00     0.037 A 
ATOM     20  N   UNL     1      -1.321   1.300  -1.721  1.00  0.00    -0.354 N 
ATOM     21  C   UNL     1      -0.257   2.131  -1.871  1.00  0.00     0.048 A 
ATOM     22  H   UNL     1      -2.081   1.101  -2.409  1.00  0.00     0.167 HD
BRANCH  21  23
ATOM     23  C   UNL     1      -0.005   2.950  -3.083  1.00  0.00     0.023 A 
ATOM     24  C   UNL     1      -1.061   3.249  -3.992  1.00  0.00     0.126 A 
ATOM     25  C   UNL     1       1.292   3.450  -3.356  1.00  0.00     0.097 A 
ATOM     26  N   UNL     1      -0.833   4.003  -5.110  1.00  0.00    -0.215 NA
ATOM     27  C   UNL     1       1.455   4.208  -4.508  1.00  0.00     0.270 A 
ATOM     28  C   UNL     1       0.419   4.462  -5.341  1.00  0.00     0.297 A 
ATOM     29  N   UNL     1       2.560   4.787  -4.998  1.00  0.00    -0.175 N 
ATOM     30  O   UNL     1       0.831   5.189  -6.348  1.00  0.00    -0.384 OA
ATOM     31  C   UNL     1       2.125   5.384  -6.137  1.00  0.00     0.522 A 
ATOM     32  H   UNL     1       3.525   4.783  -4.600  1.00  0.00     0.457 HD
ENDBRANCH  21  23
ENDBRANCH   1  13
TORSDOF 5


