REMARK SMILES Cc1cc[nH+]c(-c2ccc3[nH]c([NH2+]c4cn5ccccc5n4)cc3c2)c1F
REMARK SMILES IDX 7 1 8 2 9 3 10 4 11 5 12 6 23 7 24 8 25 9 6 11 2 12 3 13
REMARK SMILES IDX 26 14 4 15 5 16 1 17 27 18 13 20 14 23 15 24 22 25 16 26
REMARK SMILES IDX 21 27 17 28 20 29 18 30 19 31
REMARK H PARENT 11 10 5 19 13 21 13 22
ROOT
ATOM      1  C   UNL     1      -2.533  -0.234   0.731  1.00  0.00     0.050 A 
ATOM      2  C   UNL     1      -2.225   0.652   1.798  1.00  0.00     0.017 A 
ATOM      3  C   UNL     1      -0.962   0.622   2.417  1.00  0.00     0.028 A 
ATOM      4  C   UNL     1      -0.031  -0.304   1.955  1.00  0.00     0.050 A 
ATOM      5  N   UNL     1       1.224  -0.487   2.396  1.00  0.00    -0.310 N 
ATOM      6  C   UNL     1       1.726  -1.490   1.638  1.00  0.00     0.209 A 
ATOM      7  C   UNL     1       0.797  -1.938   0.701  1.00  0.00     0.099 A 
ATOM      8  C   UNL     1      -0.322  -1.167   0.930  1.00  0.00     0.007 A 
ATOM      9  C   UNL     1      -1.561  -1.163   0.294  1.00  0.00     0.025 A 
ATOM     10  H   UNL     1       1.715   0.044   3.149  1.00  0.00     0.172 HD
ENDROOT
BRANCH   1  11
ATOM     11  C   UNL     1      -3.869  -0.207   0.088  1.00  0.00     0.247 A 
ATOM     12  C   UNL     1      -5.732   1.007  -0.893  1.00  0.00    -0.002 A 
ATOM     13  C   UNL     1      -6.371  -0.215  -1.133  1.00  0.00     0.077 A 
ATOM     14  C   UNL     1      -4.464   1.012  -0.292  1.00  0.00     0.198 A 
ATOM     15  C   UNL     1      -5.750  -1.403  -0.752  1.00  0.00     0.307 A 
ATOM     16  N   UNL     1      -4.528  -1.379  -0.156  1.00  0.00    -0.209 N 
ATOM     17  C   UNL     1      -6.368   2.292  -1.339  1.00  0.00     0.048 C 
ATOM     18  F   UNL     1      -3.803   2.187  -0.121  1.00  0.00    -0.199 F 
ATOM     19  H   UNL     1      -4.101  -2.289   0.129  1.00  0.00     0.453 HD
ENDBRANCH   1  11
BRANCH   6  20
ATOM     20  N   UNL     1       3.083  -1.946   1.731  1.00  0.00    -0.249 N 
ATOM     21  H   UNL     1       3.142  -2.949   1.439  1.00  0.00     0.361 HD
ATOM     22  H   UNL     1       3.416  -1.863   2.719  1.00  0.00     0.361 HD
BRANCH  20  23
ATOM     23  C   UNL     1       3.905  -1.146   0.872  1.00  0.00     0.249 A 
ATOM     24  C   UNL     1       4.482   0.065   1.219  1.00  0.00     0.183 A 
ATOM     25  N   UNL     1       4.135  -1.440  -0.431  1.00  0.00    -0.177 NA
ATOM     26  N   UNL     1       5.096   0.520   0.119  1.00  0.00    -0.301 N 
ATOM     27  C   UNL     1       4.876  -0.392  -0.845  1.00  0.00     0.143 A 
ATOM     28  C   UNL     1       5.805   1.661  -0.074  1.00  0.00     0.093 A 
ATOM     29  C   UNL     1       5.383  -0.207  -2.130  1.00  0.00     0.048 A 
ATOM     30  C   UNL     1       6.341   1.898  -1.349  1.00  0.00     0.018 A 
ATOM     31  C   UNL     1       6.127   0.959  -2.377  1.00  0.00     0.005 A 
ENDBRANCH  20  23
ENDBRANCH   6  20
TORSDOF 3


