REMARK SMILES Cc1cc(-c2c([NH2+]c3cccc4c3CCC4)ccc3[nH]ccc23)cc(O)c1F
REMARK SMILES IDX 5 1 6 2 17 3 18 4 19 5 20 6 21 7 22 8 23 9 4 11 2 12 3 13
REMARK SMILES IDX 27 14 25 15 24 16 1 17 28 18 26 19 7 21 8 24 9 25 13 26
REMARK SMILES IDX 10 27 12 28 14 29 11 30 16 31 15 32
REMARK H PARENT 20 10 26 20 7 22 7 23
ROOT
ATOM      1  C   UNL     1      -1.464  -0.265   1.328  1.00  0.00     0.053 A 
ATOM      2  C   UNL     1      -0.493  -0.993   2.077  1.00  0.00     0.143 A 
ATOM      3  C   UNL     1      -0.604  -1.042   3.494  1.00  0.00     0.071 A 
ATOM      4  C   UNL     1      -1.651  -0.389   4.164  1.00  0.00     0.033 A 
ATOM      5  C   UNL     1      -2.579   0.309   3.400  1.00  0.00     0.046 A 
ATOM      6  N   UNL     1      -3.643   0.998   3.845  1.00  0.00    -0.361 N 
ATOM      7  C   UNL     1      -4.241   1.506   2.745  1.00  0.00     0.083 A 
ATOM      8  C   UNL     1      -3.553   1.137   1.595  1.00  0.00     0.029 A 
ATOM      9  C   UNL     1      -2.491   0.370   2.035  1.00  0.00     0.013 A 
ATOM     10  H   UNL     1      -3.947   1.120   4.836  1.00  0.00     0.166 HD
ENDROOT
BRANCH   1  11
ATOM     11  C   UNL     1      -1.407  -0.157  -0.140  1.00  0.00    -0.008 A 
ATOM     12  C   UNL     1      -0.615   0.986  -2.136  1.00  0.00    -0.011 A 
ATOM     13  C   UNL     1      -0.696   0.891  -0.739  1.00  0.00     0.015 A 
ATOM     14  C   UNL     1      -1.309   0.059  -2.933  1.00  0.00     0.167 A 
ATOM     15  C   UNL     1      -2.043  -0.973  -2.337  1.00  0.00     0.152 A 
ATOM     16  C   UNL     1      -2.088  -1.083  -0.940  1.00  0.00     0.058 A 
ATOM     17  C   UNL     1       0.170   2.097  -2.771  1.00  0.00     0.048 C 
ATOM     18  F   UNL     1      -1.268   0.153  -4.287  1.00  0.00    -0.203 F 
BRANCH  15  19
ATOM     19  O   UNL     1      -2.722  -1.889  -3.139  1.00  0.00    -0.505 OA
ATOM     20  H   UNL     1      -3.260  -2.648  -2.738  1.00  0.00     0.293 HD
ENDBRANCH  15  19
ENDBRANCH   1  11
BRANCH   2  21
ATOM     21  N   UNL     1       0.606  -1.675   1.425  1.00  0.00    -0.281 N 
ATOM     22  H   UNL     1       0.213  -2.276   0.667  1.00  0.00     0.358 HD
ATOM     23  H   UNL     1       1.095  -2.315   2.093  1.00  0.00     0.358 HD
BRANCH  21  24
ATOM     24  C   UNL     1       1.582  -0.736   0.913  1.00  0.00     0.138 A 
ATOM     25  C   UNL     1       2.129   0.267   1.746  1.00  0.00     0.068 A 
ATOM     26  C   UNL     1       2.062  -0.820  -0.412  1.00  0.00     0.017 A 
ATOM     27  C   UNL     1       3.067   1.183   1.244  1.00  0.00     0.006 A 
ATOM     28  C   UNL     1       2.978   0.084  -0.894  1.00  0.00    -0.039 A 
ATOM     29  C   UNL     1       1.714  -1.833  -1.444  1.00  0.00     0.042 C 
ATOM     30  C   UNL     1       3.491   1.099  -0.087  1.00  0.00     0.004 A 
ATOM     31  C   UNL     1       3.341  -0.174  -2.306  1.00  0.00     0.036 C 
ATOM     32  C   UNL     1       2.443  -1.354  -2.711  1.00  0.00     0.010 C 
ENDBRANCH  21  24
ENDBRANCH   2  21
TORSDOF 4


