MODEL 1
REMARK VINA RESULT:      -4.8      0.000      0.000
REMARK SMILES COC[N-]C(=O)Nc1c(N)cc(C)cc1-n1nc2ccccc2n1
REMARK SMILES IDX 5 1 6 2 7 3 4 5 3 6 2 7 1 8 8 9 9 10 15 11 11 12 14 13 12 14
REMARK SMILES IDX 13 15 10 16 16 19 17 20 24 21 18 22 23 23 19 24 22 25 20 26
REMARK SMILES IDX 21 27
REMARK H PARENT 7 4 10 17 10 18
ROOT
ATOM      1  C   UNL     1      42.259 124.953  22.716  1.00  0.00     0.158 C 
ATOM      2  O   UNL     1      42.339 124.725  21.479  1.00  0.00    -0.299 OA
ATOM      3  N   UNL     1      43.456 125.054  23.507  1.00  0.00    -0.421 N 
ATOM      4  H   UNL     1      43.405 125.395  24.491  1.00  0.00     0.029 HD
ENDROOT
BRANCH   1   5
ATOM      5  N   UNL     1      40.964 125.101  23.307  1.00  0.00    -0.406 NA
BRANCH   5   6
ATOM      6  C   UNL     1      40.597 124.596  24.623  1.00  0.00     0.167 C 
BRANCH   6   7
ATOM      7  O   UNL     1      39.369 123.905  24.531  1.00  0.00    -0.385 OA
ATOM      8  C   UNL     1      39.621 122.539  24.289  1.00  0.00     0.194 C 
ENDBRANCH   6   7
ENDBRANCH   5   6
ENDBRANCH   1   5
BRANCH   3   9
ATOM      9  C   UNL     1      44.756 124.826  22.944  1.00  0.00     0.010 A 
ATOM     10  C   UNL     1      45.184 123.506  22.688  1.00  0.00     0.037 A 
ATOM     11  C   UNL     1      45.619 125.913  22.660  1.00  0.00     0.091 A 
ATOM     12  C   UNL     1      46.472 123.278  22.188  1.00  0.00     0.029 A 
ATOM     13  C   UNL     1      46.913 125.655  22.179  1.00  0.00     0.034 A 
ATOM     14  C   UNL     1      47.349 124.344  21.955  1.00  0.00    -0.047 A 
ATOM     15  C   UNL     1      48.715 124.089  21.391  1.00  0.00     0.044 C 
BRANCH  10  16
ATOM     16  N   UNL     1      44.332 122.386  22.960  1.00  0.00    -0.398 N 
ATOM     17  H   UNL     1      44.448 121.797  23.815  1.00  0.00     0.156 HD
ATOM     18  H   UNL     1      43.579 122.117  22.289  1.00  0.00     0.156 HD
ENDBRANCH  10  16
BRANCH  11  19
ATOM     19  N   UNL     1      45.189 127.278  22.819  1.00  0.00    -0.150 N 
ATOM     20  N   UNL     1      45.239 128.190  21.848  1.00  0.00    -0.148 NA
ATOM     21  N   UNL     1      44.737 127.774  23.971  1.00  0.00    -0.148 NA
ATOM     22  C   UNL     1      44.780 129.317  22.411  1.00  0.00     0.113 A 
ATOM     23  C   UNL     1      44.474 129.062  23.710  1.00  0.00     0.113 A 
ATOM     24  C   UNL     1      44.614 130.576  21.840  1.00  0.00     0.032 A 
ATOM     25  C   UNL     1      43.975 130.044  24.561  1.00  0.00     0.032 A 
ATOM     26  C   UNL     1      44.109 131.598  22.668  1.00  0.00     0.002 A 
ATOM     27  C   UNL     1      43.791 131.333  24.023  1.00  0.00     0.002 A 
ENDBRANCH  11  19
ENDBRANCH   3   9
TORSDOF 6
ENDMDL
MODEL 2
REMARK VINA RESULT:      -4.2      4.131      7.487
REMARK SMILES COC[N-]C(=O)Nc1c(N)cc(C)cc1-n1nc2ccccc2n1
REMARK SMILES IDX 5 1 6 2 7 3 4 5 3 6 2 7 1 8 8 9 9 10 15 11 11 12 14 13 12 14
REMARK SMILES IDX 13 15 10 16 16 19 17 20 24 21 18 22 23 23 19 24 22 25 20 26
REMARK SMILES IDX 21 27
REMARK H PARENT 7 4 10 17 10 18
ROOT
ATOM      1  C   UNL     1      45.342 128.610  21.619  1.00  0.00     0.158 C 
ATOM      2  O   UNL     1      44.246 128.245  22.122  1.00  0.00    -0.299 OA
ATOM      3  N   UNL     1      45.495 129.954  21.130  1.00  0.00    -0.421 N 
ATOM      4  H   UNL     1      46.437 130.307  20.859  1.00  0.00     0.029 HD
ENDROOT
BRANCH   1   5
ATOM      5  N   UNL     1      46.414 127.665  21.542  1.00  0.00    -0.406 NA
BRANCH   5   6
ATOM      6  C   UNL     1      46.462 126.411  22.279  1.00  0.00     0.167 C 
BRANCH   6   7
ATOM      7  O   UNL     1      46.512 126.686  23.663  1.00  0.00    -0.385 OA
ATOM      8  C   UNL     1      45.482 125.977  24.316  1.00  0.00     0.194 C 
ENDBRANCH   6   7
ENDBRANCH   5   6
ENDBRANCH   1   5
BRANCH   3   9
ATOM      9  C   UNL     1      44.404 130.886  21.125  1.00  0.00     0.010 A 
ATOM     10  C   UNL     1      43.734 131.184  22.331  1.00  0.00     0.037 A 
ATOM     11  C   UNL     1      43.981 131.496  19.918  1.00  0.00     0.091 A 
ATOM     12  C   UNL     1      42.636 132.052  22.321  1.00  0.00     0.029 A 
ATOM     13  C   UNL     1      42.864 132.347  19.932  1.00  0.00     0.034 A 
ATOM     14  C   UNL     1      42.181 132.617  21.124  1.00  0.00    -0.047 A 
ATOM     15  C   UNL     1      41.023 133.569  21.130  1.00  0.00     0.044 C 
BRANCH  10  16
ATOM     16  N   UNL     1      44.141 130.586  23.570  1.00  0.00    -0.398 N 
ATOM     17  H   UNL     1      44.985 130.912  24.090  1.00  0.00     0.156 HD
ATOM     18  H   UNL     1      43.605 129.786  23.974  1.00  0.00     0.156 HD
ENDBRANCH  10  16
BRANCH  11  19
ATOM     19  N   UNL     1      44.693 131.292  18.682  1.00  0.00    -0.150 N 
ATOM     20  N   UNL     1      44.776 132.204  17.714  1.00  0.00    -0.148 NA
ATOM     21  N   UNL     1      45.303 130.149  18.369  1.00  0.00    -0.148 NA
ATOM     22  C   UNL     1      45.489 131.614  16.745  1.00  0.00     0.113 A 
ATOM     23  C   UNL     1      45.811 130.355  17.145  1.00  0.00     0.113 A 
ATOM     24  C   UNL     1      45.878 132.124  15.510  1.00  0.00     0.032 A 
ATOM     25  C   UNL     1      46.550 129.489  16.347  1.00  0.00     0.032 A 
ATOM     26  C   UNL     1      46.630 131.278  14.671  1.00  0.00     0.002 A 
ATOM     27  C   UNL     1      46.964 129.966  15.087  1.00  0.00     0.002 A 
ENDBRANCH  11  19
ENDBRANCH   3   9
TORSDOF 6
ENDMDL
MODEL 3
REMARK VINA RESULT:      -4.0      1.624      2.126
REMARK SMILES COC[N-]C(=O)Nc1c(N)cc(C)cc1-n1nc2ccccc2n1
REMARK SMILES IDX 5 1 6 2 7 3 4 5 3 6 2 7 1 8 8 9 9 10 15 11 11 12 14 13 12 14
REMARK SMILES IDX 13 15 10 16 16 19 17 20 24 21 18 22 23 23 19 24 22 25 20 26
REMARK SMILES IDX 21 27
REMARK H PARENT 7 4 10 17 10 18
ROOT
ATOM      1  C   UNL     1      43.380 123.962  22.742  1.00  0.00     0.158 C 
ATOM      2  O   UNL     1      43.623 123.497  23.888  1.00  0.00    -0.299 OA
ATOM      3  N   UNL     1      44.444 124.521  21.954  1.00  0.00    -0.421 N 
ATOM      4  H   UNL     1      44.282 124.763  20.953  1.00  0.00     0.029 HD
ENDROOT
BRANCH   1   5
ATOM      5  N   UNL     1      42.035 123.926  22.254  1.00  0.00    -0.406 NA
BRANCH   5   6
ATOM      6  C   UNL     1      40.927 123.273  22.939  1.00  0.00     0.167 C 
BRANCH   6   7
ATOM      7  O   UNL     1      40.185 124.241  23.650  1.00  0.00    -0.385 OA
ATOM      8  C   UNL     1      40.695 125.524  23.361  1.00  0.00     0.194 C 
ENDBRANCH   6   7
ENDBRANCH   5   6
ENDBRANCH   1   5
BRANCH   3   9
ATOM      9  C   UNL     1      45.781 124.640  22.462  1.00  0.00     0.010 A 
ATOM     10  C   UNL     1      46.688 123.572  22.297  1.00  0.00     0.037 A 
ATOM     11  C   UNL     1      46.192 125.811  23.145  1.00  0.00     0.091 A 
ATOM     12  C   UNL     1      47.976 123.663  22.838  1.00  0.00     0.029 A 
ATOM     13  C   UNL     1      47.482 125.869  23.697  1.00  0.00     0.034 A 
ATOM     14  C   UNL     1      48.371 124.796  23.559  1.00  0.00    -0.047 A 
ATOM     15  C   UNL     1      49.763 124.895  24.108  1.00  0.00     0.044 C 
BRANCH  10  16
ATOM     16  N   UNL     1      46.304 122.375  21.607  1.00  0.00    -0.398 N 
ATOM     17  H   UNL     1      46.235 121.454  22.093  1.00  0.00     0.156 HD
ATOM     18  H   UNL     1      46.103 122.395  20.582  1.00  0.00     0.156 HD
ENDBRANCH  10  16
BRANCH  11  19
ATOM     19  N   UNL     1      45.329 126.959  23.256  1.00  0.00    -0.150 N 
ATOM     20  N   UNL     1      44.404 127.104  24.205  1.00  0.00    -0.148 NA
ATOM     21  N   UNL     1      45.344 127.972  22.390  1.00  0.00    -0.148 NA
ATOM     22  C   UNL     1      43.815 128.277  23.935  1.00  0.00     0.113 A 
ATOM     23  C   UNL     1      44.389 128.808  22.823  1.00  0.00     0.113 A 
ATOM     24  C   UNL     1      42.784 128.916  24.618  1.00  0.00     0.032 A 
ATOM     25  C   UNL     1      43.984 130.027  22.290  1.00  0.00     0.032 A 
ATOM     26  C   UNL     1      42.345 130.155  24.110  1.00  0.00     0.002 A 
ATOM     27  C   UNL     1      42.943 130.708  22.951  1.00  0.00     0.002 A 
ENDBRANCH  11  19
ENDBRANCH   3   9
TORSDOF 6
ENDMDL
MODEL 4
REMARK VINA RESULT:      -4.0      4.029      7.499
REMARK SMILES COC[N-]C(=O)Nc1c(N)cc(C)cc1-n1nc2ccccc2n1
REMARK SMILES IDX 5 1 6 2 7 3 4 5 3 6 2 7 1 8 8 9 9 10 15 11 11 12 14 13 12 14
REMARK SMILES IDX 13 15 10 16 16 19 17 20 24 21 18 22 23 23 19 24 22 25 20 26
REMARK SMILES IDX 21 27
REMARK H PARENT 7 4 10 17 10 18
ROOT
ATOM      1  C   UNL     1      45.303 128.660  21.771  1.00  0.00     0.158 C 
ATOM      2  O   UNL     1      44.221 128.304  22.310  1.00  0.00    -0.299 OA
ATOM      3  N   UNL     1      45.437 129.991  21.243  1.00  0.00    -0.421 N 
ATOM      4  H   UNL     1      46.371 130.341  20.939  1.00  0.00     0.029 HD
ENDROOT
BRANCH   1   5
ATOM      5  N   UNL     1      46.378 127.718  21.692  1.00  0.00    -0.406 NA
BRANCH   5   6
ATOM      6  C   UNL     1      46.649 126.693  22.690  1.00  0.00     0.167 C 
BRANCH   6   7
ATOM      7  O   UNL     1      46.680 125.429  22.062  1.00  0.00    -0.385 OA
ATOM      8  C   UNL     1      45.461 124.761  22.299  1.00  0.00     0.194 C 
ENDBRANCH   6   7
ENDBRANCH   5   6
ENDBRANCH   1   5
BRANCH   3   9
ATOM      9  C   UNL     1      44.342 130.918  21.240  1.00  0.00     0.010 A 
ATOM     10  C   UNL     1      43.694 131.236  22.452  1.00  0.00     0.037 A 
ATOM     11  C   UNL     1      43.894 131.501  20.029  1.00  0.00     0.091 A 
ATOM     12  C   UNL     1      42.592 132.100  22.446  1.00  0.00     0.029 A 
ATOM     13  C   UNL     1      42.773 132.348  20.047  1.00  0.00     0.034 A 
ATOM     14  C   UNL     1      42.112 132.638  21.246  1.00  0.00    -0.047 A 
ATOM     15  C   UNL     1      40.949 133.585  21.255  1.00  0.00     0.044 C 
BRANCH  10  16
ATOM     16  N   UNL     1      44.127 130.666  23.695  1.00  0.00    -0.398 N 
ATOM     17  H   UNL     1      43.720 130.961  24.610  1.00  0.00     0.156 HD
ATOM     18  H   UNL     1      44.884 129.947  23.713  1.00  0.00     0.156 HD
ENDBRANCH  10  16
BRANCH  11  19
ATOM     19  N   UNL     1      44.583 131.276  18.785  1.00  0.00    -0.150 N 
ATOM     20  N   UNL     1      45.288 130.177  18.515  1.00  0.00    -0.148 NA
ATOM     21  N   UNL     1      44.618 132.168  17.795  1.00  0.00    -0.148 NA
ATOM     22  C   UNL     1      45.781 130.378  17.285  1.00  0.00     0.113 A 
ATOM     23  C   UNL     1      45.372 131.597  16.845  1.00  0.00     0.113 A 
ATOM     24  C   UNL     1      46.584 129.540  16.516  1.00  0.00     0.032 A 
ATOM     25  C   UNL     1      45.729 132.092  15.595  1.00  0.00     0.032 A 
ATOM     26  C   UNL     1      46.966 130.005  15.242  1.00  0.00     0.002 A 
ATOM     27  C   UNL     1      46.542 131.275  14.783  1.00  0.00     0.002 A 
ENDBRANCH  11  19
ENDBRANCH   3   9
TORSDOF 6
ENDMDL
MODEL 5
REMARK VINA RESULT:      -3.7      3.921      7.485
REMARK SMILES COC[N-]C(=O)Nc1c(N)cc(C)cc1-n1nc2ccccc2n1
REMARK SMILES IDX 5 1 6 2 7 3 4 5 3 6 2 7 1 8 8 9 9 10 15 11 11 12 14 13 12 14
REMARK SMILES IDX 13 15 10 16 16 19 17 20 24 21 18 22 23 23 19 24 22 25 20 26
REMARK SMILES IDX 21 27
REMARK H PARENT 7 4 10 17 10 18
ROOT
ATOM      1  C   UNL     1      45.271 128.556  21.974  1.00  0.00     0.158 C 
ATOM      2  O   UNL     1      44.254 128.240  22.647  1.00  0.00    -0.299 OA
ATOM      3  N   UNL     1      45.357 129.858  21.371  1.00  0.00    -0.421 N 
ATOM      4  H   UNL     1      46.254 130.181  20.948  1.00  0.00     0.029 HD
ENDROOT
BRANCH   1   5
ATOM      5  N   UNL     1      46.322 127.596  21.819  1.00  0.00    -0.406 NA
BRANCH   5   6
ATOM      6  C   UNL     1      46.306 126.258  22.395  1.00  0.00     0.167 C 
BRANCH   6   7
ATOM      7  O   UNL     1      47.169 125.422  21.653  1.00  0.00    -0.385 OA
ATOM      8  C   UNL     1      48.353 125.206  22.387  1.00  0.00     0.194 C 
ENDBRANCH   6   7
ENDBRANCH   5   6
ENDBRANCH   1   5
BRANCH   3   9
ATOM      9  C   UNL     1      44.277 130.800  21.447  1.00  0.00     0.010 A 
ATOM     10  C   UNL     1      43.734 131.139  22.705  1.00  0.00     0.037 A 
ATOM     11  C   UNL     1      43.739 131.377  20.270  1.00  0.00     0.091 A 
ATOM     12  C   UNL     1      42.645 132.017  22.779  1.00  0.00     0.029 A 
ATOM     13  C   UNL     1      42.634 132.238  20.371  1.00  0.00     0.034 A 
ATOM     14  C   UNL     1      42.076 132.550  21.616  1.00  0.00    -0.047 A 
ATOM     15  C   UNL     1      40.929 133.512  21.710  1.00  0.00     0.044 C 
BRANCH  10  16
ATOM     16  N   UNL     1      44.259 130.575  23.914  1.00  0.00    -0.398 N 
ATOM     17  H   UNL     1      45.177 130.875  24.311  1.00  0.00     0.156 HD
ATOM     18  H   UNL     1      43.737 129.826  24.421  1.00  0.00     0.156 HD
ENDBRANCH  10  16
BRANCH  11  19
ATOM     19  N   UNL     1      44.321 131.130  18.977  1.00  0.00    -0.150 N 
ATOM     20  N   UNL     1      43.688 131.347  17.824  1.00  0.00    -0.148 NA
ATOM     21  N   UNL     1      45.539 130.617  18.808  1.00  0.00    -0.148 NA
ATOM     22  C   UNL     1      44.557 130.967  16.877  1.00  0.00     0.113 A 
ATOM     23  C   UNL     1      45.690 130.519  17.480  1.00  0.00     0.113 A 
ATOM     24  C   UNL     1      44.409 130.989  15.493  1.00  0.00     0.032 A 
ATOM     25  C   UNL     1      46.780 130.050  16.754  1.00  0.00     0.032 A 
ATOM     26  C   UNL     1      45.492 130.524  14.721  1.00  0.00     0.002 A 
ATOM     27  C   UNL     1      46.672 130.055  15.349  1.00  0.00     0.002 A 
ENDBRANCH  11  19
ENDBRANCH   3   9
TORSDOF 6
ENDMDL
MODEL 6
REMARK VINA RESULT:      -3.6      1.394      1.411
REMARK SMILES COC[N-]C(=O)Nc1c(N)cc(C)cc1-n1nc2ccccc2n1
REMARK SMILES IDX 5 1 6 2 7 3 4 5 3 6 2 7 1 8 8 9 9 10 15 11 11 12 14 13 12 14
REMARK SMILES IDX 13 15 10 16 16 19 17 20 24 21 18 22 23 23 19 24 22 25 20 26
REMARK SMILES IDX 21 27
REMARK H PARENT 7 4 10 17 10 18
ROOT
ATOM      1  C   UNL     1      41.820 124.657  22.784  1.00  0.00     0.158 C 
ATOM      2  O   UNL     1      42.305 123.799  21.998  1.00  0.00    -0.299 OA
ATOM      3  N   UNL     1      42.672 125.326  23.729  1.00  0.00    -0.421 N 
ATOM      4  H   UNL     1      42.313 126.142  24.270  1.00  0.00     0.029 HD
ENDROOT
BRANCH   1   5
ATOM      5  N   UNL     1      40.419 124.940  22.717  1.00  0.00    -0.406 NA
BRANCH   5   6
ATOM      6  C   UNL     1      39.368 123.969  22.988  1.00  0.00     0.167 C 
BRANCH   6   7
ATOM      7  O   UNL     1      39.085 123.964  24.371  1.00  0.00    -0.385 OA
ATOM      8  C   UNL     1      37.982 123.121  24.617  1.00  0.00     0.194 C 
ENDBRANCH   6   7
ENDBRANCH   5   6
ENDBRANCH   1   5
BRANCH   3   9
ATOM      9  C   UNL     1      44.061 124.993  23.864  1.00  0.00     0.010 A 
ATOM     10  C   UNL     1      44.437 123.660  24.133  1.00  0.00     0.037 A 
ATOM     11  C   UNL     1      45.058 125.994  23.748  1.00  0.00     0.091 A 
ATOM     12  C   UNL     1      45.788 123.341  24.317  1.00  0.00     0.029 A 
ATOM     13  C   UNL     1      46.404 125.651  23.958  1.00  0.00     0.034 A 
ATOM     14  C   UNL     1      46.772 124.334  24.256  1.00  0.00    -0.047 A 
ATOM     15  C   UNL     1      48.218 123.975  24.425  1.00  0.00     0.044 C 
BRANCH  10  16
ATOM     16  N   UNL     1      43.452 122.624  24.252  1.00  0.00    -0.398 N 
ATOM     17  H   UNL     1      43.392 121.837  23.568  1.00  0.00     0.156 HD
ATOM     18  H   UNL     1      42.750 122.645  25.025  1.00  0.00     0.156 HD
ENDBRANCH  10  16
BRANCH  11  19
ATOM     19  N   UNL     1      44.727 127.347  23.384  1.00  0.00    -0.150 N 
ATOM     20  N   UNL     1      45.063 127.907  22.222  1.00  0.00    -0.148 NA
ATOM     21  N   UNL     1      44.086 128.188  24.196  1.00  0.00    -0.148 NA
ATOM     22  C   UNL     1      44.598 129.161  22.296  1.00  0.00     0.113 A 
ATOM     23  C   UNL     1      44.000 129.334  23.505  1.00  0.00     0.113 A 
ATOM     24  C   UNL     1      44.670 130.179  21.350  1.00  0.00     0.032 A 
ATOM     25  C   UNL     1      43.421 130.541  23.880  1.00  0.00     0.032 A 
ATOM     26  C   UNL     1      44.093 131.419  21.691  1.00  0.00     0.002 A 
ATOM     27  C   UNL     1      43.472 131.600  22.951  1.00  0.00     0.002 A 
ENDBRANCH  11  19
ENDBRANCH   3   9
TORSDOF 6
ENDMDL
MODEL 7
REMARK VINA RESULT:      -2.7      1.563      5.209
REMARK SMILES COC[N-]C(=O)Nc1c(N)cc(C)cc1-n1nc2ccccc2n1
REMARK SMILES IDX 5 1 6 2 7 3 4 5 3 6 2 7 1 8 8 9 9 10 15 11 11 12 14 13 12 14
REMARK SMILES IDX 13 15 10 16 16 19 17 20 24 21 18 22 23 23 19 24 22 25 20 26
REMARK SMILES IDX 21 27
REMARK H PARENT 7 4 10 17 10 18
ROOT
ATOM      1  C   UNL     1      42.551 125.699  23.254  1.00  0.00     0.158 C 
ATOM      2  O   UNL     1      42.708 125.640  22.005  1.00  0.00    -0.299 OA
ATOM      3  N   UNL     1      42.850 126.916  23.959  1.00  0.00    -0.421 N 
ATOM      4  H   UNL     1      42.576 127.022  24.959  1.00  0.00     0.029 HD
ENDROOT
BRANCH   1   5
ATOM      5  N   UNL     1      42.082 124.537  23.946  1.00  0.00    -0.406 NA
BRANCH   5   6
ATOM      6  C   UNL     1      40.789 124.439  24.609  1.00  0.00     0.167 C 
BRANCH   6   7
ATOM      7  O   UNL     1      39.785 124.215  23.642  1.00  0.00    -0.385 OA
ATOM      8  C   UNL     1      39.842 122.873  23.214  1.00  0.00     0.194 C 
ENDBRANCH   6   7
ENDBRANCH   5   6
ENDBRANCH   1   5
BRANCH   3   9
ATOM      9  C   UNL     1      43.399 128.061  23.291  1.00  0.00     0.010 A 
ATOM     10  C   UNL     1      42.634 129.242  23.186  1.00  0.00     0.037 A 
ATOM     11  C   UNL     1      44.695 128.011  22.720  1.00  0.00     0.091 A 
ATOM     12  C   UNL     1      43.146 130.344  22.490  1.00  0.00     0.029 A 
ATOM     13  C   UNL     1      45.177 129.122  22.009  1.00  0.00     0.034 A 
ATOM     14  C   UNL     1      44.404 130.282  21.879  1.00  0.00    -0.047 A 
ATOM     15  C   UNL     1      44.955 131.478  21.161  1.00  0.00     0.044 C 
BRANCH  10  16
ATOM     16  N   UNL     1      41.321 129.327  23.757  1.00  0.00    -0.398 N 
ATOM     17  H   UNL     1      40.978 128.635  24.460  1.00  0.00     0.156 HD
ATOM     18  H   UNL     1      40.662 130.081  23.463  1.00  0.00     0.156 HD
ENDBRANCH  10  16
BRANCH  11  19
ATOM     19  N   UNL     1      45.545 126.859  22.883  1.00  0.00    -0.150 N 
ATOM     20  N   UNL     1      45.279 125.852  23.715  1.00  0.00    -0.148 NA
ATOM     21  N   UNL     1      46.706 126.710  22.246  1.00  0.00    -0.148 NA
ATOM     22  C   UNL     1      46.318 125.016  23.586  1.00  0.00     0.113 A 
ATOM     23  C   UNL     1      47.192 125.541  22.687  1.00  0.00     0.113 A 
ATOM     24  C   UNL     1      46.547 123.799  24.223  1.00  0.00     0.032 A 
ATOM     25  C   UNL     1      48.377 124.900  22.343  1.00  0.00     0.032 A 
ATOM     26  C   UNL     1      47.737 123.117  23.901  1.00  0.00     0.002 A 
ATOM     27  C   UNL     1      48.648 123.665  22.966  1.00  0.00     0.002 A 
ENDBRANCH  11  19
ENDBRANCH   3   9
TORSDOF 6
ENDMDL
MODEL 8
REMARK VINA RESULT:      -2.7      1.999      4.694
REMARK SMILES COC[N-]C(=O)Nc1c(N)cc(C)cc1-n1nc2ccccc2n1
REMARK SMILES IDX 5 1 6 2 7 3 4 5 3 6 2 7 1 8 8 9 9 10 15 11 11 12 14 13 12 14
REMARK SMILES IDX 13 15 10 16 16 19 17 20 24 21 18 22 23 23 19 24 22 25 20 26
REMARK SMILES IDX 21 27
REMARK H PARENT 7 4 10 17 10 18
ROOT
ATOM      1  C   UNL     1      45.079 125.793  22.121  1.00  0.00     0.158 C 
ATOM      2  O   UNL     1      44.295 125.514  21.175  1.00  0.00    -0.299 OA
ATOM      3  N   UNL     1      44.619 125.716  23.481  1.00  0.00    -0.421 N 
ATOM      4  H   UNL     1      45.299 125.792  24.268  1.00  0.00     0.029 HD
ENDROOT
BRANCH   1   5
ATOM      5  N   UNL     1      46.420 126.189  21.812  1.00  0.00    -0.406 NA
BRANCH   5   6
ATOM      6  C   UNL     1      47.597 125.361  22.041  1.00  0.00     0.167 C 
BRANCH   6   7
ATOM      7  O   UNL     1      47.293 124.377  23.006  1.00  0.00    -0.385 OA
ATOM      8  C   UNL     1      48.316 123.407  23.019  1.00  0.00     0.194 C 
ENDBRANCH   6   7
ENDBRANCH   5   6
ENDBRANCH   1   5
BRANCH   3   9
ATOM      9  C   UNL     1      43.256 125.402  23.802  1.00  0.00     0.010 A 
ATOM     10  C   UNL     1      42.883 124.059  24.022  1.00  0.00     0.037 A 
ATOM     11  C   UNL     1      42.279 126.425  23.882  1.00  0.00     0.091 A 
ATOM     12  C   UNL     1      41.544 123.743  24.283  1.00  0.00     0.029 A 
ATOM     13  C   UNL     1      40.940 126.079  24.124  1.00  0.00     0.034 A 
ATOM     14  C   UNL     1      40.565 124.743  24.311  1.00  0.00    -0.047 A 
ATOM     15  C   UNL     1      39.139 124.396  24.622  1.00  0.00     0.044 C 
BRANCH  10  16
ATOM     16  N   UNL     1      43.849 123.001  23.953  1.00  0.00    -0.398 N 
ATOM     17  H   UNL     1      44.042 122.375  24.765  1.00  0.00     0.156 HD
ATOM     18  H   UNL     1      44.404 122.845  23.082  1.00  0.00     0.156 HD
ENDBRANCH  10  16
BRANCH  11  19
ATOM     19  N   UNL     1      42.634 127.815  23.755  1.00  0.00    -0.150 N 
ATOM     20  N   UNL     1      43.688 128.253  23.068  1.00  0.00    -0.148 NA
ATOM     21  N   UNL     1      41.963 128.799  24.354  1.00  0.00    -0.148 NA
ATOM     22  C   UNL     1      43.673 129.584  23.226  1.00  0.00     0.113 A 
ATOM     23  C   UNL     1      42.618 129.918  24.014  1.00  0.00     0.113 A 
ATOM     24  C   UNL     1      44.549 130.536  22.711  1.00  0.00     0.032 A 
ATOM     25  C   UNL     1      42.340 131.236  24.362  1.00  0.00     0.032 A 
ATOM     26  C   UNL     1      44.301 131.884  23.040  1.00  0.00     0.002 A 
ATOM     27  C   UNL     1      43.202 132.232  23.862  1.00  0.00     0.002 A 
ENDBRANCH  11  19
ENDBRANCH   3   9
TORSDOF 6
ENDMDL
MODEL 9
REMARK VINA RESULT:      -2.1      3.327      7.704
REMARK SMILES COC[N-]C(=O)Nc1c(N)cc(C)cc1-n1nc2ccccc2n1
REMARK SMILES IDX 5 1 6 2 7 3 4 5 3 6 2 7 1 8 8 9 9 10 15 11 11 12 14 13 12 14
REMARK SMILES IDX 13 15 10 16 16 19 17 20 24 21 18 22 23 23 19 24 22 25 20 26
REMARK SMILES IDX 21 27
REMARK H PARENT 7 4 10 17 10 18
ROOT
ATOM      1  C   UNL     1      45.521 130.085  18.840  1.00  0.00     0.158 C 
ATOM      2  O   UNL     1      44.432 130.658  18.574  1.00  0.00    -0.299 OA
ATOM      3  N   UNL     1      45.926 129.912  20.209  1.00  0.00    -0.421 N 
ATOM      4  H   UNL     1      46.742 129.306  20.441  1.00  0.00     0.029 HD
ENDROOT
BRANCH   1   5
ATOM      5  N   UNL     1      46.340 129.622  17.760  1.00  0.00    -0.406 NA
BRANCH   5   6
ATOM      6  C   UNL     1      46.280 130.141  16.401  1.00  0.00     0.167 C 
BRANCH   6   7
ATOM      7  O   UNL     1      44.929 130.286  16.017  1.00  0.00    -0.385 OA
ATOM      8  C   UNL     1      44.774 131.495  15.310  1.00  0.00     0.194 C 
ENDBRANCH   6   7
ENDBRANCH   5   6
ENDBRANCH   1   5
BRANCH   3   9
ATOM      9  C   UNL     1      45.157 130.443  21.298  1.00  0.00     0.010 A 
ATOM     10  C   UNL     1      44.801 131.809  21.300  1.00  0.00     0.037 A 
ATOM     11  C   UNL     1      44.768 129.614  22.379  1.00  0.00     0.091 A 
ATOM     12  C   UNL     1      44.096 132.342  22.386  1.00  0.00     0.029 A 
ATOM     13  C   UNL     1      44.080 130.179  23.466  1.00  0.00     0.034 A 
ATOM     14  C   UNL     1      43.755 131.540  23.481  1.00  0.00    -0.047 A 
ATOM     15  C   UNL     1      42.973 132.116  24.625  1.00  0.00     0.044 C 
BRANCH  10  16
ATOM     16  N   UNL     1      45.175 132.673  20.219  1.00  0.00    -0.398 N 
ATOM     17  H   UNL     1      45.205 133.711  20.325  1.00  0.00     0.156 HD
ATOM     18  H   UNL     1      45.409 132.278  19.280  1.00  0.00     0.156 HD
ENDBRANCH  10  16
BRANCH  11  19
ATOM     19  N   UNL     1      45.030 128.198  22.374  1.00  0.00    -0.150 N 
ATOM     20  N   UNL     1      46.201 127.661  22.031  1.00  0.00    -0.148 NA
ATOM     21  N   UNL     1      44.109 127.282  22.669  1.00  0.00    -0.148 NA
ATOM     22  C   UNL     1      46.016 126.338  22.132  1.00  0.00     0.113 A 
ATOM     23  C   UNL     1      44.734 126.105  22.522  1.00  0.00     0.113 A 
ATOM     24  C   UNL     1      46.920 125.307  21.895  1.00  0.00     0.032 A 
ATOM     25  C   UNL     1      44.238 124.820  22.710  1.00  0.00     0.032 A 
ATOM     26  C   UNL     1      46.457 123.988  22.076  1.00  0.00     0.002 A 
ATOM     27  C   UNL     1      45.122 123.745  22.481  1.00  0.00     0.002 A 
ENDBRANCH  11  19
ENDBRANCH   3   9
TORSDOF 6
ENDMDL


