MODEL 1
REMARK VINA RESULT:      -7.8      0.000      0.000
REMARK SMILES C=C1[C@H]2N=C(c3ncncc3F)C[C@H]2[C@H](Nc2cccc(N)c2[O-])C[C@@H]1F
REMARK SMILES IDX 16 1 15 3 2 4 26 5 3 6 25 7 4 8 14 9 5 10 13 11 1 12 27 13
REMARK SMILES IDX 6 14 7 15 11 16 8 17 10 18 9 19 12 20 17 21 18 22 23 23
REMARK SMILES IDX 19 24 21 25 20 26 24 27 22 28
REMARK H PARENT 16 2 22 29 22 30
ROOT
ATOM      1  N   UNL     1      45.621 130.634  18.425  1.00  0.00    -0.382 N 
ATOM      2  H   UNL     1      46.595 130.336  18.665  1.00  0.00     0.160 HD
ENDROOT
BRANCH   1   3
ATOM      3  C   UNL     1      44.639 130.715  19.511  1.00  0.00     0.088 C 
ATOM      4  C   UNL     1      43.102 131.624  21.783  1.00  0.00    -0.019 C 
ATOM      5  C   UNL     1      42.697 132.055  20.388  1.00  0.00     0.196 C 
ATOM      6  C   UNL     1      44.415 130.911  22.075  1.00  0.00     0.139 C 
ATOM      7  C   UNL     1      43.854 132.019  19.389  1.00  0.00     0.067 C 
ATOM      8  N   UNL     1      44.164 129.587  22.618  1.00  0.00    -0.279 NA
ATOM      9  C   UNL     1      45.361 130.670  20.874  1.00  0.00     0.046 C 
ATOM     10  C   UNL     1      44.983 128.713  22.145  1.00  0.00     0.065 C 
ATOM     11  C   UNL     1      45.934 129.269  21.147  1.00  0.00     0.066 C 
ATOM     12  C   UNL     1      42.251 131.841  22.799  1.00  0.00     0.013 C 
ATOM     13  F   UNL     1      42.186 133.343  20.420  1.00  0.00    -0.243 F 
BRANCH  10  14
ATOM     14  C   UNL     1      44.948 127.287  22.537  1.00  0.00     0.123 A 
ATOM     15  N   UNL     1      45.997 126.486  22.204  1.00  0.00    -0.232 NA
ATOM     16  C   UNL     1      43.854 126.727  23.221  1.00  0.00     0.168 A 
ATOM     17  C   UNL     1      46.007 125.163  22.517  1.00  0.00     0.222 A 
ATOM     18  C   UNL     1      43.887 125.367  23.534  1.00  0.00     0.154 A 
ATOM     19  N   UNL     1      44.960 124.613  23.182  1.00  0.00    -0.242 NA
ATOM     20  F   UNL     1      42.783 127.473  23.592  1.00  0.00    -0.203 F 
ENDBRANCH  10  14
ENDBRANCH   1   3
BRANCH   1  21
ATOM     21  C   UNL     1      45.284 130.832  17.042  1.00  0.00     0.028 A 
ATOM     22  C   UNL     1      44.098 131.491  16.674  1.00  0.00     0.025 A 
ATOM     23  C   UNL     1      46.166 130.390  16.037  1.00  0.00    -0.061 A 
ATOM     24  C   UNL     1      43.786 131.682  15.326  1.00  0.00     0.004 A 
ATOM     25  C   UNL     1      45.847 130.578  14.679  1.00  0.00     0.025 A 
ATOM     26  C   UNL     1      44.654 131.224  14.333  1.00  0.00     0.025 A 
ATOM     27  O   UNL     1      47.350 129.752  16.391  1.00  0.00    -0.870 OA
BRANCH  25  28
ATOM     28  N   UNL     1      46.729 130.116  13.649  1.00  0.00    -0.399 N 
ATOM     29  H   UNL     1      47.237 130.784  13.030  1.00  0.00     0.156 HD
ATOM     30  H   UNL     1      46.875 129.095  13.490  1.00  0.00     0.156 HD
ENDBRANCH  25  28
ENDBRANCH   1  21
TORSDOF 4
ENDMDL
MODEL 2
REMARK VINA RESULT:      -7.4      1.077      1.292
REMARK SMILES C=C1[C@H]2N=C(c3ncncc3F)C[C@H]2[C@H](Nc2cccc(N)c2[O-])C[C@@H]1F
REMARK SMILES IDX 16 1 15 3 2 4 26 5 3 6 25 7 4 8 14 9 5 10 13 11 1 12 27 13
REMARK SMILES IDX 6 14 7 15 11 16 8 17 10 18 9 19 12 20 17 21 18 22 23 23
REMARK SMILES IDX 19 24 21 25 20 26 24 27 22 28
REMARK H PARENT 16 2 22 29 22 30
ROOT
ATOM      1  N   UNL     1      45.651 130.444  18.372  1.00  0.00    -0.382 N 
ATOM      2  H   UNL     1      46.564 129.998  18.623  1.00  0.00     0.160 HD
ENDROOT
BRANCH   1   3
ATOM      3  C   UNL     1      44.664 130.635  19.439  1.00  0.00     0.088 C 
ATOM      4  C   UNL     1      43.161 131.736  21.648  1.00  0.00    -0.019 C 
ATOM      5  C   UNL     1      42.804 132.135  20.230  1.00  0.00     0.196 C 
ATOM      6  C   UNL     1      44.420 130.950  21.989  1.00  0.00     0.139 C 
ATOM      7  C   UNL     1      43.969 131.981  19.252  1.00  0.00     0.067 C 
ATOM      8  N   UNL     1      44.074 129.669  22.580  1.00  0.00    -0.279 NA
ATOM      9  C   UNL     1      45.363 130.598  20.813  1.00  0.00     0.046 C 
ATOM     10  C   UNL     1      44.839 128.724  22.156  1.00  0.00     0.065 C 
ATOM     11  C   UNL     1      45.838 129.175  21.152  1.00  0.00     0.066 C 
ATOM     12  C   UNL     1      42.314 132.052  22.640  1.00  0.00     0.013 C 
ATOM     13  F   UNL     1      42.381 133.454  20.203  1.00  0.00    -0.243 F 
BRANCH  10  14
ATOM     14  C   UNL     1      44.703 127.321  22.605  1.00  0.00     0.123 A 
ATOM     15  N   UNL     1      43.541 126.928  23.194  1.00  0.00    -0.232 NA
ATOM     16  C   UNL     1      45.747 126.388  22.466  1.00  0.00     0.168 A 
ATOM     17  C   UNL     1      43.371 125.658  23.650  1.00  0.00     0.222 A 
ATOM     18  C   UNL     1      45.548 125.089  22.939  1.00  0.00     0.154 A 
ATOM     19  N   UNL     1      44.368 124.747  23.515  1.00  0.00    -0.242 NA
ATOM     20  F   UNL     1      46.925 126.713  21.878  1.00  0.00    -0.203 F 
ENDBRANCH  10  14
ENDBRANCH   1   3
BRANCH   1  21
ATOM     21  C   UNL     1      45.385 130.732  16.989  1.00  0.00     0.028 A 
ATOM     22  C   UNL     1      44.238 131.452  16.610  1.00  0.00     0.025 A 
ATOM     23  C   UNL     1      46.296 130.318  16.000  1.00  0.00    -0.061 A 
ATOM     24  C   UNL     1      43.994 131.730  15.264  1.00  0.00     0.004 A 
ATOM     25  C   UNL     1      46.046 130.594  14.642  1.00  0.00     0.025 A 
ATOM     26  C   UNL     1      44.890 131.300  14.283  1.00  0.00     0.025 A 
ATOM     27  O   UNL     1      47.442 129.619  16.367  1.00  0.00    -0.870 OA
BRANCH  25  28
ATOM     28  N   UNL     1      46.958 130.161  13.627  1.00  0.00    -0.399 N 
ATOM     29  H   UNL     1      47.363 129.200  13.635  1.00  0.00     0.156 HD
ATOM     30  H   UNL     1      47.244 130.805  12.857  1.00  0.00     0.156 HD
ENDBRANCH  25  28
ENDBRANCH   1  21
TORSDOF 4
ENDMDL
MODEL 3
REMARK VINA RESULT:      -6.6      1.393      1.622
REMARK SMILES C=C1[C@H]2N=C(c3ncncc3F)C[C@H]2[C@H](Nc2cccc(N)c2[O-])C[C@@H]1F
REMARK SMILES IDX 16 1 15 3 2 4 26 5 3 6 25 7 4 8 14 9 5 10 13 11 1 12 27 13
REMARK SMILES IDX 6 14 7 15 11 16 8 17 10 18 9 19 12 20 17 21 18 22 23 23
REMARK SMILES IDX 19 24 21 25 20 26 24 27 22 28
REMARK H PARENT 16 2 22 29 22 30
ROOT
ATOM      1  N   UNL     1      45.813 130.337  17.623  1.00  0.00    -0.382 N 
ATOM      2  H   UNL     1      46.625 129.844  18.063  1.00  0.00     0.160 HD
ENDROOT
BRANCH   1   3
ATOM      3  C   UNL     1      44.675 130.683  18.480  1.00  0.00     0.088 C 
ATOM      4  C   UNL     1      42.737 132.156  20.038  1.00  0.00    -0.019 C 
ATOM      5  C   UNL     1      42.514 131.972  18.550  1.00  0.00     0.196 C 
ATOM      6  C   UNL     1      44.047 131.792  20.724  1.00  0.00     0.139 C 
ATOM      7  C   UNL     1      43.808 131.724  17.776  1.00  0.00     0.067 C 
ATOM      8  N   UNL     1      43.830 130.747  21.710  1.00  0.00    -0.279 NA
ATOM      9  C   UNL     1      45.181 131.251  19.822  1.00  0.00     0.046 C 
ATOM     10  C   UNL     1      44.784 129.881  21.706  1.00  0.00     0.065 C 
ATOM     11  C   UNL     1      45.824 130.148  20.679  1.00  0.00     0.066 C 
ATOM     12  C   UNL     1      41.726 132.619  20.790  1.00  0.00     0.013 C 
ATOM     13  F   UNL     1      41.896 133.095  18.023  1.00  0.00    -0.243 F 
BRANCH  10  14
ATOM     14  C   UNL     1      44.811 128.716  22.617  1.00  0.00     0.123 A 
ATOM     15  N   UNL     1      45.523 127.614  22.256  1.00  0.00    -0.232 NA
ATOM     16  C   UNL     1      44.103 128.701  23.832  1.00  0.00     0.168 A 
ATOM     17  C   UNL     1      45.563 126.505  23.042  1.00  0.00     0.222 A 
ATOM     18  C   UNL     1      44.161 127.553  24.625  1.00  0.00     0.154 A 
ATOM     19  N   UNL     1      44.890 126.482  24.220  1.00  0.00    -0.242 NA
ATOM     20  F   UNL     1      43.384 129.770  24.255  1.00  0.00    -0.203 F 
ENDBRANCH  10  14
ENDBRANCH   1   3
BRANCH   1  21
ATOM     21  C   UNL     1      45.820 130.536  16.200  1.00  0.00     0.028 A 
ATOM     22  C   UNL     1      44.751 131.187  15.557  1.00  0.00     0.025 A 
ATOM     23  C   UNL     1      46.922 130.106  15.438  1.00  0.00    -0.061 A 
ATOM     24  C   UNL     1      44.772 131.380  14.175  1.00  0.00     0.004 A 
ATOM     25  C   UNL     1      46.940 130.297  14.043  1.00  0.00     0.025 A 
ATOM     26  C   UNL     1      45.859 130.934  13.419  1.00  0.00     0.025 A 
ATOM     27  O   UNL     1      47.992 129.477  16.067  1.00  0.00    -0.870 OA
BRANCH  25  28
ATOM     28  N   UNL     1      48.048 129.847  13.256  1.00  0.00    -0.399 N 
ATOM     29  H   UNL     1      47.943 129.078  12.559  1.00  0.00     0.156 HD
ATOM     30  H   UNL     1      48.993 130.275  13.371  1.00  0.00     0.156 HD
ENDBRANCH  25  28
ENDBRANCH   1  21
TORSDOF 4
ENDMDL
MODEL 4
REMARK VINA RESULT:      -6.3      1.364      1.597
REMARK SMILES C=C1[C@H]2N=C(c3ncncc3F)C[C@H]2[C@H](Nc2cccc(N)c2[O-])C[C@@H]1F
REMARK SMILES IDX 16 1 15 3 2 4 26 5 3 6 25 7 4 8 14 9 5 10 13 11 1 12 27 13
REMARK SMILES IDX 6 14 7 15 11 16 8 17 10 18 9 19 12 20 17 21 18 22 23 23
REMARK SMILES IDX 19 24 21 25 20 26 24 27 22 28
REMARK H PARENT 16 2 22 29 22 30
ROOT
ATOM      1  N   UNL     1      45.076 131.569  18.848  1.00  0.00    -0.382 N 
ATOM      2  H   UNL     1      46.047 131.842  19.127  1.00  0.00     0.160 HD
ENDROOT
BRANCH   1   3
ATOM      3  C   UNL     1      44.061 131.471  19.902  1.00  0.00     0.088 C 
ATOM      4  C   UNL     1      42.368 132.053  22.170  1.00  0.00    -0.019 C 
ATOM      5  C   UNL     1      41.958 132.530  20.791  1.00  0.00     0.196 C 
ATOM      6  C   UNL     1      43.743 131.468  22.463  1.00  0.00     0.139 C 
ATOM      7  C   UNL     1      43.140 132.686  19.835  1.00  0.00     0.067 C 
ATOM      8  N   UNL     1      43.625 130.092  22.911  1.00  0.00    -0.279 NA
ATOM      9  C   UNL     1      44.744 131.412  21.284  1.00  0.00     0.046 C 
ATOM     10  C   UNL     1      44.548 129.345  22.413  1.00  0.00     0.065 C 
ATOM     11  C   UNL     1      45.460 130.067  21.488  1.00  0.00     0.066 C 
ATOM     12  C   UNL     1      41.470 132.109  23.166  1.00  0.00     0.013 C 
ATOM     13  F   UNL     1      41.308 133.750  20.887  1.00  0.00    -0.243 F 
BRANCH  10  14
ATOM     14  C   UNL     1      44.660 127.901  22.713  1.00  0.00     0.123 A 
ATOM     15  N   UNL     1      43.825 127.354  23.638  1.00  0.00    -0.232 NA
ATOM     16  C   UNL     1      45.619 127.081  22.092  1.00  0.00     0.168 A 
ATOM     17  C   UNL     1      43.899 126.038  23.972  1.00  0.00     0.222 A 
ATOM     18  C   UNL     1      45.676 125.732  22.449  1.00  0.00     0.154 A 
ATOM     19  N   UNL     1      44.816 125.236  23.375  1.00  0.00    -0.242 NA
ATOM     20  F   UNL     1      46.474 127.561  21.155  1.00  0.00    -0.203 F 
ENDBRANCH  10  14
ENDBRANCH   1   3
BRANCH   1  21
ATOM     21  C   UNL     1      44.832 131.201  17.480  1.00  0.00     0.028 A 
ATOM     22  C   UNL     1      43.972 131.964  16.669  1.00  0.00     0.025 A 
ATOM     23  C   UNL     1      45.484 130.081  16.930  1.00  0.00    -0.061 A 
ATOM     24  C   UNL     1      43.749 131.598  15.341  1.00  0.00     0.004 A 
ATOM     25  C   UNL     1      45.253 129.711  15.592  1.00  0.00     0.025 A 
ATOM     26  C   UNL     1      44.382 130.475  14.804  1.00  0.00     0.025 A 
ATOM     27  O   UNL     1      46.349 129.331  17.720  1.00  0.00    -0.870 OA
BRANCH  25  28
ATOM     28  N   UNL     1      45.898 128.563  15.028  1.00  0.00    -0.399 N 
ATOM     29  H   UNL     1      46.841 128.257  15.352  1.00  0.00     0.156 HD
ATOM     30  H   UNL     1      45.439 128.011  14.271  1.00  0.00     0.156 HD
ENDBRANCH  25  28
ENDBRANCH   1  21
TORSDOF 4
ENDMDL
MODEL 5
REMARK VINA RESULT:      -6.3      1.306      1.602
REMARK SMILES C=C1[C@H]2N=C(c3ncncc3F)C[C@H]2[C@H](Nc2cccc(N)c2[O-])C[C@@H]1F
REMARK SMILES IDX 16 1 15 3 2 4 26 5 3 6 25 7 4 8 14 9 5 10 13 11 1 12 27 13
REMARK SMILES IDX 6 14 7 15 11 16 8 17 10 18 9 19 12 20 17 21 18 22 23 23
REMARK SMILES IDX 19 24 21 25 20 26 24 27 22 28
REMARK H PARENT 16 2 22 29 22 30
ROOT
ATOM      1  N   UNL     1      45.542 131.311  18.725  1.00  0.00    -0.382 N 
ATOM      2  H   UNL     1      46.440 131.781  18.987  1.00  0.00     0.160 HD
ENDROOT
BRANCH   1   3
ATOM      3  C   UNL     1      44.538 131.112  19.775  1.00  0.00     0.088 C 
ATOM      4  C   UNL     1      42.861 131.481  22.099  1.00  0.00    -0.019 C 
ATOM      5  C   UNL     1      42.433 132.068  20.769  1.00  0.00     0.196 C 
ATOM      6  C   UNL     1      44.245 130.890  22.329  1.00  0.00     0.139 C 
ATOM      7  C   UNL     1      43.604 132.318  19.819  1.00  0.00     0.067 C 
ATOM      8  N   UNL     1      44.145 129.479  22.661  1.00  0.00    -0.279 NA
ATOM      9  C   UNL     1      45.235 130.945  21.141  1.00  0.00     0.046 C 
ATOM     10  C   UNL     1      45.072 128.788  22.094  1.00  0.00     0.065 C 
ATOM     11  C   UNL     1      45.967 129.595  21.225  1.00  0.00     0.066 C 
ATOM     12  C   UNL     1      41.972 131.443  23.104  1.00  0.00     0.013 C 
ATOM     13  F   UNL     1      41.771 133.269  20.973  1.00  0.00    -0.243 F 
BRANCH  10  14
ATOM     14  C   UNL     1      45.201 127.325  22.270  1.00  0.00     0.123 A 
ATOM     15  N   UNL     1      46.368 126.719  21.918  1.00  0.00    -0.232 NA
ATOM     16  C   UNL     1      44.147 126.536  22.764  1.00  0.00     0.168 A 
ATOM     17  C   UNL     1      46.534 125.375  22.034  1.00  0.00     0.222 A 
ATOM     18  C   UNL     1      44.341 125.157  22.877  1.00  0.00     0.154 A 
ATOM     19  N   UNL     1      45.527 124.604  22.516  1.00  0.00    -0.242 NA
ATOM     20  F   UNL     1      42.963 127.078  23.143  1.00  0.00    -0.203 F 
ENDBRANCH  10  14
ENDBRANCH   1   3
BRANCH   1  21
ATOM     21  C   UNL     1      45.402 130.793  17.391  1.00  0.00     0.028 A 
ATOM     22  C   UNL     1      46.206 129.730  16.941  1.00  0.00     0.025 A 
ATOM     23  C   UNL     1      44.427 131.331  16.530  1.00  0.00    -0.061 A 
ATOM     24  C   UNL     1      46.056 129.232  15.646  1.00  0.00     0.004 A 
ATOM     25  C   UNL     1      44.280 130.831  15.222  1.00  0.00     0.025 A 
ATOM     26  C   UNL     1      45.101 129.782  14.788  1.00  0.00     0.025 A 
ATOM     27  O   UNL     1      43.616 132.371  16.973  1.00  0.00    -0.870 OA
BRANCH  25  28
ATOM     28  N   UNL     1      43.304 131.384  14.333  1.00  0.00    -0.399 N 
ATOM     29  H   UNL     1      43.027 132.388  14.388  1.00  0.00     0.156 HD
ATOM     30  H   UNL     1      42.840 130.788  13.613  1.00  0.00     0.156 HD
ENDBRANCH  25  28
ENDBRANCH   1  21
TORSDOF 4
ENDMDL
MODEL 6
REMARK VINA RESULT:      -5.9      1.893      2.274
REMARK SMILES C=C1[C@H]2N=C(c3ncncc3F)C[C@H]2[C@H](Nc2cccc(N)c2[O-])C[C@@H]1F
REMARK SMILES IDX 16 1 15 3 2 4 26 5 3 6 25 7 4 8 14 9 5 10 13 11 1 12 27 13
REMARK SMILES IDX 6 14 7 15 11 16 8 17 10 18 9 19 12 20 17 21 18 22 23 23
REMARK SMILES IDX 19 24 21 25 20 26 24 27 22 28
REMARK H PARENT 16 2 22 29 22 30
ROOT
ATOM      1  N   UNL     1      45.725 130.661  19.268  1.00  0.00    -0.382 N 
ATOM      2  H   UNL     1      46.696 130.888  19.588  1.00  0.00     0.160 HD
ENDROOT
BRANCH   1   3
ATOM      3  C   UNL     1      44.702 130.423  20.292  1.00  0.00     0.088 C 
ATOM      4  C   UNL     1      43.060 130.643  22.659  1.00  0.00    -0.019 C 
ATOM      5  C   UNL     1      42.696 131.440  21.422  1.00  0.00     0.196 C 
ATOM      6  C   UNL     1      44.379 129.894  22.797  1.00  0.00     0.139 C 
ATOM      7  C   UNL     1      43.891 131.699  20.503  1.00  0.00     0.067 C 
ATOM      8  N   UNL     1      44.141 128.469  22.940  1.00  0.00    -0.279 NA
ATOM      9  C   UNL     1      45.374 130.010  21.618  1.00  0.00     0.046 C 
ATOM     10  C   UNL     1      44.998 127.772  22.278  1.00  0.00     0.065 C 
ATOM     11  C   UNL     1      45.971 128.596  21.515  1.00  0.00     0.066 C 
ATOM     12  C   UNL     1      42.167 130.558  23.658  1.00  0.00     0.013 C 
ATOM     13  F   UNL     1      42.154 132.661  21.789  1.00  0.00    -0.243 F 
BRANCH  10  14
ATOM     14  C   UNL     1      44.983 126.293  22.258  1.00  0.00     0.123 A 
ATOM     15  N   UNL     1      43.786 125.645  22.265  1.00  0.00    -0.232 NA
ATOM     16  C   UNL     1      46.167 125.534  22.258  1.00  0.00     0.168 A 
ATOM     17  C   UNL     1      43.712 124.288  22.273  1.00  0.00     0.222 A 
ATOM     18  C   UNL     1      46.068 124.141  22.264  1.00  0.00     0.154 A 
ATOM     19  N   UNL     1      44.848 123.545  22.266  1.00  0.00    -0.242 NA
ATOM     20  F   UNL     1      47.392 126.116  22.240  1.00  0.00    -0.203 F 
ENDBRANCH  10  14
ENDBRANCH   1   3
BRANCH   1  21
ATOM     21  C   UNL     1      45.489 130.486  17.861  1.00  0.00     0.028 A 
ATOM     22  C   UNL     1      46.171 129.494  17.133  1.00  0.00     0.025 A 
ATOM     23  C   UNL     1      44.540 131.292  17.205  1.00  0.00    -0.061 A 
ATOM     24  C   UNL     1      45.928 129.330  15.768  1.00  0.00     0.004 A 
ATOM     25  C   UNL     1      44.300 131.129  15.828  1.00  0.00     0.025 A 
ATOM     26  C   UNL     1      45.000 130.146  15.116  1.00  0.00     0.025 A 
ATOM     27  O   UNL     1      43.848 132.264  17.921  1.00  0.00    -0.870 OA
BRANCH  25  28
ATOM     28  N   UNL     1      43.350 131.956  15.147  1.00  0.00    -0.399 N 
ATOM     29  H   UNL     1      42.330 131.735  15.160  1.00  0.00     0.156 HD
ATOM     30  H   UNL     1      43.660 132.797  14.614  1.00  0.00     0.156 HD
ENDBRANCH  25  28
ENDBRANCH   1  21
TORSDOF 4
ENDMDL
MODEL 7
REMARK VINA RESULT:      -5.4      3.293      5.797
REMARK SMILES C=C1[C@H]2N=C(c3ncncc3F)C[C@H]2[C@H](Nc2cccc(N)c2[O-])C[C@@H]1F
REMARK SMILES IDX 16 1 15 3 2 4 26 5 3 6 25 7 4 8 14 9 5 10 13 11 1 12 27 13
REMARK SMILES IDX 6 14 7 15 11 16 8 17 10 18 9 19 12 20 17 21 18 22 23 23
REMARK SMILES IDX 19 24 21 25 20 26 24 27 22 28
REMARK H PARENT 16 2 22 29 22 30
ROOT
ATOM      1  N   UNL     1      45.089 128.618  22.782  1.00  0.00    -0.382 N 
ATOM      2  H   UNL     1      46.068 128.755  23.125  1.00  0.00     0.160 HD
ENDROOT
BRANCH   1   3
ATOM      3  C   UNL     1      44.521 127.267  22.847  1.00  0.00     0.088 C 
ATOM      4  C   UNL     1      43.130 124.895  23.734  1.00  0.00    -0.019 C 
ATOM      5  C   UNL     1      42.362 125.986  23.015  1.00  0.00     0.196 C 
ATOM      6  C   UNL     1      44.563 125.078  24.213  1.00  0.00     0.139 C 
ATOM      7  C   UNL     1      43.024 127.359  23.127  1.00  0.00     0.067 C 
ATOM      8  N   UNL     1      45.446 124.136  23.547  1.00  0.00    -0.279 NA
ATOM      9  C   UNL     1      45.210 126.462  23.968  1.00  0.00     0.046 C 
ATOM     10  C   UNL     1      46.571 124.676  23.231  1.00  0.00     0.065 C 
ATOM     11  C   UNL     1      46.659 126.116  23.587  1.00  0.00     0.066 C 
ATOM     12  C   UNL     1      42.539 123.704  23.920  1.00  0.00     0.013 C 
ATOM     13  F   UNL     1      41.077 126.076  23.527  1.00  0.00    -0.243 F 
BRANCH  10  14
ATOM     14  C   UNL     1      47.652 123.933  22.546  1.00  0.00     0.123 A 
ATOM     15  N   UNL     1      48.941 124.144  22.929  1.00  0.00    -0.232 NA
ATOM     16  C   UNL     1      47.392 123.036  21.495  1.00  0.00     0.168 A 
ATOM     17  C   UNL     1      49.976 123.508  22.318  1.00  0.00     0.222 A 
ATOM     18  C   UNL     1      48.470 122.393  20.884  1.00  0.00     0.154 A 
ATOM     19  N   UNL     1      49.737 122.635  21.307  1.00  0.00    -0.242 NA
ATOM     20  F   UNL     1      46.130 122.774  21.073  1.00  0.00    -0.203 F 
ENDBRANCH  10  14
ENDBRANCH   1   3
BRANCH   1  21
ATOM     21  C   UNL     1      44.413 129.729  22.170  1.00  0.00     0.028 A 
ATOM     22  C   UNL     1      43.296 130.322  22.784  1.00  0.00     0.025 A 
ATOM     23  C   UNL     1      44.891 130.255  20.955  1.00  0.00    -0.061 A 
ATOM     24  C   UNL     1      42.652 131.405  22.181  1.00  0.00     0.004 A 
ATOM     25  C   UNL     1      44.238 131.344  20.346  1.00  0.00     0.025 A 
ATOM     26  C   UNL     1      43.118 131.912  20.966  1.00  0.00     0.025 A 
ATOM     27  O   UNL     1      46.007 129.686  20.348  1.00  0.00    -0.870 OA
BRANCH  25  28
ATOM     28  N   UNL     1      44.706 131.875  19.101  1.00  0.00    -0.399 N 
ATOM     29  H   UNL     1      44.149 131.775  18.225  1.00  0.00     0.156 HD
ATOM     30  H   UNL     1      45.624 132.368  19.042  1.00  0.00     0.156 HD
ENDBRANCH  25  28
ENDBRANCH   1  21
TORSDOF 4
ENDMDL
MODEL 8
REMARK VINA RESULT:      -5.3      4.355      7.928
REMARK SMILES C=C1[C@H]2N=C(c3ncncc3F)C[C@H]2[C@H](Nc2cccc(N)c2[O-])C[C@@H]1F
REMARK SMILES IDX 16 1 15 3 2 4 26 5 3 6 25 7 4 8 14 9 5 10 13 11 1 12 27 13
REMARK SMILES IDX 6 14 7 15 11 16 8 17 10 18 9 19 12 20 17 21 18 22 23 23
REMARK SMILES IDX 19 24 21 25 20 26 24 27 22 28
REMARK H PARENT 16 2 22 29 22 30
ROOT
ATOM      1  N   UNL     1      48.485 125.220  22.268  1.00  0.00    -0.382 N 
ATOM      2  H   UNL     1      48.525 124.858  21.287  1.00  0.00     0.160 HD
ENDROOT
BRANCH   1   3
ATOM      3  C   UNL     1      47.198 125.168  22.968  1.00  0.00     0.088 C 
ATOM      4  C   UNL     1      44.531 124.423  23.794  1.00  0.00    -0.019 C 
ATOM      5  C   UNL     1      45.725 123.704  24.390  1.00  0.00     0.196 C 
ATOM      6  C   UNL     1      44.650 125.375  22.612  1.00  0.00     0.139 C 
ATOM      7  C   UNL     1      46.963 123.755  23.494  1.00  0.00     0.067 C 
ATOM      8  N   UNL     1      44.238 126.715  22.996  1.00  0.00    -0.279 NA
ATOM      9  C   UNL     1      46.060 125.558  22.002  1.00  0.00     0.046 C 
ATOM     10  C   UNL     1      44.999 127.616  22.478  1.00  0.00     0.065 C 
ATOM     11  C   UNL     1      46.112 127.058  21.666  1.00  0.00     0.066 C 
ATOM     12  C   UNL     1      43.325 124.247  24.357  1.00  0.00     0.013 C 
ATOM     13  F   UNL     1      45.408 122.375  24.623  1.00  0.00    -0.243 F 
BRANCH  10  14
ATOM     14  C   UNL     1      44.796 129.063  22.705  1.00  0.00     0.123 A 
ATOM     15  N   UNL     1      44.279 129.477  23.895  1.00  0.00    -0.232 NA
ATOM     16  C   UNL     1      45.095 130.023  21.722  1.00  0.00     0.168 A 
ATOM     17  C   UNL     1      44.047 130.792  24.149  1.00  0.00     0.222 A 
ATOM     18  C   UNL     1      44.851 131.368  22.006  1.00  0.00     0.154 A 
ATOM     19  N   UNL     1      44.338 131.728  23.211  1.00  0.00    -0.242 NA
ATOM     20  F   UNL     1      45.622 129.678  20.521  1.00  0.00    -0.203 F 
ENDBRANCH  10  14
ENDBRANCH   1   3
BRANCH   1  21
ATOM     21  C   UNL     1      49.657 125.844  22.818  1.00  0.00     0.028 A 
ATOM     22  C   UNL     1      49.630 126.433  24.095  1.00  0.00     0.025 A 
ATOM     23  C   UNL     1      50.860 125.841  22.087  1.00  0.00    -0.061 A 
ATOM     24  C   UNL     1      50.777 127.031  24.621  1.00  0.00     0.004 A 
ATOM     25  C   UNL     1      52.015 126.449  22.616  1.00  0.00     0.025 A 
ATOM     26  C   UNL     1      51.964 127.043  23.884  1.00  0.00     0.025 A 
ATOM     27  O   UNL     1      50.901 125.246  20.830  1.00  0.00    -0.870 OA
BRANCH  25  28
ATOM     28  N   UNL     1      53.238 126.467  21.873  1.00  0.00    -0.399 N 
ATOM     29  H   UNL     1      53.272 126.167  20.874  1.00  0.00     0.156 HD
ATOM     30  H   UNL     1      54.130 126.774  22.320  1.00  0.00     0.156 HD
ENDBRANCH  25  28
ENDBRANCH   1  21
TORSDOF 4
ENDMDL
MODEL 9
REMARK VINA RESULT:      -5.2      1.736      2.150
REMARK SMILES C=C1[C@H]2N=C(c3ncncc3F)C[C@H]2[C@H](Nc2cccc(N)c2[O-])C[C@@H]1F
REMARK SMILES IDX 16 1 15 3 2 4 26 5 3 6 25 7 4 8 14 9 5 10 13 11 1 12 27 13
REMARK SMILES IDX 6 14 7 15 11 16 8 17 10 18 9 19 12 20 17 21 18 22 23 23
REMARK SMILES IDX 19 24 21 25 20 26 24 27 22 28
REMARK H PARENT 16 2 22 29 22 30
ROOT
ATOM      1  N   UNL     1      45.818 131.383  17.793  1.00  0.00    -0.382 N 
ATOM      2  H   UNL     1      46.663 131.845  18.202  1.00  0.00     0.160 HD
ENDROOT
BRANCH   1   3
ATOM      3  C   UNL     1      44.576 131.407  18.574  1.00  0.00     0.088 C 
ATOM      4  C   UNL     1      42.277 132.299  20.080  1.00  0.00    -0.019 C 
ATOM      5  C   UNL     1      42.198 132.232  18.568  1.00  0.00     0.196 C 
ATOM      6  C   UNL     1      43.583 132.129  20.844  1.00  0.00     0.139 C 
ATOM      7  C   UNL     1      43.566 132.326  17.892  1.00  0.00     0.067 C 
ATOM      8  N   UNL     1      43.518 130.965  21.710  1.00  0.00    -0.279 NA
ATOM      9  C   UNL     1      44.864 131.919  20.000  1.00  0.00     0.046 C 
ATOM     10  C   UNL     1      44.626 130.308  21.713  1.00  0.00     0.065 C 
ATOM     11  C   UNL     1      45.658 130.881  20.809  1.00  0.00     0.066 C 
ATOM     12  C   UNL     1      41.144 132.473  20.779  1.00  0.00     0.013 C 
ATOM     13  F   UNL     1      41.402 133.261  18.090  1.00  0.00    -0.243 F 
BRANCH  10  14
ATOM     14  C   UNL     1      44.828 129.082  22.515  1.00  0.00     0.123 A 
ATOM     15  N   UNL     1      45.009 127.896  21.873  1.00  0.00    -0.232 NA
ATOM     16  C   UNL     1      44.812 129.099  23.922  1.00  0.00     0.168 A 
ATOM     17  C   UNL     1      45.174 126.734  22.559  1.00  0.00     0.222 A 
ATOM     18  C   UNL     1      44.987 127.894  24.606  1.00  0.00     0.154 A 
ATOM     19  N   UNL     1      45.168 126.739  23.916  1.00  0.00    -0.242 NA
ATOM     20  F   UNL     1      44.648 130.249  24.623  1.00  0.00    -0.203 F 
ENDBRANCH  10  14
ENDBRANCH   1   3
BRANCH   1  21
ATOM     21  C   UNL     1      45.959 130.662  16.558  1.00  0.00     0.028 A 
ATOM     22  C   UNL     1      45.729 129.276  16.500  1.00  0.00     0.025 A 
ATOM     23  C   UNL     1      46.299 131.353  15.380  1.00  0.00    -0.061 A 
ATOM     24  C   UNL     1      45.864 128.589  15.292  1.00  0.00     0.004 A 
ATOM     25  C   UNL     1      46.440 130.658  14.163  1.00  0.00     0.025 A 
ATOM     26  C   UNL     1      46.221 129.275  14.130  1.00  0.00     0.025 A 
ATOM     27  O   UNL     1      46.511 132.727  15.424  1.00  0.00    -0.870 OA
BRANCH  25  28
ATOM     28  N   UNL     1      46.804 131.349  12.963  1.00  0.00    -0.399 N 
ATOM     29  H   UNL     1      47.486 132.137  12.976  1.00  0.00     0.156 HD
ATOM     30  H   UNL     1      46.384 131.082  12.046  1.00  0.00     0.156 HD
ENDBRANCH  25  28
ENDBRANCH   1  21
TORSDOF 4
ENDMDL


