MODEL 1
REMARK VINA RESULT:      -6.2      0.000      0.000
REMARK SMILES Cc1ccoc1[N-]C(=O)N1CCC[C@H](c2ccc3ccc(C)c(F)c3[nH+]2)[C@@H]1F
REMARK SMILES IDX 8 1 9 2 7 3 6 4 2 5 3 6 4 7 5 8 1 9 10 10 11 11 27 12 12 13
REMARK SMILES IDX 14 14 13 15 28 16 15 17 16 18 26 19 17 20 25 21 18 22 23 23
REMARK SMILES IDX 19 24 21 25 20 26 24 28 22 29
REMARK H PARENT 26 27
ROOT
ATOM      1  C   UNL     1      44.980 130.270  21.456  1.00  0.00     0.163 C 
ATOM      2  O   UNL     1      46.074 130.029  20.877  1.00  0.00    -0.298 OA
ENDROOT
BRANCH   1   3
ATOM      3  N   UNL     1      44.601 129.512  22.611  1.00  0.00    -0.369 NA
BRANCH   3   4
ATOM      4  C   UNL     1      44.625 128.085  22.689  1.00  0.00     0.123 A 
ATOM      5  C   UNL     1      43.887 127.330  23.573  1.00  0.00    -0.009 A 
ATOM      6  C   UNL     1      44.233 126.019  23.328  1.00  0.00     0.045 A 
ATOM      7  C   UNL     1      45.176 126.063  22.317  1.00  0.00     0.195 A 
ATOM      8  O   UNL     1      45.390 127.310  21.956  1.00  0.00    -0.468 OA
ATOM      9  C   UNL     1      42.869 127.818  24.553  1.00  0.00     0.048 C 
ENDBRANCH   3   4
ENDBRANCH   1   3
BRANCH   1  10
ATOM     10  N   UNL     1      44.155 131.362  20.999  1.00  0.00    -0.406 N 
ATOM     11  C   UNL     1      42.692 131.233  21.117  1.00  0.00     0.008 C 
ATOM     12  C   UNL     1      44.696 132.496  20.230  1.00  0.00     0.190 C 
ATOM     13  C   UNL     1      41.955 132.182  20.156  1.00  0.00     0.000 C 
ATOM     14  C   UNL     1      44.126 132.486  18.792  1.00  0.00     0.119 C 
ATOM     15  C   UNL     1      42.602 132.159  18.761  1.00  0.00     0.017 C 
ATOM     16  F   UNL     1      46.082 132.520  20.224  1.00  0.00    -0.247 F 
BRANCH  14  17
ATOM     17  C   UNL     1      44.926 131.543  17.904  1.00  0.00     0.186 A 
ATOM     18  C   UNL     1      44.922 130.165  18.170  1.00  0.00     0.075 A 
ATOM     19  N   UNL     1      45.562 132.009  16.786  1.00  0.00    -0.206 N 
ATOM     20  C   UNL     1      45.548 129.286  17.290  1.00  0.00     0.021 A 
ATOM     21  C   UNL     1      46.159 131.168  15.892  1.00  0.00     0.247 A 
ATOM     22  C   UNL     1      46.162 129.776  16.132  1.00  0.00     0.049 A 
ATOM     23  C   UNL     1      46.742 131.669  14.712  1.00  0.00     0.197 A 
ATOM     24  C   UNL     1      46.743 128.906  15.203  1.00  0.00     0.015 A 
ATOM     25  C   UNL     1      47.321 130.789  13.780  1.00  0.00    -0.008 A 
ATOM     26  C   UNL     1      47.312 129.409  14.030  1.00  0.00     0.007 A 
ATOM     27  H   UNL     1      45.562 133.036  16.596  1.00  0.00     0.454 HD
ATOM     28  F   UNL     1      46.725 133.003  14.456  1.00  0.00    -0.199 F 
ATOM     29  C   UNL     1      47.887 131.320  12.495  1.00  0.00     0.048 C 
ENDBRANCH  14  17
ENDBRANCH   1  10
TORSDOF 4
ENDMDL
MODEL 2
REMARK VINA RESULT:      -6.0      2.581      7.125
REMARK SMILES Cc1ccoc1[N-]C(=O)N1CCC[C@H](c2ccc3ccc(C)c(F)c3[nH+]2)[C@@H]1F
REMARK SMILES IDX 8 1 9 2 7 3 6 4 2 5 3 6 4 7 5 8 1 9 10 10 11 11 27 12 12 13
REMARK SMILES IDX 14 14 13 15 28 16 15 17 16 18 26 19 17 20 25 21 18 22 23 23
REMARK SMILES IDX 19 24 21 25 20 26 24 28 22 29
REMARK H PARENT 26 27
ROOT
ATOM      1  C   UNL     1      45.166 130.578  20.935  1.00  0.00     0.163 C 
ATOM      2  O   UNL     1      45.204 129.321  21.044  1.00  0.00    -0.298 OA
ENDROOT
BRANCH   1   3
ATOM      3  N   UNL     1      45.766 131.214  19.800  1.00  0.00    -0.369 NA
BRANCH   3   4
ATOM      4  C   UNL     1      45.353 131.017  18.447  1.00  0.00     0.123 A 
ATOM      5  C   UNL     1      44.136 131.401  17.929  1.00  0.00    -0.009 A 
ATOM      6  C   UNL     1      44.144 130.998  16.611  1.00  0.00     0.045 A 
ATOM      7  C   UNL     1      45.365 130.376  16.417  1.00  0.00     0.195 A 
ATOM      8  O   UNL     1      46.064 130.403  17.531  1.00  0.00    -0.468 OA
ATOM      9  C   UNL     1      43.052 132.159  18.625  1.00  0.00     0.048 C 
ENDBRANCH   3   4
ENDBRANCH   1   3
BRANCH   1  10
ATOM     10  N   UNL     1      44.449 131.359  21.913  1.00  0.00    -0.406 N 
ATOM     11  C   UNL     1      45.225 132.149  22.885  1.00  0.00     0.008 C 
ATOM     12  C   UNL     1      42.996 131.232  22.118  1.00  0.00     0.190 C 
ATOM     13  C   UNL     1      44.398 132.488  24.137  1.00  0.00     0.000 C 
ATOM     14  C   UNL     1      42.705 130.640  23.518  1.00  0.00     0.119 C 
ATOM     15  C   UNL     1      43.613 131.258  24.624  1.00  0.00     0.017 C 
ATOM     16  F   UNL     1      42.381 130.493  21.119  1.00  0.00    -0.247 F 
BRANCH  14  17
ATOM     17  C   UNL     1      42.801 129.121  23.489  1.00  0.00     0.186 A 
ATOM     18  C   UNL     1      41.630 128.348  23.510  1.00  0.00     0.075 A 
ATOM     19  N   UNL     1      44.011 128.501  23.333  1.00  0.00    -0.206 N 
ATOM     20  C   UNL     1      41.706 126.966  23.358  1.00  0.00     0.021 A 
ATOM     21  C   UNL     1      44.113 127.152  23.154  1.00  0.00     0.247 A 
ATOM     22  C   UNL     1      42.948 126.353  23.163  1.00  0.00     0.049 A 
ATOM     23  C   UNL     1      45.364 126.549  22.922  1.00  0.00     0.197 A 
ATOM     24  C   UNL     1      43.043 124.973  22.946  1.00  0.00     0.015 A 
ATOM     25  C   UNL     1      45.453 125.163  22.701  1.00  0.00    -0.008 A 
ATOM     26  C   UNL     1      44.286 124.384  22.708  1.00  0.00     0.007 A 
ATOM     27  H   UNL     1      44.879 129.082  23.320  1.00  0.00     0.454 HD
ATOM     28  F   UNL     1      46.490 127.309  22.885  1.00  0.00    -0.199 F 
ATOM     29  C   UNL     1      46.780 124.533  22.392  1.00  0.00     0.048 C 
ENDBRANCH  14  17
ENDBRANCH   1  10
TORSDOF 4
ENDMDL
MODEL 3
REMARK VINA RESULT:      -6.0      1.633      2.676
REMARK SMILES Cc1ccoc1[N-]C(=O)N1CCC[C@H](c2ccc3ccc(C)c(F)c3[nH+]2)[C@@H]1F
REMARK SMILES IDX 8 1 9 2 7 3 6 4 2 5 3 6 4 7 5 8 1 9 10 10 11 11 27 12 12 13
REMARK SMILES IDX 14 14 13 15 28 16 15 17 16 18 26 19 17 20 25 21 18 22 23 23
REMARK SMILES IDX 19 24 21 25 20 26 24 28 22 29
REMARK H PARENT 26 27
ROOT
ATOM      1  C   UNL     1      45.364 128.846  21.379  1.00  0.00     0.163 C 
ATOM      2  O   UNL     1      45.561 128.905  20.134  1.00  0.00    -0.298 OA
ENDROOT
BRANCH   1   3
ATOM      3  N   UNL     1      45.788 127.694  22.116  1.00  0.00    -0.369 NA
BRANCH   3   4
ATOM      4  C   UNL     1      44.907 126.725  22.687  1.00  0.00     0.123 A 
ATOM      5  C   UNL     1      45.259 125.811  23.655  1.00  0.00    -0.009 A 
ATOM      6  C   UNL     1      44.127 125.061  23.893  1.00  0.00     0.045 A 
ATOM      7  C   UNL     1      43.160 125.560  23.038  1.00  0.00     0.195 A 
ATOM      8  O   UNL     1      43.656 126.552  22.331  1.00  0.00    -0.468 OA
ATOM      9  C   UNL     1      46.573 125.692  24.356  1.00  0.00     0.048 C 
ENDBRANCH   3   4
ENDBRANCH   1   3
BRANCH   1  10
ATOM     10  N   UNL     1      44.783 129.976  22.065  1.00  0.00    -0.406 N 
ATOM     11  C   UNL     1      43.657 129.735  22.983  1.00  0.00     0.008 C 
ATOM     12  C   UNL     1      45.123 131.368  21.724  1.00  0.00     0.190 C 
ATOM     13  C   UNL     1      42.830 131.011  23.221  1.00  0.00     0.000 C 
ATOM     14  C   UNL     1      43.890 132.086  21.126  1.00  0.00     0.119 C 
ATOM     15  C   UNL     1      42.577 131.753  21.897  1.00  0.00     0.017 C 
ATOM     16  F   UNL     1      46.219 131.457  20.880  1.00  0.00    -0.247 F 
BRANCH  14  17
ATOM     17  C   UNL     1      43.764 131.787  19.638  1.00  0.00     0.186 A 
ATOM     18  C   UNL     1      42.619 132.201  18.940  1.00  0.00     0.075 A 
ATOM     19  N   UNL     1      44.801 131.218  18.951  1.00  0.00    -0.206 N 
ATOM     20  C   UNL     1      42.555 132.042  17.557  1.00  0.00     0.021 A 
ATOM     21  C   UNL     1      44.776 131.076  17.594  1.00  0.00     0.247 A 
ATOM     22  C   UNL     1      43.638 131.491  16.866  1.00  0.00     0.049 A 
ATOM     23  C   UNL     1      45.887 130.554  16.903  1.00  0.00     0.197 A 
ATOM     24  C   UNL     1      43.620 131.379  15.471  1.00  0.00     0.015 A 
ATOM     25  C   UNL     1      45.864 130.448  15.502  1.00  0.00    -0.008 A 
ATOM     26  C   UNL     1      44.729 130.869  14.793  1.00  0.00     0.007 A 
ATOM     27  H   UNL     1      45.649 130.912  19.478  1.00  0.00     0.454 HD
ATOM     28  F   UNL     1      46.997 130.175  17.588  1.00  0.00    -0.199 F 
ATOM     29  C   UNL     1      47.073 129.949  14.765  1.00  0.00     0.048 C 
ENDBRANCH  14  17
ENDBRANCH   1  10
TORSDOF 4
ENDMDL
MODEL 4
REMARK VINA RESULT:      -5.6      1.739      2.573
REMARK SMILES Cc1ccoc1[N-]C(=O)N1CCC[C@H](c2ccc3ccc(C)c(F)c3[nH+]2)[C@@H]1F
REMARK SMILES IDX 8 1 9 2 7 3 6 4 2 5 3 6 4 7 5 8 1 9 10 10 11 11 27 12 12 13
REMARK SMILES IDX 14 14 13 15 28 16 15 17 16 18 26 19 17 20 25 21 18 22 23 23
REMARK SMILES IDX 19 24 21 25 20 26 24 28 22 29
REMARK H PARENT 26 27
ROOT
ATOM      1  C   UNL     1      45.440 128.737  21.061  1.00  0.00     0.163 C 
ATOM      2  O   UNL     1      46.189 128.911  20.061  1.00  0.00    -0.298 OA
ENDROOT
BRANCH   1   3
ATOM      3  N   UNL     1      45.141 127.409  21.506  1.00  0.00    -0.369 NA
BRANCH   3   4
ATOM      4  C   UNL     1      45.762 126.767  22.621  1.00  0.00     0.123 A 
ATOM      5  C   UNL     1      45.129 126.450  23.803  1.00  0.00    -0.009 A 
ATOM      6  C   UNL     1      46.093 125.877  24.603  1.00  0.00     0.045 A 
ATOM      7  C   UNL     1      47.260 125.899  23.860  1.00  0.00     0.195 A 
ATOM      8  O   UNL     1      47.030 126.436  22.681  1.00  0.00    -0.468 OA
ATOM      9  C   UNL     1      43.682 126.625  24.133  1.00  0.00     0.048 C 
ENDBRANCH   3   4
ENDBRANCH   1   3
BRANCH   1  10
ATOM     10  N   UNL     1      44.955 129.879  21.799  1.00  0.00    -0.406 N 
ATOM     11  C   UNL     1      43.880 129.672  22.784  1.00  0.00     0.008 C 
ATOM     12  C   UNL     1      45.333 131.261  21.458  1.00  0.00     0.190 C 
ATOM     13  C   UNL     1      43.127 130.977  23.093  1.00  0.00     0.000 C 
ATOM     14  C   UNL     1      44.098 132.042  20.950  1.00  0.00     0.119 C 
ATOM     15  C   UNL     1      42.823 131.753  21.799  1.00  0.00     0.017 C 
ATOM     16  F   UNL     1      46.377 131.317  20.547  1.00  0.00    -0.247 F 
BRANCH  14  17
ATOM     17  C   UNL     1      43.866 131.775  19.469  1.00  0.00     0.186 A 
ATOM     18  C   UNL     1      42.685 132.224  18.858  1.00  0.00     0.075 A 
ATOM     19  N   UNL     1      44.841 131.198  18.703  1.00  0.00    -0.206 N 
ATOM     20  C   UNL     1      42.523 132.093  17.481  1.00  0.00     0.021 A 
ATOM     21  C   UNL     1      44.721 131.083  17.348  1.00  0.00     0.247 A 
ATOM     22  C   UNL     1      43.546 131.534  16.707  1.00  0.00     0.049 A 
ATOM     23  C   UNL     1      45.771 130.553  16.574  1.00  0.00     0.197 A 
ATOM     24  C   UNL     1      43.430 131.450  15.315  1.00  0.00     0.015 A 
ATOM     25  C   UNL     1      45.651 130.474  15.176  1.00  0.00    -0.008 A 
ATOM     26  C   UNL     1      44.480 130.931  14.553  1.00  0.00     0.007 A 
ATOM     27  H   UNL     1      45.716 130.865  19.165  1.00  0.00     0.454 HD
ATOM     28  F   UNL     1      46.917 130.138  17.175  1.00  0.00    -0.199 F 
ATOM     29  C   UNL     1      46.796 129.966  14.349  1.00  0.00     0.048 C 
ENDBRANCH  14  17
ENDBRANCH   1  10
TORSDOF 4
ENDMDL
MODEL 5
REMARK VINA RESULT:      -5.4      2.455      7.302
REMARK SMILES Cc1ccoc1[N-]C(=O)N1CCC[C@H](c2ccc3ccc(C)c(F)c3[nH+]2)[C@@H]1F
REMARK SMILES IDX 8 1 9 2 7 3 6 4 2 5 3 6 4 7 5 8 1 9 10 10 11 11 27 12 12 13
REMARK SMILES IDX 14 14 13 15 28 16 15 17 16 18 26 19 17 20 25 21 18 22 23 23
REMARK SMILES IDX 19 24 21 25 20 26 24 28 22 29
REMARK H PARENT 26 27
ROOT
ATOM      1  C   UNL     1      45.612 130.503  20.708  1.00  0.00     0.163 C 
ATOM      2  O   UNL     1      45.791 129.307  21.068  1.00  0.00    -0.298 OA
ENDROOT
BRANCH   1   3
ATOM      3  N   UNL     1      45.990 130.916  19.389  1.00  0.00    -0.369 NA
BRANCH   3   4
ATOM      4  C   UNL     1      45.073 131.145  18.317  1.00  0.00     0.123 A 
ATOM      5  C   UNL     1      45.260 130.733  17.017  1.00  0.00    -0.009 A 
ATOM      6  C   UNL     1      44.162 131.183  16.318  1.00  0.00     0.045 A 
ATOM      7  C   UNL     1      43.382 131.859  17.240  1.00  0.00     0.195 A 
ATOM      8  O   UNL     1      43.953 131.820  18.424  1.00  0.00    -0.468 OA
ATOM      9  C   UNL     1      46.385 129.908  16.479  1.00  0.00     0.048 C 
ENDBRANCH   3   4
ENDBRANCH   1   3
BRANCH   1  10
ATOM     10  N   UNL     1      44.954 131.428  21.600  1.00  0.00    -0.406 N 
ATOM     11  C   UNL     1      45.786 132.245  22.499  1.00  0.00     0.008 C 
ATOM     12  C   UNL     1      43.495 131.432  21.800  1.00  0.00     0.190 C 
ATOM     13  C   UNL     1      44.983 132.766  23.705  1.00  0.00     0.000 C 
ATOM     14  C   UNL     1      43.155 131.001  23.247  1.00  0.00     0.119 C 
ATOM     15  C   UNL     1      44.104 131.651  24.298  1.00  0.00     0.017 C 
ATOM     16  F   UNL     1      42.828 130.650  20.870  1.00  0.00    -0.247 F 
BRANCH  14  17
ATOM     17  C   UNL     1      43.133 129.484  23.364  1.00  0.00     0.186 A 
ATOM     18  C   UNL     1      41.907 128.801  23.334  1.00  0.00     0.075 A 
ATOM     19  N   UNL     1      44.299 128.769  23.389  1.00  0.00    -0.206 N 
ATOM     20  C   UNL     1      41.889 127.408  23.315  1.00  0.00     0.021 A 
ATOM     21  C   UNL     1      44.312 127.405  23.343  1.00  0.00     0.247 A 
ATOM     22  C   UNL     1      43.091 126.694  23.304  1.00  0.00     0.049 A 
ATOM     23  C   UNL     1      45.528 126.697  23.295  1.00  0.00     0.197 A 
ATOM     24  C   UNL     1      43.097 125.296  23.222  1.00  0.00     0.015 A 
ATOM     25  C   UNL     1      45.527 125.294  23.209  1.00  0.00    -0.008 A 
ATOM     26  C   UNL     1      44.308 124.602  23.166  1.00  0.00     0.007 A 
ATOM     27  H   UNL     1      45.208 129.284  23.413  1.00  0.00     0.454 HD
ATOM     28  F   UNL     1      46.708 127.369  23.306  1.00  0.00    -0.199 F 
ATOM     29  C   UNL     1      46.824 124.546  23.097  1.00  0.00     0.048 C 
ENDBRANCH  14  17
ENDBRANCH   1  10
TORSDOF 4
ENDMDL
MODEL 6
REMARK VINA RESULT:      -4.7      2.195      2.947
REMARK SMILES Cc1ccoc1[N-]C(=O)N1CCC[C@H](c2ccc3ccc(C)c(F)c3[nH+]2)[C@@H]1F
REMARK SMILES IDX 8 1 9 2 7 3 6 4 2 5 3 6 4 7 5 8 1 9 10 10 11 11 27 12 12 13
REMARK SMILES IDX 14 14 13 15 28 16 15 17 16 18 26 19 17 20 25 21 18 22 23 23
REMARK SMILES IDX 19 24 21 25 20 26 24 28 22 29
REMARK H PARENT 26 27
ROOT
ATOM      1  C   UNL     1      44.549 129.283  23.595  1.00  0.00     0.163 C 
ATOM      2  O   UNL     1      45.217 128.972  24.619  1.00  0.00    -0.298 OA
ENDROOT
BRANCH   1   3
ATOM      3  N   UNL     1      44.583 128.441  22.437  1.00  0.00    -0.369 NA
BRANCH   3   4
ATOM      4  C   UNL     1      44.834 127.035  22.463  1.00  0.00     0.123 A 
ATOM      5  C   UNL     1      43.964 126.086  22.952  1.00  0.00    -0.009 A 
ATOM      6  C   UNL     1      44.609 124.877  22.813  1.00  0.00     0.045 A 
ATOM      7  C   UNL     1      45.843 125.171  22.262  1.00  0.00     0.195 A 
ATOM      8  O   UNL     1      45.948 126.467  22.065  1.00  0.00    -0.468 OA
ATOM      9  C   UNL     1      42.577 126.306  23.466  1.00  0.00     0.048 C 
ENDBRANCH   3   4
ENDBRANCH   1   3
BRANCH   1  10
ATOM     10  N   UNL     1      43.691 130.443  23.627  1.00  0.00    -0.406 N 
ATOM     11  C   UNL     1      42.237 130.236  23.741  1.00  0.00     0.008 C 
ATOM     12  C   UNL     1      44.183 131.801  23.336  1.00  0.00     0.190 C 
ATOM     13  C   UNL     1      41.445 131.460  23.249  1.00  0.00     0.000 C 
ATOM     14  C   UNL     1      43.548 132.328  22.028  1.00  0.00     0.119 C 
ATOM     15  C   UNL     1      42.028 131.995  21.929  1.00  0.00     0.017 C 
ATOM     16  F   UNL     1      45.567 131.865  23.288  1.00  0.00    -0.247 F 
BRANCH  14  17
ATOM     17  C   UNL     1      44.318 131.824  20.815  1.00  0.00     0.186 A 
ATOM     18  C   UNL     1      45.477 131.053  20.998  1.00  0.00     0.075 A 
ATOM     19  N   UNL     1      43.835 132.021  19.550  1.00  0.00    -0.206 N 
ATOM     20  C   UNL     1      46.114 130.486  19.897  1.00  0.00     0.021 A 
ATOM     21  C   UNL     1      44.423 131.453  18.457  1.00  0.00     0.247 A 
ATOM     22  C   UNL     1      45.586 130.667  18.615  1.00  0.00     0.049 A 
ATOM     23  C   UNL     1      43.863 131.612  17.175  1.00  0.00     0.197 A 
ATOM     24  C   UNL     1      46.174 130.054  17.502  1.00  0.00     0.015 A 
ATOM     25  C   UNL     1      44.456 130.991  16.061  1.00  0.00    -0.008 A 
ATOM     26  C   UNL     1      45.607 130.209  16.235  1.00  0.00     0.007 A 
ATOM     27  H   UNL     1      42.974 132.597  19.422  1.00  0.00     0.454 HD
ATOM     28  F   UNL     1      42.731 132.345  17.012  1.00  0.00    -0.199 F 
ATOM     29  C   UNL     1      43.822 131.111  14.706  1.00  0.00     0.048 C 
ENDBRANCH  14  17
ENDBRANCH   1  10
TORSDOF 4
ENDMDL
MODEL 7
REMARK VINA RESULT:      -4.5      1.828      2.469
REMARK SMILES Cc1ccoc1[N-]C(=O)N1CCC[C@H](c2ccc3ccc(C)c(F)c3[nH+]2)[C@@H]1F
REMARK SMILES IDX 8 1 9 2 7 3 6 4 2 5 3 6 4 7 5 8 1 9 10 10 11 11 27 12 12 13
REMARK SMILES IDX 14 14 13 15 28 16 15 17 16 18 26 19 17 20 25 21 18 22 23 23
REMARK SMILES IDX 19 24 21 25 20 26 24 28 22 29
REMARK H PARENT 26 27
ROOT
ATOM      1  C   UNL     1      44.881 129.065  22.274  1.00  0.00     0.163 C 
ATOM      2  O   UNL     1      45.492 128.824  21.197  1.00  0.00    -0.298 OA
ENDROOT
BRANCH   1   3
ATOM      3  N   UNL     1      44.954 128.136  23.361  1.00  0.00    -0.369 NA
BRANCH   3   4
ATOM      4  C   UNL     1      44.477 126.790  23.311  1.00  0.00     0.123 A 
ATOM      5  C   UNL     1      45.278 125.672  23.230  1.00  0.00    -0.009 A 
ATOM      6  C   UNL     1      44.417 124.597  23.176  1.00  0.00     0.045 A 
ATOM      7  C   UNL     1      43.143 125.134  23.209  1.00  0.00     0.195 A 
ATOM      8  O   UNL     1      43.211 126.446  23.290  1.00  0.00    -0.468 OA
ATOM      9  C   UNL     1      46.771 125.620  23.263  1.00  0.00     0.048 C 
ENDBRANCH   3   4
ENDBRANCH   1   3
BRANCH   1  10
ATOM     10  N   UNL     1      44.178 130.317  22.432  1.00  0.00    -0.406 N 
ATOM     11  C   UNL     1      42.726 130.279  22.674  1.00  0.00     0.008 C 
ATOM     12  C   UNL     1      44.806 131.619  22.149  1.00  0.00     0.190 C 
ATOM     13  C   UNL     1      42.050 131.612  22.307  1.00  0.00     0.000 C 
ATOM     14  C   UNL     1      44.127 132.284  20.928  1.00  0.00     0.119 C 
ATOM     15  C   UNL     1      42.576 132.139  20.960  1.00  0.00     0.017 C 
ATOM     16  F   UNL     1      46.178 131.520  21.973  1.00  0.00    -0.247 F 
BRANCH  14  17
ATOM     17  C   UNL     1      44.719 131.753  19.630  1.00  0.00     0.186 A 
ATOM     18  C   UNL     1      45.860 130.935  19.668  1.00  0.00     0.075 A 
ATOM     19  N   UNL     1      44.090 131.973  18.435  1.00  0.00    -0.206 N 
ATOM     20  C   UNL     1      46.330 130.346  18.497  1.00  0.00     0.021 A 
ATOM     21  C   UNL     1      44.513 131.386  17.277  1.00  0.00     0.247 A 
ATOM     22  C   UNL     1      45.654 130.552  17.290  1.00  0.00     0.049 A 
ATOM     23  C   UNL     1      43.804 131.570  16.075  1.00  0.00     0.197 A 
ATOM     24  C   UNL     1      46.073 129.920  16.113  1.00  0.00     0.015 A 
ATOM     25  C   UNL     1      44.227 130.930  14.898  1.00  0.00    -0.008 A 
ATOM     26  C   UNL     1      45.359 130.101  14.927  1.00  0.00     0.007 A 
ATOM     27  H   UNL     1      43.243 132.583  18.414  1.00  0.00     0.454 HD
ATOM     28  F   UNL     1      42.691 132.349  16.054  1.00  0.00    -0.199 F 
ATOM     29  C   UNL     1      43.434 131.080  13.632  1.00  0.00     0.048 C 
ENDBRANCH  14  17
ENDBRANCH   1  10
TORSDOF 4
ENDMDL
MODEL 8
REMARK VINA RESULT:      -4.4      4.435      7.308
REMARK SMILES Cc1ccoc1[N-]C(=O)N1CCC[C@H](c2ccc3ccc(C)c(F)c3[nH+]2)[C@@H]1F
REMARK SMILES IDX 8 1 9 2 7 3 6 4 2 5 3 6 4 7 5 8 1 9 10 10 11 11 27 12 12 13
REMARK SMILES IDX 14 14 13 15 28 16 15 17 16 18 26 19 17 20 25 21 18 22 23 23
REMARK SMILES IDX 19 24 21 25 20 26 24 28 22 29
REMARK H PARENT 26 27
ROOT
ATOM      1  C   UNL     1      42.286 124.607  23.070  1.00  0.00     0.163 C 
ATOM      2  O   UNL     1      41.448 123.697  22.825  1.00  0.00    -0.298 OA
ENDROOT
BRANCH   1   3
ATOM      3  N   UNL     1      41.837 125.945  23.311  1.00  0.00    -0.369 NA
BRANCH   3   4
ATOM      4  C   UNL     1      40.487 126.307  23.607  1.00  0.00     0.123 A 
ATOM      5  C   UNL     1      39.538 125.457  24.130  1.00  0.00    -0.009 A 
ATOM      6  C   UNL     1      38.382 126.199  24.228  1.00  0.00     0.045 A 
ATOM      7  C   UNL     1      38.699 127.454  23.740  1.00  0.00     0.195 A 
ATOM      8  O   UNL     1      39.963 127.488  23.376  1.00  0.00    -0.468 OA
ATOM      9  C   UNL     1      39.731 124.041  24.568  1.00  0.00     0.048 C 
ENDBRANCH   3   4
ENDBRANCH   1   3
BRANCH   1  10
ATOM     10  N   UNL     1      43.687 124.277  23.185  1.00  0.00    -0.406 N 
ATOM     11  C   UNL     1      44.144 123.574  24.396  1.00  0.00     0.008 C 
ATOM     12  C   UNL     1      44.703 124.800  22.255  1.00  0.00     0.190 C 
ATOM     13  C   UNL     1      45.655 123.751  24.625  1.00  0.00     0.000 C 
ATOM     14  C   UNL     1      45.664 125.757  22.999  1.00  0.00     0.119 C 
ATOM     15  C   UNL     1      46.074 125.215  24.402  1.00  0.00     0.017 C 
ATOM     16  F   UNL     1      44.143 125.409  21.143  1.00  0.00    -0.247 F 
BRANCH  14  17
ATOM     17  C   UNL     1      45.070 127.156  23.083  1.00  0.00     0.186 A 
ATOM     18  C   UNL     1      44.400 127.558  24.249  1.00  0.00     0.075 A 
ATOM     19  N   UNL     1      45.274 128.063  22.080  1.00  0.00    -0.206 N 
ATOM     20  C   UNL     1      43.964 128.874  24.380  1.00  0.00     0.021 A 
ATOM     21  C   UNL     1      44.883 129.366  22.193  1.00  0.00     0.247 A 
ATOM     22  C   UNL     1      44.214 129.798  23.360  1.00  0.00     0.049 A 
ATOM     23  C   UNL     1      45.171 130.295  21.175  1.00  0.00     0.197 A 
ATOM     24  C   UNL     1      43.840 131.140  23.497  1.00  0.00     0.015 A 
ATOM     25  C   UNL     1      44.797 131.642  21.320  1.00  0.00    -0.008 A 
ATOM     26  C   UNL     1      44.138 132.058  22.487  1.00  0.00     0.007 A 
ATOM     27  H   UNL     1      45.771 127.756  21.214  1.00  0.00     0.454 HD
ATOM     28  F   UNL     1      45.836 129.899  20.059  1.00  0.00    -0.199 F 
ATOM     29  C   UNL     1      45.160 132.643  20.262  1.00  0.00     0.048 C 
ENDBRANCH  14  17
ENDBRANCH   1  10
TORSDOF 4
ENDMDL
MODEL 9
REMARK VINA RESULT:      -4.2      3.221      7.459
REMARK SMILES Cc1ccoc1[N-]C(=O)N1CCC[C@H](c2ccc3ccc(C)c(F)c3[nH+]2)[C@@H]1F
REMARK SMILES IDX 8 1 9 2 7 3 6 4 2 5 3 6 4 7 5 8 1 9 10 10 11 11 27 12 12 13
REMARK SMILES IDX 14 14 13 15 28 16 15 17 16 18 26 19 17 20 25 21 18 22 23 23
REMARK SMILES IDX 19 24 21 25 20 26 24 28 22 29
REMARK H PARENT 26 27
ROOT
ATOM      1  C   UNL     1      43.099 131.438  20.932  1.00  0.00     0.163 C 
ATOM      2  O   UNL     1      42.606 130.278  20.975  1.00  0.00    -0.298 OA
ENDROOT
BRANCH   1   3
ATOM      3  N   UNL     1      43.171 132.138  19.685  1.00  0.00    -0.369 NA
BRANCH   3   4
ATOM      4  C   UNL     1      43.879 131.675  18.534  1.00  0.00     0.123 A 
ATOM      5  C   UNL     1      45.104 131.045  18.561  1.00  0.00    -0.009 A 
ATOM      6  C   UNL     1      45.428 130.798  17.245  1.00  0.00     0.045 A 
ATOM      7  C   UNL     1      44.383 131.312  16.498  1.00  0.00     0.195 A 
ATOM      8  O   UNL     1      43.474 131.829  17.295  1.00  0.00    -0.468 OA
ATOM      9  C   UNL     1      45.893 130.646  19.766  1.00  0.00     0.048 C 
ENDBRANCH   3   4
ENDBRANCH   1   3
BRANCH   1  10
ATOM     10  N   UNL     1      43.513 132.084  22.155  1.00  0.00    -0.406 N 
ATOM     11  C   UNL     1      44.923 132.489  22.292  1.00  0.00     0.008 C 
ATOM     12  C   UNL     1      42.646 132.159  23.344  1.00  0.00     0.190 C 
ATOM     13  C   UNL     1      45.327 132.666  23.765  1.00  0.00     0.000 C 
ATOM     14  C   UNL     1      43.248 131.320  24.496  1.00  0.00     0.119 C 
ATOM     15  C   UNL     1      44.791 131.507  24.623  1.00  0.00     0.017 C 
ATOM     16  F   UNL     1      41.340 131.783  23.074  1.00  0.00    -0.247 F 
BRANCH  14  17
ATOM     17  C   UNL     1      42.865 129.854  24.350  1.00  0.00     0.186 A 
ATOM     18  C   UNL     1      41.546 129.450  24.609  1.00  0.00     0.075 A 
ATOM     19  N   UNL     1      43.763 128.943  23.863  1.00  0.00    -0.206 N 
ATOM     20  C   UNL     1      41.160 128.136  24.357  1.00  0.00     0.021 A 
ATOM     21  C   UNL     1      43.405 127.657  23.581  1.00  0.00     0.247 A 
ATOM     22  C   UNL     1      42.081 127.228  23.825  1.00  0.00     0.049 A 
ATOM     23  C   UNL     1      44.330 126.760  23.012  1.00  0.00     0.197 A 
ATOM     24  C   UNL     1      41.698 125.919  23.506  1.00  0.00     0.015 A 
ATOM     25  C   UNL     1      43.938 125.449  22.690  1.00  0.00    -0.008 A 
ATOM     26  C   UNL     1      42.619 125.039  22.934  1.00  0.00     0.007 A 
ATOM     27  H   UNL     1      44.743 129.250  23.674  1.00  0.00     0.454 HD
ATOM     28  F   UNL     1      45.598 127.167  22.748  1.00  0.00    -0.199 F 
ATOM     29  C   UNL     1      44.909 124.515  22.027  1.00  0.00     0.048 C 
ENDBRANCH  14  17
ENDBRANCH   1  10
TORSDOF 4
ENDMDL


