REMARK SMILES Cc1ccc([NH2+]c2cc(F)c(C)cc2N=C=S)c(F)[nH+]1
REMARK SMILES IDX 13 1 14 2 7 3 8 4 9 5 10 6 11 7 12 8 15 9 16 10 17 11 6 12
REMARK SMILES IDX 5 15 4 16 18 17 3 18 20 19 2 20 19 21 1 23
REMARK H PARENT 6 13 6 14 20 22
ROOT
ATOM      1  C   UNL     1      -0.015  -3.447  -0.009  1.00  0.00     0.042 A 
ATOM      2  C   UNL     1       0.595  -2.190  -0.205  1.00  0.00     0.135 A 
ATOM      3  C   UNL     1       0.363  -1.152   0.729  1.00  0.00     0.164 A 
ATOM      4  C   UNL     1      -0.466  -1.400   1.837  1.00  0.00     0.110 A 
ATOM      5  C   UNL     1      -1.063  -2.647   2.022  1.00  0.00     0.132 A 
ATOM      6  F   UNL     1      -1.868  -2.846   3.097  1.00  0.00    -0.206 F 
ATOM      7  C   UNL     1      -0.835  -3.682   1.105  1.00  0.00    -0.013 A 
ATOM      8  C   UNL     1      -1.501  -5.015   1.290  1.00  0.00     0.047 C 
ENDROOT
BRANCH   2   9
ATOM      9  N   UNL     1       1.455  -1.946  -1.331  1.00  0.00    -0.188 NA
BRANCH   9  10
ATOM     10  C   UNL     1       1.713  -2.803  -2.236  1.00  0.00     0.064 C 
ATOM     11  S   UNL     1       2.038  -3.887  -3.383  1.00  0.00    -0.006 S 
ENDBRANCH   9  10
ENDBRANCH   2   9
BRANCH   3  12
ATOM     12  N   UNL     1       0.947   0.160   0.549  1.00  0.00    -0.272 N 
ATOM     13  H   UNL     1       1.009   0.662   1.465  1.00  0.00     0.358 HD
ATOM     14  H   UNL     1       1.930   0.068   0.203  1.00  0.00     0.358 HD
BRANCH  12  15
ATOM     15  C   UNL     1       0.153   0.940  -0.372  1.00  0.00     0.239 A 
ATOM     16  C   UNL     1       0.543   1.079  -1.713  1.00  0.00     0.085 A 
ATOM     17  C   UNL     1      -1.029   1.580   0.049  1.00  0.00     0.420 A 
ATOM     18  C   UNL     1      -0.239   1.816  -2.601  1.00  0.00     0.080 A 
ATOM     19  N   UNL     1      -1.776   2.296  -0.836  1.00  0.00    -0.179 N 
ATOM     20  C   UNL     1      -1.421   2.413  -2.148  1.00  0.00     0.179 A 
ATOM     21  F   UNL     1      -1.427   1.505   1.343  1.00  0.00    -0.131 F 
ATOM     22  H   UNL     1      -2.643   2.767  -0.490  1.00  0.00     0.456 HD
ATOM     23  C   UNL     1      -2.252   3.240  -3.083  1.00  0.00     0.124 C 
ENDBRANCH  12  15
ENDBRANCH   3  12
TORSDOF 4


