REMARK SMILES Cc1ccc(-c2ccc(OC(=O)[C@H]3CCC3(C)C)cc2)c2c[n-]nc12
REMARK SMILES IDX 10 1 9 2 6 3 7 4 20 5 8 6 19 7 5 8 2 9 3 10 25 11 4 12 24 13
REMARK SMILES IDX 21 14 23 15 22 16 1 17 11 18 12 19 13 20 14 21 16 22 15 23
REMARK SMILES IDX 17 24 18 25
REMARK H PARENT
ROOT
ATOM      1  O   UNL     1      -0.859   1.935  -0.726  1.00  0.00    -0.426 OA
ENDROOT
BRANCH   1   2
ATOM      2  C   UNL     1      -0.378   0.741  -0.170  1.00  0.00     0.130 A 
ATOM      3  C   UNL     1       0.524  -1.711   0.891  1.00  0.00    -0.018 A 
ATOM      4  C   UNL     1       0.854  -0.500   1.522  1.00  0.00     0.012 A 
ATOM      5  C   UNL     1      -0.283  -1.685  -0.258  1.00  0.00     0.012 A 
ATOM      6  C   UNL     1       0.406   0.717   0.998  1.00  0.00     0.048 A 
ATOM      7  C   UNL     1      -0.731  -0.468  -0.780  1.00  0.00     0.048 A 
BRANCH   3   8
ATOM      8  C   UNL     1       0.992  -2.998   1.454  1.00  0.00    -0.011 A 
ATOM      9  C   UNL     1       1.877  -5.490   2.538  1.00  0.00    -0.027 A 
ATOM     10  C   UNL     1       1.301  -4.507   3.370  1.00  0.00     0.006 A 
ATOM     11  C   UNL     1       2.015  -5.181   1.182  1.00  0.00     0.050 A 
ATOM     12  C   UNL     1       0.861  -3.276   2.834  1.00  0.00     0.010 A 
ATOM     13  N   UNL     1       2.579  -5.932   0.219  1.00  0.00    -0.367 NA
ATOM     14  C   UNL     1       1.588  -3.990   0.663  1.00  0.00    -0.014 A 
ATOM     15  N   UNL     1       2.523  -5.234  -0.911  1.00  0.00    -0.581 NA
ATOM     16  C   UNL     1       1.927  -4.044  -0.672  1.00  0.00    -0.113 A 
ATOM     17  C   UNL     1       2.391  -6.781   3.102  1.00  0.00     0.046 C 
ENDBRANCH   3   8
ENDBRANCH   1   2
BRANCH   1  18
ATOM     18  C   UNL     1      -0.224   3.180  -0.643  1.00  0.00     0.314 C 
ATOM     19  O   UNL     1       0.996   3.261  -0.328  1.00  0.00    -0.251 OA
BRANCH  18  20
ATOM     20  C   UNL     1      -1.000   4.409  -1.053  1.00  0.00     0.105 C 
ATOM     21  C   UNL     1      -0.403   5.746  -0.598  1.00  0.00     0.016 C 
ATOM     22  C   UNL     1      -0.847   4.851  -2.527  1.00  0.00    -0.022 C 
ATOM     23  C   UNL     1      -0.259   6.188  -2.051  1.00  0.00     0.008 C 
ATOM     24  C   UNL     1      -2.202   5.017  -3.236  1.00  0.00     0.012 C 
ATOM     25  C   UNL     1       0.145   4.040  -3.388  1.00  0.00     0.012 C 
ENDBRANCH  18  20
ENDBRANCH   1  18
TORSDOF 4


