REMARK SMILES CC(=O)c1ccc(-c2cc3ccccc3[nH]2)c[nH+]1
REMARK SMILES IDX 4 1 5 2 6 3 7 4 17 5 18 6 2 8 1 9 3 10 8 11 9 12 16 13 10 14
REMARK SMILES IDX 15 15 11 16 14 17 12 18 13 19
REMARK H PARENT 18 7 16 20
ROOT
ATOM      1  C   UNL     1      -0.037   0.528  -3.543  1.00  0.00     0.246 A 
ATOM      2  C   UNL     1       1.149   1.087  -3.041  1.00  0.00     0.084 A 
ATOM      3  C   UNL     1       1.393   1.080  -1.668  1.00  0.00     0.023 A 
ATOM      4  C   UNL     1       0.460   0.517  -0.786  1.00  0.00     0.062 A 
ATOM      5  C   UNL     1      -0.713  -0.034  -1.325  1.00  0.00     0.317 A 
ATOM      6  N   UNL     1      -0.935  -0.017  -2.669  1.00  0.00    -0.208 N 
ATOM      7  H   UNL     1      -1.827  -0.438  -3.012  1.00  0.00     0.454 HD
ENDROOT
BRANCH   1   8
ATOM      8  C   UNL     1      -0.298   0.535  -5.008  1.00  0.00     0.223 C 
ATOM      9  C   UNL     1      -1.548  -0.054  -5.588  1.00  0.00     0.100 C 
ATOM     10  O   UNL     1       0.545   1.047  -5.793  1.00  0.00    -0.288 OA
ENDBRANCH   1   8
BRANCH   4  11
ATOM     11  C   UNL     1       0.709   0.502   0.678  1.00  0.00     0.052 A 
ATOM     12  C   UNL     1       0.098  -0.357   1.596  1.00  0.00     0.037 A 
ATOM     13  N   UNL     1       1.572   1.337   1.311  1.00  0.00    -0.354 N 
ATOM     14  C   UNL     1       0.627  -0.013   2.819  1.00  0.00     0.000 A 
ATOM     15  C   UNL     1       1.511   1.012   2.612  1.00  0.00     0.046 A 
ATOM     16  C   UNL     1       0.388  -0.534   4.090  1.00  0.00     0.010 A 
ATOM     17  C   UNL     1       2.217   1.594   3.665  1.00  0.00     0.026 A 
ATOM     18  C   UNL     1       1.086   0.032   5.172  1.00  0.00     0.001 A 
ATOM     19  C   UNL     1       1.997   1.092   4.961  1.00  0.00     0.002 A 
ATOM     20  H   UNL     1       2.153   2.096   0.892  1.00  0.00     0.167 HD
ENDBRANCH   4  11
TORSDOF 2


