REMARK SMILES CC1=N[C@]2(F)C[C@@H]([C@H]3O[C@@H]3C(=O)c3ccc(F)cc3)CC[C@@H]2C1
REMARK SMILES IDX 8 1 9 2 10 3 7 4 2 5 23 6 3 7 22 8 4 9 21 10 6 11 20 12 1 13
REMARK SMILES IDX 5 14 11 15 12 16 13 17 14 18 19 19 15 20 18 21 16 22 17 23
REMARK H PARENT
ROOT
ATOM      1  C   UNL     1      -1.033   1.841   0.198  1.00  0.00     0.159 C 
ATOM      2  O   UNL     1      -0.818   2.677   1.312  1.00  0.00    -0.361 OA
ATOM      3  C   UNL     1       0.267   2.522   0.424  1.00  0.00     0.219 C 
ENDROOT
BRANCH   1   4
ATOM      4  C   UNL     1      -1.131   0.365   0.615  1.00  0.00     0.026 C 
ATOM      5  C   UNL     1       0.153  -2.730   1.686  1.00  0.00     0.014 C 
ATOM      6  C   UNL     1      -1.275  -2.753   2.095  1.00  0.00     0.059 C 
ATOM      7  N   UNL     1       0.345  -2.347   0.482  1.00  0.00    -0.255 NA
ATOM      8  C   UNL     1      -2.005  -2.409   0.786  1.00  0.00     0.055 C 
ATOM      9  C   UNL     1      -0.877  -2.028  -0.208  1.00  0.00     0.203 C 
ATOM     10  C   UNL     1      -3.080  -1.317   0.955  1.00  0.00     0.010 C 
ATOM     11  C   UNL     1      -0.884  -0.538  -0.605  1.00  0.00     0.072 C 
ATOM     12  C   UNL     1      -2.508   0.080   1.269  1.00  0.00     0.007 C 
ATOM     13  C   UNL     1       1.288  -3.083   2.593  1.00  0.00     0.061 C 
ATOM     14  F   UNL     1      -0.965  -2.803  -1.353  1.00  0.00    -0.218 F 
ENDBRANCH   1   4
BRANCH   3  15
ATOM     15  C   UNL     1       0.493   3.763  -0.388  1.00  0.00     0.194 C 
ATOM     16  O   UNL     1       0.325   4.886   0.162  1.00  0.00    -0.291 OA
BRANCH  15  17
ATOM     17  C   UNL     1       0.927   3.692  -1.805  1.00  0.00     0.021 A 
ATOM     18  C   UNL     1       1.374   2.481  -2.369  1.00  0.00     0.015 A 
ATOM     19  C   UNL     1       0.901   4.846  -2.612  1.00  0.00     0.015 A 
ATOM     20  C   UNL     1       1.775   2.426  -3.707  1.00  0.00     0.040 A 
ATOM     21  C   UNL     1       1.303   4.786  -3.950  1.00  0.00     0.040 A 
ATOM     22  C   UNL     1       1.738   3.577  -4.498  1.00  0.00     0.123 A 
ATOM     23  F   UNL     1       2.128   3.522  -5.795  1.00  0.00    -0.207 F 
ENDBRANCH  15  17
ENDBRANCH   3  15
TORSDOF 3


