REMARK SMILES C=Cc1ccc(N)c(-c2ccc3c(c2)[N-]C(=O)C3)c1
REMARK SMILES IDX 3 1 4 2 5 3 6 4 8 5 19 6 2 7 1 8 9 9 10 10 14 11 11 12 13 13
REMARK SMILES IDX 12 14 15 15 18 16 16 17 17 18 7 19
REMARK H PARENT 7 20 7 21
ROOT
ATOM      1  C   UNL     1      -1.146   3.652   0.573  1.00  0.00    -0.025 A 
ATOM      2  C   UNL     1       0.077   4.194   0.991  1.00  0.00     0.010 A 
ATOM      3  C   UNL     1       1.245   3.430   0.951  1.00  0.00     0.027 A 
ATOM      4  C   UNL     1       1.216   2.103   0.502  1.00  0.00     0.039 A 
ATOM      5  C   UNL     1      -0.017   1.528   0.114  1.00  0.00     0.005 A 
ATOM      6  C   UNL     1      -1.185   2.311   0.146  1.00  0.00     0.019 A 
ENDROOT
BRANCH   1   7
ATOM      7  C   UNL     1      -2.357   4.507   0.634  1.00  0.00     0.000 C 
ATOM      8  C   UNL     1      -3.483   4.259  -0.036  1.00  0.00     0.009 C 
ENDBRANCH   1   7
BRANCH   5   9
ATOM      9  C   UNL     1      -0.124   0.111  -0.299  1.00  0.00    -0.018 A 
ATOM     10  C   UNL     1      -0.666  -0.220  -1.563  1.00  0.00     0.009 A 
ATOM     11  C   UNL     1       0.272  -0.918   0.582  1.00  0.00    -0.007 A 
ATOM     12  C   UNL     1      -0.794  -1.563  -1.955  1.00  0.00     0.003 A 
ATOM     13  C   UNL     1       0.135  -2.241   0.168  1.00  0.00    -0.130 A 
ATOM     14  C   UNL     1      -0.383  -2.557  -1.069  1.00  0.00    -0.057 A 
ATOM     15  N   UNL     1       0.486  -3.386   0.926  1.00  0.00    -0.626 NA
ATOM     16  C   UNL     1      -0.424  -4.033  -1.257  1.00  0.00     0.089 C 
ATOM     17  C   UNL     1       0.146  -4.467   0.059  1.00  0.00     0.059 C 
ATOM     18  O   UNL     1       0.316  -5.671   0.383  1.00  0.00    -0.320 OA
ENDBRANCH   5   9
BRANCH   4  19
ATOM     19  N   UNL     1       2.448   1.374   0.413  1.00  0.00    -0.398 N 
ATOM     20  H   UNL     1       3.339   1.794   0.760  1.00  0.00     0.156 HD
ATOM     21  H   UNL     1       2.509   0.446  -0.060  1.00  0.00     0.156 HD
ENDBRANCH   4  19
TORSDOF 3


