REMARK SMILES C=Cc1ccc(N)c(-c2ccc3c(c2)[N-]C(=O)C3)c1
REMARK SMILES IDX 3 1 4 2 5 3 6 4 8 5 19 6 2 7 1 8 9 9 10 10 14 11 11 12 13 13
REMARK SMILES IDX 12 14 15 15 18 16 16 17 17 18 7 19
REMARK H PARENT 7 20 7 21
ROOT
ATOM      1  C   UNL     1      -0.894   3.751  -0.076  1.00  0.00    -0.025 A 
ATOM      2  C   UNL     1       0.237   4.256   0.578  1.00  0.00     0.010 A 
ATOM      3  C   UNL     1       1.156   3.395   1.180  1.00  0.00     0.027 A 
ATOM      4  C   UNL     1       0.972   2.007   1.133  1.00  0.00     0.039 A 
ATOM      5  C   UNL     1      -0.144   1.478   0.443  1.00  0.00     0.005 A 
ATOM      6  C   UNL     1      -1.070   2.356  -0.149  1.00  0.00     0.019 A 
ENDROOT
BRANCH   1   7
ATOM      7  C   UNL     1      -1.840   4.709  -0.699  1.00  0.00     0.000 C 
ATOM      8  C   UNL     1      -3.096   4.411  -1.035  1.00  0.00     0.009 C 
ENDBRANCH   1   7
BRANCH   5   9
ATOM      9  C   UNL     1      -0.354   0.021   0.295  1.00  0.00    -0.018 A 
ATOM     10  C   UNL     1      -1.560  -0.571   0.741  1.00  0.00     0.009 A 
ATOM     11  C   UNL     1       0.626  -0.779  -0.330  1.00  0.00    -0.007 A 
ATOM     12  C   UNL     1      -1.779  -1.949   0.585  1.00  0.00     0.003 A 
ATOM     13  C   UNL     1       0.383  -2.144  -0.472  1.00  0.00    -0.130 A 
ATOM     14  C   UNL     1      -0.788  -2.716  -0.025  1.00  0.00    -0.057 A 
ATOM     15  N   UNL     1       1.261  -3.083  -1.071  1.00  0.00    -0.626 NA
ATOM     16  C   UNL     1      -0.794  -4.178  -0.302  1.00  0.00     0.089 C 
ATOM     17  C   UNL     1       0.543  -4.311  -0.964  1.00  0.00     0.059 C 
ATOM     18  O   UNL     1       1.004  -5.401  -1.393  1.00  0.00    -0.320 OA
ENDBRANCH   5   9
BRANCH   4  19
ATOM     19  N   UNL     1       1.902   1.160   1.821  1.00  0.00    -0.398 N 
ATOM     20  H   UNL     1       1.728   0.140   1.954  1.00  0.00     0.156 HD
ATOM     21  H   UNL     1       2.752   1.564   2.275  1.00  0.00     0.156 HD
ENDBRANCH   4  19
TORSDOF 3


