REMARK SMILES Cc1cc(-c2c([NH2+]c3cccc4c3CCC4)ccc3[nH]ccc23)cc([O-])c1F
REMARK SMILES IDX 5 1 6 2 17 3 18 4 19 5 20 6 21 7 22 8 23 9 4 11 2 12 3 13
REMARK SMILES IDX 27 14 25 15 24 16 1 17 28 18 26 19 7 20 8 23 9 24 13 25
REMARK SMILES IDX 10 26 12 27 14 28 11 29 16 30 15 31
REMARK H PARENT 20 10 7 21 7 22
ROOT
ATOM      1  C   UNL     1       1.310  -0.328   1.726  1.00  0.00     0.052 A 
ATOM      2  C   UNL     1       0.082   0.165   2.259  1.00  0.00     0.143 A 
ATOM      3  C   UNL     1       0.076   0.759   3.551  1.00  0.00     0.071 A 
ATOM      4  C   UNL     1       1.255   0.866   4.307  1.00  0.00     0.033 A 
ATOM      5  C   UNL     1       2.431   0.374   3.754  1.00  0.00     0.046 A 
ATOM      6  N   UNL     1       3.655   0.384   4.308  1.00  0.00    -0.361 N 
ATOM      7  C   UNL     1       4.476  -0.193   3.403  1.00  0.00     0.083 A 
ATOM      8  C   UNL     1       3.768  -0.572   2.268  1.00  0.00     0.029 A 
ATOM      9  C   UNL     1       2.460  -0.200   2.512  1.00  0.00     0.013 A 
ATOM     10  H   UNL     1       3.921   0.761   5.245  1.00  0.00     0.166 HD
ENDROOT
BRANCH   1  11
ATOM     11  C   UNL     1       1.398  -0.942   0.389  1.00  0.00    -0.012 A 
ATOM     12  C   UNL     1       1.710  -0.718  -2.014  1.00  0.00    -0.015 A 
ATOM     13  C   UNL     1       1.650  -0.143  -0.735  1.00  0.00     0.015 A 
ATOM     14  C   UNL     1       1.581  -2.111  -2.152  1.00  0.00     0.118 A 
ATOM     15  C   UNL     1       1.357  -2.911  -1.025  1.00  0.00    -0.071 A 
ATOM     16  C   UNL     1       1.261  -2.328   0.242  1.00  0.00     0.003 A 
ATOM     17  C   UNL     1       1.955   0.146  -3.217  1.00  0.00     0.047 C 
ATOM     18  F   UNL     1       1.666  -2.690  -3.377  1.00  0.00    -0.207 F 
ATOM     19  O   UNL     1       1.224  -4.287  -1.164  1.00  0.00    -0.870 OA
ENDBRANCH   1  11
BRANCH   2  20
ATOM     20  N   UNL     1      -1.154   0.080   1.509  1.00  0.00    -0.281 N 
ATOM     21  H   UNL     1      -1.272  -0.906   1.186  1.00  0.00     0.358 HD
ATOM     22  H   UNL     1      -1.975   0.295   2.121  1.00  0.00     0.358 HD
BRANCH  20  23
ATOM     23  C   UNL     1      -1.167   1.012   0.402  1.00  0.00     0.138 A 
ATOM     24  C   UNL     1      -0.879   2.382   0.605  1.00  0.00     0.068 A 
ATOM     25  C   UNL     1      -1.519   0.604  -0.903  1.00  0.00     0.017 A 
ATOM     26  C   UNL     1      -0.881   3.282  -0.472  1.00  0.00     0.006 A 
ATOM     27  C   UNL     1      -1.515   1.493  -1.951  1.00  0.00    -0.039 A 
ATOM     28  C   UNL     1      -1.948  -0.748  -1.348  1.00  0.00     0.042 C 
ATOM     29  C   UNL     1      -1.194   2.837  -1.762  1.00  0.00     0.004 A 
ATOM     30  C   UNL     1      -1.905   0.862  -3.232  1.00  0.00     0.036 C 
ATOM     31  C   UNL     1      -2.084  -0.623  -2.876  1.00  0.00     0.010 C 
ENDBRANCH  20  23
ENDBRANCH   2  20
TORSDOF 3


