REMARK SMILES C=C(/C=C(\O)N(N)c1ccccc1-c1nc2ccccc2[nH]1)C(C)=O
REMARK SMILES IDX 4 1 5 2 3 4 2 5 1 6 23 7 25 8 24 9 6 10 8 11 9 12 13 13
REMARK SMILES IDX 10 14 12 15 11 16 14 17 15 18 22 19 16 20 21 21 17 22 20 23
REMARK SMILES IDX 18 24 19 25 7 27
REMARK H PARENT 5 3 22 26 7 28 7 29
ROOT
ATOM      1  C   UNL     1       1.121   0.898   0.628  1.00  0.00     0.206 C 
ENDROOT
BRANCH   1   2
ATOM      2  O   UNL     1       0.599   1.920   1.424  1.00  0.00    -0.494 OA
ATOM      3  H   UNL     1       0.464   2.861   1.075  1.00  0.00     0.295 HD
ENDBRANCH   1   2
BRANCH   1   4
ATOM      4  C   UNL     1       1.215  -0.346   1.131  1.00  0.00     0.079 C 
BRANCH   4   5
ATOM      5  C   UNL     1       0.739  -0.712   2.484  1.00  0.00     0.015 C 
ATOM      6  C   UNL     1       0.035  -1.842   2.620  1.00  0.00     0.021 C 
BRANCH   5   7
ATOM      7  C   UNL     1       1.101   0.114   3.666  1.00  0.00     0.159 C 
ATOM      8  O   UNL     1       2.097   0.884   3.602  1.00  0.00    -0.295 OA
ATOM      9  C   UNL     1       0.341   0.031   4.956  1.00  0.00     0.093 C 
ENDBRANCH   5   7
ENDBRANCH   4   5
ENDBRANCH   1   4
BRANCH   1  10
ATOM     10  N   UNL     1       1.526   1.184  -0.734  1.00  0.00    -0.248 N 
BRANCH  10  11
ATOM     11  C   UNL     1       1.529   0.176  -1.764  1.00  0.00     0.072 A 
ATOM     12  C   UNL     1       2.708  -0.034  -2.498  1.00  0.00     0.029 A 
ATOM     13  C   UNL     1       0.389  -0.626  -2.035  1.00  0.00     0.043 A 
ATOM     14  C   UNL     1       2.777  -1.044  -3.459  1.00  0.00     0.002 A 
ATOM     15  C   UNL     1       0.482  -1.649  -2.995  1.00  0.00     0.014 A 
ATOM     16  C   UNL     1       1.668  -1.855  -3.701  1.00  0.00     0.001 A 
BRANCH  13  17
ATOM     17  C   UNL     1      -0.903  -0.402  -1.353  1.00  0.00     0.140 A 
ATOM     18  N   UNL     1      -1.375   0.836  -1.039  1.00  0.00    -0.228 NA
ATOM     19  N   UNL     1      -1.718  -1.411  -0.950  1.00  0.00    -0.338 N 
ATOM     20  C   UNL     1      -2.528   0.563  -0.404  1.00  0.00     0.089 A 
ATOM     21  C   UNL     1      -2.733  -0.782  -0.348  1.00  0.00     0.066 A 
ATOM     22  C   UNL     1      -3.422   1.467   0.164  1.00  0.00     0.030 A 
ATOM     23  C   UNL     1      -3.845  -1.339   0.281  1.00  0.00     0.028 A 
ATOM     24  C   UNL     1      -4.562   0.944   0.805  1.00  0.00     0.002 A 
ATOM     25  C   UNL     1      -4.772  -0.454   0.863  1.00  0.00     0.002 A 
ATOM     26  H   UNL     1      -1.571  -2.440  -1.048  1.00  0.00     0.168 HD
ENDBRANCH  13  17
ENDBRANCH  10  11
BRANCH  10  27
ATOM     27  N   UNL     1       1.927   2.483  -1.093  1.00  0.00    -0.240 NA
ATOM     28  H   UNL     1       2.529   2.868  -0.330  1.00  0.00     0.144 HD
ATOM     29  H   UNL     1       1.067   3.073  -1.166  1.00  0.00     0.144 HD
ENDBRANCH  10  27
ENDBRANCH   1  10
TORSDOF 8


