MODEL 1
REMARK VINA RESULT:      -7.1      0.000      0.000
REMARK SMILES CC1=N[C@]2(F)C[C@@H]([C@H]3O[C@@H]3C(=O)c3ccc(F)cc3)CC[C@@H]2C1
REMARK SMILES IDX 8 1 9 2 10 3 7 4 2 5 23 6 3 7 22 8 4 9 21 10 6 11 20 12 1 13
REMARK SMILES IDX 5 14 11 15 12 16 13 17 14 18 19 19 15 20 18 21 16 22 17 23
REMARK H PARENT
ROOT
ATOM      1  C   UNL     1      44.187 131.609  16.904  1.00  0.00     0.159 C 
ATOM      2  O   UNL     1      42.932 131.912  17.467  1.00  0.00    -0.361 OA
ATOM      3  C   UNL     1      43.755 131.036  18.204  1.00  0.00     0.219 C 
ENDROOT
BRANCH   1   4
ATOM      4  C   UNL     1      44.038 130.716  15.656  1.00  0.00     0.026 C 
ATOM      5  C   UNL     1      48.059 129.792  13.680  1.00  0.00     0.014 C 
ATOM      6  C   UNL     1      47.602 131.112  13.172  1.00  0.00     0.059 C 
ATOM      7  N   UNL     1      47.489 129.424  14.760  1.00  0.00    -0.255 NA
ATOM      8  C   UNL     1      46.444 131.458  14.124  1.00  0.00     0.055 C 
ATOM      9  C   UNL     1      46.542 130.391  15.246  1.00  0.00     0.203 C 
ATOM     10  C   UNL     1      45.087 131.423  13.394  1.00  0.00     0.010 C 
ATOM     11  C   UNL     1      45.199 129.705  15.569  1.00  0.00     0.072 C 
ATOM     12  C   UNL     1      43.917 131.592  14.376  1.00  0.00     0.007 C 
ATOM     13  C   UNL     1      49.105 128.956  13.012  1.00  0.00     0.061 C 
ATOM     14  F   UNL     1      47.058 130.971  16.395  1.00  0.00    -0.218 F 
ENDBRANCH   1   4
BRANCH   3  15
ATOM     15  C   UNL     1      44.310 131.710  19.424  1.00  0.00     0.194 C 
ATOM     16  O   UNL     1      45.052 132.718  19.271  1.00  0.00    -0.291 OA
BRANCH  15  17
ATOM     17  C   UNL     1      43.993 131.227  20.790  1.00  0.00     0.021 A 
ATOM     18  C   UNL     1      42.918 131.768  21.521  1.00  0.00     0.015 A 
ATOM     19  C   UNL     1      44.772 130.213  21.379  1.00  0.00     0.015 A 
ATOM     20  C   UNL     1      42.623 131.294  22.803  1.00  0.00     0.040 A 
ATOM     21  C   UNL     1      44.472 129.743  22.662  1.00  0.00     0.040 A 
ATOM     22  C   UNL     1      43.398 130.282  23.373  1.00  0.00     0.123 A 
ATOM     23  F   UNL     1      43.109 129.826  24.617  1.00  0.00    -0.207 F 
ENDBRANCH  15  17
ENDBRANCH   3  15
TORSDOF 3
ENDMDL
MODEL 2
REMARK VINA RESULT:      -6.9      0.211      1.031
REMARK SMILES CC1=N[C@]2(F)C[C@@H]([C@H]3O[C@@H]3C(=O)c3ccc(F)cc3)CC[C@@H]2C1
REMARK SMILES IDX 8 1 9 2 10 3 7 4 2 5 23 6 3 7 22 8 4 9 21 10 6 11 20 12 1 13
REMARK SMILES IDX 5 14 11 15 12 16 13 17 14 18 19 19 15 20 18 21 16 22 17 23
REMARK H PARENT
ROOT
ATOM      1  C   UNL     1      44.007 131.660  16.815  1.00  0.00     0.159 C 
ATOM      2  O   UNL     1      42.750 131.849  17.422  1.00  0.00    -0.361 OA
ATOM      3  C   UNL     1      43.683 131.071  18.138  1.00  0.00     0.219 C 
ENDROOT
BRANCH   1   4
ATOM      4  C   UNL     1      43.901 130.735  15.586  1.00  0.00     0.026 C 
ATOM      5  C   UNL     1      47.981 129.827  13.726  1.00  0.00     0.014 C 
ATOM      6  C   UNL     1      47.515 131.127  13.175  1.00  0.00     0.059 C 
ATOM      7  N   UNL     1      47.391 129.477  14.802  1.00  0.00    -0.255 NA
ATOM      8  C   UNL     1      46.330 131.478  14.091  1.00  0.00     0.055 C 
ATOM      9  C   UNL     1      46.419 130.440  15.241  1.00  0.00     0.203 C 
ATOM     10  C   UNL     1      44.991 131.403  13.331  1.00  0.00     0.010 C 
ATOM     11  C   UNL     1      45.079 129.741  15.551  1.00  0.00     0.072 C 
ATOM     12  C   UNL     1      43.796 131.578  14.282  1.00  0.00     0.007 C 
ATOM     13  C   UNL     1      49.055 128.992  13.103  1.00  0.00     0.061 C 
ATOM     14  F   UNL     1      46.899 131.056  16.387  1.00  0.00    -0.218 F 
ENDBRANCH   1   4
BRANCH   3  15
ATOM     15  C   UNL     1      44.213 131.819  19.326  1.00  0.00     0.194 C 
ATOM     16  O   UNL     1      44.930 132.837  19.127  1.00  0.00    -0.291 OA
BRANCH  15  17
ATOM     17  C   UNL     1      43.902 131.395  20.713  1.00  0.00     0.021 A 
ATOM     18  C   UNL     1      44.635 130.370  21.341  1.00  0.00     0.015 A 
ATOM     19  C   UNL     1      42.859 132.016  21.424  1.00  0.00     0.015 A 
ATOM     20  C   UNL     1      44.340 129.989  22.654  1.00  0.00     0.040 A 
ATOM     21  C   UNL     1      42.566 131.630  22.737  1.00  0.00     0.040 A 
ATOM     22  C   UNL     1      43.308 130.619  23.352  1.00  0.00     0.123 A 
ATOM     23  F   UNL     1      43.023 130.246  24.624  1.00  0.00    -0.207 F 
ENDBRANCH  15  17
ENDBRANCH   3  15
TORSDOF 3
ENDMDL
MODEL 3
REMARK VINA RESULT:      -6.6      2.616      7.953
REMARK SMILES CC1=N[C@]2(F)C[C@@H]([C@H]3O[C@@H]3C(=O)c3ccc(F)cc3)CC[C@@H]2C1
REMARK SMILES IDX 8 1 9 2 10 3 7 4 2 5 23 6 3 7 22 8 4 9 21 10 6 11 20 12 1 13
REMARK SMILES IDX 5 14 11 15 12 16 13 17 14 18 19 19 15 20 18 21 16 22 17 23
REMARK H PARENT
ROOT
ATOM      1  C   UNL     1      44.029 131.519  17.828  1.00  0.00     0.159 C 
ATOM      2  O   UNL     1      44.177 132.016  16.519  1.00  0.00    -0.361 OA
ATOM      3  C   UNL     1      45.363 131.656  17.192  1.00  0.00     0.219 C 
ENDROOT
BRANCH   1   4
ATOM      4  C   UNL     1      43.595 132.633  18.802  1.00  0.00     0.026 C 
ATOM      5  C   UNL     1      44.094 131.414  23.183  1.00  0.00     0.014 C 
ATOM      6  C   UNL     1      42.786 130.885  22.716  1.00  0.00     0.059 C 
ATOM      7  N   UNL     1      44.901 131.712  22.241  1.00  0.00    -0.255 NA
ATOM      8  C   UNL     1      42.874 131.064  21.191  1.00  0.00     0.055 C 
ATOM      9  C   UNL     1      44.356 131.447  20.938  1.00  0.00     0.203 C 
ATOM     10  C   UNL     1      41.892 132.144  20.694  1.00  0.00     0.010 C 
ATOM     11  C   UNL     1      44.531 132.679  20.026  1.00  0.00     0.072 C 
ATOM     12  C   UNL     1      42.103 132.450  19.203  1.00  0.00     0.007 C 
ATOM     13  C   UNL     1      44.464 131.576  24.624  1.00  0.00     0.061 C 
ATOM     14  F   UNL     1      45.028 130.364  20.393  1.00  0.00    -0.218 F 
ENDBRANCH   1   4
BRANCH   3  15
ATOM     15  C   UNL     1      45.942 130.391  16.629  1.00  0.00     0.194 C 
ATOM     16  O   UNL     1      45.857 129.333  17.309  1.00  0.00    -0.291 OA
BRANCH  15  17
ATOM     17  C   UNL     1      46.594 130.362  15.296  1.00  0.00     0.021 A 
ATOM     18  C   UNL     1      47.494 129.335  14.951  1.00  0.00     0.015 A 
ATOM     19  C   UNL     1      46.321 131.370  14.354  1.00  0.00     0.015 A 
ATOM     20  C   UNL     1      48.091 129.311  13.687  1.00  0.00     0.040 A 
ATOM     21  C   UNL     1      46.923 131.343  13.091  1.00  0.00     0.040 A 
ATOM     22  C   UNL     1      47.806 130.313  12.757  1.00  0.00     0.123 A 
ATOM     23  F   UNL     1      48.387 130.288  11.533  1.00  0.00    -0.207 F 
ENDBRANCH  15  17
ENDBRANCH   3  15
TORSDOF 3
ENDMDL
MODEL 4
REMARK VINA RESULT:      -6.5      1.087      1.498
REMARK SMILES CC1=N[C@]2(F)C[C@@H]([C@H]3O[C@@H]3C(=O)c3ccc(F)cc3)CC[C@@H]2C1
REMARK SMILES IDX 8 1 9 2 10 3 7 4 2 5 23 6 3 7 22 8 4 9 21 10 6 11 20 12 1 13
REMARK SMILES IDX 5 14 11 15 12 16 13 17 14 18 19 19 15 20 18 21 16 22 17 23
REMARK H PARENT
ROOT
ATOM      1  C   UNL     1      44.154 130.981  17.508  1.00  0.00     0.159 C 
ATOM      2  O   UNL     1      44.251 132.378  17.351  1.00  0.00    -0.361 OA
ATOM      3  C   UNL     1      43.069 131.894  17.948  1.00  0.00     0.219 C 
ENDROOT
BRANCH   1   4
ATOM      4  C   UNL     1      43.975 130.278  16.148  1.00  0.00     0.026 C 
ATOM      5  C   UNL     1      47.908 129.916  13.838  1.00  0.00     0.014 C 
ATOM      6  C   UNL     1      47.348 131.266  13.565  1.00  0.00     0.059 C 
ATOM      7  N   UNL     1      47.428 129.355  14.879  1.00  0.00    -0.255 NA
ATOM      8  C   UNL     1      46.236 131.391  14.619  1.00  0.00     0.055 C 
ATOM      9  C   UNL     1      46.463 130.177  15.558  1.00  0.00     0.203 C 
ATOM     10  C   UNL     1      44.840 131.380  13.967  1.00  0.00     0.010 C 
ATOM     11  C   UNL     1      45.181 129.367  15.845  1.00  0.00     0.072 C 
ATOM     12  C   UNL     1      43.726 131.326  15.026  1.00  0.00     0.007 C 
ATOM     13  C   UNL     1      48.954 129.258  12.995  1.00  0.00     0.061 C 
ATOM     14  F   UNL     1      47.018 130.610  16.752  1.00  0.00    -0.218 F 
ENDBRANCH   1   4
BRANCH   3  15
ATOM     15  C   UNL     1      43.039 132.200  19.417  1.00  0.00     0.194 C 
ATOM     16  O   UNL     1      42.495 133.272  19.799  1.00  0.00    -0.291 OA
BRANCH  15  17
ATOM     17  C   UNL     1      43.619 131.270  20.417  1.00  0.00     0.021 A 
ATOM     18  C   UNL     1      44.895 130.706  20.229  1.00  0.00     0.015 A 
ATOM     19  C   UNL     1      42.893 130.936  21.575  1.00  0.00     0.015 A 
ATOM     20  C   UNL     1      45.435 129.841  21.186  1.00  0.00     0.040 A 
ATOM     21  C   UNL     1      43.437 130.069  22.528  1.00  0.00     0.040 A 
ATOM     22  C   UNL     1      44.708 129.523  22.335  1.00  0.00     0.123 A 
ATOM     23  F   UNL     1      45.235 128.683  23.260  1.00  0.00    -0.207 F 
ENDBRANCH  15  17
ENDBRANCH   3  15
TORSDOF 3
ENDMDL
MODEL 5
REMARK VINA RESULT:      -6.5      1.115      1.254
REMARK SMILES CC1=N[C@]2(F)C[C@@H]([C@H]3O[C@@H]3C(=O)c3ccc(F)cc3)CC[C@@H]2C1
REMARK SMILES IDX 8 1 9 2 10 3 7 4 2 5 23 6 3 7 22 8 4 9 21 10 6 11 20 12 1 13
REMARK SMILES IDX 5 14 11 15 12 16 13 17 14 18 19 19 15 20 18 21 16 22 17 23
REMARK H PARENT
ROOT
ATOM      1  C   UNL     1      44.082 131.019  17.643  1.00  0.00     0.159 C 
ATOM      2  O   UNL     1      44.222 132.414  17.507  1.00  0.00    -0.361 OA
ATOM      3  C   UNL     1      43.023 131.957  18.092  1.00  0.00     0.219 C 
ENDROOT
BRANCH   1   4
ATOM      4  C   UNL     1      43.889 130.341  16.272  1.00  0.00     0.026 C 
ATOM      5  C   UNL     1      47.811 129.946  13.951  1.00  0.00     0.014 C 
ATOM      6  C   UNL     1      47.276 131.310  13.700  1.00  0.00     0.059 C 
ATOM      7  N   UNL     1      47.323 129.378  14.983  1.00  0.00    -0.255 NA
ATOM      8  C   UNL     1      46.167 131.439  14.758  1.00  0.00     0.055 C 
ATOM      9  C   UNL     1      46.373 130.205  15.676  1.00  0.00     0.203 C 
ATOM     10  C   UNL     1      44.770 131.463  14.108  1.00  0.00     0.010 C 
ATOM     11  C   UNL     1      45.078 129.414  15.952  1.00  0.00     0.072 C 
ATOM     12  C   UNL     1      43.657 131.412  15.167  1.00  0.00     0.007 C 
ATOM     13  C   UNL     1      48.844 129.283  13.095  1.00  0.00     0.061 C 
ATOM     14  F   UNL     1      46.938 130.609  16.877  1.00  0.00    -0.218 F 
ENDBRANCH   1   4
BRANCH   3  15
ATOM     15  C   UNL     1      42.994 132.244  19.564  1.00  0.00     0.194 C 
ATOM     16  O   UNL     1      42.459 133.315  19.961  1.00  0.00    -0.291 OA
BRANCH  15  17
ATOM     17  C   UNL     1      43.566 131.295  20.551  1.00  0.00     0.021 A 
ATOM     18  C   UNL     1      42.823 130.878  21.672  1.00  0.00     0.015 A 
ATOM     19  C   UNL     1      44.871 130.796  20.378  1.00  0.00     0.015 A 
ATOM     20  C   UNL     1      43.368 129.973  22.588  1.00  0.00     0.040 A 
ATOM     21  C   UNL     1      45.412 129.892  21.298  1.00  0.00     0.040 A 
ATOM     22  C   UNL     1      44.661 129.479  22.401  1.00  0.00     0.123 A 
ATOM     23  F   UNL     1      45.187 128.602  23.291  1.00  0.00    -0.207 F 
ENDBRANCH  15  17
ENDBRANCH   3  15
TORSDOF 3
ENDMDL
MODEL 6
REMARK VINA RESULT:      -6.4      3.552      7.719
REMARK SMILES CC1=N[C@]2(F)C[C@@H]([C@H]3O[C@@H]3C(=O)c3ccc(F)cc3)CC[C@@H]2C1
REMARK SMILES IDX 8 1 9 2 10 3 7 4 2 5 23 6 3 7 22 8 4 9 21 10 6 11 20 12 1 13
REMARK SMILES IDX 5 14 11 15 12 16 13 17 14 18 19 19 15 20 18 21 16 22 17 23
REMARK H PARENT
ROOT
ATOM      1  C   UNL     1      42.373 130.407  23.085  1.00  0.00     0.159 C 
ATOM      2  O   UNL     1      42.039 131.735  23.416  1.00  0.00    -0.361 OA
ATOM      3  C   UNL     1      43.201 131.554  22.638  1.00  0.00     0.219 C 
ENDROOT
BRANCH   1   4
ATOM      4  C   UNL     1      42.858 129.629  24.325  1.00  0.00     0.026 C 
ATOM      5  C   UNL     1      45.588 126.125  23.229  1.00  0.00     0.014 C 
ATOM      6  C   UNL     1      44.183 125.657  23.100  1.00  0.00     0.059 C 
ATOM      7  N   UNL     1      45.717 127.395  23.220  1.00  0.00    -0.255 NA
ATOM      8  C   UNL     1      43.382 126.969  23.169  1.00  0.00     0.055 C 
ATOM      9  C   UNL     1      44.461 128.079  23.070  1.00  0.00     0.203 C 
ATOM     10  C   UNL     1      42.561 127.058  24.470  1.00  0.00     0.010 C 
ATOM     11  C   UNL     1      44.322 129.177  24.144  1.00  0.00     0.072 C 
ATOM     12  C   UNL     1      41.903 128.438  24.625  1.00  0.00     0.007 C 
ATOM     13  C   UNL     1      46.767 125.210  23.341  1.00  0.00     0.061 C 
ATOM     14  F   UNL     1      44.423 128.653  21.808  1.00  0.00    -0.218 F 
ENDBRANCH   1   4
BRANCH   3  15
ATOM     15  C   UNL     1      42.979 131.997  21.222  1.00  0.00     0.194 C 
ATOM     16  O   UNL     1      41.997 132.747  20.970  1.00  0.00    -0.291 OA
BRANCH  15  17
ATOM     17  C   UNL     1      43.892 131.585  20.127  1.00  0.00     0.021 A 
ATOM     18  C   UNL     1      43.580 131.856  18.781  1.00  0.00     0.015 A 
ATOM     19  C   UNL     1      45.091 130.910  20.423  1.00  0.00     0.015 A 
ATOM     20  C   UNL     1      44.455 131.473  17.759  1.00  0.00     0.040 A 
ATOM     21  C   UNL     1      45.962 130.529  19.397  1.00  0.00     0.040 A 
ATOM     22  C   UNL     1      45.646 130.812  18.066  1.00  0.00     0.123 A 
ATOM     23  F   UNL     1      46.491 130.442  17.073  1.00  0.00    -0.207 F 
ENDBRANCH  15  17
ENDBRANCH   3  15
TORSDOF 3
ENDMDL
MODEL 7
REMARK VINA RESULT:      -6.3      2.629      7.875
REMARK SMILES CC1=N[C@]2(F)C[C@@H]([C@H]3O[C@@H]3C(=O)c3ccc(F)cc3)CC[C@@H]2C1
REMARK SMILES IDX 8 1 9 2 10 3 7 4 2 5 23 6 3 7 22 8 4 9 21 10 6 11 20 12 1 13
REMARK SMILES IDX 5 14 11 15 12 16 13 17 14 18 19 19 15 20 18 21 16 22 17 23
REMARK H PARENT
ROOT
ATOM      1  C   UNL     1      43.859 131.360  17.889  1.00  0.00     0.159 C 
ATOM      2  O   UNL     1      43.933 131.792  16.551  1.00  0.00    -0.361 OA
ATOM      3  C   UNL     1      45.161 131.578  17.210  1.00  0.00     0.219 C 
ENDROOT
BRANCH   1   4
ATOM      4  C   UNL     1      43.348 132.485  18.811  1.00  0.00     0.026 C 
ATOM      5  C   UNL     1      44.230 131.664  23.224  1.00  0.00     0.014 C 
ATOM      6  C   UNL     1      42.972 130.953  22.878  1.00  0.00     0.059 C 
ATOM      7  N   UNL     1      44.943 131.982  22.214  1.00  0.00    -0.255 NA
ATOM      8  C   UNL     1      42.954 131.026  21.341  1.00  0.00     0.055 C 
ATOM      9  C   UNL     1      44.362 131.559  20.969  1.00  0.00     0.203 C 
ATOM     10  C   UNL     1      41.823 131.944  20.836  1.00  0.00     0.010 C 
ATOM     11  C   UNL     1      44.338 132.732  19.967  1.00  0.00     0.072 C 
ATOM     12  C   UNL     1      41.913 132.161  19.317  1.00  0.00     0.007 C 
ATOM     13  C   UNL     1      44.656 131.975  24.624  1.00  0.00     0.061 C 
ATOM     14  F   UNL     1      45.130 130.524  20.457  1.00  0.00    -0.218 F 
ENDBRANCH   1   4
BRANCH   3  15
ATOM     15  C   UNL     1      45.839 130.339  16.703  1.00  0.00     0.194 C 
ATOM     16  O   UNL     1      45.838 129.309  17.430  1.00  0.00    -0.291 OA
BRANCH  15  17
ATOM     17  C   UNL     1      46.492 130.302  15.372  1.00  0.00     0.021 A 
ATOM     18  C   UNL     1      46.208 131.275  14.395  1.00  0.00     0.015 A 
ATOM     19  C   UNL     1      47.412 129.281  15.064  1.00  0.00     0.015 A 
ATOM     20  C   UNL     1      46.840 131.235  13.148  1.00  0.00     0.040 A 
ATOM     21  C   UNL     1      48.041 129.246  13.815  1.00  0.00     0.040 A 
ATOM     22  C   UNL     1      47.756 130.223  12.858  1.00  0.00     0.123 A 
ATOM     23  F   UNL     1      48.367 130.187  11.649  1.00  0.00    -0.207 F 
ENDBRANCH  15  17
ENDBRANCH   3  15
TORSDOF 3
ENDMDL
MODEL 8
REMARK VINA RESULT:      -6.1      4.343      7.859
REMARK SMILES CC1=N[C@]2(F)C[C@@H]([C@H]3O[C@@H]3C(=O)c3ccc(F)cc3)CC[C@@H]2C1
REMARK SMILES IDX 8 1 9 2 10 3 7 4 2 5 23 6 3 7 22 8 4 9 21 10 6 11 20 12 1 13
REMARK SMILES IDX 5 14 11 15 12 16 13 17 14 18 19 19 15 20 18 21 16 22 17 23
REMARK H PARENT
ROOT
ATOM      1  C   UNL     1      44.104 129.314  22.651  1.00  0.00     0.159 C 
ATOM      2  O   UNL     1      42.969 130.138  22.524  1.00  0.00    -0.361 OA
ATOM      3  C   UNL     1      44.175 130.780  22.869  1.00  0.00     0.219 C 
ENDROOT
BRANCH   1   4
ATOM      4  C   UNL     1      44.007 128.419  23.902  1.00  0.00     0.026 C 
ATOM      5  C   UNL     1      45.624 124.203  23.164  1.00  0.00     0.014 C 
ATOM      6  C   UNL     1      44.214 124.232  22.695  1.00  0.00     0.059 C 
ATOM      7  N   UNL     1      46.157 125.357  23.282  1.00  0.00    -0.255 NA
ATOM      8  C   UNL     1      43.890 125.736  22.687  1.00  0.00     0.055 C 
ATOM      9  C   UNL     1      45.264 126.421  22.914  1.00  0.00     0.203 C 
ATOM     10  C   UNL     1      42.864 126.096  23.780  1.00  0.00     0.010 C 
ATOM     11  C   UNL     1      45.244 127.504  24.013  1.00  0.00     0.072 C 
ATOM     12  C   UNL     1      42.674 127.617  23.892  1.00  0.00     0.007 C 
ATOM     13  C   UNL     1      46.380 122.947  23.461  1.00  0.00     0.061 C 
ATOM     14  F   UNL     1      45.709 126.974  21.723  1.00  0.00    -0.218 F 
ENDBRANCH   1   4
BRANCH   3  15
ATOM     15  C   UNL     1      44.712 131.579  21.718  1.00  0.00     0.194 C 
ATOM     16  O   UNL     1      45.874 132.060  21.806  1.00  0.00    -0.291 OA
BRANCH  15  17
ATOM     17  C   UNL     1      43.914 131.800  20.487  1.00  0.00     0.021 A 
ATOM     18  C   UNL     1      44.433 131.481  19.218  1.00  0.00     0.015 A 
ATOM     19  C   UNL     1      42.616 132.338  20.573  1.00  0.00     0.015 A 
ATOM     20  C   UNL     1      43.666 131.681  18.066  1.00  0.00     0.040 A 
ATOM     21  C   UNL     1      41.853 132.538  19.417  1.00  0.00     0.040 A 
ATOM     22  C   UNL     1      42.377 132.208  18.165  1.00  0.00     0.123 A 
ATOM     23  F   UNL     1      41.636 132.402  17.047  1.00  0.00    -0.207 F 
ENDBRANCH  15  17
ENDBRANCH   3  15
TORSDOF 3
ENDMDL
MODEL 9
REMARK VINA RESULT:      -5.7      2.452      7.736
REMARK SMILES CC1=N[C@]2(F)C[C@@H]([C@H]3O[C@@H]3C(=O)c3ccc(F)cc3)CC[C@@H]2C1
REMARK SMILES IDX 8 1 9 2 10 3 7 4 2 5 23 6 3 7 22 8 4 9 21 10 6 11 20 12 1 13
REMARK SMILES IDX 5 14 11 15 12 16 13 17 14 18 19 19 15 20 18 21 16 22 17 23
REMARK H PARENT
ROOT
ATOM      1  C   UNL     1      44.923 131.052  18.877  1.00  0.00     0.159 C 
ATOM      2  O   UNL     1      43.850 131.936  18.651  1.00  0.00    -0.361 OA
ATOM      3  C   UNL     1      44.960 132.063  17.790  1.00  0.00     0.219 C 
ENDROOT
BRANCH   1   4
ATOM      4  C   UNL     1      45.663 131.396  20.185  1.00  0.00     0.026 C 
ATOM      5  C   UNL     1      44.889 128.325  23.487  1.00  0.00     0.014 C 
ATOM      6  C   UNL     1      43.764 129.296  23.504  1.00  0.00     0.059 C 
ATOM      7  N   UNL     1      45.554 128.318  22.397  1.00  0.00    -0.255 NA
ATOM      8  C   UNL     1      43.956 130.060  22.182  1.00  0.00     0.055 C 
ATOM      9  C   UNL     1      45.042 129.247  21.428  1.00  0.00     0.203 C 
ATOM     10  C   UNL     1      44.380 131.520  22.434  1.00  0.00     0.010 C 
ATOM     11  C   UNL     1      46.187 130.115  20.865  1.00  0.00     0.072 C 
ATOM     12  C   UNL     1      44.745 132.232  21.122  1.00  0.00     0.007 C 
ATOM     13  C   UNL     1      45.223 127.413  24.625  1.00  0.00     0.061 C 
ATOM     14  F   UNL     1      44.452 128.528  20.399  1.00  0.00    -0.218 F 
ENDBRANCH   1   4
BRANCH   3  15
ATOM     15  C   UNL     1      44.643 131.548  16.417  1.00  0.00     0.194 C 
ATOM     16  O   UNL     1      43.453 131.618  16.006  1.00  0.00    -0.291 OA
BRANCH  15  17
ATOM     17  C   UNL     1      45.695 130.977  15.540  1.00  0.00     0.021 A 
ATOM     18  C   UNL     1      46.303 131.754  14.535  1.00  0.00     0.015 A 
ATOM     19  C   UNL     1      46.100 129.639  15.701  1.00  0.00     0.015 A 
ATOM     20  C   UNL     1      47.302 131.208  13.724  1.00  0.00     0.040 A 
ATOM     21  C   UNL     1      47.099 129.097  14.886  1.00  0.00     0.040 A 
ATOM     22  C   UNL     1      47.701 129.881  13.899  1.00  0.00     0.123 A 
ATOM     23  F   UNL     1      48.669 129.354  13.110  1.00  0.00    -0.207 F 
ENDBRANCH  15  17
ENDBRANCH   3  15
TORSDOF 3
ENDMDL


