MODEL 1
REMARK VINA RESULT:      -7.7      0.000      0.000
REMARK SMILES C/C(O)=C1\CC[C@@H](c2cc3ccccc3[nH]2)C[N@@H+]1C(=O)c1ncn[nH]1
REMARK SMILES IDX 4 1 5 2 6 3 7 4 17 5 18 6 2 8 1 9 3 10 19 12 20 13 21 14
REMARK SMILES IDX 22 15 25 16 23 17 24 18 8 20 9 21 16 22 10 23 15 24 11 25
REMARK SMILES IDX 14 26 12 27 13 28
REMARK H PARENT 18 7 3 11 25 19 16 29
ROOT
ATOM      1  C   UNL     1      44.067 131.622  22.505  1.00  0.00     0.152 C 
ATOM      2  C   UNL     1      43.083 132.155  21.469  1.00  0.00     0.102 C 
ATOM      3  C   UNL     1      43.670 132.160  20.059  1.00  0.00     0.026 C 
ATOM      4  C   UNL     1      44.332 130.820  19.740  1.00  0.00     0.092 C 
ATOM      5  C   UNL     1      45.440 130.548  20.770  1.00  0.00     0.285 C 
ATOM      6  N   UNL     1      44.939 130.501  22.162  1.00  0.00    -0.232 N 
ATOM      7  H   UNL     1      45.797 130.564  22.756  1.00  0.00     0.363 HD
ENDROOT
BRANCH   1   8
ATOM      8  C   UNL     1      43.985 132.027  23.800  1.00  0.00     0.146 C 
ATOM      9  C   UNL     1      42.695 132.008  24.576  1.00  0.00     0.093 C 
BRANCH   8  10
ATOM     10  O   UNL     1      45.135 132.484  24.447  1.00  0.00    -0.507 OA
ATOM     11  H   UNL     1      45.531 133.398  24.255  1.00  0.00     0.293 HD
ENDBRANCH   8  10
ENDBRANCH   1   8
BRANCH   6  12
ATOM     12  C   UNL     1      44.283 129.238  22.434  1.00  0.00     0.386 C 
ATOM     13  O   UNL     1      43.028 129.133  22.335  1.00  0.00    -0.221 OA
BRANCH  12  14
ATOM     14  C   UNL     1      45.066 128.036  22.779  1.00  0.00     0.255 A 
ATOM     15  N   UNL     1      45.494 127.126  21.881  1.00  0.00    -0.207 NA
ATOM     16  N   UNL     1      45.459 127.722  24.026  1.00  0.00    -0.252 N 
ATOM     17  C   UNL     1      46.167 126.249  22.660  1.00  0.00     0.246 A 
ATOM     18  N   UNL     1      46.153 126.603  23.960  1.00  0.00    -0.162 NA
ATOM     19  H   UNL     1      45.266 128.249  24.904  1.00  0.00     0.192 HD
ENDBRANCH  12  14
ENDBRANCH   6  12
BRANCH   4  20
ATOM     20  C   UNL     1      44.892 130.817  18.341  1.00  0.00     0.025 A 
ATOM     21  C   UNL     1      44.463 131.628  17.288  1.00  0.00     0.032 A 
ATOM     22  N   UNL     1      45.908 130.012  17.946  1.00  0.00    -0.358 N 
ATOM     23  C   UNL     1      45.262 131.278  16.221  1.00  0.00    -0.000 A 
ATOM     24  C   UNL     1      46.121 130.302  16.653  1.00  0.00     0.046 A 
ATOM     25  C   UNL     1      45.285 131.751  14.910  1.00  0.00     0.010 A 
ATOM     26  C   UNL     1      47.066 129.731  15.801  1.00  0.00     0.026 A 
ATOM     27  C   UNL     1      46.227 131.193  14.027  1.00  0.00     0.001 A 
ATOM     28  C   UNL     1      47.113 130.187  14.471  1.00  0.00     0.002 A 
ATOM     29  H   UNL     1      46.421 129.311  18.526  1.00  0.00     0.166 HD
ENDBRANCH   4  20
TORSDOF 5
ENDMDL
MODEL 2
REMARK VINA RESULT:      -7.0      0.841      1.045
REMARK SMILES C/C(O)=C1\CC[C@@H](c2cc3ccccc3[nH]2)C[N@@H+]1C(=O)c1ncn[nH]1
REMARK SMILES IDX 4 1 5 2 6 3 7 4 17 5 18 6 2 8 1 9 3 10 19 12 20 13 21 14
REMARK SMILES IDX 22 15 25 16 23 17 24 18 8 20 9 21 16 22 10 23 15 24 11 25
REMARK SMILES IDX 14 26 12 27 13 28
REMARK H PARENT 18 7 3 11 25 19 16 29
ROOT
ATOM      1  C   UNL     1      43.872 131.702  22.598  1.00  0.00     0.152 C 
ATOM      2  C   UNL     1      42.982 132.290  21.509  1.00  0.00     0.102 C 
ATOM      3  C   UNL     1      43.661 132.293  20.141  1.00  0.00     0.026 C 
ATOM      4  C   UNL     1      44.289 130.932  19.843  1.00  0.00     0.092 C 
ATOM      5  C   UNL     1      45.314 130.599  20.939  1.00  0.00     0.285 C 
ATOM      6  N   UNL     1      44.719 130.552  22.293  1.00  0.00    -0.232 N 
ATOM      7  H   UNL     1      45.538 130.570  22.944  1.00  0.00     0.363 HD
ENDROOT
BRANCH   1   8
ATOM      8  C   UNL     1      43.720 132.091  23.892  1.00  0.00     0.146 C 
ATOM      9  C   UNL     1      44.759 132.897  24.624  1.00  0.00     0.093 C 
BRANCH   8  10
ATOM     10  O   UNL     1      42.560 131.731  24.582  1.00  0.00    -0.507 OA
ATOM     11  H   UNL     1      42.592 131.190  25.439  1.00  0.00     0.293 HD
ENDBRANCH   8  10
ENDBRANCH   1   8
BRANCH   6  12
ATOM     12  C   UNL     1      43.997 129.312  22.499  1.00  0.00     0.386 C 
ATOM     13  O   UNL     1      42.734 129.301  22.504  1.00  0.00    -0.221 OA
BRANCH  12  14
ATOM     14  C   UNL     1      44.715 128.033  22.654  1.00  0.00     0.255 A 
ATOM     15  N   UNL     1      44.355 127.060  23.514  1.00  0.00    -0.207 NA
ATOM     16  N   UNL     1      45.800 127.684  21.940  1.00  0.00    -0.252 N 
ATOM     17  C   UNL     1      45.284 126.107  23.275  1.00  0.00     0.246 A 
ATOM     18  N   UNL     1      46.162 126.475  22.322  1.00  0.00    -0.162 NA
ATOM     19  H   UNL     1      46.288 128.246  21.210  1.00  0.00     0.192 HD
ENDBRANCH  12  14
ENDBRANCH   6  12
BRANCH   4  20
ATOM     20  C   UNL     1      44.940 130.927  18.484  1.00  0.00     0.025 A 
ATOM     21  C   UNL     1      44.908 131.972  17.559  1.00  0.00     0.032 A 
ATOM     22  N   UNL     1      45.658 129.882  18.005  1.00  0.00    -0.358 N 
ATOM     23  C   UNL     1      45.636 131.517  16.481  1.00  0.00    -0.000 A 
ATOM     24  C   UNL     1      46.073 130.254  16.784  1.00  0.00     0.046 A 
ATOM     25  C   UNL     1      45.937 132.128  15.265  1.00  0.00     0.010 A 
ATOM     26  C   UNL     1      46.845 129.514  15.889  1.00  0.00     0.026 A 
ATOM     27  C   UNL     1      46.713 131.405  14.341  1.00  0.00     0.001 A 
ATOM     28  C   UNL     1      47.165 130.104  14.652  1.00  0.00     0.002 A 
ATOM     29  H   UNL     1      45.850 128.974  18.484  1.00  0.00     0.166 HD
ENDBRANCH   4  20
TORSDOF 5
ENDMDL
MODEL 3
REMARK VINA RESULT:      -6.9      2.190      2.788
REMARK SMILES C/C(O)=C1\CC[C@@H](c2cc3ccccc3[nH]2)C[N@@H+]1C(=O)c1ncn[nH]1
REMARK SMILES IDX 4 1 5 2 6 3 7 4 17 5 18 6 2 8 1 9 3 10 19 12 20 13 21 14
REMARK SMILES IDX 22 15 25 16 23 17 24 18 8 20 9 21 16 22 10 23 15 24 11 25
REMARK SMILES IDX 14 26 12 27 13 28
REMARK H PARENT 18 7 3 11 25 19 16 29
ROOT
ATOM      1  C   UNL     1      43.122 132.049  20.096  1.00  0.00     0.152 C 
ATOM      2  C   UNL     1      42.397 131.436  18.902  1.00  0.00     0.102 C 
ATOM      3  C   UNL     1      43.275 131.384  17.654  1.00  0.00     0.026 C 
ATOM      4  C   UNL     1      44.651 130.807  17.981  1.00  0.00     0.092 C 
ATOM      5  C   UNL     1      45.320 131.676  19.057  1.00  0.00     0.285 C 
ATOM      6  N   UNL     1      44.536 131.752  20.310  1.00  0.00    -0.232 N 
ATOM      7  H   UNL     1      44.958 132.548  20.842  1.00  0.00     0.363 HD
ENDROOT
BRANCH   1   8
ATOM      8  C   UNL     1      42.420 132.678  21.076  1.00  0.00     0.146 C 
ATOM      9  C   UNL     1      41.133 133.413  20.808  1.00  0.00     0.093 C 
BRANCH   8  10
ATOM     10  O   UNL     1      42.902 132.653  22.386  1.00  0.00    -0.507 OA
ATOM     11  H   UNL     1      43.501 131.907  22.723  1.00  0.00     0.293 HD
ENDBRANCH   8  10
ENDBRANCH   1   8
BRANCH   6  12
ATOM     12  C   UNL     1      44.694 130.542  21.094  1.00  0.00     0.386 C 
ATOM     13  O   UNL     1      45.405 129.591  20.666  1.00  0.00    -0.221 OA
BRANCH  12  14
ATOM     14  C   UNL     1      44.075 130.417  22.427  1.00  0.00     0.255 A 
ATOM     15  N   UNL     1      42.952 129.715  22.679  1.00  0.00    -0.207 NA
ATOM     16  N   UNL     1      44.572 130.971  23.546  1.00  0.00    -0.252 N 
ATOM     17  C   UNL     1      42.803 129.879  24.012  1.00  0.00     0.246 A 
ATOM     18  N   UNL     1      43.781 130.636  24.547  1.00  0.00    -0.162 NA
ATOM     19  H   UNL     1      45.425 131.562  23.638  1.00  0.00     0.192 HD
ENDBRANCH  12  14
ENDBRANCH   6  12
BRANCH   4  20
ATOM     20  C   UNL     1      45.510 130.734  16.745  1.00  0.00     0.025 A 
ATOM     21  C   UNL     1      45.692 131.759  15.815  1.00  0.00     0.032 A 
ATOM     22  N   UNL     1      46.229 129.638  16.400  1.00  0.00    -0.358 N 
ATOM     23  C   UNL     1      46.554 131.239  14.874  1.00  0.00    -0.000 A 
ATOM     24  C   UNL     1      46.857 129.959  15.258  1.00  0.00     0.046 A 
ATOM     25  C   UNL     1      47.084 131.805  13.716  1.00  0.00     0.010 A 
ATOM     26  C   UNL     1      47.715 129.155  14.508  1.00  0.00     0.026 A 
ATOM     27  C   UNL     1      47.951 131.018  12.937  1.00  0.00     0.001 A 
ATOM     28  C   UNL     1      48.265 129.698  13.331  1.00  0.00     0.002 A 
ATOM     29  H   UNL     1      46.284 128.730  16.913  1.00  0.00     0.166 HD
ENDBRANCH   4  20
TORSDOF 5
ENDMDL
MODEL 4
REMARK VINA RESULT:      -6.4      1.765      2.432
REMARK SMILES C/C(O)=C1\CC[C@@H](c2cc3ccccc3[nH]2)C[N@@H+]1C(=O)c1ncn[nH]1
REMARK SMILES IDX 4 1 5 2 6 3 7 4 17 5 18 6 2 8 1 9 3 10 19 12 20 13 21 14
REMARK SMILES IDX 22 15 25 16 23 17 24 18 8 20 9 21 16 22 10 23 15 24 11 25
REMARK SMILES IDX 14 26 12 27 13 28
REMARK H PARENT 18 7 3 11 25 19 16 29
ROOT
ATOM      1  C   UNL     1      44.275 131.774  21.910  1.00  0.00     0.152 C 
ATOM      2  C   UNL     1      43.301 132.101  20.783  1.00  0.00     0.102 C 
ATOM      3  C   UNL     1      43.969 132.065  19.410  1.00  0.00     0.026 C 
ATOM      4  C   UNL     1      44.799 130.794  19.242  1.00  0.00     0.092 C 
ATOM      5  C   UNL     1      45.867 130.738  20.347  1.00  0.00     0.285 C 
ATOM      6  N   UNL     1      45.289 130.742  21.710  1.00  0.00    -0.232 N 
ATOM      7  H   UNL     1      46.097 130.954  22.340  1.00  0.00     0.363 HD
ENDROOT
BRANCH   1   8
ATOM      8  C   UNL     1      44.067 132.267  23.160  1.00  0.00     0.146 C 
ATOM      9  C   UNL     1      45.192 132.738  24.044  1.00  0.00     0.093 C 
BRANCH   8  10
ATOM     10  O   UNL     1      42.764 132.342  23.657  1.00  0.00    -0.507 OA
ATOM     11  H   UNL     1      42.209 133.187  23.579  1.00  0.00     0.293 HD
ENDBRANCH   8  10
ENDBRANCH   1   8
BRANCH   6  12
ATOM     12  C   UNL     1      44.768 129.434  22.055  1.00  0.00     0.386 C 
ATOM     13  O   UNL     1      45.348 128.388  21.652  1.00  0.00    -0.221 OA
BRANCH  12  14
ATOM     14  C   UNL     1      43.585 129.296  22.925  1.00  0.00     0.255 A 
ATOM     15  N   UNL     1      43.640 129.177  24.267  1.00  0.00    -0.207 NA
ATOM     16  N   UNL     1      42.316 129.291  22.481  1.00  0.00    -0.252 N 
ATOM     17  C   UNL     1      42.333 129.103  24.603  1.00  0.00     0.246 A 
ATOM     18  N   UNL     1      41.523 129.173  23.528  1.00  0.00    -0.162 NA
ATOM     19  H   UNL     1      41.988 129.367  21.495  1.00  0.00     0.192 HD
ENDBRANCH  12  14
ENDBRANCH   6  12
BRANCH   4  20
ATOM     20  C   UNL     1      45.441 130.747  17.879  1.00  0.00     0.025 A 
ATOM     21  C   UNL     1      46.171 129.678  17.356  1.00  0.00     0.032 A 
ATOM     22  N   UNL     1      45.366 131.762  16.984  1.00  0.00    -0.358 N 
ATOM     23  C   UNL     1      46.549 130.086  16.096  1.00  0.00    -0.000 A 
ATOM     24  C   UNL     1      46.047 131.347  15.904  1.00  0.00     0.046 A 
ATOM     25  C   UNL     1      47.296 129.435  15.116  1.00  0.00     0.010 A 
ATOM     26  C   UNL     1      46.258 132.045  14.715  1.00  0.00     0.026 A 
ATOM     27  C   UNL     1      47.528 130.115  13.906  1.00  0.00     0.001 A 
ATOM     28  C   UNL     1      47.011 131.414  13.707  1.00  0.00     0.002 A 
ATOM     29  H   UNL     1      44.880 132.679  17.106  1.00  0.00     0.166 HD
ENDBRANCH   4  20
TORSDOF 5
ENDMDL
MODEL 5
REMARK VINA RESULT:      -6.2      2.202      2.952
REMARK SMILES C/C(O)=C1\CC[C@@H](c2cc3ccccc3[nH]2)C[N@@H+]1C(=O)c1ncn[nH]1
REMARK SMILES IDX 4 1 5 2 6 3 7 4 17 5 18 6 2 8 1 9 3 10 19 12 20 13 21 14
REMARK SMILES IDX 22 15 25 16 23 17 24 18 8 20 9 21 16 22 10 23 15 24 11 25
REMARK SMILES IDX 14 26 12 27 13 28
REMARK H PARENT 18 7 3 11 25 19 16 29
ROOT
ATOM      1  C   UNL     1      43.171 131.982  20.136  1.00  0.00     0.152 C 
ATOM      2  C   UNL     1      42.447 131.389  18.932  1.00  0.00     0.102 C 
ATOM      3  C   UNL     1      43.333 131.333  17.690  1.00  0.00     0.026 C 
ATOM      4  C   UNL     1      44.699 130.735  18.023  1.00  0.00     0.092 C 
ATOM      5  C   UNL     1      45.372 131.587  19.111  1.00  0.00     0.285 C 
ATOM      6  N   UNL     1      44.579 131.664  20.358  1.00  0.00    -0.232 N 
ATOM      7  H   UNL     1      45.009 132.450  20.899  1.00  0.00     0.363 HD
ENDROOT
BRANCH   1   8
ATOM      8  C   UNL     1      42.471 132.615  21.114  1.00  0.00     0.146 C 
ATOM      9  C   UNL     1      41.216 133.399  20.837  1.00  0.00     0.093 C 
BRANCH   8  10
ATOM     10  O   UNL     1      42.924 132.544  22.434  1.00  0.00    -0.507 OA
ATOM     11  H   UNL     1      43.895 132.708  22.677  1.00  0.00     0.293 HD
ENDBRANCH   8  10
ENDBRANCH   1   8
BRANCH   6  12
ATOM     12  C   UNL     1      44.715 130.447  21.134  1.00  0.00     0.386 C 
ATOM     13  O   UNL     1      45.385 129.475  20.688  1.00  0.00    -0.221 OA
BRANCH  12  14
ATOM     14  C   UNL     1      44.120 130.336  22.480  1.00  0.00     0.255 A 
ATOM     15  N   UNL     1      42.966 129.693  22.748  1.00  0.00    -0.207 NA
ATOM     16  N   UNL     1      44.672 130.845  23.594  1.00  0.00    -0.252 N 
ATOM     17  C   UNL     1      42.857 129.845  24.087  1.00  0.00     0.246 A 
ATOM     18  N   UNL     1      43.887 130.540  24.609  1.00  0.00    -0.162 NA
ATOM     19  H   UNL     1      45.559 131.386  23.674  1.00  0.00     0.192 HD
ENDBRANCH  12  14
ENDBRANCH   6  12
BRANCH   4  20
ATOM     20  C   UNL     1      45.567 130.658  16.793  1.00  0.00     0.025 A 
ATOM     21  C   UNL     1      46.293 129.542  16.373  1.00  0.00     0.032 A 
ATOM     22  N   UNL     1      45.731 131.691  15.931  1.00  0.00    -0.358 N 
ATOM     23  C   UNL     1      46.919 129.939  15.213  1.00  0.00    -0.000 A 
ATOM     24  C   UNL     1      46.559 131.240  14.975  1.00  0.00     0.046 A 
ATOM     25  C   UNL     1      47.776 129.246  14.359  1.00  0.00     0.010 A 
ATOM     26  C   UNL     1      47.032 131.939  13.865  1.00  0.00     0.026 A 
ATOM     27  C   UNL     1      48.271 129.925  13.231  1.00  0.00     0.001 A 
ATOM     28  C   UNL     1      47.900 131.265  12.985  1.00  0.00     0.002 A 
ATOM     29  H   UNL     1      45.304 132.642  15.995  1.00  0.00     0.166 HD
ENDBRANCH   4  20
TORSDOF 5
ENDMDL
MODEL 6
REMARK VINA RESULT:      -6.2      1.650      2.122
REMARK SMILES C/C(O)=C1\CC[C@@H](c2cc3ccccc3[nH]2)C[N@@H+]1C(=O)c1ncn[nH]1
REMARK SMILES IDX 4 1 5 2 6 3 7 4 17 5 18 6 2 8 1 9 3 10 19 12 20 13 21 14
REMARK SMILES IDX 22 15 25 16 23 17 24 18 8 20 9 21 16 22 10 23 15 24 11 25
REMARK SMILES IDX 14 26 12 27 13 28
REMARK H PARENT 18 7 3 11 25 19 16 29
ROOT
ATOM      1  C   UNL     1      44.606 131.730  21.744  1.00  0.00     0.152 C 
ATOM      2  C   UNL     1      43.611 132.159  20.670  1.00  0.00     0.102 C 
ATOM      3  C   UNL     1      44.215 132.116  19.268  1.00  0.00     0.026 C 
ATOM      4  C   UNL     1      44.942 130.794  19.030  1.00  0.00     0.092 C 
ATOM      5  C   UNL     1      46.050 130.630  20.084  1.00  0.00     0.285 C 
ATOM      6  N   UNL     1      45.533 130.635  21.471  1.00  0.00    -0.232 N 
ATOM      7  H   UNL     1      46.381 130.770  22.070  1.00  0.00     0.363 HD
ENDROOT
BRANCH   1   8
ATOM      8  C   UNL     1      44.489 132.200  23.014  1.00  0.00     0.146 C 
ATOM      9  C   UNL     1      45.643 132.813  23.762  1.00  0.00     0.093 C 
BRANCH   8  10
ATOM     10  O   UNL     1      43.255 132.114  23.664  1.00  0.00    -0.507 OA
ATOM     11  H   UNL     1      42.775 131.230  23.787  1.00  0.00     0.293 HD
ENDBRANCH   8  10
ENDBRANCH   1   8
BRANCH   6  12
ATOM     12  C   UNL     1      44.934 129.359  21.805  1.00  0.00     0.386 C 
ATOM     13  O   UNL     1      45.353 128.295  21.269  1.00  0.00    -0.221 OA
BRANCH  12  14
ATOM     14  C   UNL     1      43.862 129.266  22.814  1.00  0.00     0.255 A 
ATOM     15  N   UNL     1      44.070 129.006  24.121  1.00  0.00    -0.207 NA
ATOM     16  N   UNL     1      42.557 129.449  22.550  1.00  0.00    -0.252 N 
ATOM     17  C   UNL     1      42.816 129.045  24.625  1.00  0.00     0.246 A 
ATOM     18  N   UNL     1      41.893 129.315  23.681  1.00  0.00    -0.162 NA
ATOM     19  H   UNL     1      42.119 129.661  21.628  1.00  0.00     0.192 HD
ENDBRANCH  12  14
ENDBRANCH   6  12
BRANCH   4  20
ATOM     20  C   UNL     1      45.519 130.741  17.638  1.00  0.00     0.025 A 
ATOM     21  C   UNL     1      45.206 131.610  16.591  1.00  0.00     0.032 A 
ATOM     22  N   UNL     1      46.439 129.826  17.246  1.00  0.00    -0.358 N 
ATOM     23  C   UNL     1      45.974 131.181  15.530  1.00  0.00    -0.000 A 
ATOM     24  C   UNL     1      46.705 130.105  15.960  1.00  0.00     0.046 A 
ATOM     25  C   UNL     1      46.074 131.665  14.227  1.00  0.00     0.010 A 
ATOM     26  C   UNL     1      47.589 129.436  15.114  1.00  0.00     0.026 A 
ATOM     27  C   UNL     1      46.956 131.010  13.349  1.00  0.00     0.001 A 
ATOM     28  C   UNL     1      47.710 129.900  13.791  1.00  0.00     0.002 A 
ATOM     29  H   UNL     1      46.856 129.062  17.823  1.00  0.00     0.166 HD
ENDBRANCH   4  20
TORSDOF 5
ENDMDL
MODEL 7
REMARK VINA RESULT:      -6.0      0.670      1.243
REMARK SMILES C/C(O)=C1\CC[C@@H](c2cc3ccccc3[nH]2)C[N@@H+]1C(=O)c1ncn[nH]1
REMARK SMILES IDX 4 1 5 2 6 3 7 4 17 5 18 6 2 8 1 9 3 10 19 12 20 13 21 14
REMARK SMILES IDX 22 15 25 16 23 17 24 18 8 20 9 21 16 22 10 23 15 24 11 25
REMARK SMILES IDX 14 26 12 27 13 28
REMARK H PARENT 18 7 3 11 25 19 16 29
ROOT
ATOM      1  C   UNL     1      44.200 131.652  22.404  1.00  0.00     0.152 C 
ATOM      2  C   UNL     1      43.292 132.273  21.348  1.00  0.00     0.102 C 
ATOM      3  C   UNL     1      43.914 132.241  19.954  1.00  0.00     0.026 C 
ATOM      4  C   UNL     1      44.470 130.853  19.639  1.00  0.00     0.092 C 
ATOM      5  C   UNL     1      45.525 130.481  20.694  1.00  0.00     0.285 C 
ATOM      6  N   UNL     1      44.985 130.466  22.072  1.00  0.00    -0.232 N 
ATOM      7  H   UNL     1      45.829 130.451  22.689  1.00  0.00     0.363 HD
ENDROOT
BRANCH   1   8
ATOM      8  C   UNL     1      44.118 132.052  23.701  1.00  0.00     0.146 C 
ATOM      9  C   UNL     1      42.818 132.081  24.460  1.00  0.00     0.093 C 
BRANCH   8  10
ATOM     10  O   UNL     1      45.278 132.458  24.365  1.00  0.00    -0.507 OA
ATOM     11  H   UNL     1      46.166 132.551  23.886  1.00  0.00     0.293 HD
ENDBRANCH   8  10
ENDBRANCH   1   8
BRANCH   6  12
ATOM     12  C   UNL     1      44.219 129.259  22.315  1.00  0.00     0.386 C 
ATOM     13  O   UNL     1      43.052 129.136  21.848  1.00  0.00    -0.221 OA
BRANCH  12  14
ATOM     14  C   UNL     1      44.802 128.129  23.064  1.00  0.00     0.255 A 
ATOM     15  N   UNL     1      44.829 126.857  22.618  1.00  0.00    -0.207 NA
ATOM     16  N   UNL     1      45.389 128.243  24.267  1.00  0.00    -0.252 N 
ATOM     17  C   UNL     1      45.468 126.215  23.621  1.00  0.00     0.246 A 
ATOM     18  N   UNL     1      45.813 127.046  24.624  1.00  0.00    -0.162 NA
ATOM     19  H   UNL     1      45.506 129.107  24.838  1.00  0.00     0.192 HD
ENDBRANCH  12  14
ENDBRANCH   6  12
BRANCH   4  20
ATOM     20  C   UNL     1      45.065 130.814  18.255  1.00  0.00     0.025 A 
ATOM     21  C   UNL     1      46.034 129.914  17.808  1.00  0.00     0.032 A 
ATOM     22  N   UNL     1      44.703 131.665  17.264  1.00  0.00    -0.358 N 
ATOM     23  C   UNL     1      46.259 130.256  16.492  1.00  0.00    -0.000 A 
ATOM     24  C   UNL     1      45.440 131.315  16.197  1.00  0.00     0.046 A 
ATOM     25  C   UNL     1      47.123 129.709  15.546  1.00  0.00     0.010 A 
ATOM     26  C   UNL     1      45.429 131.900  14.931  1.00  0.00     0.026 A 
ATOM     27  C   UNL     1      47.137 130.280  14.260  1.00  0.00     0.001 A 
ATOM     28  C   UNL     1      46.293 131.371  13.955  1.00  0.00     0.002 A 
ATOM     29  H   UNL     1      43.999 132.434  17.316  1.00  0.00     0.166 HD
ENDBRANCH   4  20
TORSDOF 5
ENDMDL


