REMARK SMILES Cn1cc2cc(F)c(-c3ccc4[nH]ccc4c3)c(F)c2[nH+]1
REMARK SMILES IDX 1 1 2 2 3 3 4 4 5 5 6 6 7 7 8 8 18 9 19 10 20 11 21 12 9 14
REMARK SMILES IDX 10 15 17 16 11 17 16 18 12 19 15 20 13 21 14 22
REMARK H PARENT 21 13 13 23
ROOT
ATOM      1  C   UNL     1       5.112   1.268  -0.535  1.00  0.00     0.223 C 
ATOM      2  N   UNL     1       3.769   0.716  -0.417  1.00  0.00    -0.165 N 
ATOM      3  C   UNL     1       3.412  -0.338   0.357  1.00  0.00     0.165 A 
ATOM      4  C   UNL     1       2.045  -0.480   0.246  1.00  0.00     0.076 A 
ATOM      5  C   UNL     1       1.155  -1.383   0.815  1.00  0.00     0.057 A 
ATOM      6  C   UNL     1      -0.209  -1.246   0.498  1.00  0.00     0.135 A 
ATOM      7  F   UNL     1      -1.100  -2.099   1.065  1.00  0.00    -0.206 F 
ATOM      8  C   UNL     1      -0.653  -0.211  -0.376  1.00  0.00     0.060 A 
ATOM      9  C   UNL     1       0.291   0.690  -0.929  1.00  0.00     0.208 A 
ATOM     10  F   UNL     1      -0.080   1.676  -1.785  1.00  0.00    -0.199 F 
ATOM     11  C   UNL     1       1.631   0.517  -0.593  1.00  0.00     0.272 A 
ATOM     12  N   UNL     1       2.691   1.244  -0.986  1.00  0.00    -0.121 N 
ATOM     13  H   UNL     1       2.686   2.080  -1.612  1.00  0.00     0.489 HD
ENDROOT
BRANCH   8  14
ATOM     14  C   UNL     1      -2.091  -0.075  -0.703  1.00  0.00    -0.011 A 
ATOM     15  C   UNL     1      -2.831  -1.199  -1.161  1.00  0.00     0.011 A 
ATOM     16  C   UNL     1      -2.737   1.175  -0.563  1.00  0.00     0.019 A 
ATOM     17  C   UNL     1      -4.197  -1.081  -1.475  1.00  0.00     0.027 A 
ATOM     18  C   UNL     1      -4.090   1.254  -0.883  1.00  0.00    -0.000 A 
ATOM     19  C   UNL     1      -4.795   0.167  -1.323  1.00  0.00     0.045 A 
ATOM     20  C   UNL     1      -4.961   2.321  -0.841  1.00  0.00     0.028 A 
ATOM     21  N   UNL     1      -6.075   0.493  -1.563  1.00  0.00    -0.361 N 
ATOM     22  C   UNL     1      -6.182   1.810  -1.270  1.00  0.00     0.083 A 
ATOM     23  H   UNL     1      -6.835  -0.136  -1.906  1.00  0.00     0.166 HD
ENDBRANCH   8  14
TORSDOF 1


