REMARK SMILES c1ccc2[n-]c(Nc3cn4ccccc4[nH+]3)cc2c1
REMARK SMILES IDX 8 1 9 2 10 3 11 4 12 5 13 6 14 7 15 8 16 9 7 11 6 13 1 14
REMARK SMILES IDX 2 15 19 16 3 17 18 18 4 19 17 20 5 21
REMARK H PARENT 16 10 7 12
ROOT
ATOM      1  C   UNL     1       2.020  -1.918  -0.885  1.00  0.00     0.256 A 
ATOM      2  C   UNL     1       2.290  -3.163  -1.431  1.00  0.00     0.248 A 
ATOM      3  N   UNL     1       1.528  -4.049  -0.768  1.00  0.00    -0.233 N 
ATOM      4  C   UNL     1       1.428  -5.394  -0.917  1.00  0.00     0.168 A 
ATOM      5  C   UNL     1       0.557  -6.091  -0.065  1.00  0.00     0.035 A 
ATOM      6  C   UNL     1      -0.174  -5.383   0.910  1.00  0.00     0.010 A 
ATOM      7  C   UNL     1      -0.035  -3.990   1.030  1.00  0.00     0.081 A 
ATOM      8  C   UNL     1       0.840  -3.352   0.153  1.00  0.00     0.230 A 
ATOM      9  N   UNL     1       1.119  -2.035   0.119  1.00  0.00    -0.243 N 
ATOM     10  H   UNL     1       0.760  -1.294   0.761  1.00  0.00     0.267 HD
ENDROOT
BRANCH   1  11
ATOM     11  N   UNL     1       2.682  -0.701  -1.254  1.00  0.00    -0.274 N 
ATOM     12  H   UNL     1       3.615  -0.769  -1.719  1.00  0.00     0.263 HD
BRANCH  11  13
ATOM     13  C   UNL     1       2.138   0.606  -1.029  1.00  0.00     0.087 A 
ATOM     14  C   UNL     1      -0.064   4.513  -0.524  1.00  0.00     0.001 A 
ATOM     15  C   UNL     1       1.265   4.985  -0.595  1.00  0.00     0.000 A 
ATOM     16  C   UNL     1      -0.336   3.136  -0.614  1.00  0.00     0.008 A 
ATOM     17  C   UNL     1       2.334   4.084  -0.758  1.00  0.00     0.004 A 
ATOM     18  C   UNL     1       0.745   2.270  -0.770  1.00  0.00    -0.019 A 
ATOM     19  C   UNL     1       2.036   2.725  -0.842  1.00  0.00    -0.032 A 
ATOM     20  C   UNL     1       0.782   0.904  -0.897  1.00  0.00     0.047 A 
ATOM     21  N   UNL     1       2.912   1.718  -1.012  1.00  0.00    -0.404 NA
ENDBRANCH  11  13
ENDBRANCH   1  11
TORSDOF 2


