REMARK SMILES CCC(=O)OCOc1ccc(Nc2ccc3cc[nH]c3c2)c(F)c1
REMARK SMILES IDX 6 1 5 2 3 3 4 4 2 5 1 6 7 7 8 8 9 9 24 10 10 11 22 12 11 13
REMARK SMILES IDX 23 14 12 15 13 17 14 18 21 19 15 20 20 21 16 22 19 23 17 24
REMARK SMILES IDX 18 25
REMARK H PARENT 12 16 19 26
ROOT
ATOM      1  C   UNL     1       1.729  -2.286   3.922  1.00  0.00     0.470 C 
ENDROOT
BRANCH   1   2
ATOM      2  O   UNL     1       2.164  -0.930   3.955  1.00  0.00    -0.428 OA
BRANCH   2   3
ATOM      3  C   UNL     1       1.708  -0.014   4.906  1.00  0.00     0.308 C 
ATOM      4  O   UNL     1       0.893  -0.367   5.801  1.00  0.00    -0.252 OA
BRANCH   3   5
ATOM      5  C   UNL     1       2.153   1.411   4.823  1.00  0.00     0.119 C 
ATOM      6  C   UNL     1       1.347   2.160   3.769  1.00  0.00     0.016 C 
ENDBRANCH   3   5
ENDBRANCH   2   3
ENDBRANCH   1   2
BRANCH   1   7
ATOM      7  O   UNL     1       2.310  -2.949   2.802  1.00  0.00    -0.457 OA
BRANCH   7   8
ATOM      8  C   UNL     1       2.051  -2.627   1.460  1.00  0.00     0.126 A 
ATOM      9  C   UNL     1       2.727  -3.342   0.465  1.00  0.00     0.049 A 
ATOM     10  C   UNL     1       1.147  -1.615   1.084  1.00  0.00     0.088 A 
ATOM     11  C   UNL     1       2.505  -3.061  -0.886  1.00  0.00     0.033 A 
ATOM     12  C   UNL     1       0.925  -1.331  -0.268  1.00  0.00     0.150 A 
ATOM     13  C   UNL     1       1.589  -2.071  -1.264  1.00  0.00     0.075 A 
ATOM     14  F   UNL     1       0.092  -0.313  -0.599  1.00  0.00    -0.205 F 
BRANCH  13  15
ATOM     15  N   UNL     1       1.394  -1.789  -2.659  1.00  0.00    -0.353 N 
ATOM     16  H   UNL     1       2.232  -1.820  -3.284  1.00  0.00     0.167 HD
BRANCH  15  17
ATOM     17  C   UNL     1       0.111  -1.546  -3.263  1.00  0.00     0.041 A 
ATOM     18  C   UNL     1       0.044  -0.817  -4.477  1.00  0.00     0.027 A 
ATOM     19  C   UNL     1      -1.076  -2.069  -2.696  1.00  0.00     0.052 A 
ATOM     20  C   UNL     1      -1.190  -0.580  -5.109  1.00  0.00     0.012 A 
ATOM     21  C   UNL     1      -2.282  -1.816  -3.348  1.00  0.00     0.047 A 
ATOM     22  C   UNL     1      -2.335  -1.095  -4.510  1.00  0.00    -0.001 A 
ATOM     23  N   UNL     1      -3.510  -2.214  -2.976  1.00  0.00    -0.361 N 
ATOM     24  C   UNL     1      -3.657  -1.031  -4.895  1.00  0.00     0.028 A 
ATOM     25  C   UNL     1      -4.354  -1.735  -3.919  1.00  0.00     0.083 A 
ATOM     26  H   UNL     1      -3.764  -2.777  -2.135  1.00  0.00     0.166 HD
ENDBRANCH  15  17
ENDBRANCH  13  15
ENDBRANCH   7   8
ENDBRANCH   1   7
TORSDOF 7


