MODEL 1
REMARK VINA RESULT:      -9.3      0.000      0.000
REMARK SMILES Cc1ccc([NH2+]c2cc(-c3c[nH+]c4c(c3)C(=O)NC4)cc(N)c2[O-])cc1F
REMARK SMILES IDX 7 1 8 2 9 3 20 4 21 5 23 6 24 7 6 8 5 11 2 12 3 13 26 14
REMARK SMILES IDX 4 15 25 16 1 17 27 18 10 19 11 20 15 21 12 22 14 23 13 24
REMARK SMILES IDX 16 25 19 26 18 27 17 29 22 31
REMARK H PARENT 6 9 6 10 12 28 18 30 22 32 22 33
ROOT
ATOM      1  C   UNL     1      44.042 130.960  21.992  1.00  0.00     0.129 A 
ATOM      2  C   UNL     1      44.673 130.707  20.761  1.00  0.00     0.076 A 
ATOM      3  C   UNL     1      44.192 131.276  19.571  1.00  0.00    -0.004 A 
ATOM      4  C   UNL     1      43.062 132.108  19.621  1.00  0.00     0.034 A 
ATOM      5  C   UNL     1      42.421 132.373  20.838  1.00  0.00     0.030 A 
ATOM      6  C   UNL     1      42.912 131.802  22.025  1.00  0.00    -0.021 A 
ATOM      7  O   UNL     1      42.276 132.069  23.233  1.00  0.00    -0.867 OA
ENDROOT
BRANCH   1   8
ATOM      8  N   UNL     1      44.583 130.392  23.205  1.00  0.00    -0.282 N 
ATOM      9  H   UNL     1      45.627 130.473  23.218  1.00  0.00     0.358 HD
ATOM     10  H   UNL     1      44.238 130.928  24.035  1.00  0.00     0.358 HD
BRANCH   8  11
ATOM     11  C   UNL     1      44.184 129.011  23.316  1.00  0.00     0.137 A 
ATOM     12  C   UNL     1      43.376 126.314  23.481  1.00  0.00    -0.015 A 
ATOM     13  C   UNL     1      44.610 126.651  22.904  1.00  0.00     0.012 A 
ATOM     14  C   UNL     1      42.538 127.335  23.958  1.00  0.00     0.132 A 
ATOM     15  C   UNL     1      45.013 127.987  22.824  1.00  0.00     0.068 A 
ATOM     16  C   UNL     1      42.941 128.672  23.878  1.00  0.00     0.107 A 
ATOM     17  C   UNL     1      42.931 124.881  23.539  1.00  0.00     0.047 C 
ATOM     18  F   UNL     1      41.328 127.036  24.495  1.00  0.00    -0.206 F 
ENDBRANCH   8  11
ENDBRANCH   1   8
BRANCH   3  19
ATOM     19  C   UNL     1      44.876 131.009  18.280  1.00  0.00     0.047 A 
ATOM     20  C   UNL     1      46.136 130.356  18.250  1.00  0.00     0.315 A 
ATOM     21  C   UNL     1      44.282 131.397  17.060  1.00  0.00     0.035 A 
ATOM     22  N   UNL     1      46.767 130.108  17.063  1.00  0.00    -0.212 N 
ATOM     23  C   UNL     1      44.968 131.120  15.883  1.00  0.00     0.109 A 
ATOM     24  C   UNL     1      46.184 130.487  15.897  1.00  0.00     0.211 A 
ATOM     25  C   UNL     1      44.640 131.374  14.504  1.00  0.00     0.258 C 
ATOM     26  C   UNL     1      46.722 130.295  14.509  1.00  0.00     0.225 C 
ATOM     27  N   UNL     1      45.680 130.887  13.666  1.00  0.00    -0.342 N 
ATOM     28  H   UNL     1      47.695 129.630  17.055  1.00  0.00     0.453 HD
ATOM     29  O   UNL     1      43.598 131.939  14.083  1.00  0.00    -0.269 OA
ATOM     30  H   UNL     1      45.698 130.942  12.623  1.00  0.00     0.164 HD
ENDBRANCH   3  19
BRANCH   5  31
ATOM     31  N   UNL     1      41.274 133.231  20.861  1.00  0.00    -0.399 N 
ATOM     32  H   UNL     1      40.592 133.188  21.651  1.00  0.00     0.156 HD
ATOM     33  H   UNL     1      41.092 133.917  20.096  1.00  0.00     0.156 HD
ENDBRANCH   5  31
TORSDOF 4
ENDMDL
MODEL 2
REMARK VINA RESULT:      -8.5      3.787      7.295
REMARK SMILES Cc1ccc([NH2+]c2cc(-c3c[nH+]c4c(c3)C(=O)NC4)cc(N)c2[O-])cc1F
REMARK SMILES IDX 7 1 8 2 9 3 20 4 21 5 23 6 24 7 6 8 5 11 2 12 3 13 26 14
REMARK SMILES IDX 4 15 25 16 1 17 27 18 10 19 11 20 15 21 12 22 14 23 13 24
REMARK SMILES IDX 16 25 19 26 18 27 17 29 22 31
REMARK H PARENT 6 9 6 10 12 28 18 30 22 32 22 33
ROOT
ATOM      1  C   UNL     1      44.254 129.983  22.690  1.00  0.00     0.129 A 
ATOM      2  C   UNL     1      44.842 128.721  22.492  1.00  0.00     0.076 A 
ATOM      3  C   UNL     1      44.209 127.550  22.936  1.00  0.00    -0.004 A 
ATOM      4  C   UNL     1      42.971 127.650  23.588  1.00  0.00     0.034 A 
ATOM      5  C   UNL     1      42.368 128.897  23.794  1.00  0.00     0.030 A 
ATOM      6  C   UNL     1      43.007 130.065  23.343  1.00  0.00    -0.021 A 
ATOM      7  O   UNL     1      42.405 131.303  23.545  1.00  0.00    -0.867 OA
ENDROOT
BRANCH   1   8
ATOM      8  N   UNL     1      44.911 131.168  22.188  1.00  0.00    -0.282 N 
ATOM      9  H   UNL     1      44.570 132.020  22.690  1.00  0.00     0.358 HD
ATOM     10  H   UNL     1      45.940 131.111  22.371  1.00  0.00     0.358 HD
BRANCH   8  11
ATOM     11  C   UNL     1      44.675 131.291  20.770  1.00  0.00     0.137 A 
ATOM     12  C   UNL     1      44.189 131.477  17.998  1.00  0.00    -0.015 A 
ATOM     13  C   UNL     1      43.233 131.934  18.918  1.00  0.00     0.012 A 
ATOM     14  C   UNL     1      45.383 130.908  18.472  1.00  0.00     0.132 A 
ATOM     15  C   UNL     1      43.474 131.844  20.292  1.00  0.00     0.068 A 
ATOM     16  C   UNL     1      45.623 130.819  19.847  1.00  0.00     0.107 A 
ATOM     17  C   UNL     1      43.917 131.546  16.524  1.00  0.00     0.047 C 
ATOM     18  F   UNL     1      46.311 130.435  17.602  1.00  0.00    -0.206 F 
ENDBRANCH   8  11
ENDBRANCH   1   8
BRANCH   3  19
ATOM     19  C   UNL     1      44.838 126.224  22.708  1.00  0.00     0.047 A 
ATOM     20  C   UNL     1      44.049 125.044  22.673  1.00  0.00     0.315 A 
ATOM     21  C   UNL     1      46.232 126.114  22.520  1.00  0.00     0.035 A 
ATOM     22  N   UNL     1      44.626 123.823  22.463  1.00  0.00    -0.212 N 
ATOM     23  C   UNL     1      46.765 124.848  22.310  1.00  0.00     0.109 A 
ATOM     24  C   UNL     1      45.968 123.732  22.283  1.00  0.00     0.211 A 
ATOM     25  C   UNL     1      48.117 124.406  22.082  1.00  0.00     0.258 C 
ATOM     26  C   UNL     1      46.769 122.487  22.037  1.00  0.00     0.225 C 
ATOM     27  N   UNL     1      48.139 122.993  21.917  1.00  0.00    -0.342 N 
ATOM     28  H   UNL     1      44.034 122.962  22.443  1.00  0.00     0.453 HD
ATOM     29  O   UNL     1      49.138 125.140  22.034  1.00  0.00    -0.269 OA
ATOM     30  H   UNL     1      48.990 122.414  21.741  1.00  0.00     0.164 HD
ENDBRANCH   3  19
BRANCH   5  31
ATOM     31  N   UNL     1      41.100 128.969  24.457  1.00  0.00    -0.399 N 
ATOM     32  H   UNL     1      40.573 129.870  24.501  1.00  0.00     0.156 HD
ATOM     33  H   UNL     1      40.672 128.130  24.908  1.00  0.00     0.156 HD
ENDBRANCH   5  31
TORSDOF 4
ENDMDL
MODEL 3
REMARK VINA RESULT:      -8.3      0.951      1.385
REMARK SMILES Cc1ccc([NH2+]c2cc(-c3c[nH+]c4c(c3)C(=O)NC4)cc(N)c2[O-])cc1F
REMARK SMILES IDX 7 1 8 2 9 3 20 4 21 5 23 6 24 7 6 8 5 11 2 12 3 13 26 14
REMARK SMILES IDX 4 15 25 16 1 17 27 18 10 19 11 20 15 21 12 22 14 23 13 24
REMARK SMILES IDX 16 25 19 26 18 27 17 29 22 31
REMARK H PARENT 6 9 6 10 12 28 18 30 22 32 22 33
ROOT
ATOM      1  C   UNL     1      43.512 131.333  22.036  1.00  0.00     0.129 A 
ATOM      2  C   UNL     1      44.213 131.034  20.854  1.00  0.00     0.076 A 
ATOM      3  C   UNL     1      43.814 131.573  19.620  1.00  0.00    -0.004 A 
ATOM      4  C   UNL     1      42.696 132.421  19.576  1.00  0.00     0.034 A 
ATOM      5  C   UNL     1      41.986 132.731  20.743  1.00  0.00     0.030 A 
ATOM      6  C   UNL     1      42.395 132.190  21.974  1.00  0.00    -0.021 A 
ATOM      7  O   UNL     1      41.690 132.502  23.133  1.00  0.00    -0.867 OA
ENDROOT
BRANCH   1   8
ATOM      8  N   UNL     1      43.969 130.795  23.296  1.00  0.00    -0.282 N 
ATOM      9  H   UNL     1      45.010 130.682  23.294  1.00  0.00     0.358 HD
ATOM     10  H   UNL     1      43.749 131.463  24.071  1.00  0.00     0.358 HD
BRANCH   8  11
ATOM     11  C   UNL     1      43.326 129.529  23.547  1.00  0.00     0.137 A 
ATOM     12  C   UNL     1      42.103 127.045  24.086  1.00  0.00    -0.015 A 
ATOM     13  C   UNL     1      41.558 128.231  24.602  1.00  0.00     0.012 A 
ATOM     14  C   UNL     1      43.275 127.105  23.314  1.00  0.00     0.132 A 
ATOM     15  C   UNL     1      42.163 129.462  24.333  1.00  0.00     0.068 A 
ATOM     16  C   UNL     1      43.879 128.338  23.045  1.00  0.00     0.107 A 
ATOM     17  C   UNL     1      41.471 125.721  24.399  1.00  0.00     0.047 C 
ATOM     18  F   UNL     1      43.836 125.969  22.826  1.00  0.00    -0.206 F 
ENDBRANCH   8  11
ENDBRANCH   1   8
BRANCH   3  19
ATOM     19  C   UNL     1      44.572 131.258  18.383  1.00  0.00     0.047 A 
ATOM     20  C   UNL     1      45.875 130.697  18.453  1.00  0.00     0.315 A 
ATOM     21  C   UNL     1      44.008 131.506  17.113  1.00  0.00     0.035 A 
ATOM     22  N   UNL     1      46.573 130.406  17.315  1.00  0.00    -0.212 N 
ATOM     23  C   UNL     1      44.762 131.190  15.990  1.00  0.00     0.109 A 
ATOM     24  C   UNL     1      46.018 130.650  16.101  1.00  0.00     0.211 A 
ATOM     25  C   UNL     1      44.478 131.312  14.583  1.00  0.00     0.258 C 
ATOM     26  C   UNL     1      46.629 130.391  14.755  1.00  0.00     0.225 C 
ATOM     27  N   UNL     1      45.587 130.839  13.827  1.00  0.00    -0.342 N 
ATOM     28  H   UNL     1      47.532 129.997  17.381  1.00  0.00     0.453 HD
ATOM     29  O   UNL     1      43.419 131.766  14.078  1.00  0.00    -0.269 OA
ATOM     30  H   UNL     1      45.647 130.815  12.785  1.00  0.00     0.164 HD
ENDBRANCH   3  19
BRANCH   5  31
ATOM     31  N   UNL     1      40.853 133.604  20.670  1.00  0.00    -0.399 N 
ATOM     32  H   UNL     1      40.366 133.918  21.539  1.00  0.00     0.156 HD
ATOM     33  H   UNL     1      40.488 133.948  19.754  1.00  0.00     0.156 HD
ENDBRANCH   5  31
TORSDOF 4
ENDMDL
MODEL 4
REMARK VINA RESULT:      -7.9      1.696      2.194
REMARK SMILES Cc1ccc([NH2+]c2cc(-c3c[nH+]c4c(c3)C(=O)NC4)cc(N)c2[O-])cc1F
REMARK SMILES IDX 7 1 8 2 9 3 20 4 21 5 23 6 24 7 6 8 5 11 2 12 3 13 26 14
REMARK SMILES IDX 4 15 25 16 1 17 27 18 10 19 11 20 15 21 12 22 14 23 13 24
REMARK SMILES IDX 16 25 19 26 18 27 17 29 22 31
REMARK H PARENT 6 9 6 10 12 28 18 30 22 32 22 33
ROOT
ATOM      1  C   UNL     1      44.175 131.124  21.405  1.00  0.00     0.129 A 
ATOM      2  C   UNL     1      44.559 130.982  20.060  1.00  0.00     0.076 A 
ATOM      3  C   UNL     1      43.809 131.567  19.027  1.00  0.00    -0.004 A 
ATOM      4  C   UNL     1      42.658 132.302  19.353  1.00  0.00     0.034 A 
ATOM      5  C   UNL     1      42.260 132.457  20.686  1.00  0.00     0.030 A 
ATOM      6  C   UNL     1      43.020 131.871  21.714  1.00  0.00    -0.021 A 
ATOM      7  O   UNL     1      42.625 132.029  23.039  1.00  0.00    -0.867 OA
ENDROOT
BRANCH   1   8
ATOM      8  N   UNL     1      44.988 130.544  22.448  1.00  0.00    -0.282 N 
ATOM      9  H   UNL     1      46.002 130.579  22.190  1.00  0.00     0.358 HD
ATOM     10  H   UNL     1      44.891 131.102  23.329  1.00  0.00     0.358 HD
BRANCH   8  11
ATOM     11  C   UNL     1      44.576 129.183  22.687  1.00  0.00     0.137 A 
ATOM     12  C   UNL     1      43.805 126.519  23.200  1.00  0.00    -0.015 A 
ATOM     13  C   UNL     1      43.065 127.587  23.731  1.00  0.00     0.012 A 
ATOM     14  C   UNL     1      44.946 126.790  22.426  1.00  0.00     0.132 A 
ATOM     15  C   UNL     1      43.445 128.907  23.475  1.00  0.00     0.068 A 
ATOM     16  C   UNL     1      45.325 128.112  22.170  1.00  0.00     0.107 A 
ATOM     17  C   UNL     1      43.415 125.101  23.500  1.00  0.00     0.047 C 
ATOM     18  F   UNL     1      45.693 125.775  21.924  1.00  0.00    -0.206 F 
ENDBRANCH   8  11
ENDBRANCH   1   8
BRANCH   3  19
ATOM     19  C   UNL     1      44.233 131.416  17.612  1.00  0.00     0.047 A 
ATOM     20  C   UNL     1      43.438 131.937  16.557  1.00  0.00     0.315 A 
ATOM     21  C   UNL     1      45.439 130.756  17.291  1.00  0.00     0.035 A 
ATOM     22  N   UNL     1      43.828 131.800  15.255  1.00  0.00    -0.212 N 
ATOM     23  C   UNL     1      45.786 130.646  15.950  1.00  0.00     0.109 A 
ATOM     24  C   UNL     1      44.990 131.162  14.961  1.00  0.00     0.211 A 
ATOM     25  C   UNL     1      46.927 130.050  15.305  1.00  0.00     0.258 C 
ATOM     26  C   UNL     1      45.575 130.924  13.599  1.00  0.00     0.225 C 
ATOM     27  N   UNL     1      46.818 130.206  13.895  1.00  0.00    -0.342 N 
ATOM     28  H   UNL     1      43.232 132.184  14.488  1.00  0.00     0.453 HD
ATOM     29  O   UNL     1      47.886 129.473  15.880  1.00  0.00    -0.269 OA
ATOM     30  H   UNL     1      47.508 129.866  13.190  1.00  0.00     0.164 HD
ENDBRANCH   3  19
BRANCH   5  31
ATOM     31  N   UNL     1      41.086 133.219  20.991  1.00  0.00    -0.399 N 
ATOM     32  H   UNL     1      40.176 133.002  20.526  1.00  0.00     0.156 HD
ATOM     33  H   UNL     1      41.109 134.002  21.680  1.00  0.00     0.156 HD
ENDBRANCH   5  31
TORSDOF 4
ENDMDL
MODEL 5
REMARK VINA RESULT:      -7.7      1.392      1.738
REMARK SMILES Cc1ccc([NH2+]c2cc(-c3c[nH+]c4c(c3)C(=O)NC4)cc(N)c2[O-])cc1F
REMARK SMILES IDX 7 1 8 2 9 3 20 4 21 5 23 6 24 7 6 8 5 11 2 12 3 13 26 14
REMARK SMILES IDX 4 15 25 16 1 17 27 18 10 19 11 20 15 21 12 22 14 23 13 24
REMARK SMILES IDX 16 25 19 26 18 27 17 29 22 31
REMARK H PARENT 6 9 6 10 12 28 18 30 22 32 22 33
ROOT
ATOM      1  C   UNL     1      44.177 131.052  21.491  1.00  0.00     0.129 A 
ATOM      2  C   UNL     1      44.561 130.922  20.145  1.00  0.00     0.076 A 
ATOM      3  C   UNL     1      43.809 131.512  19.117  1.00  0.00    -0.004 A 
ATOM      4  C   UNL     1      42.655 132.240  19.448  1.00  0.00     0.034 A 
ATOM      5  C   UNL     1      42.256 132.382  20.783  1.00  0.00     0.030 A 
ATOM      6  C   UNL     1      43.018 131.791  21.806  1.00  0.00    -0.021 A 
ATOM      7  O   UNL     1      42.623 131.937  23.132  1.00  0.00    -0.867 OA
ENDROOT
BRANCH   1   8
ATOM      8  N   UNL     1      44.992 130.467  22.530  1.00  0.00    -0.282 N 
ATOM      9  H   UNL     1      46.009 130.588  22.314  1.00  0.00     0.358 HD
ATOM     10  H   UNL     1      44.824 130.962  23.437  1.00  0.00     0.358 HD
BRANCH   8  11
ATOM     11  C   UNL     1      44.671 129.068  22.671  1.00  0.00     0.137 A 
ATOM     12  C   UNL     1      44.004 126.338  22.903  1.00  0.00    -0.015 A 
ATOM     13  C   UNL     1      45.042 126.744  22.050  1.00  0.00     0.012 A 
ATOM     14  C   UNL     1      43.288 127.306  23.625  1.00  0.00     0.132 A 
ATOM     15  C   UNL     1      45.375 128.097  21.936  1.00  0.00     0.068 A 
ATOM     16  C   UNL     1      43.622 128.659  23.512  1.00  0.00     0.107 A 
ATOM     17  C   UNL     1      43.627 124.888  23.002  1.00  0.00     0.047 C 
ATOM     18  F   UNL     1      42.263 126.940  24.436  1.00  0.00    -0.206 F 
ENDBRANCH   8  11
ENDBRANCH   1   8
BRANCH   3  19
ATOM     19  C   UNL     1      44.234 131.375  17.701  1.00  0.00     0.047 A 
ATOM     20  C   UNL     1      43.443 131.912  16.651  1.00  0.00     0.315 A 
ATOM     21  C   UNL     1      45.436 130.710  17.374  1.00  0.00     0.035 A 
ATOM     22  N   UNL     1      43.834 131.787  15.347  1.00  0.00    -0.212 N 
ATOM     23  C   UNL     1      45.784 130.613  16.032  1.00  0.00     0.109 A 
ATOM     24  C   UNL     1      44.992 131.145  15.048  1.00  0.00     0.211 A 
ATOM     25  C   UNL     1      46.923 130.017  15.382  1.00  0.00     0.258 C 
ATOM     26  C   UNL     1      45.578 130.919  13.684  1.00  0.00     0.225 C 
ATOM     27  N   UNL     1      46.816 130.190  13.974  1.00  0.00    -0.342 N 
ATOM     28  H   UNL     1      43.241 132.183  14.584  1.00  0.00     0.453 HD
ATOM     29  O   UNL     1      47.877 129.428  15.951  1.00  0.00    -0.269 OA
ATOM     30  H   UNL     1      47.505 129.854  13.265  1.00  0.00     0.164 HD
ENDBRANCH   3  19
BRANCH   5  31
ATOM     31  N   UNL     1      41.079 133.137  21.093  1.00  0.00    -0.399 N 
ATOM     32  H   UNL     1      40.231 132.665  21.480  1.00  0.00     0.156 HD
ATOM     33  H   UNL     1      41.039 134.169  20.943  1.00  0.00     0.156 HD
ENDBRANCH   5  31
TORSDOF 4
ENDMDL
MODEL 6
REMARK VINA RESULT:      -7.5      0.983      1.290
REMARK SMILES Cc1ccc([NH2+]c2cc(-c3c[nH+]c4c(c3)C(=O)NC4)cc(N)c2[O-])cc1F
REMARK SMILES IDX 7 1 8 2 9 3 20 4 21 5 23 6 24 7 6 8 5 11 2 12 3 13 26 14
REMARK SMILES IDX 4 15 25 16 1 17 27 18 10 19 11 20 15 21 12 22 14 23 13 24
REMARK SMILES IDX 16 25 19 26 18 27 17 29 22 31
REMARK H PARENT 6 9 6 10 12 28 18 30 22 32 22 33
ROOT
ATOM      1  C   UNL     1      44.150 130.896  22.028  1.00  0.00     0.129 A 
ATOM      2  C   UNL     1      44.771 130.634  20.794  1.00  0.00     0.076 A 
ATOM      3  C   UNL     1      44.280 131.191  19.602  1.00  0.00    -0.004 A 
ATOM      4  C   UNL     1      43.149 132.021  19.654  1.00  0.00     0.034 A 
ATOM      5  C   UNL     1      42.517 132.296  20.873  1.00  0.00     0.030 A 
ATOM      6  C   UNL     1      43.018 131.736  22.061  1.00  0.00    -0.021 A 
ATOM      7  O   UNL     1      42.391 132.014  23.272  1.00  0.00    -0.867 OA
ENDROOT
BRANCH   1   8
ATOM      8  N   UNL     1      44.701 130.341  23.241  1.00  0.00    -0.282 N 
ATOM      9  H   UNL     1      45.743 130.442  23.255  1.00  0.00     0.358 HD
ATOM     10  H   UNL     1      44.345 130.871  24.071  1.00  0.00     0.358 HD
BRANCH   8  11
ATOM     11  C   UNL     1      44.330 128.952  23.354  1.00  0.00     0.137 A 
ATOM     12  C   UNL     1      43.656 126.224  23.599  1.00  0.00    -0.015 A 
ATOM     13  C   UNL     1      43.314 127.133  24.612  1.00  0.00     0.012 A 
ATOM     14  C   UNL     1      44.355 126.683  22.470  1.00  0.00     0.132 A 
ATOM     15  C   UNL     1      43.646 128.485  24.490  1.00  0.00     0.068 A 
ATOM     16  C   UNL     1      44.685 128.036  22.348  1.00  0.00     0.107 A 
ATOM     17  C   UNL     1      43.326 124.767  23.744  1.00  0.00     0.047 C 
ATOM     18  F   UNL     1      44.720 125.818  21.489  1.00  0.00    -0.206 F 
ENDBRANCH   8  11
ENDBRANCH   1   8
BRANCH   3  19
ATOM     19  C   UNL     1      44.955 130.913  18.309  1.00  0.00     0.047 A 
ATOM     20  C   UNL     1      46.290 130.429  18.277  1.00  0.00     0.315 A 
ATOM     21  C   UNL     1      44.279 131.121  17.088  1.00  0.00     0.035 A 
ATOM     22  N   UNL     1      46.912 130.172  17.088  1.00  0.00    -0.212 N 
ATOM     23  C   UNL     1      44.959 130.843  15.909  1.00  0.00     0.109 A 
ATOM     24  C   UNL     1      46.249 130.378  15.921  1.00  0.00     0.211 A 
ATOM     25  C   UNL     1      44.559 130.940  14.529  1.00  0.00     0.258 C 
ATOM     26  C   UNL     1      46.767 130.147  14.531  1.00  0.00     0.225 C 
ATOM     27  N   UNL     1      45.630 130.528  13.688  1.00  0.00    -0.342 N 
ATOM     28  H   UNL     1      47.895 129.821  17.078  1.00  0.00     0.453 HD
ATOM     29  O   UNL     1      43.439 131.329  14.108  1.00  0.00    -0.269 OA
ATOM     30  H   UNL     1      45.609 130.502  12.644  1.00  0.00     0.164 HD
ENDBRANCH   3  19
BRANCH   5  31
ATOM     31  N   UNL     1      41.369 133.152  20.897  1.00  0.00    -0.399 N 
ATOM     32  H   UNL     1      40.774 133.221  21.753  1.00  0.00     0.156 HD
ATOM     33  H   UNL     1      41.100 133.725  20.067  1.00  0.00     0.156 HD
ENDBRANCH   5  31
TORSDOF 4
ENDMDL
MODEL 7
REMARK VINA RESULT:      -7.4      1.923      2.369
REMARK SMILES Cc1ccc([NH2+]c2cc(-c3c[nH+]c4c(c3)C(=O)NC4)cc(N)c2[O-])cc1F
REMARK SMILES IDX 7 1 8 2 9 3 20 4 21 5 23 6 24 7 6 8 5 11 2 12 3 13 26 14
REMARK SMILES IDX 4 15 25 16 1 17 27 18 10 19 11 20 15 21 12 22 14 23 13 24
REMARK SMILES IDX 16 25 19 26 18 27 17 29 22 31
REMARK H PARENT 6 9 6 10 12 28 18 30 22 32 22 33
ROOT
ATOM      1  C   UNL     1      44.543 131.165  20.790  1.00  0.00     0.129 A 
ATOM      2  C   UNL     1      45.210 131.110  19.554  1.00  0.00     0.076 A 
ATOM      3  C   UNL     1      44.588 131.551  18.375  1.00  0.00    -0.004 A 
ATOM      4  C   UNL     1      43.279 132.053  18.442  1.00  0.00     0.034 A 
ATOM      5  C   UNL     1      42.598 132.118  19.664  1.00  0.00     0.030 A 
ATOM      6  C   UNL     1      43.230 131.677  20.840  1.00  0.00    -0.021 A 
ATOM      7  O   UNL     1      42.554 131.746  22.054  1.00  0.00    -0.867 OA
ENDROOT
BRANCH   1   8
ATOM      8  N   UNL     1      45.222 130.740  21.992  1.00  0.00    -0.282 N 
ATOM      9  H   UNL     1      46.260 130.755  21.855  1.00  0.00     0.358 HD
ATOM     10  H   UNL     1      45.020 131.408  22.772  1.00  0.00     0.358 HD
BRANCH   8  11
ATOM     11  C   UNL     1      44.783 129.416  22.357  1.00  0.00     0.137 A 
ATOM     12  C   UNL     1      43.960 126.828  23.118  1.00  0.00    -0.015 A 
ATOM     13  C   UNL     1      43.286 127.959  23.605  1.00  0.00     0.012 A 
ATOM     14  C   UNL     1      45.062 126.999  22.264  1.00  0.00     0.132 A 
ATOM     15  C   UNL     1      43.691 129.241  23.226  1.00  0.00     0.068 A 
ATOM     16  C   UNL     1      45.467 128.283  21.885  1.00  0.00     0.107 A 
ATOM     17  C   UNL     1      43.543 125.452  23.549  1.00  0.00     0.047 C 
ATOM     18  F   UNL     1      45.747 125.922  21.802  1.00  0.00    -0.206 F 
ENDBRANCH   8  11
ENDBRANCH   1   8
BRANCH   3  19
ATOM     19  C   UNL     1      45.310 131.497  17.079  1.00  0.00     0.047 A 
ATOM     20  C   UNL     1      45.528 132.677  16.320  1.00  0.00     0.315 A 
ATOM     21  C   UNL     1      45.795 130.269  16.579  1.00  0.00     0.035 A 
ATOM     22  N   UNL     1      46.193 132.629  15.127  1.00  0.00    -0.212 N 
ATOM     23  C   UNL     1      46.464 130.279  15.361  1.00  0.00     0.109 A 
ATOM     24  C   UNL     1      46.654 131.441  14.659  1.00  0.00     0.211 A 
ATOM     25  C   UNL     1      47.074 129.220  14.598  1.00  0.00     0.258 C 
ATOM     26  C   UNL     1      47.405 131.199  13.382  1.00  0.00     0.225 C 
ATOM     27  N   UNL     1      47.642 129.753  13.407  1.00  0.00    -0.342 N 
ATOM     28  H   UNL     1      46.344 133.504  14.578  1.00  0.00     0.453 HD
ATOM     29  O   UNL     1      47.109 128.003  14.916  1.00  0.00    -0.269 OA
ATOM     30  H   UNL     1      48.144 129.204  12.674  1.00  0.00     0.164 HD
ENDBRANCH   3  19
BRANCH   5  31
ATOM     31  N   UNL     1      41.265 132.641  19.705  1.00  0.00    -0.399 N 
ATOM     32  H   UNL     1      40.511 132.137  20.223  1.00  0.00     0.156 HD
ATOM     33  H   UNL     1      41.015 133.533  19.224  1.00  0.00     0.156 HD
ENDBRANCH   5  31
TORSDOF 4
ENDMDL
MODEL 8
REMARK VINA RESULT:      -7.3      1.737      2.120
REMARK SMILES Cc1ccc([NH2+]c2cc(-c3c[nH+]c4c(c3)C(=O)NC4)cc(N)c2[O-])cc1F
REMARK SMILES IDX 7 1 8 2 9 3 20 4 21 5 23 6 24 7 6 8 5 11 2 12 3 13 26 14
REMARK SMILES IDX 4 15 25 16 1 17 27 18 10 19 11 20 15 21 12 22 14 23 13 24
REMARK SMILES IDX 16 25 19 26 18 27 17 29 22 31
REMARK H PARENT 6 9 6 10 12 28 18 30 22 32 22 33
ROOT
ATOM      1  C   UNL     1      44.575 131.175  20.586  1.00  0.00     0.129 A 
ATOM      2  C   UNL     1      45.277 131.143  19.368  1.00  0.00     0.076 A 
ATOM      3  C   UNL     1      44.647 131.480  18.160  1.00  0.00    -0.004 A 
ATOM      4  C   UNL     1      43.294 131.852  18.178  1.00  0.00     0.034 A 
ATOM      5  C   UNL     1      42.577 131.892  19.380  1.00  0.00     0.030 A 
ATOM      6  C   UNL     1      43.218 131.556  20.586  1.00  0.00    -0.021 A 
ATOM      7  O   UNL     1      42.505 131.600  21.780  1.00  0.00    -0.867 OA
ENDROOT
BRANCH   1   8
ATOM      8  N   UNL     1      45.260 130.861  21.818  1.00  0.00    -0.282 N 
ATOM      9  H   UNL     1      46.296 130.947  21.697  1.00  0.00     0.358 HD
ATOM     10  H   UNL     1      44.994 131.549  22.561  1.00  0.00     0.358 HD
BRANCH   8  11
ATOM     11  C   UNL     1      44.913 129.527  22.242  1.00  0.00     0.137 A 
ATOM     12  C   UNL     1      44.189 126.917  23.031  1.00  0.00    -0.015 A 
ATOM     13  C   UNL     1      45.160 127.115  22.036  1.00  0.00     0.012 A 
ATOM     14  C   UNL     1      43.567 128.033  23.616  1.00  0.00     0.132 A 
ATOM     15  C   UNL     1      45.521 128.407  21.647  1.00  0.00     0.068 A 
ATOM     16  C   UNL     1      43.929 129.326  23.226  1.00  0.00     0.107 A 
ATOM     17  C   UNL     1      43.781 125.529  23.427  1.00  0.00     0.047 C 
ATOM     18  F   UNL     1      42.607 127.867  24.560  1.00  0.00    -0.206 F 
ENDBRANCH   8  11
ENDBRANCH   1   8
BRANCH   3  19
ATOM     19  C   UNL     1      45.406 131.452  16.884  1.00  0.00     0.047 A 
ATOM     20  C   UNL     1      45.612 132.642  16.137  1.00  0.00     0.315 A 
ATOM     21  C   UNL     1      45.939 130.241  16.392  1.00  0.00     0.035 A 
ATOM     22  N   UNL     1      46.311 132.618  14.963  1.00  0.00    -0.212 N 
ATOM     23  C   UNL     1      46.641 130.275  15.193  1.00  0.00     0.109 A 
ATOM     24  C   UNL     1      46.817 131.446  14.502  1.00  0.00     0.211 A 
ATOM     25  C   UNL     1      47.300 129.238  14.442  1.00  0.00     0.258 C 
ATOM     26  C   UNL     1      47.609 131.232  13.245  1.00  0.00     0.225 C 
ATOM     27  N   UNL     1      47.886 129.793  13.271  1.00  0.00    -0.342 N 
ATOM     28  H   UNL     1      46.452 133.500  14.421  1.00  0.00     0.453 HD
ATOM     29  O   UNL     1      47.361 128.021  14.756  1.00  0.00    -0.269 OA
ATOM     30  H   UNL     1      48.423 129.262  12.549  1.00  0.00     0.164 HD
ENDBRANCH   3  19
BRANCH   5  31
ATOM     31  N   UNL     1      41.199 132.282  19.370  1.00  0.00    -0.399 N 
ATOM     32  H   UNL     1      40.471 131.656  18.958  1.00  0.00     0.156 HD
ATOM     33  H   UNL     1      40.889 133.194  19.773  1.00  0.00     0.156 HD
ENDBRANCH   5  31
TORSDOF 4
ENDMDL
MODEL 9
REMARK VINA RESULT:      -6.8      1.460      1.914
REMARK SMILES Cc1ccc([NH2+]c2cc(-c3c[nH+]c4c(c3)C(=O)NC4)cc(N)c2[O-])cc1F
REMARK SMILES IDX 7 1 8 2 9 3 20 4 21 5 23 6 24 7 6 8 5 11 2 12 3 13 26 14
REMARK SMILES IDX 4 15 25 16 1 17 27 18 10 19 11 20 15 21 12 22 14 23 13 24
REMARK SMILES IDX 16 25 19 26 18 27 17 29 22 31
REMARK H PARENT 6 9 6 10 12 28 18 30 22 32 22 33
ROOT
ATOM      1  C   UNL     1      44.107 131.766  20.406  1.00  0.00     0.129 A 
ATOM      2  C   UNL     1      44.988 131.265  19.431  1.00  0.00     0.076 A 
ATOM      3  C   UNL     1      44.649 131.286  18.069  1.00  0.00    -0.004 A 
ATOM      4  C   UNL     1      43.408 131.817  17.684  1.00  0.00     0.034 A 
ATOM      5  C   UNL     1      42.517 132.322  18.639  1.00  0.00     0.030 A 
ATOM      6  C   UNL     1      42.867 132.300  20.001  1.00  0.00    -0.021 A 
ATOM      7  O   UNL     1      41.982 132.806  20.948  1.00  0.00    -0.867 OA
ENDROOT
BRANCH   1   8
ATOM      8  N   UNL     1      44.500 131.766  21.795  1.00  0.00    -0.282 N 
ATOM      9  H   UNL     1      45.531 131.923  21.888  1.00  0.00     0.358 HD
ATOM     10  H   UNL     1      44.037 132.559  22.298  1.00  0.00     0.358 HD
BRANCH   8  11
ATOM     11  C   UNL     1      44.124 130.516  22.408  1.00  0.00     0.137 A 
ATOM     12  C   UNL     1      43.359 128.056  23.556  1.00  0.00    -0.015 A 
ATOM     13  C   UNL     1      44.562 128.162  22.842  1.00  0.00     0.012 A 
ATOM     14  C   UNL     1      42.530 129.183  23.677  1.00  0.00     0.132 A 
ATOM     15  C   UNL     1      44.943 129.381  22.274  1.00  0.00     0.068 A 
ATOM     16  C   UNL     1      42.912 130.403  23.110  1.00  0.00     0.107 A 
ATOM     17  C   UNL     1      42.936 126.739  24.140  1.00  0.00     0.047 C 
ATOM     18  F   UNL     1      41.349 129.099  24.341  1.00  0.00    -0.206 F 
ENDBRANCH   8  11
ENDBRANCH   1   8
BRANCH   3  19
ATOM     19  C   UNL     1      45.595 130.764  17.051  1.00  0.00     0.047 A 
ATOM     20  C   UNL     1      46.606 129.834  17.411  1.00  0.00     0.315 A 
ATOM     21  C   UNL     1      45.503 131.180  15.705  1.00  0.00     0.035 A 
ATOM     22  N   UNL     1      47.478 129.351  16.475  1.00  0.00    -0.212 N 
ATOM     23  C   UNL     1      46.415 130.657  14.796  1.00  0.00     0.109 A 
ATOM     24  C   UNL     1      47.377 129.761  15.184  1.00  0.00     0.211 A 
ATOM     25  C   UNL     1      46.581 130.868  13.381  1.00  0.00     0.258 C 
ATOM     26  C   UNL     1      48.236 129.337  14.028  1.00  0.00     0.225 C 
ATOM     27  N   UNL     1      47.669 130.086  12.904  1.00  0.00    -0.342 N 
ATOM     28  H   UNL     1      48.219 128.671  16.753  1.00  0.00     0.453 HD
ATOM     29  O   UNL     1      45.883 131.625  12.658  1.00  0.00    -0.269 OA
ATOM     30  H   UNL     1      48.007 130.051  11.916  1.00  0.00     0.164 HD
ENDBRANCH   3  19
BRANCH   5  31
ATOM     31  N   UNL     1      41.260 132.865  18.218  1.00  0.00    -0.399 N 
ATOM     32  H   UNL     1      40.503 132.239  17.862  1.00  0.00     0.156 HD
ATOM     33  H   UNL     1      41.069 133.890  18.257  1.00  0.00     0.156 HD
ENDBRANCH   5  31
TORSDOF 4
ENDMDL


