REMARK SMILES Cc1ccc([NH2+]c2cc(-c3c[nH+]c4c(c3)C(=O)NC4)cc(N)c2[O-])cc1F
REMARK SMILES IDX 7 1 8 2 9 3 20 4 21 5 23 6 24 7 6 8 5 11 2 12 3 13 26 14
REMARK SMILES IDX 4 15 25 16 1 17 27 18 10 19 11 20 15 21 12 22 14 23 13 24
REMARK SMILES IDX 16 25 19 26 18 27 17 29 22 31
REMARK H PARENT 6 9 6 10 12 28 18 30 22 32 22 33
ROOT
ATOM      1  C   UNL     1      -1.372  -1.237  -1.329  1.00  0.00     0.129 A 
ATOM      2  C   UNL     1      -0.302  -0.347  -1.130  1.00  0.00     0.076 A 
ATOM      3  C   UNL     1      -0.530   1.010  -0.853  1.00  0.00    -0.004 A 
ATOM      4  C   UNL     1      -1.853   1.476  -0.773  1.00  0.00     0.034 A 
ATOM      5  C   UNL     1      -2.933   0.605  -0.966  1.00  0.00     0.030 A 
ATOM      6  C   UNL     1      -2.694  -0.752  -1.242  1.00  0.00    -0.021 A 
ATOM      7  O   UNL     1      -3.768  -1.616  -1.434  1.00  0.00    -0.867 OA
ENDROOT
BRANCH   1   8
ATOM      8  N   UNL     1      -1.108  -2.636  -1.573  1.00  0.00    -0.282 N 
ATOM      9  H   UNL     1      -1.862  -3.057  -2.163  1.00  0.00     0.358 HD
ATOM     10  H   UNL     1      -0.218  -2.742  -2.115  1.00  0.00     0.358 HD
BRANCH   8  11
ATOM     11  C   UNL     1      -1.001  -3.339  -0.318  1.00  0.00     0.137 A 
ATOM     12  C   UNL     1      -0.802  -4.666   2.163  1.00  0.00    -0.015 A 
ATOM     13  C   UNL     1      -2.031  -4.602   1.489  1.00  0.00     0.012 A 
ATOM     14  C   UNL     1       0.325  -4.046   1.599  1.00  0.00     0.132 A 
ATOM     15  C   UNL     1      -2.130  -3.947   0.259  1.00  0.00     0.068 A 
ATOM     16  C   UNL     1       0.226  -3.391   0.367  1.00  0.00     0.107 A 
ATOM     17  C   UNL     1      -0.702  -5.345   3.498  1.00  0.00     0.047 C 
ATOM     18  F   UNL     1       1.520  -4.073   2.242  1.00  0.00    -0.206 F 
ENDBRANCH   8  11
ENDBRANCH   1   8
BRANCH   3  19
ATOM     19  C   UNL     1       0.610   1.938  -0.641  1.00  0.00     0.047 A 
ATOM     20  C   UNL     1       1.773   1.852  -1.450  1.00  0.00     0.315 A 
ATOM     21  C   UNL     1       0.557   2.921   0.371  1.00  0.00     0.035 A 
ATOM     22  N   UNL     1       2.825   2.704  -1.256  1.00  0.00    -0.212 N 
ATOM     23  C   UNL     1       1.654   3.759   0.524  1.00  0.00     0.109 A 
ATOM     24  C   UNL     1       2.760   3.643  -0.279  1.00  0.00     0.211 A 
ATOM     25  C   UNL     1       1.913   4.835   1.446  1.00  0.00     0.258 C 
ATOM     26  C   UNL     1       3.811   4.652   0.081  1.00  0.00     0.225 C 
ATOM     27  N   UNL     1       3.201   5.383   1.195  1.00  0.00    -0.342 N 
ATOM     28  H   UNL     1       3.674   2.632  -1.859  1.00  0.00     0.453 HD
ATOM     29  O   UNL     1       1.132   5.245   2.344  1.00  0.00    -0.269 OA
ATOM     30  H   UNL     1       3.639   6.174   1.718  1.00  0.00     0.164 HD
ENDBRANCH   3  19
BRANCH   5  31
ATOM     31  N   UNL     1      -4.271   1.108  -0.881  1.00  0.00    -0.399 N 
ATOM     32  H   UNL     1      -5.097   0.485  -1.021  1.00  0.00     0.156 HD
ATOM     33  H   UNL     1      -4.449   2.117  -0.675  1.00  0.00     0.156 HD
ENDBRANCH   5  31
TORSDOF 4


