MODEL 1
REMARK VINA RESULT:      -8.5      0.000      0.000
REMARK SMILES CN/C=C(/O)N1CCC[C@H](Cc2cc3ccccc3[nH]2)C1
REMARK SMILES IDX 6 1 7 2 8 3 9 4 10 5 21 6 4 7 5 8 3 10 2 11 1 13 11 14 12 15
REMARK SMILES IDX 13 16 20 17 14 18 19 19 15 20 18 21 16 22 17 23
REMARK H PARENT 5 9 2 12 20 24
ROOT
ATOM      1  N   UNL     1      43.733 131.769  20.762  1.00  0.00    -0.342 N 
ATOM      2  C   UNL     1      45.127 131.548  21.155  1.00  0.00     0.119 C 
ATOM      3  C   UNL     1      45.810 130.601  20.166  1.00  0.00     0.022 C 
ATOM      4  C   UNL     1      45.635 131.094  18.726  1.00  0.00     0.007 C 
ATOM      5  C   UNL     1      44.140 131.258  18.378  1.00  0.00     0.014 C 
ATOM      6  C   UNL     1      43.468 132.210  19.386  1.00  0.00     0.123 C 
ENDROOT
BRANCH   1   7
ATOM      7  C   UNL     1      42.775 132.076  21.786  1.00  0.00     0.203 C 
BRANCH   7   8
ATOM      8  O   UNL     1      41.532 132.591  21.411  1.00  0.00    -0.494 OA
ATOM      9  H   UNL     1      41.205 133.496  21.732  1.00  0.00     0.295 HD
ENDBRANCH   7   8
BRANCH   7  10
ATOM     10  C   UNL     1      43.053 131.885  23.085  1.00  0.00     0.144 C 
BRANCH  10  11
ATOM     11  N   UNL     1      43.141 130.577  23.665  1.00  0.00    -0.390 N 
ATOM     12  H   UNL     1      43.605 130.427  24.588  1.00  0.00     0.159 HD
ATOM     13  C   UNL     1      42.531 129.435  23.000  1.00  0.00     0.139 C 
ENDBRANCH  10  11
ENDBRANCH   7  10
ENDBRANCH   1   7
BRANCH   5  14
ATOM     14  C   UNL     1      43.946 131.786  16.942  1.00  0.00     0.059 C 
BRANCH  14  15
ATOM     15  C   UNL     1      45.048 131.330  16.031  1.00  0.00     0.016 A 
ATOM     16  C   UNL     1      45.529 130.026  15.942  1.00  0.00     0.031 A 
ATOM     17  N   UNL     1      45.666 132.140  15.137  1.00  0.00    -0.358 N 
ATOM     18  C   UNL     1      46.484 130.068  14.951  1.00  0.00    -0.000 A 
ATOM     19  C   UNL     1      46.541 131.357  14.487  1.00  0.00     0.046 A 
ATOM     20  C   UNL     1      47.291 129.061  14.426  1.00  0.00     0.010 A 
ATOM     21  C   UNL     1      47.412 131.729  13.463  1.00  0.00     0.026 A 
ATOM     22  C   UNL     1      48.182 129.407  13.393  1.00  0.00     0.001 A 
ATOM     23  C   UNL     1      48.242 130.735  12.914  1.00  0.00     0.002 A 
ATOM     24  H   UNL     1      45.488 133.158  14.980  1.00  0.00     0.166 HD
ENDBRANCH  14  15
ENDBRANCH   5  14
TORSDOF 6
ENDMDL
MODEL 2
REMARK VINA RESULT:      -7.5      1.296      1.454
REMARK SMILES CN/C=C(/O)N1CCC[C@H](Cc2cc3ccccc3[nH]2)C1
REMARK SMILES IDX 6 1 7 2 8 3 9 4 10 5 21 6 4 7 5 8 3 10 2 11 1 13 11 14 12 15
REMARK SMILES IDX 13 16 20 17 14 18 19 19 15 20 18 21 16 22 17 23
REMARK H PARENT 5 9 2 12 20 24
ROOT
ATOM      1  N   UNL     1      43.999 131.250  21.834  1.00  0.00    -0.342 N 
ATOM      2  C   UNL     1      45.099 132.139  22.218  1.00  0.00     0.119 C 
ATOM      3  C   UNL     1      46.218 132.075  21.177  1.00  0.00     0.022 C 
ATOM      4  C   UNL     1      45.670 132.327  19.768  1.00  0.00     0.007 C 
ATOM      5  C   UNL     1      44.549 131.324  19.425  1.00  0.00     0.014 C 
ATOM      6  C   UNL     1      43.434 131.398  20.486  1.00  0.00     0.123 C 
ENDROOT
BRANCH   1   7
ATOM      7  C   UNL     1      43.182 130.686  22.871  1.00  0.00     0.203 C 
BRANCH   7   8
ATOM      8  O   UNL     1      41.978 131.315  23.194  1.00  0.00    -0.494 OA
ATOM      9  H   UNL     1      41.882 132.324  23.198  1.00  0.00     0.295 HD
ENDBRANCH   7   8
BRANCH   7  10
ATOM     10  C   UNL     1      43.556 129.581  23.532  1.00  0.00     0.144 C 
BRANCH  10  11
ATOM     11  N   UNL     1      42.769 128.382  23.529  1.00  0.00    -0.390 N 
ATOM     12  H   UNL     1      41.732 128.419  23.421  1.00  0.00     0.159 HD
ATOM     13  C   UNL     1      43.413 127.079  23.620  1.00  0.00     0.139 C 
ENDBRANCH  10  11
ENDBRANCH   7  10
ENDBRANCH   1   7
BRANCH   5  14
ATOM     14  C   UNL     1      43.963 131.585  18.023  1.00  0.00     0.059 C 
BRANCH  14  15
ATOM     15  C   UNL     1      44.941 131.235  16.940  1.00  0.00     0.016 A 
ATOM     16  C   UNL     1      45.493 129.973  16.733  1.00  0.00     0.031 A 
ATOM     17  N   UNL     1      45.355 132.110  15.992  1.00  0.00    -0.358 N 
ATOM     18  C   UNL     1      46.280 130.111  15.611  1.00  0.00    -0.000 A 
ATOM     19  C   UNL     1      46.173 131.411  15.189  1.00  0.00     0.046 A 
ATOM     20  C   UNL     1      47.066 129.181  14.934  1.00  0.00     0.010 A 
ATOM     21  C   UNL     1      46.848 131.872  14.059  1.00  0.00     0.026 A 
ATOM     22  C   UNL     1      47.760 129.617  13.792  1.00  0.00     0.001 A 
ATOM     23  C   UNL     1      47.652 130.957  13.356  1.00  0.00     0.002 A 
ATOM     24  H   UNL     1      45.084 133.115  15.900  1.00  0.00     0.166 HD
ENDBRANCH  14  15
ENDBRANCH   5  14
TORSDOF 6
ENDMDL
MODEL 3
REMARK VINA RESULT:      -7.5      1.555      2.200
REMARK SMILES CN/C=C(/O)N1CCC[C@H](Cc2cc3ccccc3[nH]2)C1
REMARK SMILES IDX 6 1 7 2 8 3 9 4 10 5 21 6 4 7 5 8 3 10 2 11 1 13 11 14 12 15
REMARK SMILES IDX 13 16 20 17 14 18 19 19 15 20 18 21 16 22 17 23
REMARK H PARENT 5 9 2 12 20 24
ROOT
ATOM      1  N   UNL     1      44.186 131.339  20.076  1.00  0.00    -0.342 N 
ATOM      2  C   UNL     1      42.970 131.677  20.819  1.00  0.00     0.119 C 
ATOM      3  C   UNL     1      42.199 132.784  20.095  1.00  0.00     0.022 C 
ATOM      4  C   UNL     1      41.955 132.411  18.629  1.00  0.00     0.007 C 
ATOM      5  C   UNL     1      43.286 132.113  17.907  1.00  0.00     0.014 C 
ATOM      6  C   UNL     1      44.050 131.002  18.652  1.00  0.00     0.123 C 
ENDROOT
BRANCH   1   7
ATOM      7  C   UNL     1      45.314 130.831  20.805  1.00  0.00     0.203 C 
BRANCH   7   8
ATOM      8  O   UNL     1      46.487 131.588  20.839  1.00  0.00    -0.494 OA
ATOM      9  H   UNL     1      47.344 131.233  21.249  1.00  0.00     0.295 HD
ENDBRANCH   7   8
BRANCH   7  10
ATOM     10  C   UNL     1      45.261 129.652  21.442  1.00  0.00     0.144 C 
BRANCH  10  11
ATOM     11  N   UNL     1      44.909 129.544  22.828  1.00  0.00    -0.390 N 
ATOM     12  H   UNL     1      45.331 130.177  23.542  1.00  0.00     0.159 HD
ATOM     13  C   UNL     1      43.908 128.580  23.260  1.00  0.00     0.139 C 
ENDBRANCH  10  11
ENDBRANCH   7  10
ENDBRANCH   1   7
BRANCH   5  14
ATOM     14  C   UNL     1      43.056 131.703  16.438  1.00  0.00     0.059 C 
BRANCH  14  15
ATOM     15  C   UNL     1      44.330 131.257  15.782  1.00  0.00     0.016 A 
ATOM     16  C   UNL     1      44.869 129.975  15.863  1.00  0.00     0.031 A 
ATOM     17  N   UNL     1      45.076 132.051  14.977  1.00  0.00    -0.358 N 
ATOM     18  C   UNL     1      45.995 130.015  15.071  1.00  0.00    -0.000 A 
ATOM     19  C   UNL     1      46.090 131.280  14.552  1.00  0.00     0.046 A 
ATOM     20  C   UNL     1      46.927 129.024  14.769  1.00  0.00     0.010 A 
ATOM     21  C   UNL     1      47.127 131.643  13.693  1.00  0.00     0.026 A 
ATOM     22  C   UNL     1      47.986 129.361  13.907  1.00  0.00     0.001 A 
ATOM     23  C   UNL     1      48.085 130.665  13.371  1.00  0.00     0.002 A 
ATOM     24  H   UNL     1      44.893 133.049  14.729  1.00  0.00     0.166 HD
ENDBRANCH  14  15
ENDBRANCH   5  14
TORSDOF 6
ENDMDL
MODEL 4
REMARK VINA RESULT:      -7.3      1.844      2.874
REMARK SMILES CN/C=C(/O)N1CCC[C@H](Cc2cc3ccccc3[nH]2)C1
REMARK SMILES IDX 6 1 7 2 8 3 9 4 10 5 21 6 4 7 5 8 3 10 2 11 1 13 11 14 12 15
REMARK SMILES IDX 13 16 20 17 14 18 19 19 15 20 18 21 16 22 17 23
REMARK H PARENT 5 9 2 12 20 24
ROOT
ATOM      1  N   UNL     1      44.582 131.447  19.923  1.00  0.00    -0.342 N 
ATOM      2  C   UNL     1      43.372 131.564  20.743  1.00  0.00     0.119 C 
ATOM      3  C   UNL     1      42.388 132.539  20.094  1.00  0.00     0.022 C 
ATOM      4  C   UNL     1      42.121 132.157  18.634  1.00  0.00     0.007 C 
ATOM      5  C   UNL     1      43.438 132.099  17.831  1.00  0.00     0.014 C 
ATOM      6  C   UNL     1      44.419 131.118  18.501  1.00  0.00     0.123 C 
ENDROOT
BRANCH   1   7
ATOM      7  C   UNL     1      45.819 131.122  20.574  1.00  0.00     0.203 C 
BRANCH   7   8
ATOM      8  O   UNL     1      45.990 129.836  21.089  1.00  0.00    -0.494 OA
ATOM      9  H   UNL     1      45.968 129.012  20.497  1.00  0.00     0.295 HD
ENDBRANCH   7   8
BRANCH   7  10
ATOM     10  C   UNL     1      46.801 132.027  20.701  1.00  0.00     0.144 C 
BRANCH  10  11
ATOM     11  N   UNL     1      46.771 133.057  21.698  1.00  0.00    -0.390 N 
ATOM     12  H   UNL     1      45.937 133.190  22.311  1.00  0.00     0.159 HD
ATOM     13  C   UNL     1      47.933 133.907  21.913  1.00  0.00     0.139 C 
ENDBRANCH  10  11
ENDBRANCH   7  10
ENDBRANCH   1   7
BRANCH   5  14
ATOM     14  C   UNL     1      43.192 131.683  16.366  1.00  0.00     0.059 C 
BRANCH  14  15
ATOM     15  C   UNL     1      44.456 131.223  15.701  1.00  0.00     0.016 A 
ATOM     16  C   UNL     1      44.998 129.944  15.805  1.00  0.00     0.031 A 
ATOM     17  N   UNL     1      45.189 131.999  14.866  1.00  0.00    -0.358 N 
ATOM     18  C   UNL     1      46.112 129.967  14.995  1.00  0.00    -0.000 A 
ATOM     19  C   UNL     1      46.198 131.219  14.445  1.00  0.00     0.046 A 
ATOM     20  C   UNL     1      47.041 128.970  14.702  1.00  0.00     0.010 A 
ATOM     21  C   UNL     1      47.221 131.563  13.562  1.00  0.00     0.026 A 
ATOM     22  C   UNL     1      48.086 129.288  13.816  1.00  0.00     0.001 A 
ATOM     23  C   UNL     1      48.176 130.578  13.249  1.00  0.00     0.002 A 
ATOM     24  H   UNL     1      45.001 132.991  14.598  1.00  0.00     0.166 HD
ENDBRANCH  14  15
ENDBRANCH   5  14
TORSDOF 6
ENDMDL
MODEL 5
REMARK VINA RESULT:      -7.2      2.409      8.185
REMARK SMILES CN/C=C(/O)N1CCC[C@H](Cc2cc3ccccc3[nH]2)C1
REMARK SMILES IDX 6 1 7 2 8 3 9 4 10 5 21 6 4 7 5 8 3 10 2 11 1 13 11 14 12 15
REMARK SMILES IDX 13 16 20 17 14 18 19 19 15 20 18 21 16 22 17 23
REMARK H PARENT 5 9 2 12 20 24
ROOT
ATOM      1  N   UNL     1      45.145 130.374  16.163  1.00  0.00    -0.342 N 
ATOM      2  C   UNL     1      44.220 131.457  15.814  1.00  0.00     0.119 C 
ATOM      3  C   UNL     1      43.262 131.727  16.976  1.00  0.00     0.022 C 
ATOM      4  C   UNL     1      44.034 131.957  18.280  1.00  0.00     0.007 C 
ATOM      5  C   UNL     1      44.949 130.756  18.598  1.00  0.00     0.014 C 
ATOM      6  C   UNL     1      45.902 130.494  17.417  1.00  0.00     0.123 C 
ENDROOT
BRANCH   1   7
ATOM      7  C   UNL     1      45.676 129.562  15.106  1.00  0.00     0.203 C 
BRANCH   7   8
ATOM      8  O   UNL     1      45.706 128.177  15.273  1.00  0.00    -0.494 OA
ATOM      9  H   UNL     1      46.210 127.737  16.034  1.00  0.00     0.295 HD
ENDBRANCH   7   8
BRANCH   7  10
ATOM     10  C   UNL     1      46.146 130.108  13.974  1.00  0.00     0.144 C 
BRANCH  10  11
ATOM     11  N   UNL     1      47.241 131.034  13.966  1.00  0.00    -0.390 N 
ATOM     12  H   UNL     1      47.543 131.520  14.839  1.00  0.00     0.159 HD
ATOM     13  C   UNL     1      47.995 131.272  12.744  1.00  0.00     0.139 C 
ENDBRANCH  10  11
ENDBRANCH   7  10
ENDBRANCH   1   7
BRANCH   5  14
ATOM     14  C   UNL     1      45.758 130.984  19.890  1.00  0.00     0.059 C 
BRANCH  14  15
ATOM     15  C   UNL     1      45.010 130.516  21.103  1.00  0.00     0.016 A 
ATOM     16  C   UNL     1      43.918 131.168  21.674  1.00  0.00     0.031 A 
ATOM     17  N   UNL     1      45.281 129.359  21.752  1.00  0.00    -0.358 N 
ATOM     18  C   UNL     1      43.529 130.357  22.717  1.00  0.00    -0.000 A 
ATOM     19  C   UNL     1      44.371 129.275  22.736  1.00  0.00     0.046 A 
ATOM     20  C   UNL     1      42.491 130.496  23.636  1.00  0.00     0.010 A 
ATOM     21  C   UNL     1      44.234 128.256  23.678  1.00  0.00     0.026 A 
ATOM     22  C   UNL     1      42.328 129.484  24.599  1.00  0.00     0.001 A 
ATOM     23  C   UNL     1      43.196 128.369  24.620  1.00  0.00     0.002 A 
ATOM     24  H   UNL     1      46.034 128.670  21.526  1.00  0.00     0.166 HD
ENDBRANCH  14  15
ENDBRANCH   5  14
TORSDOF 6
ENDMDL
MODEL 6
REMARK VINA RESULT:      -7.2      1.300      1.828
REMARK SMILES CN/C=C(/O)N1CCC[C@H](Cc2cc3ccccc3[nH]2)C1
REMARK SMILES IDX 6 1 7 2 8 3 9 4 10 5 21 6 4 7 5 8 3 10 2 11 1 13 11 14 12 15
REMARK SMILES IDX 13 16 20 17 14 18 19 19 15 20 18 21 16 22 17 23
REMARK H PARENT 5 9 2 12 20 24
ROOT
ATOM      1  N   UNL     1      44.005 131.188  21.712  1.00  0.00    -0.342 N 
ATOM      2  C   UNL     1      45.187 131.979  22.065  1.00  0.00     0.119 C 
ATOM      3  C   UNL     1      46.257 131.841  20.981  1.00  0.00     0.022 C 
ATOM      4  C   UNL     1      45.681 132.158  19.597  1.00  0.00     0.007 C 
ATOM      5  C   UNL     1      44.470 131.253  19.285  1.00  0.00     0.014 C 
ATOM      6  C   UNL     1      43.405 131.401  20.388  1.00  0.00     0.123 C 
ENDROOT
BRANCH   1   7
ATOM      7  C   UNL     1      43.184 130.676  22.773  1.00  0.00     0.203 C 
BRANCH   7   8
ATOM      8  O   UNL     1      41.975 131.314  23.055  1.00  0.00    -0.494 OA
ATOM      9  H   UNL     1      41.106 130.801  23.156  1.00  0.00     0.295 HD
ENDBRANCH   7   8
BRANCH   7  10
ATOM     10  C   UNL     1      43.559 129.608  23.494  1.00  0.00     0.144 C 
BRANCH  10  11
ATOM     11  N   UNL     1      42.790 128.398  23.529  1.00  0.00    -0.390 N 
ATOM     12  H   UNL     1      43.232 127.473  23.334  1.00  0.00     0.159 HD
ATOM     13  C   UNL     1      41.381 128.432  23.894  1.00  0.00     0.139 C 
ENDBRANCH  10  11
ENDBRANCH   7  10
ENDBRANCH   1   7
BRANCH   5  14
ATOM     14  C   UNL     1      43.855 131.582  17.909  1.00  0.00     0.059 C 
BRANCH  14  15
ATOM     15  C   UNL     1      44.790 131.235  16.788  1.00  0.00     0.016 A 
ATOM     16  C   UNL     1      45.309 132.141  15.866  1.00  0.00     0.031 A 
ATOM     17  N   UNL     1      45.285 129.991  16.582  1.00  0.00    -0.358 N 
ATOM     18  C   UNL     1      46.149 131.393  15.071  1.00  0.00    -0.000 A 
ATOM     19  C   UNL     1      46.111 130.102  15.529  1.00  0.00     0.046 A 
ATOM     20  C   UNL     1      46.944 131.766  13.989  1.00  0.00     0.010 A 
ATOM     21  C   UNL     1      46.868 129.091  14.937  1.00  0.00     0.026 A 
ATOM     22  C   UNL     1      47.717 130.767  13.369  1.00  0.00     0.001 A 
ATOM     23  C   UNL     1      47.679 129.436  13.841  1.00  0.00     0.002 A 
ATOM     24  H   UNL     1      45.076 129.129  17.135  1.00  0.00     0.166 HD
ENDBRANCH  14  15
ENDBRANCH   5  14
TORSDOF 6
ENDMDL
MODEL 7
REMARK VINA RESULT:      -7.0      1.790      2.653
REMARK SMILES CN/C=C(/O)N1CCC[C@H](Cc2cc3ccccc3[nH]2)C1
REMARK SMILES IDX 6 1 7 2 8 3 9 4 10 5 21 6 4 7 5 8 3 10 2 11 1 13 11 14 12 15
REMARK SMILES IDX 13 16 20 17 14 18 19 19 15 20 18 21 16 22 17 23
REMARK H PARENT 5 9 2 12 20 24
ROOT
ATOM      1  N   UNL     1      44.419 131.287  19.987  1.00  0.00    -0.342 N 
ATOM      2  C   UNL     1      43.242 131.605  20.801  1.00  0.00     0.119 C 
ATOM      3  C   UNL     1      42.397 132.677  20.109  1.00  0.00     0.022 C 
ATOM      4  C   UNL     1      42.072 132.273  18.667  1.00  0.00     0.007 C 
ATOM      5  C   UNL     1      43.363 131.999  17.868  1.00  0.00     0.014 C 
ATOM      6  C   UNL     1      44.204 130.922  18.580  1.00  0.00     0.123 C 
ENDROOT
BRANCH   1   7
ATOM      7  C   UNL     1      45.604 130.824  20.651  1.00  0.00     0.203 C 
BRANCH   7   8
ATOM      8  O   UNL     1      46.687 131.695  20.779  1.00  0.00    -0.494 OA
ATOM      9  H   UNL     1      46.786 132.519  20.196  1.00  0.00     0.295 HD
ENDBRANCH   7   8
BRANCH   7  10
ATOM     10  C   UNL     1      45.689 129.577  21.141  1.00  0.00     0.144 C 
BRANCH  10  11
ATOM     11  N   UNL     1      45.030 129.183  22.352  1.00  0.00    -0.390 N 
ATOM     12  H   UNL     1      44.633 129.892  23.006  1.00  0.00     0.159 HD
ATOM     13  C   UNL     1      44.852 127.772  22.666  1.00  0.00     0.139 C 
ENDBRANCH  10  11
ENDBRANCH   7  10
ENDBRANCH   1   7
BRANCH   5  14
ATOM     14  C   UNL     1      43.054 131.558  16.423  1.00  0.00     0.059 C 
BRANCH  14  15
ATOM     15  C   UNL     1      44.299 131.160  15.686  1.00  0.00     0.016 A 
ATOM     16  C   UNL     1      45.095 132.020  14.933  1.00  0.00     0.031 A 
ATOM     17  N   UNL     1      44.826 129.912  15.723  1.00  0.00    -0.358 N 
ATOM     18  C   UNL     1      46.142 131.239  14.496  1.00  0.00    -0.000 A 
ATOM     19  C   UNL     1      45.949 129.975  14.990  1.00  0.00     0.046 A 
ATOM     20  C   UNL     1      47.248 131.560  13.711  1.00  0.00     0.010 A 
ATOM     21  C   UNL     1      46.851 128.942  14.733  1.00  0.00     0.026 A 
ATOM     22  C   UNL     1      48.173 130.538  13.433  1.00  0.00     0.001 A 
ATOM     23  C   UNL     1      47.976 129.235  13.941  1.00  0.00     0.002 A 
ATOM     24  H   UNL     1      44.443 129.081  16.226  1.00  0.00     0.166 HD
ENDBRANCH  14  15
ENDBRANCH   5  14
TORSDOF 6
ENDMDL
MODEL 8
REMARK VINA RESULT:      -6.8      1.516      2.213
REMARK SMILES CN/C=C(/O)N1CCC[C@H](Cc2cc3ccccc3[nH]2)C1
REMARK SMILES IDX 6 1 7 2 8 3 9 4 10 5 21 6 4 7 5 8 3 10 2 11 1 13 11 14 12 15
REMARK SMILES IDX 13 16 20 17 14 18 19 19 15 20 18 21 16 22 17 23
REMARK H PARENT 5 9 2 12 20 24
ROOT
ATOM      1  N   UNL     1      43.427 131.083  22.313  1.00  0.00    -0.342 N 
ATOM      2  C   UNL     1      44.808 131.448  22.638  1.00  0.00     0.119 C 
ATOM      3  C   UNL     1      45.739 131.074  21.483  1.00  0.00     0.022 C 
ATOM      4  C   UNL     1      45.232 131.656  20.160  1.00  0.00     0.007 C 
ATOM      5  C   UNL     1      43.789 131.189  19.870  1.00  0.00     0.014 C 
ATOM      6  C   UNL     1      42.868 131.569  21.044  1.00  0.00     0.123 C 
ENDROOT
BRANCH   1   7
ATOM      7  C   UNL     1      42.532 130.765  23.390  1.00  0.00     0.203 C 
BRANCH   7   8
ATOM      8  O   UNL     1      41.660 131.752  23.851  1.00  0.00    -0.494 OA
ATOM      9  H   UNL     1      40.790 131.967  23.375  1.00  0.00     0.295 HD
ENDBRANCH   7   8
BRANCH   7  10
ATOM     10  C   UNL     1      42.526 129.550  23.958  1.00  0.00     0.144 C 
BRANCH  10  11
ATOM     11  N   UNL     1      41.526 128.568  23.657  1.00  0.00    -0.390 N 
ATOM     12  H   UNL     1      41.638 127.914  22.851  1.00  0.00     0.159 HD
ATOM     13  C   UNL     1      40.355 128.425  24.509  1.00  0.00     0.139 C 
ENDBRANCH  10  11
ENDBRANCH   7  10
ENDBRANCH   1   7
BRANCH   5  14
ATOM     14  C   UNL     1      43.250 131.793  18.557  1.00  0.00     0.059 C 
BRANCH  14  15
ATOM     15  C   UNL     1      44.099 131.409  17.381  1.00  0.00     0.016 A 
ATOM     16  C   UNL     1      43.850 131.771  16.059  1.00  0.00     0.031 A 
ATOM     17  N   UNL     1      45.252 130.707  17.486  1.00  0.00    -0.358 N 
ATOM     18  C   UNL     1      44.906 131.250  15.345  1.00  0.00    -0.000 A 
ATOM     19  C   UNL     1      45.733 130.615  16.235  1.00  0.00     0.046 A 
ATOM     20  C   UNL     1      45.194 131.303  13.983  1.00  0.00     0.010 A 
ATOM     21  C   UNL     1      46.908 129.987  15.824  1.00  0.00     0.026 A 
ATOM     22  C   UNL     1      46.372 130.676  13.538  1.00  0.00     0.001 A 
ATOM     23  C   UNL     1      47.225 130.021  14.454  1.00  0.00     0.002 A 
ATOM     24  H   UNL     1      45.683 130.327  18.359  1.00  0.00     0.166 HD
ENDBRANCH  14  15
ENDBRANCH   5  14
TORSDOF 6
ENDMDL
MODEL 9
REMARK VINA RESULT:      -6.6      3.192      8.015
REMARK SMILES CN/C=C(/O)N1CCC[C@H](Cc2cc3ccccc3[nH]2)C1
REMARK SMILES IDX 6 1 7 2 8 3 9 4 10 5 21 6 4 7 5 8 3 10 2 11 1 13 11 14 12 15
REMARK SMILES IDX 13 16 20 17 14 18 19 19 15 20 18 21 16 22 17 23
REMARK H PARENT 5 9 2 12 20 24
ROOT
ATOM      1  N   UNL     1      44.507 131.331  19.397  1.00  0.00    -0.342 N 
ATOM      2  C   UNL     1      43.656 132.510  19.582  1.00  0.00     0.119 C 
ATOM      3  C   UNL     1      42.538 132.201  20.579  1.00  0.00     0.022 C 
ATOM      4  C   UNL     1      43.108 131.629  21.881  1.00  0.00     0.007 C 
ATOM      5  C   UNL     1      43.953 130.368  21.605  1.00  0.00     0.014 C 
ATOM      6  C   UNL     1      45.070 130.694  20.595  1.00  0.00     0.123 C 
ENDROOT
BRANCH   1   7
ATOM      7  C   UNL     1      45.183 131.167  18.141  1.00  0.00     0.203 C 
BRANCH   7   8
ATOM      8  O   UNL     1      46.210 130.226  18.049  1.00  0.00    -0.494 OA
ATOM      9  H   UNL     1      46.655 129.999  17.166  1.00  0.00     0.295 HD
ENDBRANCH   7   8
BRANCH   7  10
ATOM     10  C   UNL     1      44.851 131.899  17.067  1.00  0.00     0.144 C 
BRANCH  10  11
ATOM     11  N   UNL     1      45.784 132.186  16.016  1.00  0.00    -0.390 N 
ATOM     12  H   UNL     1      46.553 132.879  16.152  1.00  0.00     0.159 HD
ATOM     13  C   UNL     1      45.709 131.471  14.751  1.00  0.00     0.139 C 
ENDBRANCH  10  11
ENDBRANCH   7  10
ENDBRANCH   1   7
BRANCH   5  14
ATOM     14  C   UNL     1      44.563 129.797  22.901  1.00  0.00     0.059 C 
BRANCH  14  15
ATOM     15  C   UNL     1      44.348 128.316  23.009  1.00  0.00     0.016 A 
ATOM     16  C   UNL     1      45.214 127.341  22.517  1.00  0.00     0.031 A 
ATOM     17  N   UNL     1      43.300 127.755  23.659  1.00  0.00    -0.358 N 
ATOM     18  C   UNL     1      44.644 126.143  22.890  1.00  0.00    -0.000 A 
ATOM     19  C   UNL     1      43.493 126.429  23.577  1.00  0.00     0.046 A 
ATOM     20  C   UNL     1      45.069 124.833  22.680  1.00  0.00     0.010 A 
ATOM     21  C   UNL     1      42.684 125.421  24.101  1.00  0.00     0.026 A 
ATOM     22  C   UNL     1      44.272 123.795  23.195  1.00  0.00     0.001 A 
ATOM     23  C   UNL     1      43.084 124.088  23.902  1.00  0.00     0.002 A 
ATOM     24  H   UNL     1      42.514 128.253  24.135  1.00  0.00     0.166 HD
ENDBRANCH  14  15
ENDBRANCH   5  14
TORSDOF 6
ENDMDL


