REMARK SMILES Cc1cc2cc3ccccc3cc2cc1[NH2+]N
REMARK SMILES IDX 16 1 15 4 2 5 3 6 4 7 14 8 5 9 13 10 6 11 12 12 7 13 11 14
REMARK SMILES IDX 8 15 10 16 9 17 1 18 17 19
REMARK H PARENT 16 2 16 3 17 20 17 21
ROOT
ATOM      1  N   UNL     1      -4.322  -0.021   0.988  1.00  0.00    -0.239 N 
ATOM      2  H   UNL     1      -4.353   0.813   1.622  1.00  0.00     0.376 HD
ATOM      3  H   UNL     1      -4.936   0.179   0.166  1.00  0.00     0.376 HD
ENDROOT
BRANCH   1   4
ATOM      4  C   UNL     1      -2.971  -0.299   0.559  1.00  0.00     0.152 A 
ATOM      5  C   UNL     1      -2.707  -1.046  -0.617  1.00  0.00     0.012 A 
ATOM      6  C   UNL     1      -1.377  -1.299  -0.994  1.00  0.00     0.018 A 
ATOM      7  C   UNL     1      -0.310  -0.849  -0.205  1.00  0.00    -0.017 A 
ATOM      8  C   UNL     1      -1.896   0.136   1.354  1.00  0.00     0.078 A 
ATOM      9  C   UNL     1       1.016  -1.113  -0.584  1.00  0.00     0.017 A 
ATOM     10  C   UNL     1      -0.571  -0.129   0.981  1.00  0.00    -0.012 A 
ATOM     11  C   UNL     1       2.082  -0.666   0.210  1.00  0.00    -0.018 A 
ATOM     12  C   UNL     1       0.494   0.317   1.778  1.00  0.00     0.017 A 
ATOM     13  C   UNL     1       3.410  -0.927  -0.164  1.00  0.00     0.009 A 
ATOM     14  C   UNL     1       1.819   0.054   1.400  1.00  0.00    -0.018 A 
ATOM     15  C   UNL     1       4.466  -0.479   0.634  1.00  0.00     0.001 A 
ATOM     16  C   UNL     1       2.889   0.499   2.193  1.00  0.00     0.009 A 
ATOM     17  C   UNL     1       4.206   0.232   1.808  1.00  0.00     0.001 A 
ATOM     18  C   UNL     1      -3.823  -1.547  -1.497  1.00  0.00     0.051 C 
ENDBRANCH   1   4
BRANCH   1  19
ATOM     19  N   UNL     1      -4.818  -1.147   1.675  1.00  0.00    -0.178 NA
ATOM     20  H   UNL     1      -4.348  -1.199   2.610  1.00  0.00     0.183 HD
ATOM     21  H   UNL     1      -5.835  -0.987   1.865  1.00  0.00     0.183 HD
ENDBRANCH   1  19
TORSDOF 2


