REMARK SMILES CCn1[nH+]cnc1COc1ccc(Nc2ccc3cc[nH]c3c2)c(F)c1
REMARK SMILES IDX 9 1 8 2 7 3 3 4 4 5 5 6 6 7 2 9 1 10 10 11 11 12 26 13 12 14
REMARK SMILES IDX 24 15 13 16 25 17 14 18 15 20 16 21 23 22 17 23 22 24 18 25
REMARK SMILES IDX 21 26 19 27 20 28
REMARK H PARENT 4 8 14 19 21 29
ROOT
ATOM      1  O   UNL     1      -0.436   1.538   1.726  1.00  0.00    -0.483 OA
ENDROOT
BRANCH   1   2
ATOM      2  C   UNL     1      -0.880   2.891   1.679  1.00  0.00     0.337 C 
BRANCH   2   3
ATOM      3  C   UNL     1      -0.765   3.494   3.044  1.00  0.00     0.291 A 
ATOM      4  N   UNL     1      -1.569   3.207   4.088  1.00  0.00    -0.178 N 
ATOM      5  N   UNL     1      -1.140   3.919   5.113  1.00  0.00    -0.170 N 
ATOM      6  C   UNL     1      -0.069   4.613   4.691  1.00  0.00     0.472 A 
ATOM      7  N   UNL     1       0.205   4.369   3.389  1.00  0.00    -0.026 NA
ATOM      8  H   UNL     1      -1.567   3.934   6.066  1.00  0.00     0.340 HD
BRANCH   4   9
ATOM      9  C   UNL     1      -2.754   2.349   4.113  1.00  0.00     0.166 C 
ATOM     10  C   UNL     1      -4.001   3.164   3.795  1.00  0.00     0.032 C 
ENDBRANCH   4   9
ENDBRANCH   2   3
ENDBRANCH   1   2
BRANCH   1  11
ATOM     11  C   UNL     1      -0.432   0.667   0.627  1.00  0.00     0.123 A 
ATOM     12  C   UNL     1      -0.868   1.062  -0.652  1.00  0.00     0.049 A 
ATOM     13  C   UNL     1       0.017  -0.644   0.820  1.00  0.00     0.087 A 
ATOM     14  C   UNL     1      -0.843   0.155  -1.715  1.00  0.00     0.033 A 
ATOM     15  C   UNL     1       0.042  -1.553  -0.242  1.00  0.00     0.150 A 
ATOM     16  C   UNL     1      -0.368  -1.150  -1.526  1.00  0.00     0.075 A 
ATOM     17  F   UNL     1       0.431  -2.832  -0.007  1.00  0.00    -0.205 F 
BRANCH  16  18
ATOM     18  N   UNL     1      -0.371  -2.067  -2.632  1.00  0.00    -0.353 N 
ATOM     19  H   UNL     1      -1.177  -2.025  -3.296  1.00  0.00     0.167 HD
BRANCH  18  20
ATOM     20  C   UNL     1       0.701  -2.979  -2.929  1.00  0.00     0.041 A 
ATOM     21  C   UNL     1       0.429  -4.141  -3.695  1.00  0.00     0.027 A 
ATOM     22  C   UNL     1       2.028  -2.709  -2.517  1.00  0.00     0.052 A 
ATOM     23  C   UNL     1       1.456  -5.044  -4.024  1.00  0.00     0.012 A 
ATOM     24  C   UNL     1       3.021  -3.625  -2.859  1.00  0.00     0.047 A 
ATOM     25  C   UNL     1       2.743  -4.751  -3.584  1.00  0.00    -0.001 A 
ATOM     26  N   UNL     1       4.329  -3.558  -2.564  1.00  0.00    -0.361 N 
ATOM     27  C   UNL     1       3.928  -5.434  -3.757  1.00  0.00     0.028 A 
ATOM     28  C   UNL     1       4.888  -4.662  -3.110  1.00  0.00     0.083 A 
ATOM     29  H   UNL     1       4.819  -2.809  -2.025  1.00  0.00     0.166 HD
ENDBRANCH  18  20
ENDBRANCH  16  18
ENDBRANCH   1  11
TORSDOF 6


