REMARK SMILES C=Cc1cccc(-c2ccc3c(c2)[C@H](N=[N+]=[N-])CC3)c1
REMARK SMILES IDX 8 1 9 2 10 3 11 4 12 5 13 6 14 7 18 8 19 9 7 10 3 11 4 12
REMARK SMILES IDX 20 13 5 14 6 15 2 16 1 17 15 18 16 19 17 20
REMARK H PARENT
ROOT
ATOM      1  C   UNL     1       0.184  -1.444   0.566  1.00  0.00    -0.018 A 
ATOM      2  C   UNL     1      -0.477  -2.630   0.963  1.00  0.00     0.009 A 
ATOM      3  C   UNL     1      -1.864  -2.763   0.801  1.00  0.00     0.004 A 
ATOM      4  C   UNL     1      -2.580  -1.706   0.240  1.00  0.00    -0.044 A 
ATOM      5  C   UNL     1      -1.953  -0.550  -0.145  1.00  0.00    -0.035 A 
ATOM      6  C   UNL     1      -0.573  -0.392   0.004  1.00  0.00     0.013 A 
ATOM      7  C   UNL     1      -2.904   0.443  -0.699  1.00  0.00     0.104 C 
ATOM      8  C   UNL     1      -4.253  -0.310  -0.720  1.00  0.00     0.019 C 
ATOM      9  C   UNL     1      -4.040  -1.657  -0.003  1.00  0.00     0.036 C 
ENDROOT
BRANCH   1  10
ATOM     10  C   UNL     1       1.653  -1.304   0.738  1.00  0.00    -0.018 A 
ATOM     11  C   UNL     1       3.828  -0.555  -0.103  1.00  0.00    -0.026 A 
ATOM     12  C   UNL     1       4.432  -1.054   1.061  1.00  0.00     0.008 A 
ATOM     13  C   UNL     1       2.435  -0.696  -0.263  1.00  0.00     0.016 A 
ATOM     14  C   UNL     1       3.663  -1.658   2.057  1.00  0.00     0.001 A 
ATOM     15  C   UNL     1       2.282  -1.781   1.901  1.00  0.00     0.009 A 
BRANCH  11  16
ATOM     16  C   UNL     1       4.691   0.071  -1.136  1.00  0.00     0.000 C 
ATOM     17  C   UNL     1       4.242   0.882  -2.094  1.00  0.00     0.009 C 
ENDBRANCH  11  16
ENDBRANCH   1  10
BRANCH   7  18
ATOM     18  N   UNL     1      -2.978   1.602   0.184  1.00  0.00    -0.086 NA
BRANCH  18  19
ATOM     19  N   UNL     1      -2.773   2.738  -0.242  1.00  0.00     0.002 N 
ATOM     20  N   UNL     1      -2.568   3.874  -0.668  1.00  0.00    -0.003 NA
ENDBRANCH  18  19
ENDBRANCH   7  18
TORSDOF 4


