MODEL 1
REMARK VINA RESULT:      -7.7      0.000      0.000
REMARK SMILES CN(/C=C(\O)N(N)c1cccc2cc3ccccc3cc12)CCO
REMARK SMILES IDX 3 1 4 2 5 3 6 5 8 6 9 7 21 8 10 9 20 10 12 11 11 12 19 13
REMARK SMILES IDX 13 14 18 15 14 16 17 17 15 18 16 19 7 20 2 23 1 24 22 25
REMARK SMILES IDX 23 26 24 27
REMARK H PARENT 5 4 7 21 7 22 24 28
ROOT
ATOM      1  C   UNL     1      44.974 128.907  21.889  1.00  0.00     0.149 C 
ENDROOT
BRANCH   1   2
ATOM      2  C   UNL     1      44.820 130.212  22.179  1.00  0.00     0.222 C 
BRANCH   2   3
ATOM      3  O   UNL     1      44.454 130.602  23.466  1.00  0.00    -0.493 OA
ATOM      4  H   UNL     1      43.487 130.754  23.723  1.00  0.00     0.295 HD
ENDBRANCH   2   3
BRANCH   2   5
ATOM      5  N   UNL     1      45.064 131.226  21.178  1.00  0.00    -0.247 N 
BRANCH   5   6
ATOM      6  C   UNL     1      44.022 131.591  20.258  1.00  0.00     0.069 A 
ATOM      7  C   UNL     1      42.823 132.118  20.766  1.00  0.00     0.028 A 
ATOM      8  C   UNL     1      44.189 131.457  18.858  1.00  0.00     0.008 A 
ATOM      9  C   UNL     1      41.809 132.537  19.904  1.00  0.00     0.003 A 
ATOM     10  C   UNL     1      45.342 130.867  18.304  1.00  0.00     0.019 A 
ATOM     11  C   UNL     1      43.154 131.899  17.991  1.00  0.00    -0.016 A 
ATOM     12  C   UNL     1      41.974 132.439  18.524  1.00  0.00     0.009 A 
ATOM     13  C   UNL     1      45.487 130.745  16.914  1.00  0.00    -0.018 A 
ATOM     14  C   UNL     1      43.304 131.784  16.600  1.00  0.00     0.017 A 
ATOM     15  C   UNL     1      46.640 130.160  16.365  1.00  0.00     0.009 A 
ATOM     16  C   UNL     1      44.463 131.212  16.056  1.00  0.00    -0.018 A 
ATOM     17  C   UNL     1      46.778 130.046  14.978  1.00  0.00     0.001 A 
ATOM     18  C   UNL     1      44.613 131.090  14.665  1.00  0.00     0.009 A 
ATOM     19  C   UNL     1      45.767 130.509  14.131  1.00  0.00     0.001 A 
ENDBRANCH   5   6
BRANCH   5  20
ATOM     20  N   UNL     1      46.256 131.978  21.163  1.00  0.00    -0.240 NA
ATOM     21  H   UNL     1      46.571 132.123  22.148  1.00  0.00     0.144 HD
ATOM     22  H   UNL     1      46.040 132.908  20.742  1.00  0.00     0.144 HD
ENDBRANCH   5  20
ENDBRANCH   2   5
ENDBRANCH   1   2
BRANCH   1  23
ATOM     23  N   UNL     1      44.992 127.861  22.883  1.00  0.00    -0.374 N 
ATOM     24  C   UNL     1      45.931 126.736  22.803  1.00  0.00     0.143 C 
BRANCH  23  25
ATOM     25  C   UNL     1      44.123 127.999  24.062  1.00  0.00     0.144 C 
BRANCH  25  26
ATOM     26  C   UNL     1      42.712 127.506  23.743  1.00  0.00     0.177 C 
BRANCH  26  27
ATOM     27  O   UNL     1      42.349 126.477  24.623  1.00  0.00    -0.395 OA
ATOM     28  H   UNL     1      42.876 125.681  24.348  1.00  0.00     0.210 HD
ENDBRANCH  26  27
ENDBRANCH  25  26
ENDBRANCH  23  25
ENDBRANCH   1  23
TORSDOF 9
ENDMDL
MODEL 2
REMARK VINA RESULT:      -7.6      1.108      1.458
REMARK SMILES CN(/C=C(\O)N(N)c1cccc2cc3ccccc3cc12)CCO
REMARK SMILES IDX 3 1 4 2 5 3 6 5 8 6 9 7 21 8 10 9 20 10 12 11 11 12 19 13
REMARK SMILES IDX 13 14 18 15 14 16 17 17 15 18 16 19 7 20 2 23 1 24 22 25
REMARK SMILES IDX 23 26 24 27
REMARK H PARENT 5 4 7 21 7 22 24 28
ROOT
ATOM      1  C   UNL     1      43.863 129.655  22.315  1.00  0.00     0.149 C 
ENDROOT
BRANCH   1   2
ATOM      2  C   UNL     1      44.954 129.885  21.561  1.00  0.00     0.222 C 
BRANCH   2   3
ATOM      3  O   UNL     1      45.937 128.906  21.440  1.00  0.00    -0.493 OA
ATOM      4  H   UNL     1      46.332 128.443  22.249  1.00  0.00     0.295 HD
ENDBRANCH   2   3
BRANCH   2   5
ATOM      5  N   UNL     1      45.106 131.130  20.842  1.00  0.00    -0.247 N 
BRANCH   5   6
ATOM      6  C   UNL     1      44.122 131.521  19.870  1.00  0.00     0.069 A 
ATOM      7  C   UNL     1      42.914 132.081  20.316  1.00  0.00     0.028 A 
ATOM      8  C   UNL     1      44.357 131.383  18.480  1.00  0.00     0.008 A 
ATOM      9  C   UNL     1      41.957 132.526  19.404  1.00  0.00     0.003 A 
ATOM     10  C   UNL     1      45.522 130.762  17.986  1.00  0.00     0.019 A 
ATOM     11  C   UNL     1      43.380 131.850  17.561  1.00  0.00    -0.016 A 
ATOM     12  C   UNL     1      42.189 132.422  18.034  1.00  0.00     0.009 A 
ATOM     13  C   UNL     1      45.734 130.634  16.605  1.00  0.00    -0.018 A 
ATOM     14  C   UNL     1      43.598 131.731  16.180  1.00  0.00     0.017 A 
ATOM     15  C   UNL     1      46.898 130.019  16.115  1.00  0.00     0.009 A 
ATOM     16  C   UNL     1      44.768 131.127  15.695  1.00  0.00    -0.018 A 
ATOM     17  C   UNL     1      47.103 129.900  14.737  1.00  0.00     0.001 A 
ATOM     18  C   UNL     1      44.986 131.001  14.315  1.00  0.00     0.009 A 
ATOM     19  C   UNL     1      46.149 130.389  13.839  1.00  0.00     0.001 A 
ENDBRANCH   5   6
BRANCH   5  20
ATOM     20  N   UNL     1      46.122 132.050  21.166  1.00  0.00    -0.240 NA
ATOM     21  H   UNL     1      46.970 131.827  20.598  1.00  0.00     0.144 HD
ATOM     22  H   UNL     1      46.356 131.925  22.175  1.00  0.00     0.144 HD
ENDBRANCH   5  20
ENDBRANCH   2   5
ENDBRANCH   1   2
BRANCH   1  23
ATOM     23  N   UNL     1      43.820 129.849  23.744  1.00  0.00    -0.374 N 
ATOM     24  C   UNL     1      43.380 131.116  24.339  1.00  0.00     0.143 C 
BRANCH  23  25
ATOM     25  C   UNL     1      44.112 128.701  24.616  1.00  0.00     0.144 C 
BRANCH  25  26
ATOM     26  C   UNL     1      43.642 127.402  23.960  1.00  0.00     0.177 C 
BRANCH  26  27
ATOM     27  O   UNL     1      42.378 127.044  24.447  1.00  0.00    -0.395 OA
ATOM     28  H   UNL     1      42.503 126.835  25.410  1.00  0.00     0.210 HD
ENDBRANCH  26  27
ENDBRANCH  25  26
ENDBRANCH  23  25
ENDBRANCH   1  23
TORSDOF 9
ENDMDL
MODEL 3
REMARK VINA RESULT:      -6.8      1.645      1.967
REMARK SMILES CN(/C=C(\O)N(N)c1cccc2cc3ccccc3cc12)CCO
REMARK SMILES IDX 3 1 4 2 5 3 6 5 8 6 9 7 21 8 10 9 20 10 12 11 11 12 19 13
REMARK SMILES IDX 13 14 18 15 14 16 17 17 15 18 16 19 7 20 2 23 1 24 22 25
REMARK SMILES IDX 23 26 24 27
REMARK H PARENT 5 4 7 21 7 22 24 28
ROOT
ATOM      1  C   UNL     1      44.576 130.075  22.623  1.00  0.00     0.149 C 
ENDROOT
BRANCH   1   2
ATOM      2  C   UNL     1      45.174 130.226  21.427  1.00  0.00     0.222 C 
BRANCH   2   3
ATOM      3  O   UNL     1      45.839 129.152  20.839  1.00  0.00    -0.493 OA
ATOM      4  H   UNL     1      46.734 128.826  21.182  1.00  0.00     0.295 HD
ENDBRANCH   2   3
BRANCH   2   5
ATOM      5  N   UNL     1      45.108 131.486  20.722  1.00  0.00    -0.247 N 
BRANCH   5   6
ATOM      6  C   UNL     1      44.069 131.713  19.756  1.00  0.00     0.069 A 
ATOM      7  C   UNL     1      42.818 132.170  20.200  1.00  0.00     0.028 A 
ATOM      8  C   UNL     1      44.290 131.516  18.370  1.00  0.00     0.008 A 
ATOM      9  C   UNL     1      41.801 132.457  19.289  1.00  0.00     0.003 A 
ATOM     10  C   UNL     1      45.503 130.991  17.882  1.00  0.00     0.019 A 
ATOM     11  C   UNL     1      43.251 131.823  17.452  1.00  0.00    -0.016 A 
ATOM     12  C   UNL     1      42.015 132.295  17.922  1.00  0.00     0.009 A 
ATOM     13  C   UNL     1      45.700 130.803  16.506  1.00  0.00    -0.018 A 
ATOM     14  C   UNL     1      43.453 131.643  16.074  1.00  0.00     0.017 A 
ATOM     15  C   UNL     1      46.913 130.284  16.023  1.00  0.00     0.009 A 
ATOM     16  C   UNL     1      44.669 131.137  15.596  1.00  0.00    -0.018 A 
ATOM     17  C   UNL     1      47.102 130.104  14.649  1.00  0.00     0.001 A 
ATOM     18  C   UNL     1      44.872 130.950  14.219  1.00  0.00     0.009 A 
ATOM     19  C   UNL     1      46.084 130.436  13.750  1.00  0.00     0.001 A 
ENDBRANCH   5   6
BRANCH   5  20
ATOM     20  N   UNL     1      45.952 132.564  21.056  1.00  0.00    -0.240 NA
ATOM     21  H   UNL     1      46.896 132.391  20.645  1.00  0.00     0.144 HD
ATOM     22  H   UNL     1      46.041 132.589  22.096  1.00  0.00     0.144 HD
ENDBRANCH   5  20
ENDBRANCH   2   5
ENDBRANCH   1   2
BRANCH   1  23
ATOM     23  N   UNL     1      44.155 131.175  23.456  1.00  0.00    -0.374 N 
ATOM     24  C   UNL     1      45.119 132.103  24.058  1.00  0.00     0.143 C 
BRANCH  23  25
ATOM     25  C   UNL     1      42.714 131.433  23.599  1.00  0.00     0.144 C 
BRANCH  25  26
ATOM     26  C   UNL     1      42.051 130.316  24.407  1.00  0.00     0.177 C 
BRANCH  26  27
ATOM     27  O   UNL     1      41.824 129.199  23.592  1.00  0.00    -0.395 OA
ATOM     28  H   UNL     1      41.203 128.612  24.098  1.00  0.00     0.210 HD
ENDBRANCH  26  27
ENDBRANCH  25  26
ENDBRANCH  23  25
ENDBRANCH   1  23
TORSDOF 9
ENDMDL
MODEL 4
REMARK VINA RESULT:      -6.7      1.347      1.674
REMARK SMILES CN(/C=C(\O)N(N)c1cccc2cc3ccccc3cc12)CCO
REMARK SMILES IDX 3 1 4 2 5 3 6 5 8 6 9 7 21 8 10 9 20 10 12 11 11 12 19 13
REMARK SMILES IDX 13 14 18 15 14 16 17 17 15 18 16 19 7 20 2 23 1 24 22 25
REMARK SMILES IDX 23 26 24 27
REMARK H PARENT 5 4 7 21 7 22 24 28
ROOT
ATOM      1  C   UNL     1      44.316 131.236  22.850  1.00  0.00     0.149 C 
ENDROOT
BRANCH   1   2
ATOM      2  C   UNL     1      45.131 131.613  21.847  1.00  0.00     0.222 C 
BRANCH   2   3
ATOM      3  O   UNL     1      46.051 132.641  22.046  1.00  0.00    -0.493 OA
ATOM      4  H   UNL     1      46.445 133.161  21.272  1.00  0.00     0.295 HD
ENDBRANCH   2   3
BRANCH   2   5
ATOM      5  N   UNL     1      45.089 130.942  20.568  1.00  0.00    -0.247 N 
BRANCH   5   6
ATOM      6  C   UNL     1      44.127 131.343  19.579  1.00  0.00     0.069 A 
ATOM      7  C   UNL     1      42.888 131.848  20.004  1.00  0.00     0.028 A 
ATOM      8  C   UNL     1      44.413 131.267  18.193  1.00  0.00     0.008 A 
ATOM      9  C   UNL     1      41.949 132.300  19.077  1.00  0.00     0.003 A 
ATOM     10  C   UNL     1      45.612 130.702  17.716  1.00  0.00     0.019 A 
ATOM     11  C   UNL     1      43.454 131.742  17.260  1.00  0.00    -0.016 A 
ATOM     12  C   UNL     1      42.230 132.258  17.713  1.00  0.00     0.009 A 
ATOM     13  C   UNL     1      45.875 130.636  16.340  1.00  0.00    -0.018 A 
ATOM     14  C   UNL     1      43.722 131.685  15.883  1.00  0.00     0.017 A 
ATOM     15  C   UNL     1      47.074 130.075  15.867  1.00  0.00     0.009 A 
ATOM     16  C   UNL     1      44.926 131.136  15.417  1.00  0.00    -0.018 A 
ATOM     17  C   UNL     1      47.329 130.018  14.493  1.00  0.00     0.001 A 
ATOM     18  C   UNL     1      45.194 131.072  14.041  1.00  0.00     0.009 A 
ATOM     19  C   UNL     1      46.391 130.514  13.583  1.00  0.00     0.001 A 
ENDBRANCH   5   6
BRANCH   5  20
ATOM     20  N   UNL     1      46.064 129.992  20.201  1.00  0.00    -0.240 NA
ATOM     21  H   UNL     1      45.833 129.627  19.250  1.00  0.00     0.144 HD
ATOM     22  H   UNL     1      46.013 129.204  20.882  1.00  0.00     0.144 HD
ENDBRANCH   5  20
ENDBRANCH   2   5
ENDBRANCH   1   2
BRANCH   1  23
ATOM     23  N   UNL     1      43.827 129.889  23.023  1.00  0.00    -0.374 N 
ATOM     24  C   UNL     1      42.410 129.552  22.839  1.00  0.00     0.143 C 
BRANCH  23  25
ATOM     25  C   UNL     1      44.802 128.817  23.273  1.00  0.00     0.144 C 
BRANCH  25  26
ATOM     26  C   UNL     1      44.084 127.482  23.478  1.00  0.00     0.177 C 
BRANCH  26  27
ATOM     27  O   UNL     1      44.815 126.669  24.354  1.00  0.00    -0.395 OA
ATOM     28  H   UNL     1      45.047 125.851  23.840  1.00  0.00     0.210 HD
ENDBRANCH  26  27
ENDBRANCH  25  26
ENDBRANCH  23  25
ENDBRANCH   1  23
TORSDOF 9
ENDMDL
MODEL 5
REMARK VINA RESULT:      -5.9      1.502      1.791
REMARK SMILES CN(/C=C(\O)N(N)c1cccc2cc3ccccc3cc12)CCO
REMARK SMILES IDX 3 1 4 2 5 3 6 5 8 6 9 7 21 8 10 9 20 10 12 11 11 12 19 13
REMARK SMILES IDX 13 14 18 15 14 16 17 17 15 18 16 19 7 20 2 23 1 24 22 25
REMARK SMILES IDX 23 26 24 27
REMARK H PARENT 5 4 7 21 7 22 24 28
ROOT
ATOM      1  C   UNL     1      44.958 128.950  22.142  1.00  0.00     0.149 C 
ENDROOT
BRANCH   1   2
ATOM      2  C   UNL     1      45.588 129.523  21.101  1.00  0.00     0.222 C 
BRANCH   2   3
ATOM      3  O   UNL     1      46.392 128.753  20.262  1.00  0.00    -0.493 OA
ATOM      4  H   UNL     1      47.395 128.699  20.387  1.00  0.00     0.295 HD
ENDBRANCH   2   3
BRANCH   2   5
ATOM      5  N   UNL     1      45.416 130.930  20.816  1.00  0.00    -0.247 N 
BRANCH   5   6
ATOM      6  C   UNL     1      44.398 131.355  19.895  1.00  0.00     0.069 A 
ATOM      7  C   UNL     1      43.199 131.880  20.405  1.00  0.00     0.028 A 
ATOM      8  C   UNL     1      44.590 131.285  18.493  1.00  0.00     0.008 A 
ATOM      9  C   UNL     1      42.210 132.357  19.545  1.00  0.00     0.003 A 
ATOM     10  C   UNL     1      45.744 130.700  17.934  1.00  0.00     0.019 A 
ATOM     11  C   UNL     1      43.580 131.784  17.629  1.00  0.00    -0.016 A 
ATOM     12  C   UNL     1      42.399 132.320  18.165  1.00  0.00     0.009 A 
ATOM     13  C   UNL     1      45.914 130.640  16.543  1.00  0.00    -0.018 A 
ATOM     14  C   UNL     1      43.755 131.731  16.237  1.00  0.00     0.017 A 
ATOM     15  C   UNL     1      47.068 130.060  15.988  1.00  0.00     0.009 A 
ATOM     16  C   UNL     1      44.915 131.164  15.688  1.00  0.00    -0.018 A 
ATOM     17  C   UNL     1      47.230 130.008  14.601  1.00  0.00     0.001 A 
ATOM     18  C   UNL     1      45.090 131.104  14.297  1.00  0.00     0.009 A 
ATOM     19  C   UNL     1      46.244 130.528  13.757  1.00  0.00     0.001 A 
ENDBRANCH   5   6
BRANCH   5  20
ATOM     20  N   UNL     1      46.125 131.919  21.526  1.00  0.00    -0.240 NA
ATOM     21  H   UNL     1      45.474 132.379  22.200  1.00  0.00     0.144 HD
ATOM     22  H   UNL     1      46.451 132.633  20.838  1.00  0.00     0.144 HD
ENDBRANCH   5  20
ENDBRANCH   2   5
ENDBRANCH   1   2
BRANCH   1  23
ATOM     23  N   UNL     1      45.024 127.540  22.443  1.00  0.00    -0.374 N 
ATOM     24  C   UNL     1      43.813 126.723  22.589  1.00  0.00     0.143 C 
BRANCH  23  25
ATOM     25  C   UNL     1      46.344 126.894  22.484  1.00  0.00     0.144 C 
BRANCH  25  26
ATOM     26  C   UNL     1      46.325 125.703  23.443  1.00  0.00     0.177 C 
BRANCH  26  27
ATOM     27  O   UNL     1      47.039 126.009  24.610  1.00  0.00    -0.395 OA
ATOM     28  H   UNL     1      46.360 126.250  25.292  1.00  0.00     0.210 HD
ENDBRANCH  26  27
ENDBRANCH  25  26
ENDBRANCH  23  25
ENDBRANCH   1  23
TORSDOF 9
ENDMDL
MODEL 6
REMARK VINA RESULT:      -5.8      2.510      6.773
REMARK SMILES CN(/C=C(\O)N(N)c1cccc2cc3ccccc3cc12)CCO
REMARK SMILES IDX 3 1 4 2 5 3 6 5 8 6 9 7 21 8 10 9 20 10 12 11 11 12 19 13
REMARK SMILES IDX 13 14 18 15 14 16 17 17 15 18 16 19 7 20 2 23 1 24 22 25
REMARK SMILES IDX 23 26 24 27
REMARK H PARENT 5 4 7 21 7 22 24 28
ROOT
ATOM      1  C   UNL     1      43.458 130.922  20.916  1.00  0.00     0.149 C 
ENDROOT
BRANCH   1   2
ATOM      2  C   UNL     1      44.426 130.888  21.849  1.00  0.00     0.222 C 
BRANCH   2   3
ATOM      3  O   UNL     1      45.741 131.191  21.500  1.00  0.00    -0.493 OA
ATOM      4  H   UNL     1      46.525 130.894  22.066  1.00  0.00     0.295 HD
ENDBRANCH   2   3
BRANCH   2   5
ATOM      5  N   UNL     1      44.117 130.573  23.225  1.00  0.00    -0.247 N 
BRANCH   5   6
ATOM      6  C   UNL     1      43.279 129.446  23.532  1.00  0.00     0.069 A 
ATOM      7  C   UNL     1      41.992 129.677  24.043  1.00  0.00     0.028 A 
ATOM      8  C   UNL     1      43.712 128.117  23.302  1.00  0.00     0.008 A 
ATOM      9  C   UNL     1      41.127 128.613  24.300  1.00  0.00     0.003 A 
ATOM     10  C   UNL     1      45.019 127.832  22.859  1.00  0.00     0.019 A 
ATOM     11  C   UNL     1      42.818 127.043  23.557  1.00  0.00    -0.016 A 
ATOM     12  C   UNL     1      41.531 127.303  24.051  1.00  0.00     0.009 A 
ATOM     13  C   UNL     1      45.427 126.508  22.639  1.00  0.00    -0.018 A 
ATOM     14  C   UNL     1      43.225 125.719  23.327  1.00  0.00     0.017 A 
ATOM     15  C   UNL     1      46.729 126.226  22.193  1.00  0.00     0.009 A 
ATOM     16  C   UNL     1      44.522 125.444  22.869  1.00  0.00    -0.018 A 
ATOM     17  C   UNL     1      47.126 124.904  21.972  1.00  0.00     0.001 A 
ATOM     18  C   UNL     1      44.933 124.121  22.644  1.00  0.00     0.009 A 
ATOM     19  C   UNL     1      46.230 123.854  22.197  1.00  0.00     0.001 A 
ENDBRANCH   5   6
BRANCH   5  20
ATOM     20  N   UNL     1      44.730 131.256  24.295  1.00  0.00    -0.240 NA
ATOM     21  H   UNL     1      44.299 130.932  25.189  1.00  0.00     0.144 HD
ATOM     22  H   UNL     1      44.531 132.274  24.179  1.00  0.00     0.144 HD
ENDBRANCH   5  20
ENDBRANCH   2   5
ENDBRANCH   1   2
BRANCH   1  23
ATOM     23  N   UNL     1      43.235 132.038  20.028  1.00  0.00    -0.374 N 
ATOM     24  C   UNL     1      42.031 132.871  20.121  1.00  0.00     0.143 C 
BRANCH  23  25
ATOM     25  C   UNL     1      44.306 132.411  19.091  1.00  0.00     0.144 C 
BRANCH  25  26
ATOM     26  C   UNL     1      44.491 131.321  18.034  1.00  0.00     0.177 C 
BRANCH  26  27
ATOM     27  O   UNL     1      43.569 131.494  16.993  1.00  0.00    -0.395 OA
ATOM     28  H   UNL     1      43.776 130.791  16.323  1.00  0.00     0.210 HD
ENDBRANCH  26  27
ENDBRANCH  25  26
ENDBRANCH  23  25
ENDBRANCH   1  23
TORSDOF 9
ENDMDL
MODEL 7
REMARK VINA RESULT:      -5.8      2.646      6.783
REMARK SMILES CN(/C=C(\O)N(N)c1cccc2cc3ccccc3cc12)CCO
REMARK SMILES IDX 3 1 4 2 5 3 6 5 8 6 9 7 21 8 10 9 20 10 12 11 11 12 19 13
REMARK SMILES IDX 13 14 18 15 14 16 17 17 15 18 16 19 7 20 2 23 1 24 22 25
REMARK SMILES IDX 23 26 24 27
REMARK H PARENT 5 4 7 21 7 22 24 28
ROOT
ATOM      1  C   UNL     1      45.385 130.059  18.096  1.00  0.00     0.149 C 
ENDROOT
BRANCH   1   2
ATOM      2  C   UNL     1      45.116 131.121  18.877  1.00  0.00     0.222 C 
BRANCH   2   3
ATOM      3  O   UNL     1      44.374 132.187  18.371  1.00  0.00    -0.493 OA
ATOM      4  H   UNL     1      44.014 132.919  18.971  1.00  0.00     0.295 HD
ENDBRANCH   2   3
BRANCH   2   5
ATOM      5  N   UNL     1      45.558 131.160  20.252  1.00  0.00    -0.247 N 
BRANCH   5   6
ATOM      6  C   UNL     1      44.618 130.930  21.314  1.00  0.00     0.069 A 
ATOM      7  C   UNL     1      43.749 131.969  21.687  1.00  0.00     0.028 A 
ATOM      8  C   UNL     1      44.531 129.676  21.968  1.00  0.00     0.008 A 
ATOM      9  C   UNL     1      42.784 131.768  22.674  1.00  0.00     0.003 A 
ATOM     10  C   UNL     1      45.427 128.628  21.680  1.00  0.00     0.019 A 
ATOM     11  C   UNL     1      43.536 129.481  22.964  1.00  0.00    -0.016 A 
ATOM     12  C   UNL     1      42.669 130.531  23.304  1.00  0.00     0.009 A 
ATOM     13  C   UNL     1      45.323 127.395  22.340  1.00  0.00    -0.018 A 
ATOM     14  C   UNL     1      43.427 128.244  23.617  1.00  0.00     0.017 A 
ATOM     15  C   UNL     1      46.216 126.350  22.047  1.00  0.00     0.009 A 
ATOM     16  C   UNL     1      44.312 127.199  23.311  1.00  0.00    -0.018 A 
ATOM     17  C   UNL     1      46.101 125.123  22.707  1.00  0.00     0.001 A 
ATOM     18  C   UNL     1      44.209 125.963  23.968  1.00  0.00     0.009 A 
ATOM     19  C   UNL     1      45.101 124.930  23.665  1.00  0.00     0.001 A 
ENDBRANCH   5   6
BRANCH   5  20
ATOM     20  N   UNL     1      46.922 131.275  20.585  1.00  0.00    -0.240 NA
ATOM     21  H   UNL     1      47.493 130.892  19.799  1.00  0.00     0.144 HD
ATOM     22  H   UNL     1      47.093 130.693  21.435  1.00  0.00     0.144 HD
ENDBRANCH   5  20
ENDBRANCH   2   5
ENDBRANCH   1   2
BRANCH   1  23
ATOM     23  N   UNL     1      45.619 130.145  16.675  1.00  0.00    -0.374 N 
ATOM     24  C   UNL     1      46.875 129.687  16.069  1.00  0.00     0.143 C 
BRANCH  23  25
ATOM     25  C   UNL     1      44.518 130.595  15.809  1.00  0.00     0.144 C 
BRANCH  25  26
ATOM     26  C   UNL     1      45.005 131.684  14.853  1.00  0.00     0.177 C 
BRANCH  26  27
ATOM     27  O   UNL     1      45.727 132.658  15.556  1.00  0.00    -0.395 OA
ATOM     28  H   UNL     1      45.460 133.532  15.167  1.00  0.00     0.210 HD
ENDBRANCH  26  27
ENDBRANCH  25  26
ENDBRANCH  23  25
ENDBRANCH   1  23
TORSDOF 9
ENDMDL
MODEL 8
REMARK VINA RESULT:      -5.7      3.049      4.655
REMARK SMILES CN(/C=C(\O)N(N)c1cccc2cc3ccccc3cc12)CCO
REMARK SMILES IDX 3 1 4 2 5 3 6 5 8 6 9 7 21 8 10 9 20 10 12 11 11 12 19 13
REMARK SMILES IDX 13 14 18 15 14 16 17 17 15 18 16 19 7 20 2 23 1 24 22 25
REMARK SMILES IDX 23 26 24 27
REMARK H PARENT 5 4 7 21 7 22 24 28
ROOT
ATOM      1  C   UNL     1      47.549 132.919  21.400  1.00  0.00     0.149 C 
ENDROOT
BRANCH   1   2
ATOM      2  C   UNL     1      46.344 132.380  21.664  1.00  0.00     0.222 C 
BRANCH   2   3
ATOM      3  O   UNL     1      45.596 132.841  22.746  1.00  0.00    -0.493 OA
ATOM      4  H   UNL     1      45.669 133.795  23.077  1.00  0.00     0.295 HD
ENDBRANCH   2   3
BRANCH   2   5
ATOM      5  N   UNL     1      45.794 131.347  20.817  1.00  0.00    -0.247 N 
BRANCH   5   6
ATOM      6  C   UNL     1      44.599 131.600  20.061  1.00  0.00     0.069 A 
ATOM      7  C   UNL     1      43.435 131.989  20.743  1.00  0.00     0.028 A 
ATOM      8  C   UNL     1      44.579 131.495  18.648  1.00  0.00     0.008 A 
ATOM      9  C   UNL     1      42.269 132.299  20.042  1.00  0.00     0.003 A 
ATOM     10  C   UNL     1      45.699 131.039  17.925  1.00  0.00     0.019 A 
ATOM     11  C   UNL     1      43.390 131.825  17.945  1.00  0.00    -0.016 A 
ATOM     12  C   UNL     1      42.246 132.227  18.650  1.00  0.00     0.009 A 
ATOM     13  C   UNL     1      45.658 130.942  16.526  1.00  0.00    -0.018 A 
ATOM     14  C   UNL     1      43.353 131.736  16.544  1.00  0.00     0.017 A 
ATOM     15  C   UNL     1      46.778 130.492  15.808  1.00  0.00     0.009 A 
ATOM     16  C   UNL     1      44.478 131.299  15.830  1.00  0.00    -0.018 A 
ATOM     17  C   UNL     1      46.729 130.402  14.413  1.00  0.00     0.001 A 
ATOM     18  C   UNL     1      44.441 131.203  14.430  1.00  0.00     0.009 A 
ATOM     19  C   UNL     1      45.564 130.756  13.727  1.00  0.00     0.001 A 
ENDBRANCH   5   6
BRANCH   5  20
ATOM     20  N   UNL     1      46.477 130.134  20.594  1.00  0.00    -0.240 NA
ATOM     21  H   UNL     1      46.715 129.709  21.518  1.00  0.00     0.144 HD
ATOM     22  H   UNL     1      47.364 130.355  20.091  1.00  0.00     0.144 HD
ENDBRANCH   5  20
ENDBRANCH   2   5
ENDBRANCH   1   2
BRANCH   1  23
ATOM     23  N   UNL     1      48.031 134.140  21.998  1.00  0.00    -0.374 N 
ATOM     24  C   UNL     1      48.969 134.131  23.127  1.00  0.00     0.143 C 
BRANCH  23  25
ATOM     25  C   UNL     1      47.658 135.420  21.376  1.00  0.00     0.144 C 
BRANCH  25  26
ATOM     26  C   UNL     1      48.854 136.373  21.361  1.00  0.00     0.177 C 
BRANCH  26  27
ATOM     27  O   UNL     1      49.698 136.073  20.283  1.00  0.00    -0.395 OA
ATOM     28  H   UNL     1      49.431 135.171  19.968  1.00  0.00     0.210 HD
ENDBRANCH  26  27
ENDBRANCH  25  26
ENDBRANCH  23  25
ENDBRANCH   1  23
TORSDOF 9
ENDMDL
MODEL 9
REMARK VINA RESULT:      -5.6      1.884      2.262
REMARK SMILES CN(/C=C(\O)N(N)c1cccc2cc3ccccc3cc12)CCO
REMARK SMILES IDX 3 1 4 2 5 3 6 5 8 6 9 7 21 8 10 9 20 10 12 11 11 12 19 13
REMARK SMILES IDX 13 14 18 15 14 16 17 17 15 18 16 19 7 20 2 23 1 24 22 25
REMARK SMILES IDX 23 26 24 27
REMARK H PARENT 5 4 7 21 7 22 24 28
ROOT
ATOM      1  C   UNL     1      44.173 132.194  22.346  1.00  0.00     0.149 C 
ENDROOT
BRANCH   1   2
ATOM      2  C   UNL     1      45.185 131.930  21.499  1.00  0.00     0.222 C 
BRANCH   2   3
ATOM      3  O   UNL     1      46.438 132.503  21.711  1.00  0.00    -0.493 OA
ATOM      4  H   UNL     1      46.964 132.928  20.958  1.00  0.00     0.295 HD
ENDBRANCH   2   3
BRANCH   2   5
ATOM      5  N   UNL     1      45.002 131.028  20.385  1.00  0.00    -0.247 N 
BRANCH   5   6
ATOM      6  C   UNL     1      44.077 131.361  19.337  1.00  0.00     0.069 A 
ATOM      7  C   UNL     1      42.802 131.838  19.684  1.00  0.00     0.028 A 
ATOM      8  C   UNL     1      44.433 131.248  17.971  1.00  0.00     0.008 A 
ATOM      9  C   UNL     1      41.896 132.227  18.698  1.00  0.00     0.003 A 
ATOM     10  C   UNL     1      45.671 130.707  17.572  1.00  0.00     0.019 A 
ATOM     11  C   UNL     1      43.505 131.658  16.976  1.00  0.00    -0.016 A 
ATOM     12  C   UNL     1      42.245 132.148  17.351  1.00  0.00     0.009 A 
ATOM     13  C   UNL     1      46.003 130.603  16.213  1.00  0.00    -0.018 A 
ATOM     14  C   UNL     1      43.842 131.562  15.617  1.00  0.00     0.017 A 
ATOM     15  C   UNL     1      47.241 130.068  15.819  1.00  0.00     0.009 A 
ATOM     16  C   UNL     1      45.084 131.039  15.229  1.00  0.00    -0.018 A 
ATOM     17  C   UNL     1      47.565 129.972  14.462  1.00  0.00     0.001 A 
ATOM     18  C   UNL     1      45.421 130.936  13.870  1.00  0.00     0.009 A 
ATOM     19  C   UNL     1      46.657 130.405  13.490  1.00  0.00     0.001 A 
ENDBRANCH   5   6
BRANCH   5  20
ATOM     20  N   UNL     1      45.812 129.887  20.218  1.00  0.00    -0.240 NA
ATOM     21  H   UNL     1      46.367 129.997  19.340  1.00  0.00     0.144 HD
ATOM     22  H   UNL     1      45.182 129.062  20.112  1.00  0.00     0.144 HD
ENDBRANCH   5  20
ENDBRANCH   2   5
ENDBRANCH   1   2
BRANCH   1  23
ATOM     23  N   UNL     1      44.158 131.790  23.731  1.00  0.00    -0.374 N 
ATOM     24  C   UNL     1      45.293 132.053  24.625  1.00  0.00     0.143 C 
BRANCH  23  25
ATOM     25  C   UNL     1      42.923 131.209  24.278  1.00  0.00     0.144 C 
BRANCH  25  26
ATOM     26  C   UNL     1      42.930 129.689  24.109  1.00  0.00     0.177 C 
BRANCH  26  27
ATOM     27  O   UNL     1      41.883 129.292  23.265  1.00  0.00    -0.395 OA
ATOM     28  H   UNL     1      42.273 129.235  22.353  1.00  0.00     0.210 HD
ENDBRANCH  26  27
ENDBRANCH  25  26
ENDBRANCH  23  25
ENDBRANCH   1  23
TORSDOF 9
ENDMDL


