REMARK SMILES c1cc(Nc2ccc3cc[nH]c3c2)c2oncc2c1
REMARK SMILES IDX 5 1 6 2 7 3 8 4 9 5 10 6 11 7 12 8 13 9 4 11 3 13 1 14 2 15
REMARK SMILES IDX 19 16 18 17 14 18 17 19 15 20 16 21
REMARK H PARENT 11 10 4 12
ROOT
ATOM      1  C   UNL     1       0.367   1.216  -0.087  1.00  0.00     0.041 A 
ATOM      2  C   UNL     1       0.146   2.490   0.494  1.00  0.00     0.027 A 
ATOM      3  C   UNL     1       0.831   2.878   1.660  1.00  0.00     0.012 A 
ATOM      4  C   UNL     1       1.737   1.977   2.211  1.00  0.00    -0.001 A 
ATOM      5  C   UNL     1       2.543   2.081   3.324  1.00  0.00     0.028 A 
ATOM      6  C   UNL     1       3.245   0.881   3.377  1.00  0.00     0.083 A 
ATOM      7  N   UNL     1       2.894   0.073   2.350  1.00  0.00    -0.361 N 
ATOM      8  C   UNL     1       1.973   0.753   1.647  1.00  0.00     0.047 A 
ATOM      9  C   UNL     1       1.314   0.338   0.492  1.00  0.00     0.052 A 
ATOM     10  H   UNL     1       3.265  -0.881   2.148  1.00  0.00     0.166 HD
ENDROOT
BRANCH   1  11
ATOM     11  N   UNL     1      -0.331   0.864  -1.293  1.00  0.00    -0.352 N 
ATOM     12  H   UNL     1      -0.589   1.632  -1.953  1.00  0.00     0.167 HD
BRANCH  11  13
ATOM     13  C   UNL     1      -0.671  -0.481  -1.666  1.00  0.00     0.085 A 
ATOM     14  C   UNL     1      -1.044  -2.181  -3.399  1.00  0.00     0.003 A 
ATOM     15  C   UNL     1      -0.685  -0.865  -3.025  1.00  0.00     0.030 A 
ATOM     16  C   UNL     1      -1.412  -3.126  -2.424  1.00  0.00     0.014 A 
ATOM     17  C   UNL     1      -1.411  -2.710  -1.097  1.00  0.00     0.044 A 
ATOM     18  C   UNL     1      -1.065  -1.444  -0.728  1.00  0.00     0.190 A 
ATOM     19  C   UNL     1      -1.742  -3.350   0.074  1.00  0.00     0.166 A 
ATOM     20  O   UNL     1      -1.189  -1.332   0.572  1.00  0.00    -0.354 OA
ATOM     21  N   UNL     1      -1.593  -2.464   1.087  1.00  0.00    -0.087 NA
ENDBRANCH  11  13
ENDBRANCH   1  11
TORSDOF 2


