REMARK SMILES C[C@@H]1CC[C@@H]2CC=N[C@]2(C)C1
REMARK SMILES IDX 1 1 2 2 3 3 4 4 5 5 6 6 7 7 8 8 9 9 10 10 11 11
REMARK H PARENT
ROOT
ATOM      1  C   UNL     1       1.131   2.915   0.933  1.00  0.00     0.008 C 
ATOM      2  C   UNL     1       0.355   1.603   0.762  1.00  0.00    -0.012 C 
ATOM      3  C   UNL     1       0.770   0.592   1.838  1.00  0.00     0.004 C 
ATOM      4  C   UNL     1      -0.079  -0.674   1.736  1.00  0.00     0.007 C 
ATOM      5  C   UNL     1      -0.071  -1.310   0.331  1.00  0.00     0.022 C 
ATOM      6  C   UNL     1       1.165  -2.158   0.014  1.00  0.00     0.053 C 
ATOM      7  C   UNL     1       1.254  -2.000  -1.463  1.00  0.00     0.078 C 
ATOM      8  N   UNL     1       0.533  -1.045  -1.918  1.00  0.00    -0.291 NA
ATOM      9  C   UNL     1      -0.152  -0.328  -0.871  1.00  0.00     0.061 C 
ATOM     10  C   UNL     1      -1.609  -0.064  -1.290  1.00  0.00     0.037 C 
ATOM     11  C   UNL     1       0.613   1.003  -0.628  1.00  0.00     0.034 C 
ENDROOT
TORSDOF 0


