MODEL 1
REMARK VINA RESULT:     -10.1      0.000      0.000
REMARK SMILES C=Cc1ccc(-c2cc(F)cc(F)c2O)[nH+]c1
REMARK SMILES IDX 3 1 4 2 5 3 6 4 16 5 17 6 2 8 1 9 7 10 8 11 14 12 9 13 12 14
REMARK SMILES IDX 11 15 10 16 13 17 15 18
REMARK H PARENT 16 7 15 19
ROOT
ATOM      1  C   UNL     1      46.716 130.856  14.835  1.00  0.00     0.038 A 
ATOM      2  C   UNL     1      46.600 129.797  15.745  1.00  0.00     0.021 A 
ATOM      3  C   UNL     1      45.910 129.969  16.944  1.00  0.00     0.081 A 
ATOM      4  C   UNL     1      45.332 131.211  17.239  1.00  0.00     0.214 A 
ATOM      5  N   UNL     1      45.470 132.241  16.355  1.00  0.00    -0.210 N 
ATOM      6  C   UNL     1      46.141 132.094  15.179  1.00  0.00     0.314 A 
ATOM      7  H   UNL     1      45.078 133.182  16.584  1.00  0.00     0.453 HD
ENDROOT
BRANCH   1   8
ATOM      8  C   UNL     1      47.466 130.637  13.574  1.00  0.00     0.006 C 
ATOM      9  C   UNL     1      48.328 129.639  13.376  1.00  0.00     0.009 C 
ENDBRANCH   1   8
BRANCH   4  10
ATOM     10  C   UNL     1      44.594 131.409  18.511  1.00  0.00     0.094 A 
ATOM     11  C   UNL     1      45.211 131.086  19.733  1.00  0.00     0.058 A 
ATOM     12  C   UNL     1      43.277 131.915  18.516  1.00  0.00     0.165 A 
ATOM     13  C   UNL     1      44.535 131.277  20.941  1.00  0.00     0.127 A 
ATOM     14  C   UNL     1      42.608 132.109  19.736  1.00  0.00     0.168 A 
ATOM     15  C   UNL     1      43.237 131.791  20.942  1.00  0.00     0.082 A 
ATOM     16  F   UNL     1      45.142 130.969  22.113  1.00  0.00    -0.207 F 
ATOM     17  F   UNL     1      41.343 132.598  19.756  1.00  0.00    -0.203 F 
BRANCH  12  18
ATOM     18  O   UNL     1      42.634 132.204  17.311  1.00  0.00    -0.504 OA
ATOM     19  H   UNL     1      42.744 131.621  16.490  1.00  0.00     0.293 HD
ENDBRANCH  12  18
ENDBRANCH   4  10
TORSDOF 3
ENDMDL
MODEL 2
REMARK VINA RESULT:     -10.0      1.419      2.652
REMARK SMILES C=Cc1ccc(-c2cc(F)cc(F)c2O)[nH+]c1
REMARK SMILES IDX 3 1 4 2 5 3 6 4 16 5 17 6 2 8 1 9 7 10 8 11 14 12 9 13 12 14
REMARK SMILES IDX 11 15 10 16 13 17 15 18
REMARK H PARENT 16 7 15 19
ROOT
ATOM      1  C   UNL     1      46.743 130.529  15.048  1.00  0.00     0.038 A 
ATOM      2  C   UNL     1      46.097 131.763  15.199  1.00  0.00     0.021 A 
ATOM      3  C   UNL     1      45.385 132.049  16.363  1.00  0.00     0.081 A 
ATOM      4  C   UNL     1      45.314 131.093  17.385  1.00  0.00     0.214 A 
ATOM      5  N   UNL     1      45.930 129.886  17.217  1.00  0.00    -0.210 N 
ATOM      6  C   UNL     1      46.630 129.588  16.088  1.00  0.00     0.314 A 
ATOM      7  H   UNL     1      45.850 129.152  17.956  1.00  0.00     0.453 HD
ENDROOT
BRANCH   1   8
ATOM      8  C   UNL     1      47.484 130.259  13.791  1.00  0.00     0.006 C 
ATOM      9  C   UNL     1      47.711 131.168  12.843  1.00  0.00     0.009 C 
ENDBRANCH   1   8
BRANCH   4  10
ATOM     10  C   UNL     1      44.560 131.383  18.629  1.00  0.00     0.094 A 
ATOM     11  C   UNL     1      43.286 131.974  18.552  1.00  0.00     0.058 A 
ATOM     12  C   UNL     1      45.103 131.078  19.896  1.00  0.00     0.165 A 
ATOM     13  C   UNL     1      42.557 132.243  19.713  1.00  0.00     0.127 A 
ATOM     14  C   UNL     1      44.360 131.347  21.057  1.00  0.00     0.168 A 
ATOM     15  C   UNL     1      43.093 131.927  20.963  1.00  0.00     0.082 A 
ATOM     16  F   UNL     1      41.328 132.805  19.626  1.00  0.00    -0.207 F 
ATOM     17  F   UNL     1      44.868 131.057  22.281  1.00  0.00    -0.203 F 
BRANCH  12  18
ATOM     18  O   UNL     1      46.383 130.528  19.994  1.00  0.00    -0.504 OA
ATOM     19  H   UNL     1      46.992 130.436  19.190  1.00  0.00     0.293 HD
ENDBRANCH  12  18
ENDBRANCH   4  10
TORSDOF 3
ENDMDL
MODEL 3
REMARK VINA RESULT:      -9.6      1.165      2.324
REMARK SMILES C=Cc1ccc(-c2cc(F)cc(F)c2O)[nH+]c1
REMARK SMILES IDX 3 1 4 2 5 3 6 4 16 5 17 6 2 8 1 9 7 10 8 11 14 12 9 13 12 14
REMARK SMILES IDX 11 15 10 16 13 17 15 18
REMARK H PARENT 16 7 15 19
ROOT
ATOM      1  C   UNL     1      46.643 130.817  14.762  1.00  0.00     0.038 A 
ATOM      2  C   UNL     1      46.379 129.734  15.611  1.00  0.00     0.021 A 
ATOM      3  C   UNL     1      45.687 129.926  16.805  1.00  0.00     0.081 A 
ATOM      4  C   UNL     1      45.257 131.212  17.158  1.00  0.00     0.214 A 
ATOM      5  N   UNL     1      45.538 132.262  16.333  1.00  0.00    -0.210 N 
ATOM      6  C   UNL     1      46.214 132.096  15.162  1.00  0.00     0.314 A 
ATOM      7  H   UNL     1      45.257 133.231  16.606  1.00  0.00     0.453 HD
ENDROOT
BRANCH   1   8
ATOM      8  C   UNL     1      47.390 130.573  13.503  1.00  0.00     0.006 C 
ATOM      9  C   UNL     1      48.327 129.636  13.355  1.00  0.00     0.009 C 
ENDBRANCH   1   8
BRANCH   4  10
ATOM     10  C   UNL     1      44.518 131.432  18.426  1.00  0.00     0.094 A 
ATOM     11  C   UNL     1      43.223 131.979  18.395  1.00  0.00     0.058 A 
ATOM     12  C   UNL     1      45.098 131.102  19.670  1.00  0.00     0.165 A 
ATOM     13  C   UNL     1      42.509 132.181  19.578  1.00  0.00     0.127 A 
ATOM     14  C   UNL     1      44.370 131.303  20.855  1.00  0.00     0.168 A 
ATOM     15  C   UNL     1      43.081 131.841  20.806  1.00  0.00     0.082 A 
ATOM     16  F   UNL     1      41.259 132.702  19.535  1.00  0.00    -0.207 F 
ATOM     17  F   UNL     1      44.912 130.988  22.057  1.00  0.00    -0.203 F 
BRANCH  12  18
ATOM     18  O   UNL     1      46.397 130.595  19.724  1.00  0.00    -0.504 OA
ATOM     19  H   UNL     1      47.210 131.200  19.743  1.00  0.00     0.293 HD
ENDBRANCH  12  18
ENDBRANCH   4  10
TORSDOF 3
ENDMDL
MODEL 4
REMARK VINA RESULT:      -9.4      0.772      1.253
REMARK SMILES C=Cc1ccc(-c2cc(F)cc(F)c2O)[nH+]c1
REMARK SMILES IDX 3 1 4 2 5 3 6 4 16 5 17 6 2 8 1 9 7 10 8 11 14 12 9 13 12 14
REMARK SMILES IDX 11 15 10 16 13 17 15 18
REMARK H PARENT 16 7 15 19
ROOT
ATOM      1  C   UNL     1      46.682 130.487  14.992  1.00  0.00     0.038 A 
ATOM      2  C   UNL     1      46.108 131.752  15.171  1.00  0.00     0.021 A 
ATOM      3  C   UNL     1      45.420 132.055  16.345  1.00  0.00     0.081 A 
ATOM      4  C   UNL     1      45.299 131.084  17.348  1.00  0.00     0.214 A 
ATOM      5  N   UNL     1      45.844 129.848  17.153  1.00  0.00    -0.210 N 
ATOM      6  C   UNL     1      46.521 129.532  16.013  1.00  0.00     0.314 A 
ATOM      7  H   UNL     1      45.726 129.104  17.877  1.00  0.00     0.453 HD
ENDROOT
BRANCH   1   8
ATOM      8  C   UNL     1      47.400 130.201  13.725  1.00  0.00     0.006 C 
ATOM      9  C   UNL     1      47.783 131.133  12.851  1.00  0.00     0.009 C 
ENDBRANCH   1   8
BRANCH   4  10
ATOM     10  C   UNL     1      44.569 131.391  18.603  1.00  0.00     0.094 A 
ATOM     11  C   UNL     1      45.186 131.156  19.845  1.00  0.00     0.058 A 
ATOM     12  C   UNL     1      43.260 131.916  18.571  1.00  0.00     0.165 A 
ATOM     13  C   UNL     1      44.517 131.451  21.035  1.00  0.00     0.127 A 
ATOM     14  C   UNL     1      42.598 132.215  19.774  1.00  0.00     0.168 A 
ATOM     15  C   UNL     1      43.227 131.983  20.999  1.00  0.00     0.082 A 
ATOM     16  F   UNL     1      45.124 131.227  22.226  1.00  0.00    -0.207 F 
ATOM     17  F   UNL     1      41.340 132.723  19.759  1.00  0.00    -0.203 F 
BRANCH  12  18
ATOM     18  O   UNL     1      42.617 132.119  17.348  1.00  0.00    -0.504 OA
ATOM     19  H   UNL     1      42.153 131.367  16.854  1.00  0.00     0.293 HD
ENDBRANCH  12  18
ENDBRANCH   4  10
TORSDOF 3
ENDMDL
MODEL 5
REMARK VINA RESULT:      -9.3      0.990      1.089
REMARK SMILES C=Cc1ccc(-c2cc(F)cc(F)c2O)[nH+]c1
REMARK SMILES IDX 3 1 4 2 5 3 6 4 16 5 17 6 2 8 1 9 7 10 8 11 14 12 9 13 12 14
REMARK SMILES IDX 11 15 10 16 13 17 15 18
REMARK H PARENT 16 7 15 19
ROOT
ATOM      1  C   UNL     1      45.609 130.965  15.094  1.00  0.00     0.038 A 
ATOM      2  C   UNL     1      46.249 130.429  16.218  1.00  0.00     0.021 A 
ATOM      3  C   UNL     1      45.723 130.631  17.493  1.00  0.00     0.081 A 
ATOM      4  C   UNL     1      44.547 131.380  17.647  1.00  0.00     0.214 A 
ATOM      5  N   UNL     1      43.945 131.914  16.546  1.00  0.00    -0.210 N 
ATOM      6  C   UNL     1      44.443 131.728  15.292  1.00  0.00     0.314 A 
ATOM      7  H   UNL     1      43.092 132.507  16.653  1.00  0.00     0.453 HD
ENDROOT
BRANCH   1   8
ATOM      8  C   UNL     1      46.204 130.734  13.754  1.00  0.00     0.006 C 
ATOM      9  C   UNL     1      47.419 131.147  13.390  1.00  0.00     0.009 C 
ENDBRANCH   1   8
BRANCH   4  10
ATOM     10  C   UNL     1      43.976 131.604  18.998  1.00  0.00     0.094 A 
ATOM     11  C   UNL     1      44.657 131.127  20.132  1.00  0.00     0.058 A 
ATOM     12  C   UNL     1      42.753 132.289  19.164  1.00  0.00     0.165 A 
ATOM     13  C   UNL     1      44.139 131.340  21.412  1.00  0.00     0.127 A 
ATOM     14  C   UNL     1      42.243 132.503  20.456  1.00  0.00     0.168 A 
ATOM     15  C   UNL     1      42.936 132.029  21.573  1.00  0.00     0.082 A 
ATOM     16  F   UNL     1      44.807 130.882  22.498  1.00  0.00    -0.207 F 
ATOM     17  F   UNL     1      41.070 133.161  20.632  1.00  0.00    -0.203 F 
BRANCH  12  18
ATOM     18  O   UNL     1      42.043 132.734  18.048  1.00  0.00    -0.504 OA
ATOM     19  H   UNL     1      41.522 133.602  18.054  1.00  0.00     0.293 HD
ENDBRANCH  12  18
ENDBRANCH   4  10
TORSDOF 3
ENDMDL
MODEL 6
REMARK VINA RESULT:      -8.7      3.156      6.341
REMARK SMILES C=Cc1ccc(-c2cc(F)cc(F)c2O)[nH+]c1
REMARK SMILES IDX 3 1 4 2 5 3 6 4 16 5 17 6 2 8 1 9 7 10 8 11 14 12 9 13 12 14
REMARK SMILES IDX 11 15 10 16 13 17 15 18
REMARK H PARENT 16 7 15 19
ROOT
ATOM      1  C   UNL     1      44.721 131.202  20.989  1.00  0.00     0.038 A 
ATOM      2  C   UNL     1      43.759 131.835  20.192  1.00  0.00     0.021 A 
ATOM      3  C   UNL     1      43.839 131.767  18.802  1.00  0.00     0.081 A 
ATOM      4  C   UNL     1      44.891 131.063  18.201  1.00  0.00     0.214 A 
ATOM      5  N   UNL     1      45.834 130.468  18.988  1.00  0.00    -0.210 N 
ATOM      6  C   UNL     1      45.775 130.523  20.348  1.00  0.00     0.314 A 
ATOM      7  H   UNL     1      46.644 129.975  18.550  1.00  0.00     0.453 HD
ENDROOT
BRANCH   1   8
ATOM      8  C   UNL     1      44.607 131.303  22.465  1.00  0.00     0.006 C 
ATOM      9  C   UNL     1      43.456 131.462  23.120  1.00  0.00     0.009 C 
ENDBRANCH   1   8
BRANCH   4  10
ATOM     10  C   UNL     1      44.989 130.982  16.723  1.00  0.00     0.094 A 
ATOM     11  C   UNL     1      43.966 131.527  15.925  1.00  0.00     0.058 A 
ATOM     12  C   UNL     1      46.094 130.364  16.101  1.00  0.00     0.165 A 
ATOM     13  C   UNL     1      44.048 131.470  14.532  1.00  0.00     0.127 A 
ATOM     14  C   UNL     1      46.170 130.317  14.699  1.00  0.00     0.168 A 
ATOM     15  C   UNL     1      45.149 130.869  13.920  1.00  0.00     0.082 A 
ATOM     16  F   UNL     1      43.061 132.005  13.773  1.00  0.00    -0.207 F 
ATOM     17  F   UNL     1      47.227 129.728  14.087  1.00  0.00    -0.203 F 
BRANCH  12  18
ATOM     18  O   UNL     1      47.098 129.783  16.876  1.00  0.00    -0.504 OA
ATOM     19  H   UNL     1      46.933 129.473  17.827  1.00  0.00     0.293 HD
ENDBRANCH  12  18
ENDBRANCH   4  10
TORSDOF 3
ENDMDL
MODEL 7
REMARK VINA RESULT:      -8.4      2.760      5.936
REMARK SMILES C=Cc1ccc(-c2cc(F)cc(F)c2O)[nH+]c1
REMARK SMILES IDX 3 1 4 2 5 3 6 4 16 5 17 6 2 8 1 9 7 10 8 11 14 12 9 13 12 14
REMARK SMILES IDX 11 15 10 16 13 17 15 18
REMARK H PARENT 16 7 15 19
ROOT
ATOM      1  C   UNL     1      44.209 131.406  21.495  1.00  0.00     0.038 A 
ATOM      2  C   UNL     1      45.403 130.826  21.048  1.00  0.00     0.021 A 
ATOM      3  C   UNL     1      45.659 130.703  19.683  1.00  0.00     0.081 A 
ATOM      4  C   UNL     1      44.712 131.159  18.756  1.00  0.00     0.214 A 
ATOM      5  N   UNL     1      43.544 131.703  19.205  1.00  0.00    -0.210 N 
ATOM      6  C   UNL     1      43.274 131.832  20.533  1.00  0.00     0.314 A 
ATOM      7  H   UNL     1      42.814 132.009  18.522  1.00  0.00     0.453 HD
ENDROOT
BRANCH   1   8
ATOM      8  C   UNL     1      43.970 131.512  22.956  1.00  0.00     0.006 C 
ATOM      9  C   UNL     1      42.765 131.638  23.513  1.00  0.00     0.009 C 
ENDBRANCH   1   8
BRANCH   4  10
ATOM     10  C   UNL     1      44.971 131.035  17.300  1.00  0.00     0.094 A 
ATOM     11  C   UNL     1      46.163 130.438  16.852  1.00  0.00     0.058 A 
ATOM     12  C   UNL     1      44.038 131.509  16.354  1.00  0.00     0.165 A 
ATOM     13  C   UNL     1      46.417 130.301  15.485  1.00  0.00     0.127 A 
ATOM     14  C   UNL     1      44.300 131.362  14.981  1.00  0.00     0.168 A 
ATOM     15  C   UNL     1      45.486 130.760  14.551  1.00  0.00     0.082 A 
ATOM     16  F   UNL     1      47.566 129.719  15.064  1.00  0.00    -0.207 F 
ATOM     17  F   UNL     1      43.411 131.810  14.059  1.00  0.00    -0.203 F 
BRANCH  12  18
ATOM     18  O   UNL     1      42.868 132.139  16.780  1.00  0.00    -0.504 OA
ATOM     19  H   UNL     1      42.617 132.202  17.759  1.00  0.00     0.293 HD
ENDBRANCH  12  18
ENDBRANCH   4  10
TORSDOF 3
ENDMDL
MODEL 8
REMARK VINA RESULT:      -8.3      1.457      2.489
REMARK SMILES C=Cc1ccc(-c2cc(F)cc(F)c2O)[nH+]c1
REMARK SMILES IDX 3 1 4 2 5 3 6 4 16 5 17 6 2 8 1 9 7 10 8 11 14 12 9 13 12 14
REMARK SMILES IDX 11 15 10 16 13 17 15 18
REMARK H PARENT 16 7 15 19
ROOT
ATOM      1  C   UNL     1      45.748 130.860  15.022  1.00  0.00     0.038 A 
ATOM      2  C   UNL     1      46.407 130.373  16.158  1.00  0.00     0.021 A 
ATOM      3  C   UNL     1      45.874 130.584  17.428  1.00  0.00     0.081 A 
ATOM      4  C   UNL     1      44.672 131.292  17.566  1.00  0.00     0.214 A 
ATOM      5  N   UNL     1      44.051 131.780  16.454  1.00  0.00    -0.210 N 
ATOM      6  C   UNL     1      44.555 131.585  15.204  1.00  0.00     0.314 A 
ATOM      7  H   UNL     1      43.176 132.344  16.549  1.00  0.00     0.453 HD
ENDROOT
BRANCH   1   8
ATOM      8  C   UNL     1      46.352 130.621  13.687  1.00  0.00     0.006 C 
ATOM      9  C   UNL     1      47.376 131.316  13.191  1.00  0.00     0.009 C 
ENDBRANCH   1   8
BRANCH   4  10
ATOM     10  C   UNL     1      44.092 131.525  18.912  1.00  0.00     0.094 A 
ATOM     11  C   UNL     1      42.905 132.267  19.042  1.00  0.00     0.058 A 
ATOM     12  C   UNL     1      44.716 131.014  20.070  1.00  0.00     0.165 A 
ATOM     13  C   UNL     1      42.339 132.485  20.300  1.00  0.00     0.127 A 
ATOM     14  C   UNL     1      44.136 131.234  21.331  1.00  0.00     0.168 A 
ATOM     15  C   UNL     1      42.952 131.967  21.442  1.00  0.00     0.082 A 
ATOM     16  F   UNL     1      41.190 133.196  20.412  1.00  0.00    -0.207 F 
ATOM     17  F   UNL     1      44.723 130.747  22.452  1.00  0.00    -0.203 F 
BRANCH  12  18
ATOM     18  O   UNL     1      45.917 130.309  19.965  1.00  0.00    -0.504 OA
ATOM     19  H   UNL     1      46.773 130.750  19.648  1.00  0.00     0.293 HD
ENDBRANCH  12  18
ENDBRANCH   4  10
TORSDOF 3
ENDMDL
MODEL 9
REMARK VINA RESULT:      -8.2      1.192      1.567
REMARK SMILES C=Cc1ccc(-c2cc(F)cc(F)c2O)[nH+]c1
REMARK SMILES IDX 3 1 4 2 5 3 6 4 16 5 17 6 2 8 1 9 7 10 8 11 14 12 9 13 12 14
REMARK SMILES IDX 11 15 10 16 13 17 15 18
REMARK H PARENT 16 7 15 19
ROOT
ATOM      1  C   UNL     1      45.439 131.000  15.195  1.00  0.00     0.038 A 
ATOM      2  C   UNL     1      44.142 131.505  15.348  1.00  0.00     0.021 A 
ATOM      3  C   UNL     1      43.616 131.723  16.620  1.00  0.00     0.081 A 
ATOM      4  C   UNL     1      44.390 131.430  17.751  1.00  0.00     0.214 A 
ATOM      5  N   UNL     1      45.645 130.918  17.588  1.00  0.00    -0.210 N 
ATOM      6  C   UNL     1      46.177 130.698  16.354  1.00  0.00     0.314 A 
ATOM      7  H   UNL     1      46.215 130.658  18.424  1.00  0.00     0.453 HD
ENDROOT
BRANCH   1   8
ATOM      8  C   UNL     1      45.962 130.774  13.824  1.00  0.00     0.006 C 
ATOM      9  C   UNL     1      47.235 130.945  13.468  1.00  0.00     0.009 C 
ENDBRANCH   1   8
BRANCH   4  10
ATOM     10  C   UNL     1      43.843 131.656  19.111  1.00  0.00     0.094 A 
ATOM     11  C   UNL     1      44.528 131.154  20.232  1.00  0.00     0.058 A 
ATOM     12  C   UNL     1      42.639 132.368  19.300  1.00  0.00     0.165 A 
ATOM     13  C   UNL     1      44.034 131.369  21.520  1.00  0.00     0.127 A 
ATOM     14  C   UNL     1      42.153 132.584  20.601  1.00  0.00     0.168 A 
ATOM     15  C   UNL     1      42.850 132.085  21.704  1.00  0.00     0.082 A 
ATOM     16  F   UNL     1      44.706 130.887  22.593  1.00  0.00    -0.207 F 
ATOM     17  F   UNL     1      40.999 133.268  20.798  1.00  0.00    -0.203 F 
BRANCH  12  18
ATOM     18  O   UNL     1      41.924 132.839  18.198  1.00  0.00    -0.504 OA
ATOM     19  H   UNL     1      41.323 133.653  18.254  1.00  0.00     0.293 HD
ENDBRANCH  12  18
ENDBRANCH   4  10
TORSDOF 3
ENDMDL


