REMARK SMILES Cc1ccoc1NC(=O)N1CCC[C@H](c2ccc3ccc(C)c(F)c3[nH+]2)[C@H]1F
REMARK SMILES IDX 10 1 11 2 12 3 13 4 14 5 27 6 28 7 8 8 7 9 9 11 6 12 2 13
REMARK SMILES IDX 3 14 4 15 5 16 1 17 15 18 16 19 26 20 17 21 25 22 18 23
REMARK SMILES IDX 23 24 19 25 21 26 20 27 24 29 22 30
REMARK H PARENT 7 10 26 28
ROOT
ATOM      1  N   UNL     1      -2.632   1.085  -0.099  1.00  0.00    -0.293 N 
ATOM      2  C   UNL     1      -3.174   2.108  -1.006  1.00  0.00     0.124 C 
ATOM      3  C   UNL     1      -2.707   3.520  -0.624  1.00  0.00     0.023 C 
ATOM      4  C   UNL     1      -1.204   3.530  -0.313  1.00  0.00     0.021 C 
ATOM      5  C   UNL     1      -0.803   2.504   0.787  1.00  0.00     0.140 C 
ATOM      6  C   UNL     1      -1.929   1.497   1.125  1.00  0.00     0.280 C 
ATOM      7  F   UNL     1      -2.838   2.087   1.988  1.00  0.00    -0.223 F 
ENDROOT
BRANCH   1   8
ATOM      8  C   UNL     1      -2.831  -0.306  -0.422  1.00  0.00     0.326 C 
ATOM      9  N   UNL     1      -1.828  -1.286  -0.104  1.00  0.00    -0.278 N 
ATOM     10  H   UNL     1      -0.909  -0.969   0.270  1.00  0.00     0.175 HD
ATOM     11  O   UNL     1      -3.874  -0.651  -1.042  1.00  0.00    -0.248 OA
BRANCH   9  12
ATOM     12  C   UNL     1      -1.983  -2.685  -0.380  1.00  0.00     0.203 A 
ATOM     13  C   UNL     1      -1.001  -3.645  -0.230  1.00  0.00     0.013 A 
ATOM     14  C   UNL     1      -1.576  -4.835  -0.626  1.00  0.00     0.047 A 
ATOM     15  C   UNL     1      -2.877  -4.526  -0.978  1.00  0.00     0.198 A 
ATOM     16  O   UNL     1      -3.090  -3.237  -0.821  1.00  0.00    -0.448 OA
ATOM     17  C   UNL     1       0.418  -3.438   0.193  1.00  0.00     0.050 C 
ENDBRANCH   9  12
ENDBRANCH   1   8
BRANCH   5  18
ATOM     18  C   UNL     1       0.468   1.759   0.414  1.00  0.00     0.188 A 
ATOM     19  C   UNL     1       1.562   1.754   1.294  1.00  0.00     0.075 A 
ATOM     20  N   UNL     1       0.529   1.023  -0.738  1.00  0.00    -0.205 N 
ATOM     21  C   UNL     1       2.693   0.999   0.991  1.00  0.00     0.021 A 
ATOM     22  C   UNL     1       1.618   0.262  -1.053  1.00  0.00     0.247 A 
ATOM     23  C   UNL     1       2.730   0.237  -0.181  1.00  0.00     0.049 A 
ATOM     24  C   UNL     1       1.639  -0.516  -2.225  1.00  0.00     0.197 A 
ATOM     25  C   UNL     1       3.843  -0.556  -0.488  1.00  0.00     0.015 A 
ATOM     26  C   UNL     1       2.760  -1.306  -2.531  1.00  0.00    -0.008 A 
ATOM     27  C   UNL     1       3.855  -1.327  -1.653  1.00  0.00     0.007 A 
ATOM     28  H   UNL     1      -0.293   1.025  -1.383  1.00  0.00     0.454 HD
ATOM     29  F   UNL     1       0.566  -0.519  -3.059  1.00  0.00    -0.199 F 
ATOM     30  C   UNL     1       2.761  -2.168  -3.760  1.00  0.00     0.048 C 
ENDBRANCH   5  18
TORSDOF 3


