REMARK SMILES Cc1ccc(Nc2ccc3cc[nH]c3c2OC(=O)Nc2ccc(C#N)c(C#N)c2)cc1
REMARK SMILES IDX 16 1 15 2 7 3 8 4 9 5 14 6 10 7 13 8 11 9 12 10 6 12 5 14
REMARK SMILES IDX 2 15 3 16 31 17 4 18 30 19 1 20 17 21 19 22 18 23 20 25
REMARK SMILES IDX 21 26 29 27 22 28 26 29 23 30 27 31 28 32 24 33 25 34
REMARK H PARENT 13 11 6 13 19 24
ROOT
ATOM      1  O   UNL     1      -0.626   2.091  -0.221  1.00  0.00    -0.406 OA
ENDROOT
BRANCH   1   2
ATOM      2  C   UNL     1       0.349   2.517   0.690  1.00  0.00     0.180 A 
ATOM      3  C   UNL     1       1.432   1.693   1.115  1.00  0.00     0.084 A 
ATOM      4  C   UNL     1       2.415   2.226   1.985  1.00  0.00     0.031 A 
ATOM      5  C   UNL     1       2.307   3.535   2.483  1.00  0.00     0.013 A 
ATOM      6  C   UNL     1       0.262   3.802   1.230  1.00  0.00     0.091 A 
ATOM      7  C   UNL     1       1.208   4.291   2.090  1.00  0.00     0.003 A 
ATOM      8  N   UNL     1      -0.682   4.727   0.988  1.00  0.00    -0.358 N 
ATOM      9  C   UNL     1       0.848   5.580   2.413  1.00  0.00     0.028 A 
ATOM     10  C   UNL     1      -0.330   5.815   1.711  1.00  0.00     0.083 A 
ATOM     11  H   UNL     1      -1.516   4.634   0.367  1.00  0.00     0.166 HD
BRANCH   3  12
ATOM     12  N   UNL     1       1.561   0.326   0.690  1.00  0.00    -0.352 N 
ATOM     13  H   UNL     1       2.518  -0.008   0.433  1.00  0.00     0.167 HD
BRANCH  12  14
ATOM     14  C   UNL     1       0.493  -0.640   0.707  1.00  0.00     0.038 A 
ATOM     15  C   UNL     1      -1.592  -2.532   0.648  1.00  0.00    -0.051 A 
ATOM     16  C   UNL     1      -0.418  -2.749  -0.088  1.00  0.00     0.005 A 
ATOM     17  C   UNL     1      -1.698  -1.389   1.453  1.00  0.00     0.005 A 
ATOM     18  C   UNL     1       0.618  -1.812  -0.053  1.00  0.00     0.026 A 
ATOM     19  C   UNL     1      -0.664  -0.450   1.484  1.00  0.00     0.026 A 
ATOM     20  C   UNL     1      -2.691  -3.553   0.635  1.00  0.00     0.044 C 
ENDBRANCH  12  14
ENDBRANCH   3  12
ENDBRANCH   1   2
BRANCH   1  21
ATOM     21  C   UNL     1      -0.338   1.480  -1.445  1.00  0.00     0.417 C 
ATOM     22  N   UNL     1      -1.392   0.812  -2.151  1.00  0.00    -0.291 N 
ATOM     23  O   UNL     1       0.818   1.566  -1.942  1.00  0.00    -0.224 OA
ATOM     24  H   UNL     1      -2.369   1.012  -1.839  1.00  0.00     0.173 HD
BRANCH  22  25
ATOM     25  C   UNL     1      -1.206  -0.074  -3.270  1.00  0.00     0.045 A 
ATOM     26  C   UNL     1      -2.251  -0.240  -4.189  1.00  0.00     0.028 A 
ATOM     27  C   UNL     1      -0.031  -0.834  -3.428  1.00  0.00     0.047 A 
ATOM     28  C   UNL     1      -2.119  -1.121  -5.265  1.00  0.00     0.023 A 
ATOM     29  C   UNL     1       0.105  -1.724  -4.502  1.00  0.00     0.072 A 
ATOM     30  C   UNL     1      -0.945  -1.865  -5.431  1.00  0.00     0.070 A 
BRANCH  29  31
ATOM     31  C   UNL     1       1.323  -2.490  -4.624  1.00  0.00     0.101 C 
ATOM     32  N   UNL     1       2.299  -3.104  -4.721  1.00  0.00    -0.192 NA
ENDBRANCH  29  31
BRANCH  30  33
ATOM     33  C   UNL     1      -0.842  -2.771  -6.550  1.00  0.00     0.101 C 
ATOM     34  N   UNL     1      -0.759  -3.497  -7.447  1.00  0.00    -0.192 NA
ENDBRANCH  30  33
ENDBRANCH  22  25
ENDBRANCH   1  21
TORSDOF 7


