MODEL 1
REMARK VINA RESULT:      -5.9      0.000      0.000
REMARK SMILES CCCOC(=O)N1C[C@H](c2ccc3cc[nH]c3c2)[C@H](C)C[C@H]1F
REMARK SMILES IDX 4 1 3 2 2 3 1 4 5 5 6 6 7 7 8 8 22 9 9 10 21 11 19 12 23 13
REMARK SMILES IDX 20 14 10 15 11 16 18 17 12 18 17 19 13 20 16 21 14 22 15 23
REMARK H PARENT 16 24
ROOT
ATOM      1  O   UNL     1      44.947 131.760  17.302  1.00  0.00    -0.449 OA
ENDROOT
BRANCH   1   2
ATOM      2  C   UNL     1      44.248 131.216  16.184  1.00  0.00     0.234 C 
BRANCH   2   3
ATOM      3  C   UNL     1      44.886 131.675  14.869  1.00  0.00     0.038 C 
ATOM      4  C   UNL     1      46.403 131.493  14.884  1.00  0.00     0.007 C 
ENDBRANCH   2   3
ENDBRANCH   1   2
BRANCH   1   5
ATOM      5  C   UNL     1      45.080 131.092  18.525  1.00  0.00     0.412 C 
ATOM      6  O   UNL     1      45.748 130.022  18.586  1.00  0.00    -0.224 OA
BRANCH   5   7
ATOM      7  N   UNL     1      44.475 131.639  19.715  1.00  0.00    -0.277 N 
ATOM      8  C   UNL     1      45.266 131.817  20.941  1.00  0.00     0.134 C 
ATOM      9  C   UNL     1      43.089 132.128  19.710  1.00  0.00     0.268 C 
ATOM     10  C   UNL     1      44.526 131.250  22.170  1.00  0.00     0.042 C 
ATOM     11  C   UNL     1      42.310 131.537  20.891  1.00  0.00     0.065 C 
ATOM     12  C   UNL     1      43.056 131.753  22.222  1.00  0.00    -0.000 C 
ATOM     13  F   UNL     1      43.088 133.511  19.790  1.00  0.00    -0.223 F 
ATOM     14  C   UNL     1      42.270 131.145  23.392  1.00  0.00     0.008 C 
BRANCH  10  15
ATOM     15  C   UNL     1      44.676 129.735  22.294  1.00  0.00    -0.041 A 
ATOM     16  C   UNL     1      45.613 129.062  21.461  1.00  0.00     0.005 A 
ATOM     17  C   UNL     1      43.918 128.976  23.223  1.00  0.00     0.030 A 
ATOM     18  C   UNL     1      45.779 127.668  21.532  1.00  0.00     0.010 A 
ATOM     19  C   UNL     1      44.107 127.597  23.264  1.00  0.00     0.046 A 
ATOM     20  C   UNL     1      45.002 126.967  22.447  1.00  0.00    -0.001 A 
ATOM     21  N   UNL     1      43.473 126.712  24.050  1.00  0.00    -0.361 N 
ATOM     22  C   UNL     1      44.939 125.619  22.725  1.00  0.00     0.028 A 
ATOM     23  C   UNL     1      43.979 125.500  23.724  1.00  0.00     0.083 A 
ATOM     24  H   UNL     1      42.737 126.913  24.762  1.00  0.00     0.166 HD
ENDBRANCH  10  15
ENDBRANCH   5   7
ENDBRANCH   1   5
TORSDOF 5
ENDMDL
MODEL 2
REMARK VINA RESULT:      -5.9      1.815      2.657
REMARK SMILES CCCOC(=O)N1C[C@H](c2ccc3cc[nH]c3c2)[C@H](C)C[C@H]1F
REMARK SMILES IDX 4 1 3 2 2 3 1 4 5 5 6 6 7 7 8 8 22 9 9 10 21 11 19 12 23 13
REMARK SMILES IDX 20 14 10 15 11 16 18 17 12 18 17 19 13 20 16 21 14 22 15 23
REMARK H PARENT 16 24
ROOT
ATOM      1  O   UNL     1      45.932 130.158  15.574  1.00  0.00    -0.449 OA
ENDROOT
BRANCH   1   2
ATOM      2  C   UNL     1      46.547 131.250  14.892  1.00  0.00     0.234 C 
BRANCH   2   3
ATOM      3  C   UNL     1      46.975 130.835  13.480  1.00  0.00     0.038 C 
ATOM      4  C   UNL     1      48.126 129.830  13.511  1.00  0.00     0.007 C 
ENDBRANCH   2   3
ENDBRANCH   1   2
BRANCH   1   5
ATOM      5  C   UNL     1      45.599 130.191  16.934  1.00  0.00     0.412 C 
ATOM      6  O   UNL     1      46.073 129.321  17.717  1.00  0.00    -0.224 OA
BRANCH   5   7
ATOM      7  N   UNL     1      44.735 131.230  17.440  1.00  0.00    -0.277 N 
ATOM      8  C   UNL     1      45.235 132.203  18.421  1.00  0.00     0.134 C 
ATOM      9  C   UNL     1      43.373 131.411  16.917  1.00  0.00     0.268 C 
ATOM     10  C   UNL     1      44.256 132.355  19.604  1.00  0.00     0.042 C 
ATOM     11  C   UNL     1      42.368 131.509  18.072  1.00  0.00     0.065 C 
ATOM     12  C   UNL     1      42.799 132.567  19.105  1.00  0.00    -0.000 C 
ATOM     13  F   UNL     1      43.323 132.563  16.150  1.00  0.00    -0.223 F 
ATOM     14  C   UNL     1      41.791 132.645  20.260  1.00  0.00     0.008 C 
BRANCH  10  15
ATOM     15  C   UNL     1      44.410 131.238  20.635  1.00  0.00    -0.041 A 
ATOM     16  C   UNL     1      45.456 130.287  20.473  1.00  0.00     0.005 A 
ATOM     17  C   UNL     1      43.550 131.124  21.757  1.00  0.00     0.030 A 
ATOM     18  C   UNL     1      45.632 129.236  21.390  1.00  0.00     0.010 A 
ATOM     19  C   UNL     1      43.751 130.069  22.644  1.00  0.00     0.046 A 
ATOM     20  C   UNL     1      44.753 129.158  22.465  1.00  0.00    -0.001 A 
ATOM     21  N   UNL     1      43.034 129.781  23.741  1.00  0.00    -0.361 N 
ATOM     22  C   UNL     1      44.674 128.248  23.496  1.00  0.00     0.028 A 
ATOM     23  C   UNL     1      43.594 128.667  24.266  1.00  0.00     0.083 A 
ATOM     24  H   UNL     1      42.209 130.302  24.112  1.00  0.00     0.166 HD
ENDBRANCH  10  15
ENDBRANCH   5   7
ENDBRANCH   1   5
TORSDOF 5
ENDMDL
MODEL 3
REMARK VINA RESULT:      -5.9      1.693      2.630
REMARK SMILES CCCOC(=O)N1C[C@H](c2ccc3cc[nH]c3c2)[C@H](C)C[C@H]1F
REMARK SMILES IDX 4 1 3 2 2 3 1 4 5 5 6 6 7 7 8 8 22 9 9 10 21 11 19 12 23 13
REMARK SMILES IDX 20 14 10 15 11 16 18 17 12 18 17 19 13 20 16 21 14 22 15 23
REMARK H PARENT 16 24
ROOT
ATOM      1  O   UNL     1      45.458 129.680  16.943  1.00  0.00    -0.449 OA
ENDROOT
BRANCH   1   2
ATOM      2  C   UNL     1      46.469 129.889  15.958  1.00  0.00     0.234 C 
BRANCH   2   3
ATOM      3  C   UNL     1      46.329 131.276  15.323  1.00  0.00     0.038 C 
ATOM      4  C   UNL     1      46.841 131.292  13.883  1.00  0.00     0.007 C 
ENDBRANCH   2   3
ENDBRANCH   1   2
BRANCH   1   5
ATOM      5  C   UNL     1      45.466 130.301  18.197  1.00  0.00     0.412 C 
ATOM      6  O   UNL     1      46.304 129.942  19.070  1.00  0.00    -0.224 OA
BRANCH   5   7
ATOM      7  N   UNL     1      44.533 131.365  18.481  1.00  0.00    -0.277 N 
ATOM      8  C   UNL     1      44.877 132.422  19.443  1.00  0.00     0.134 C 
ATOM      9  C   UNL     1      43.266 131.484  17.747  1.00  0.00     0.268 C 
ATOM     10  C   UNL     1      43.731 132.654  20.449  1.00  0.00     0.042 C 
ATOM     11  C   UNL     1      42.098 131.660  18.725  1.00  0.00     0.065 C 
ATOM     12  C   UNL     1      42.366 132.804  19.722  1.00  0.00    -0.000 C 
ATOM     13  F   UNL     1      43.330 132.570  16.889  1.00  0.00    -0.223 F 
ATOM     14  C   UNL     1      41.194 132.960  20.701  1.00  0.00     0.008 C 
BRANCH  10  15
ATOM     15  C   UNL     1      43.730 131.626  21.580  1.00  0.00    -0.041 A 
ATOM     16  C   UNL     1      42.962 131.887  22.750  1.00  0.00     0.005 A 
ATOM     17  C   UNL     1      44.460 130.414  21.497  1.00  0.00     0.030 A 
ATOM     18  C   UNL     1      42.937 130.976  23.820  1.00  0.00     0.010 A 
ATOM     19  C   UNL     1      44.415 129.536  22.578  1.00  0.00     0.046 A 
ATOM     20  C   UNL     1      43.682 129.809  23.698  1.00  0.00    -0.001 A 
ATOM     21  N   UNL     1      45.052 128.360  22.698  1.00  0.00    -0.361 N 
ATOM     22  C   UNL     1      43.858 128.759  24.573  1.00  0.00     0.028 A 
ATOM     23  C   UNL     1      44.714 127.881  23.917  1.00  0.00     0.083 A 
ATOM     24  H   UNL     1      45.683 127.909  22.000  1.00  0.00     0.166 HD
ENDBRANCH  10  15
ENDBRANCH   5   7
ENDBRANCH   1   5
TORSDOF 5
ENDMDL
MODEL 4
REMARK VINA RESULT:      -5.1      0.972      1.474
REMARK SMILES CCCOC(=O)N1C[C@H](c2ccc3cc[nH]c3c2)[C@H](C)C[C@H]1F
REMARK SMILES IDX 4 1 3 2 2 3 1 4 5 5 6 6 7 7 8 8 22 9 9 10 21 11 19 12 23 13
REMARK SMILES IDX 20 14 10 15 11 16 18 17 12 18 17 19 13 20 16 21 14 22 15 23
REMARK H PARENT 16 24
ROOT
ATOM      1  O   UNL     1      45.549 131.300  17.693  1.00  0.00    -0.449 OA
ENDROOT
BRANCH   1   2
ATOM      2  C   UNL     1      44.597 131.130  16.645  1.00  0.00     0.234 C 
BRANCH   2   3
ATOM      3  C   UNL     1      45.053 130.041  15.668  1.00  0.00     0.038 C 
ATOM      4  C   UNL     1      46.156 130.543  14.738  1.00  0.00     0.007 C 
ENDBRANCH   2   3
ENDBRANCH   1   2
BRANCH   1   5
ATOM      5  C   UNL     1      45.419 130.706  18.954  1.00  0.00     0.412 C 
ATOM      6  O   UNL     1      45.910 129.561  19.162  1.00  0.00    -0.224 OA
BRANCH   5   7
ATOM      7  N   UNL     1      44.746 131.411  20.018  1.00  0.00    -0.277 N 
ATOM      8  C   UNL     1      45.387 131.568  21.331  1.00  0.00     0.134 C 
ATOM      9  C   UNL     1      43.457 132.080  19.793  1.00  0.00     0.268 C 
ATOM     10  C   UNL     1      44.419 131.194  22.473  1.00  0.00     0.042 C 
ATOM     11  C   UNL     1      42.454 131.683  20.883  1.00  0.00     0.065 C 
ATOM     12  C   UNL     1      43.041 131.890  22.292  1.00  0.00    -0.000 C 
ATOM     13  F   UNL     1      43.642 133.452  19.801  1.00  0.00    -0.223 F 
ATOM     14  C   UNL     1      42.031 131.477  23.371  1.00  0.00     0.008 C 
BRANCH  10  15
ATOM     15  C   UNL     1      44.335 129.684  22.695  1.00  0.00    -0.041 A 
ATOM     16  C   UNL     1      43.241 129.155  23.437  1.00  0.00     0.005 A 
ATOM     17  C   UNL     1      45.306 128.790  22.175  1.00  0.00     0.030 A 
ATOM     18  C   UNL     1      43.126 127.775  23.675  1.00  0.00     0.010 A 
ATOM     19  C   UNL     1      45.161 127.430  22.434  1.00  0.00     0.046 A 
ATOM     20  C   UNL     1      44.112 126.941  23.159  1.00  0.00    -0.001 A 
ATOM     21  N   UNL     1      45.981 126.437  22.052  1.00  0.00    -0.361 N 
ATOM     22  C   UNL     1      44.267 125.575  23.243  1.00  0.00     0.028 A 
ATOM     23  C   UNL     1      45.438 125.300  22.545  1.00  0.00     0.083 A 
ATOM     24  H   UNL     1      46.860 126.522  21.496  1.00  0.00     0.166 HD
ENDBRANCH  10  15
ENDBRANCH   5   7
ENDBRANCH   1   5
TORSDOF 5
ENDMDL
MODEL 5
REMARK VINA RESULT:      -4.9      1.006      1.258
REMARK SMILES CCCOC(=O)N1C[C@H](c2ccc3cc[nH]c3c2)[C@H](C)C[C@H]1F
REMARK SMILES IDX 4 1 3 2 2 3 1 4 5 5 6 6 7 7 8 8 22 9 9 10 21 11 19 12 23 13
REMARK SMILES IDX 20 14 10 15 11 16 18 17 12 18 17 19 13 20 16 21 14 22 15 23
REMARK H PARENT 16 24
ROOT
ATOM      1  O   UNL     1      45.031 130.515  18.015  1.00  0.00    -0.449 OA
ENDROOT
BRANCH   1   2
ATOM      2  C   UNL     1      46.161 130.836  17.207  1.00  0.00     0.234 C 
BRANCH   2   3
ATOM      3  C   UNL     1      45.856 130.593  15.725  1.00  0.00     0.038 C 
ATOM      4  C   UNL     1      45.260 129.206  15.492  1.00  0.00     0.007 C 
ENDBRANCH   2   3
ENDBRANCH   1   2
BRANCH   1   5
ATOM      5  C   UNL     1      43.951 131.386  18.209  1.00  0.00     0.412 C 
ATOM      6  O   UNL     1      43.170 131.640  17.250  1.00  0.00    -0.224 OA
BRANCH   5   7
ATOM      7  N   UNL     1      43.721 131.972  19.508  1.00  0.00    -0.277 N 
ATOM      8  C   UNL     1      44.843 132.216  20.425  1.00  0.00     0.134 C 
ATOM      9  C   UNL     1      42.386 132.436  19.909  1.00  0.00     0.268 C 
ATOM     10  C   UNL     1      44.530 131.689  21.841  1.00  0.00     0.042 C 
ATOM     11  C   UNL     1      42.022 131.881  21.292  1.00  0.00     0.065 C 
ATOM     12  C   UNL     1      43.131 132.166  22.322  1.00  0.00    -0.000 C 
ATOM     13  F   UNL     1      42.368 133.820  19.937  1.00  0.00    -0.223 F 
ATOM     14  C   UNL     1      42.759 131.594  23.697  1.00  0.00     0.008 C 
BRANCH  10  15
ATOM     15  C   UNL     1      44.757 130.183  21.966  1.00  0.00    -0.041 A 
ATOM     16  C   UNL     1      45.656 129.543  21.068  1.00  0.00     0.005 A 
ATOM     17  C   UNL     1      44.108 129.403  22.957  1.00  0.00     0.030 A 
ATOM     18  C   UNL     1      45.890 128.158  21.138  1.00  0.00     0.010 A 
ATOM     19  C   UNL     1      44.361 128.034  22.995  1.00  0.00     0.046 A 
ATOM     20  C   UNL     1      45.218 127.435  22.117  1.00  0.00    -0.001 A 
ATOM     21  N   UNL     1      43.830 127.132  23.835  1.00  0.00    -0.361 N 
ATOM     22  C   UNL     1      45.237 126.089  22.410  1.00  0.00     0.028 A 
ATOM     23  C   UNL     1      44.362 125.939  23.482  1.00  0.00     0.083 A 
ATOM     24  H   UNL     1      43.142 127.309  24.601  1.00  0.00     0.166 HD
ENDBRANCH  10  15
ENDBRANCH   5   7
ENDBRANCH   1   5
TORSDOF 5
ENDMDL
MODEL 6
REMARK VINA RESULT:      -4.6      1.495      1.838
REMARK SMILES CCCOC(=O)N1C[C@H](c2ccc3cc[nH]c3c2)[C@H](C)C[C@H]1F
REMARK SMILES IDX 4 1 3 2 2 3 1 4 5 5 6 6 7 7 8 8 22 9 9 10 21 11 19 12 23 13
REMARK SMILES IDX 20 14 10 15 11 16 18 17 12 18 17 19 13 20 16 21 14 22 15 23
REMARK H PARENT 16 24
ROOT
ATOM      1  O   UNL     1      44.528 129.744  16.439  1.00  0.00    -0.449 OA
ENDROOT
BRANCH   1   2
ATOM      2  C   UNL     1      45.257 129.202  15.340  1.00  0.00     0.234 C 
BRANCH   2   3
ATOM      3  C   UNL     1      45.588 130.295  14.317  1.00  0.00     0.038 C 
ATOM      4  C   UNL     1      47.036 130.765  14.443  1.00  0.00     0.007 C 
ENDBRANCH   2   3
ENDBRANCH   1   2
BRANCH   1   5
ATOM      5  C   UNL     1      45.126 130.471  17.476  1.00  0.00     0.412 C 
ATOM      6  O   UNL     1      46.352 130.311  17.728  1.00  0.00    -0.224 OA
BRANCH   5   7
ATOM      7  N   UNL     1      44.345 131.417  18.237  1.00  0.00    -0.277 N 
ATOM      8  C   UNL     1      44.971 132.216  19.300  1.00  0.00     0.134 C 
ATOM      9  C   UNL     1      42.939 131.686  17.906  1.00  0.00     0.268 C 
ATOM     10  C   UNL     1      44.132 132.176  20.594  1.00  0.00     0.042 C 
ATOM     11  C   UNL     1      42.069 131.598  19.166  1.00  0.00     0.065 C 
ATOM     12  C   UNL     1      42.634 132.472  20.302  1.00  0.00    -0.000 C 
ATOM     13  F   UNL     1      42.830 132.948  17.346  1.00  0.00    -0.223 F 
ATOM     14  C   UNL     1      41.760 132.364  21.560  1.00  0.00     0.008 C 
BRANCH  10  15
ATOM     15  C   UNL     1      44.373 130.905  21.408  1.00  0.00    -0.041 A 
ATOM     16  C   UNL     1      45.394 130.004  20.994  1.00  0.00     0.005 A 
ATOM     17  C   UNL     1      43.619 130.600  22.569  1.00  0.00     0.030 A 
ATOM     18  C   UNL     1      45.647 128.818  21.705  1.00  0.00     0.010 A 
ATOM     19  C   UNL     1      43.895 129.414  23.247  1.00  0.00     0.046 A 
ATOM     20  C   UNL     1      44.871 128.555  22.828  1.00  0.00    -0.001 A 
ATOM     21  N   UNL     1      43.280 128.942  24.343  1.00  0.00    -0.361 N 
ATOM     22  C   UNL     1      44.881 127.486  23.697  1.00  0.00     0.028 A 
ATOM     23  C   UNL     1      43.880 127.762  24.622  1.00  0.00     0.083 A 
ATOM     24  H   UNL     1      42.496 129.387  24.869  1.00  0.00     0.166 HD
ENDBRANCH  10  15
ENDBRANCH   5   7
ENDBRANCH   1   5
TORSDOF 5
ENDMDL
MODEL 7
REMARK VINA RESULT:      -4.4      1.568      2.443
REMARK SMILES CCCOC(=O)N1C[C@H](c2ccc3cc[nH]c3c2)[C@H](C)C[C@H]1F
REMARK SMILES IDX 4 1 3 2 2 3 1 4 5 5 6 6 7 7 8 8 22 9 9 10 21 11 19 12 23 13
REMARK SMILES IDX 20 14 10 15 11 16 18 17 12 18 17 19 13 20 16 21 14 22 15 23
REMARK H PARENT 16 24
ROOT
ATOM      1  O   UNL     1      46.568 130.756  16.837  1.00  0.00    -0.449 OA
ENDROOT
BRANCH   1   2
ATOM      2  C   UNL     1      46.246 131.294  15.556  1.00  0.00     0.234 C 
BRANCH   2   3
ATOM      3  C   UNL     1      45.263 130.381  14.815  1.00  0.00     0.038 C 
ATOM      4  C   UNL     1      44.094 131.169  14.228  1.00  0.00     0.007 C 
ENDBRANCH   2   3
ENDBRANCH   1   2
BRANCH   1   5
ATOM      5  C   UNL     1      45.602 130.415  17.792  1.00  0.00     0.412 C 
ATOM      6  O   UNL     1      45.568 129.242  18.258  1.00  0.00    -0.224 OA
BRANCH   5   7
ATOM      7  N   UNL     1      44.666 131.410  18.258  1.00  0.00    -0.277 N 
ATOM      8  C   UNL     1      45.070 132.403  19.263  1.00  0.00     0.134 C 
ATOM      9  C   UNL     1      43.323 131.527  17.671  1.00  0.00     0.268 C 
ATOM     10  C   UNL     1      44.030 132.502  20.398  1.00  0.00     0.042 C 
ATOM     11  C   UNL     1      42.261 131.572  18.776  1.00  0.00     0.065 C 
ATOM     12  C   UNL     1      42.590 132.646  19.831  1.00  0.00    -0.000 C 
ATOM     13  F   UNL     1      43.254 132.678  16.904  1.00  0.00    -0.223 F 
ATOM     14  C   UNL     1      41.525 132.670  20.936  1.00  0.00     0.008 C 
BRANCH  10  15
ATOM     15  C   UNL     1      44.188 131.390  21.434  1.00  0.00    -0.041 A 
ATOM     16  C   UNL     1      43.733 131.615  22.764  1.00  0.00     0.005 A 
ATOM     17  C   UNL     1      44.764 130.135  21.111  1.00  0.00     0.030 A 
ATOM     18  C   UNL     1      43.866 130.625  23.754  1.00  0.00     0.010 A 
ATOM     19  C   UNL     1      44.883 129.180  22.117  1.00  0.00     0.046 A 
ATOM     20  C   UNL     1      44.451 129.418  23.391  1.00  0.00    -0.001 A 
ATOM     21  N   UNL     1      45.417 127.952  22.015  1.00  0.00    -0.361 N 
ATOM     22  C   UNL     1      44.721 128.291  24.137  1.00  0.00     0.028 A 
ATOM     23  C   UNL     1      45.321 127.404  23.248  1.00  0.00     0.083 A 
ATOM     24  H   UNL     1      45.829 127.511  21.164  1.00  0.00     0.166 HD
ENDBRANCH  10  15
ENDBRANCH   5   7
ENDBRANCH   1   5
TORSDOF 5
ENDMDL
MODEL 8
REMARK VINA RESULT:      -4.4      1.291      1.731
REMARK SMILES CCCOC(=O)N1C[C@H](c2ccc3cc[nH]c3c2)[C@H](C)C[C@H]1F
REMARK SMILES IDX 4 1 3 2 2 3 1 4 5 5 6 6 7 7 8 8 22 9 9 10 21 11 19 12 23 13
REMARK SMILES IDX 20 14 10 15 11 16 18 17 12 18 17 19 13 20 16 21 14 22 15 23
REMARK H PARENT 16 24
ROOT
ATOM      1  O   UNL     1      45.003 130.457  16.776  1.00  0.00    -0.449 OA
ENDROOT
BRANCH   1   2
ATOM      2  C   UNL     1      45.963 130.922  15.828  1.00  0.00     0.234 C 
BRANCH   2   3
ATOM      3  C   UNL     1      46.073 129.951  14.648  1.00  0.00     0.038 C 
ATOM      4  C   UNL     1      47.408 130.095  13.921  1.00  0.00     0.007 C 
ENDBRANCH   2   3
ENDBRANCH   1   2
BRANCH   1   5
ATOM      5  C   UNL     1      45.252 130.392  18.153  1.00  0.00     0.412 C 
ATOM      6  O   UNL     1      46.102 129.571  18.598  1.00  0.00    -0.224 OA
BRANCH   5   7
ATOM      7  N   UNL     1      44.555 131.277  19.055  1.00  0.00    -0.277 N 
ATOM      8  C   UNL     1      45.260 131.896  20.185  1.00  0.00     0.134 C 
ATOM      9  C   UNL     1      43.158 131.666  18.813  1.00  0.00     0.268 C 
ATOM     10  C   UNL     1      44.458 131.741  21.495  1.00  0.00     0.042 C 
ATOM     11  C   UNL     1      42.323 131.470  20.083  1.00  0.00     0.065 C 
ATOM     12  C   UNL     1      42.974 132.158  21.298  1.00  0.00    -0.000 C 
ATOM     13  F   UNL     1      43.112 132.994  18.419  1.00  0.00    -0.223 F 
ATOM     14  C   UNL     1      42.133 131.941  22.564  1.00  0.00     0.008 C 
BRANCH  10  15
ATOM     15  C   UNL     1      44.645 130.365  22.133  1.00  0.00    -0.041 A 
ATOM     16  C   UNL     1      44.236 130.169  23.482  1.00  0.00     0.005 A 
ATOM     17  C   UNL     1      45.202 129.273  21.421  1.00  0.00     0.030 A 
ATOM     18  C   UNL     1      44.395 128.924  24.115  1.00  0.00     0.010 A 
ATOM     19  C   UNL     1      45.348 128.055  22.081  1.00  0.00     0.046 A 
ATOM     20  C   UNL     1      44.961 127.888  23.380  1.00  0.00    -0.001 A 
ATOM     21  N   UNL     1      45.872 126.921  21.589  1.00  0.00    -0.361 N 
ATOM     22  C   UNL     1      45.249 126.588  23.734  1.00  0.00     0.028 A 
ATOM     23  C   UNL     1      45.813 126.020  22.597  1.00  0.00     0.083 A 
ATOM     24  H   UNL     1      46.252 126.764  20.630  1.00  0.00     0.166 HD
ENDBRANCH  10  15
ENDBRANCH   5   7
ENDBRANCH   1   5
TORSDOF 5
ENDMDL
MODEL 9
REMARK VINA RESULT:      -4.4      1.530      2.135
REMARK SMILES CCCOC(=O)N1C[C@H](c2ccc3cc[nH]c3c2)[C@H](C)C[C@H]1F
REMARK SMILES IDX 4 1 3 2 2 3 1 4 5 5 6 6 7 7 8 8 22 9 9 10 21 11 19 12 23 13
REMARK SMILES IDX 20 14 10 15 11 16 18 17 12 18 17 19 13 20 16 21 14 22 15 23
REMARK H PARENT 16 24
ROOT
ATOM      1  O   UNL     1      44.615 130.872  19.415  1.00  0.00    -0.449 OA
ENDROOT
BRANCH   1   2
ATOM      2  C   UNL     1      44.235 131.975  18.594  1.00  0.00     0.234 C 
BRANCH   2   3
ATOM      3  C   UNL     1      44.089 131.538  17.132  1.00  0.00     0.038 C 
ATOM      4  C   UNL     1      45.377 131.766  16.344  1.00  0.00     0.007 C 
ENDBRANCH   2   3
ENDBRANCH   1   2
BRANCH   1   5
ATOM      5  C   UNL     1      45.185 131.019  20.686  1.00  0.00     0.412 C 
ATOM      6  O   UNL     1      46.432 131.181  20.799  1.00  0.00    -0.224 OA
BRANCH   5   7
ATOM      7  N   UNL     1      44.344 131.010  21.859  1.00  0.00    -0.277 N 
ATOM      8  C   UNL     1      44.922 130.771  23.189  1.00  0.00     0.134 C 
ATOM      9  C   UNL     1      42.914 131.339  21.774  1.00  0.00     0.268 C 
ATOM     10  C   UNL     1      44.113 129.712  23.966  1.00  0.00     0.042 C 
ATOM     11  C   UNL     1      42.078 130.272  22.492  1.00  0.00     0.065 C 
ATOM     12  C   UNL     1      42.591 130.024  23.923  1.00  0.00    -0.000 C 
ATOM     13  F   UNL     1      42.692 132.578  22.352  1.00  0.00    -0.223 F 
ATOM     14  C   UNL     1      41.753 128.945  24.624  1.00  0.00     0.008 C 
BRANCH  10  15
ATOM     15  C   UNL     1      44.473 128.285  23.555  1.00  0.00    -0.041 A 
ATOM     16  C   UNL     1      45.237 128.079  22.372  1.00  0.00     0.005 A 
ATOM     17  C   UNL     1      44.081 127.158  24.321  1.00  0.00     0.030 A 
ATOM     18  C   UNL     1      45.585 126.785  21.948  1.00  0.00     0.010 A 
ATOM     19  C   UNL     1      44.440 125.891  23.869  1.00  0.00     0.046 A 
ATOM     20  C   UNL     1      45.163 125.711  22.724  1.00  0.00    -0.001 A 
ATOM     21  N   UNL     1      44.144 124.710  24.437  1.00  0.00    -0.361 N 
ATOM     22  C   UNL     1      45.339 124.356  22.553  1.00  0.00     0.028 A 
ATOM     23  C   UNL     1      44.692 123.768  23.636  1.00  0.00     0.083 A 
ATOM     24  H   UNL     1      43.598 124.549  25.312  1.00  0.00     0.166 HD
ENDBRANCH  10  15
ENDBRANCH   5   7
ENDBRANCH   1   5
TORSDOF 5
ENDMDL


