MODEL 1
REMARK VINA RESULT:      -5.4      0.000      0.000
REMARK SMILES CC(=O)c1ccc(-c2ccc(OC(=O)[C@@H]3C[C@H]3C=O)cc2)c2c[n-]nc12
REMARK SMILES IDX 12 1 11 2 8 3 9 4 21 5 10 6 20 7 7 8 4 9 5 10 26 11 6 12
REMARK SMILES IDX 25 13 22 14 24 15 23 16 2 17 1 18 3 19 13 20 14 21 15 22
REMARK SMILES IDX 16 23 17 24 18 25 19 26
REMARK H PARENT
ROOT
ATOM      1  O   UNL     1      43.044 132.393  22.330  1.00  0.00    -0.426 OA
ENDROOT
BRANCH   1   2
ATOM      2  C   UNL     1      43.619 132.046  21.099  1.00  0.00     0.130 A 
ATOM      3  C   UNL     1      44.862 131.339  18.668  1.00  0.00    -0.018 A 
ATOM      4  C   UNL     1      45.601 131.380  19.862  1.00  0.00     0.012 A 
ATOM      5  C   UNL     1      43.502 131.687  18.696  1.00  0.00     0.012 A 
ATOM      6  C   UNL     1      44.982 131.734  21.065  1.00  0.00     0.048 A 
ATOM      7  C   UNL     1      42.884 132.041  19.900  1.00  0.00     0.048 A 
BRANCH   3   8
ATOM      8  C   UNL     1      45.513 130.965  17.390  1.00  0.00    -0.011 A 
ATOM      9  C   UNL     1      46.778 130.241  14.918  1.00  0.00     0.042 A 
ATOM     10  C   UNL     1      47.387 129.960  16.164  1.00  0.00     0.014 A 
ATOM     11  C   UNL     1      45.533 130.895  14.962  1.00  0.00     0.058 A 
ATOM     12  C   UNL     1      46.766 130.318  17.379  1.00  0.00     0.010 A 
ATOM     13  N   UNL     1      44.774 131.313  13.932  1.00  0.00    -0.367 NA
ATOM     14  C   UNL     1      44.932 131.239  16.145  1.00  0.00    -0.014 A 
ATOM     15  N   UNL     1      43.705 131.922  14.435  1.00  0.00    -0.581 NA
ATOM     16  C   UNL     1      43.776 131.896  15.785  1.00  0.00    -0.113 A 
BRANCH   9  17
ATOM     17  C   UNL     1      47.463 129.858  13.651  1.00  0.00     0.161 C 
ATOM     18  C   UNL     1      47.125 130.484  12.331  1.00  0.00     0.093 C 
ATOM     19  O   UNL     1      48.368 128.982  13.675  1.00  0.00    -0.294 OA
ENDBRANCH   9  17
ENDBRANCH   3   8
ENDBRANCH   1   2
BRANCH   1  20
ATOM     20  C   UNL     1      42.948 131.551  23.447  1.00  0.00     0.315 C 
ATOM     21  O   UNL     1      42.821 132.022  24.609  1.00  0.00    -0.251 OA
BRANCH  20  22
ATOM     22  C   UNL     1      42.881 130.071  23.244  1.00  0.00     0.110 C 
ATOM     23  C   UNL     1      41.880 129.361  24.145  1.00  0.00     0.028 C 
ATOM     24  C   UNL     1      43.373 129.249  24.427  1.00  0.00     0.068 C 
BRANCH  24  25
ATOM     25  C   UNL     1      43.966 127.924  24.058  1.00  0.00     0.228 C 
ATOM     26  O   UNL     1      44.980 127.530  24.612  1.00  0.00    -0.303 OA
ENDBRANCH  24  25
ENDBRANCH  20  22
ENDBRANCH   1  20
TORSDOF 6
ENDMDL
MODEL 2
REMARK VINA RESULT:      -5.4      1.583      1.853
REMARK SMILES CC(=O)c1ccc(-c2ccc(OC(=O)[C@@H]3C[C@H]3C=O)cc2)c2c[n-]nc12
REMARK SMILES IDX 12 1 11 2 8 3 9 4 21 5 10 6 20 7 7 8 4 9 5 10 26 11 6 12
REMARK SMILES IDX 25 13 22 14 24 15 23 16 2 17 1 18 3 19 13 20 14 21 15 22
REMARK SMILES IDX 16 23 17 24 18 25 19 26
REMARK H PARENT
ROOT
ATOM      1  O   UNL     1      42.151 132.263  21.511  1.00  0.00    -0.426 OA
ENDROOT
BRANCH   1   2
ATOM      2  C   UNL     1      42.860 132.049  20.321  1.00  0.00     0.130 A 
ATOM      3  C   UNL     1      44.371 131.617  17.978  1.00  0.00    -0.018 A 
ATOM      4  C   UNL     1      44.998 131.663  19.234  1.00  0.00     0.012 A 
ATOM      5  C   UNL     1      42.984 131.823  17.901  1.00  0.00     0.012 A 
ATOM      6  C   UNL     1      44.247 131.880  20.393  1.00  0.00     0.048 A 
ATOM      7  C   UNL     1      42.234 132.041  19.061  1.00  0.00     0.048 A 
BRANCH   3   8
ATOM      8  C   UNL     1      45.162 131.388  16.746  1.00  0.00    -0.011 A 
ATOM      9  C   UNL     1      46.695 130.949  14.360  1.00  0.00     0.042 A 
ATOM     10  C   UNL     1      46.621 132.229  14.960  1.00  0.00     0.014 A 
ATOM     11  C   UNL     1      45.976 129.918  14.991  1.00  0.00     0.058 A 
ATOM     12  C   UNL     1      45.866 132.445  16.132  1.00  0.00     0.010 A 
ATOM     13  N   UNL     1      45.843 128.636  14.604  1.00  0.00    -0.367 NA
ATOM     14  C   UNL     1      45.245 130.132  16.131  1.00  0.00    -0.014 A 
ATOM     15  N   UNL     1      45.037 128.030  15.471  1.00  0.00    -0.581 NA
ATOM     16  C   UNL     1      44.652 128.920  16.412  1.00  0.00    -0.113 A 
BRANCH   9  17
ATOM     17  C   UNL     1      47.494 130.754  13.117  1.00  0.00     0.161 C 
ATOM     18  C   UNL     1      48.803 130.025  13.105  1.00  0.00     0.093 C 
ATOM     19  O   UNL     1      47.060 131.207  12.023  1.00  0.00    -0.294 OA
ENDBRANCH   9  17
ENDBRANCH   3   8
ENDBRANCH   1   2
BRANCH   1  20
ATOM     20  C   UNL     1      42.555 131.836  22.783  1.00  0.00     0.315 C 
ATOM     21  O   UNL     1      42.592 132.635  23.758  1.00  0.00    -0.251 OA
BRANCH  20  22
ATOM     22  C   UNL     1      42.834 130.385  23.013  1.00  0.00     0.110 C 
ATOM     23  C   UNL     1      43.447 130.074  24.372  1.00  0.00     0.028 C 
ATOM     24  C   UNL     1      44.313 130.038  23.120  1.00  0.00     0.068 C 
BRANCH  24  25
ATOM     25  C   UNL     1      44.660 128.656  22.657  1.00  0.00     0.228 C 
ATOM     26  O   UNL     1      45.319 127.917  23.372  1.00  0.00    -0.303 OA
ENDBRANCH  24  25
ENDBRANCH  20  22
ENDBRANCH   1  20
TORSDOF 6
ENDMDL
MODEL 3
REMARK VINA RESULT:      -4.7      1.036      1.172
REMARK SMILES CC(=O)c1ccc(-c2ccc(OC(=O)[C@@H]3C[C@H]3C=O)cc2)c2c[n-]nc12
REMARK SMILES IDX 12 1 11 2 8 3 9 4 21 5 10 6 20 7 7 8 4 9 5 10 26 11 6 12
REMARK SMILES IDX 25 13 22 14 24 15 23 16 2 17 1 18 3 19 13 20 14 21 15 22
REMARK SMILES IDX 16 23 17 24 18 25 19 26
REMARK H PARENT
ROOT
ATOM      1  O   UNL     1      42.071 132.205  22.041  1.00  0.00    -0.426 OA
ENDROOT
BRANCH   1   2
ATOM      2  C   UNL     1      42.788 131.917  20.871  1.00  0.00     0.130 A 
ATOM      3  C   UNL     1      44.315 131.346  18.569  1.00  0.00    -0.018 A 
ATOM      4  C   UNL     1      44.941 131.543  19.811  1.00  0.00     0.012 A 
ATOM      5  C   UNL     1      42.918 131.470  18.483  1.00  0.00     0.012 A 
ATOM      6  C   UNL     1      44.182 131.829  20.949  1.00  0.00     0.048 A 
ATOM      7  C   UNL     1      42.160 131.756  19.623  1.00  0.00     0.048 A 
BRANCH   3   8
ATOM      8  C   UNL     1      45.115 131.043  17.359  1.00  0.00    -0.011 A 
ATOM      9  C   UNL     1      46.669 130.456  15.018  1.00  0.00     0.042 A 
ATOM     10  C   UNL     1      47.179 130.217  16.317  1.00  0.00     0.014 A 
ATOM     11  C   UNL     1      45.373 130.998  14.944  1.00  0.00     0.058 A 
ATOM     12  C   UNL     1      46.416 130.508  17.467  1.00  0.00     0.010 A 
ATOM     13  N   UNL     1      44.681 131.359  13.847  1.00  0.00    -0.367 NA
ATOM     14  C   UNL     1      44.634 131.277  16.064  1.00  0.00    -0.014 A 
ATOM     15  N   UNL     1      43.520 131.867  14.246  1.00  0.00    -0.581 NA
ATOM     16  C   UNL     1      43.464 131.835  15.596  1.00  0.00    -0.113 A 
BRANCH   9  17
ATOM     17  C   UNL     1      47.502 130.147  13.822  1.00  0.00     0.161 C 
ATOM     18  C   UNL     1      48.343 128.911  13.722  1.00  0.00     0.093 C 
ATOM     19  O   UNL     1      47.504 130.944  12.845  1.00  0.00    -0.294 OA
ENDBRANCH   9  17
ENDBRANCH   3   8
ENDBRANCH   1   2
BRANCH   1  20
ATOM     20  C   UNL     1      42.516 131.957  23.347  1.00  0.00     0.315 C 
ATOM     21  O   UNL     1      42.527 132.871  24.216  1.00  0.00    -0.251 OA
BRANCH  20  22
ATOM     22  C   UNL     1      42.876 130.562  23.745  1.00  0.00     0.110 C 
ATOM     23  C   UNL     1      42.853 129.559  22.600  1.00  0.00     0.028 C 
ATOM     24  C   UNL     1      41.734 129.561  23.634  1.00  0.00     0.068 C 
BRANCH  24  25
ATOM     25  C   UNL     1      41.805 128.428  24.611  1.00  0.00     0.228 C 
ATOM     26  O   UNL     1      42.671 127.575  24.501  1.00  0.00    -0.303 OA
ENDBRANCH  24  25
ENDBRANCH  20  22
ENDBRANCH   1  20
TORSDOF 6
ENDMDL
MODEL 4
REMARK VINA RESULT:      -4.6      1.740      2.236
REMARK SMILES CC(=O)c1ccc(-c2ccc(OC(=O)[C@@H]3C[C@H]3C=O)cc2)c2c[n-]nc12
REMARK SMILES IDX 12 1 11 2 8 3 9 4 21 5 10 6 20 7 7 8 4 9 5 10 26 11 6 12
REMARK SMILES IDX 25 13 22 14 24 15 23 16 2 17 1 18 3 19 13 20 14 21 15 22
REMARK SMILES IDX 16 23 17 24 18 25 19 26
REMARK H PARENT
ROOT
ATOM      1  O   UNL     1      43.046 131.860  22.470  1.00  0.00    -0.426 OA
ENDROOT
BRANCH   1   2
ATOM      2  C   UNL     1      43.630 131.731  21.202  1.00  0.00     0.130 A 
ATOM      3  C   UNL     1      44.717 131.482  18.611  1.00  0.00    -0.018 A 
ATOM      4  C   UNL     1      43.345 131.725  18.790  1.00  0.00     0.012 A 
ATOM      5  C   UNL     1      45.535 131.331  19.742  1.00  0.00     0.012 A 
ATOM      6  C   UNL     1      42.809 131.845  20.076  1.00  0.00     0.048 A 
ATOM      7  C   UNL     1      44.998 131.451  21.028  1.00  0.00     0.048 A 
BRANCH   3   8
ATOM      8  C   UNL     1      45.291 131.354  17.250  1.00  0.00    -0.011 A 
ATOM      9  C   UNL     1      46.401 131.111  14.615  1.00  0.00     0.042 A 
ATOM     10  C   UNL     1      46.429 132.342  15.313  1.00  0.00     0.014 A 
ATOM     11  C   UNL     1      45.798 130.027  15.279  1.00  0.00     0.058 A 
ATOM     12  C   UNL     1      45.881 132.462  16.607  1.00  0.00     0.010 A 
ATOM     13  N   UNL     1      45.602 128.775  14.826  1.00  0.00    -0.367 NA
ATOM     14  C   UNL     1      45.269 130.147  16.538  1.00  0.00    -0.014 A 
ATOM     15  N   UNL     1      44.953 128.098  15.767  1.00  0.00    -0.581 NA
ATOM     16  C   UNL     1      44.732 128.911  16.823  1.00  0.00    -0.113 A 
BRANCH   9  17
ATOM     17  C   UNL     1      46.980 131.018  13.245  1.00  0.00     0.161 C 
ATOM     18  C   UNL     1      48.406 130.631  12.997  1.00  0.00     0.093 C 
ATOM     19  O   UNL     1      46.251 131.262  12.246  1.00  0.00    -0.294 OA
ENDBRANCH   9  17
ENDBRANCH   3   8
ENDBRANCH   1   2
BRANCH   1  20
ATOM     20  C   UNL     1      43.632 131.456  23.678  1.00  0.00     0.315 C 
ATOM     21  O   UNL     1      44.398 132.224  24.319  1.00  0.00    -0.251 OA
BRANCH  20  22
ATOM     22  C   UNL     1      43.250 130.138  24.270  1.00  0.00     0.110 C 
ATOM     23  C   UNL     1      44.058 128.958  23.747  1.00  0.00     0.028 C 
ATOM     24  C   UNL     1      42.621 129.162  23.285  1.00  0.00     0.068 C 
BRANCH  24  25
ATOM     25  C   UNL     1      41.643 128.207  23.896  1.00  0.00     0.228 C 
ATOM     26  O   UNL     1      40.734 127.745  23.224  1.00  0.00    -0.303 OA
ENDBRANCH  24  25
ENDBRANCH  20  22
ENDBRANCH   1  20
TORSDOF 6
ENDMDL
MODEL 5
REMARK VINA RESULT:      -4.2      1.521      2.014
REMARK SMILES CC(=O)c1ccc(-c2ccc(OC(=O)[C@@H]3C[C@H]3C=O)cc2)c2c[n-]nc12
REMARK SMILES IDX 12 1 11 2 8 3 9 4 21 5 10 6 20 7 7 8 4 9 5 10 26 11 6 12
REMARK SMILES IDX 25 13 22 14 24 15 23 16 2 17 1 18 3 19 13 20 14 21 15 22
REMARK SMILES IDX 16 23 17 24 18 25 19 26
REMARK H PARENT
ROOT
ATOM      1  O   UNL     1      42.247 132.116  21.693  1.00  0.00    -0.426 OA
ENDROOT
BRANCH   1   2
ATOM      2  C   UNL     1      43.006 131.984  20.522  1.00  0.00     0.130 A 
ATOM      3  C   UNL     1      44.450 131.722  18.112  1.00  0.00    -0.018 A 
ATOM      4  C   UNL     1      43.054 131.885  18.095  1.00  0.00     0.012 A 
ATOM      5  C   UNL     1      45.113 131.658  19.349  1.00  0.00     0.012 A 
ATOM      6  C   UNL     1      42.342 132.012  19.291  1.00  0.00     0.048 A 
ATOM      7  C   UNL     1      44.398 131.784  20.545  1.00  0.00     0.048 A 
BRANCH   3   8
ATOM      8  C   UNL     1      45.211 131.587  16.848  1.00  0.00    -0.011 A 
ATOM      9  C   UNL     1      46.683 131.331  14.398  1.00  0.00     0.042 A 
ATOM     10  C   UNL     1      46.514 132.589  15.025  1.00  0.00     0.014 A 
ATOM     11  C   UNL     1      46.088 130.227  15.036  1.00  0.00     0.058 A 
ATOM     12  C   UNL     1      45.788 132.715  16.228  1.00  0.00     0.010 A 
ATOM     13  N   UNL     1      46.060 128.945  14.630  1.00  0.00    -0.367 NA
ATOM     14  C   UNL     1      45.386 130.354  16.206  1.00  0.00    -0.014 A 
ATOM     15  N   UNL     1      45.349 128.253  15.514  1.00  0.00    -0.581 NA
ATOM     16  C   UNL     1      44.919 129.088  16.486  1.00  0.00    -0.113 A 
BRANCH   9  17
ATOM     17  C   UNL     1      47.448 131.231  13.123  1.00  0.00     0.161 C 
ATOM     18  C   UNL     1      48.753 131.936  12.907  1.00  0.00     0.093 C 
ATOM     19  O   UNL     1      46.996 130.523  12.183  1.00  0.00    -0.294 OA
ENDBRANCH   9  17
ENDBRANCH   3   8
ENDBRANCH   1   2
BRANCH   1  20
ATOM     20  C   UNL     1      42.532 131.497  22.918  1.00  0.00     0.315 C 
ATOM     21  O   UNL     1      42.388 132.114  24.009  1.00  0.00    -0.251 OA
BRANCH  20  22
ATOM     22  C   UNL     1      42.902 130.049  22.937  1.00  0.00     0.110 C 
ATOM     23  C   UNL     1      42.378 129.285  24.146  1.00  0.00     0.028 C 
ATOM     24  C   UNL     1      43.852 129.656  24.060  1.00  0.00     0.068 C 
BRANCH  24  25
ATOM     25  C   UNL     1      44.753 128.504  23.735  1.00  0.00     0.228 C 
ATOM     26  O   UNL     1      45.063 128.275  22.576  1.00  0.00    -0.303 OA
ENDBRANCH  24  25
ENDBRANCH  20  22
ENDBRANCH   1  20
TORSDOF 6
ENDMDL


