MODEL 1
REMARK VINA RESULT:      -6.0      0.000      0.000
REMARK SMILES C=C[C@H]1CN[C@H](c2ccc3nc[nH+]n3c2)/[N+](=C(\O)C[C@H]2C[C@@H](C)C2)C1
REMARK SMILES IDX 17 1 18 2 16 4 25 5 6 6 3 7 5 8 4 9 7 11 8 12 15 13 9 14
REMARK SMILES IDX 14 15 10 16 13 17 11 18 12 19 2 21 1 22 19 23 20 24 24 25
REMARK SMILES IDX 21 26 22 27 23 28
REMARK H PARENT 18 3 5 10 13 20
ROOT
ATOM      1  C   UNL     1      45.400 130.683  21.029  1.00  0.00     0.335 C 
ENDROOT
BRANCH   1   2
ATOM      2  O   UNL     1      46.497 131.553  21.092  1.00  0.00    -0.463 OA
ATOM      3  H   UNL     1      47.406 131.371  20.690  1.00  0.00     0.299 HD
ENDBRANCH   1   2
BRANCH   1   4
ATOM      4  N   UNL     1      44.184 131.117  20.735  1.00  0.00    -0.181 N 
ATOM      5  C   UNL     1      42.962 130.606  21.396  1.00  0.00     0.365 C 
ATOM      6  C   UNL     1      43.967 132.128  19.667  1.00  0.00     0.370 C 
ATOM      7  C   UNL     1      42.114 131.777  21.929  1.00  0.00     0.091 C 
ATOM      8  N   UNL     1      42.551 132.531  19.599  1.00  0.00    -0.254 NA
ATOM      9  C   UNL     1      42.084 132.955  20.924  1.00  0.00     0.102 C 
ATOM     10  H   UNL     1      42.475 133.357  18.958  1.00  0.00     0.129 HD
BRANCH   6  11
ATOM     11  C   UNL     1      44.376 131.580  18.313  1.00  0.00     0.056 A 
ATOM     12  C   UNL     1      43.497 131.691  17.208  1.00  0.00     0.020 A 
ATOM     13  C   UNL     1      45.608 130.912  18.134  1.00  0.00     0.150 A 
ATOM     14  C   UNL     1      43.856 131.177  15.950  1.00  0.00     0.080 A 
ATOM     15  N   UNL     1      45.904 130.440  16.899  1.00  0.00    -0.151 N 
ATOM     16  C   UNL     1      45.094 130.553  15.842  1.00  0.00     0.282 A 
ATOM     17  N   UNL     1      46.993 129.810  16.512  1.00  0.00    -0.166 N 
ATOM     18  N   UNL     1      45.626 129.999  14.733  1.00  0.00    -0.025 NA
ATOM     19  C   UNL     1      46.821 129.544  15.199  1.00  0.00     0.472 A 
ATOM     20  H   UNL     1      47.815 129.573  17.113  1.00  0.00     0.340 HD
ENDBRANCH   6  11
BRANCH   7  21
ATOM     21  C   UNL     1      42.624 132.234  23.279  1.00  0.00    -0.024 C 
ATOM     22  C   UNL     1      43.225 131.388  24.120  1.00  0.00     0.004 C 
ENDBRANCH   7  21
ENDBRANCH   1   4
BRANCH   1  23
ATOM     23  C   UNL     1      45.729 129.227  21.268  1.00  0.00     0.156 C 
BRANCH  23  24
ATOM     24  C   UNL     1      44.685 128.570  22.194  1.00  0.00     0.003 C 
ATOM     25  C   UNL     1      44.721 127.040  22.189  1.00  0.00     0.007 C 
ATOM     26  C   UNL     1      45.093 128.577  23.668  1.00  0.00     0.007 C 
ATOM     27  C   UNL     1      45.118 127.048  23.664  1.00  0.00    -0.014 C 
ATOM     28  C   UNL     1      46.505 126.457  23.929  1.00  0.00     0.007 C 
ENDBRANCH  23  24
ENDBRANCH   1  23
TORSDOF 6
ENDMDL
MODEL 2
REMARK VINA RESULT:      -5.7      4.206      7.168
REMARK SMILES C=C[C@H]1CN[C@H](c2ccc3nc[nH+]n3c2)/[N+](=C(\O)C[C@H]2C[C@@H](C)C2)C1
REMARK SMILES IDX 17 1 18 2 16 4 25 5 6 6 3 7 5 8 4 9 7 11 8 12 15 13 9 14
REMARK SMILES IDX 14 15 10 16 13 17 11 18 12 19 2 21 1 22 19 23 20 24 24 25
REMARK SMILES IDX 21 26 22 27 23 28
REMARK H PARENT 18 3 5 10 13 20
ROOT
ATOM      1  C   UNL     1      44.559 128.166  23.512  1.00  0.00     0.335 C 
ENDROOT
BRANCH   1   2
ATOM      2  O   UNL     1      45.370 128.747  24.497  1.00  0.00    -0.463 OA
ATOM      3  H   UNL     1      45.397 129.733  24.718  1.00  0.00     0.299 HD
ENDBRANCH   1   2
BRANCH   1   4
ATOM      4  N   UNL     1      44.116 126.923  23.621  1.00  0.00    -0.181 N 
ATOM      5  C   UNL     1      43.110 126.508  24.624  1.00  0.00     0.365 C 
ATOM      6  C   UNL     1      44.651 125.839  22.756  1.00  0.00     0.370 C 
ATOM      7  C   UNL     1      41.957 125.748  23.942  1.00  0.00     0.091 C 
ATOM      8  N   UNL     1      43.930 124.574  22.986  1.00  0.00    -0.254 NA
ATOM      9  C   UNL     1      42.485 124.786  22.849  1.00  0.00     0.102 C 
ATOM     10  H   UNL     1      44.221 123.891  22.245  1.00  0.00     0.129 HD
BRANCH   6  11
ATOM     11  C   UNL     1      46.125 125.608  23.027  1.00  0.00     0.056 A 
ATOM     12  C   UNL     1      46.619 125.656  24.354  1.00  0.00     0.020 A 
ATOM     13  C   UNL     1      47.039 125.390  21.973  1.00  0.00     0.150 A 
ATOM     14  C   UNL     1      47.983 125.456  24.621  1.00  0.00     0.080 A 
ATOM     15  N   UNL     1      48.343 125.200  22.288  1.00  0.00    -0.151 N 
ATOM     16  C   UNL     1      48.821 125.224  23.535  1.00  0.00     0.282 A 
ATOM     17  N   UNL     1      49.348 124.965  21.471  1.00  0.00    -0.166 N 
ATOM     18  N   UNL     1      50.152 125.008  23.574  1.00  0.00    -0.025 NA
ATOM     19  C   UNL     1      50.443 124.849  22.254  1.00  0.00     0.472 A 
ATOM     20  H   UNL     1      49.292 124.886  20.431  1.00  0.00     0.340 HD
ENDBRANCH   6  11
BRANCH   7  21
ATOM     21  C   UNL     1      40.947 126.716  23.364  1.00  0.00    -0.024 C 
ATOM     22  C   UNL     1      39.664 126.687  23.735  1.00  0.00     0.004 C 
ENDBRANCH   7  21
ENDBRANCH   1   4
BRANCH   1  23
ATOM     23  C   UNL     1      44.198 129.081  22.365  1.00  0.00     0.156 C 
BRANCH  23  24
ATOM     24  C   UNL     1      43.991 130.528  22.856  1.00  0.00     0.003 C 
ATOM     25  C   UNL     1      44.585 131.593  21.930  1.00  0.00     0.007 C 
ATOM     26  C   UNL     1      42.587 131.068  22.579  1.00  0.00     0.007 C 
ATOM     27  C   UNL     1      43.183 132.137  21.663  1.00  0.00    -0.014 C 
ATOM     28  C   UNL     1      42.743 132.008  20.202  1.00  0.00     0.007 C 
ENDBRANCH  23  24
ENDBRANCH   1  23
TORSDOF 6
ENDMDL
MODEL 3
REMARK VINA RESULT:      -5.1      2.477      3.747
REMARK SMILES C=C[C@H]1CN[C@H](c2ccc3nc[nH+]n3c2)/[N+](=C(\O)C[C@H]2C[C@@H](C)C2)C1
REMARK SMILES IDX 17 1 18 2 16 4 25 5 6 6 3 7 5 8 4 9 7 11 8 12 15 13 9 14
REMARK SMILES IDX 14 15 10 16 13 17 11 18 12 19 2 21 1 22 19 23 20 24 24 25
REMARK SMILES IDX 21 26 22 27 23 28
REMARK H PARENT 18 3 5 10 13 20
ROOT
ATOM      1  C   UNL     1      46.165 131.784  20.716  1.00  0.00     0.335 C 
ENDROOT
BRANCH   1   2
ATOM      2  O   UNL     1      47.178 130.815  20.683  1.00  0.00    -0.463 OA
ATOM      3  H   UNL     1      48.118 130.947  21.029  1.00  0.00     0.299 HD
ENDBRANCH   1   2
BRANCH   1   4
ATOM      4  N   UNL     1      44.884 131.450  20.709  1.00  0.00    -0.181 N 
ATOM      5  C   UNL     1      44.292 130.492  21.668  1.00  0.00     0.365 C 
ATOM      6  C   UNL     1      43.955 131.994  19.683  1.00  0.00     0.370 C 
ATOM      7  C   UNL     1      43.051 131.107  22.342  1.00  0.00     0.091 C 
ATOM      8  N   UNL     1      42.568 131.568  19.945  1.00  0.00    -0.254 NA
ATOM      9  C   UNL     1      42.192 131.899  21.324  1.00  0.00     0.102 C 
ATOM     10  H   UNL     1      41.934 132.105  19.307  1.00  0.00     0.129 HD
BRANCH   6  11
ATOM     11  C   UNL     1      44.348 131.525  18.295  1.00  0.00     0.056 A 
ATOM     12  C   UNL     1      43.473 131.736  17.201  1.00  0.00     0.020 A 
ATOM     13  C   UNL     1      45.558 130.833  18.071  1.00  0.00     0.150 A 
ATOM     14  C   UNL     1      43.817 131.296  15.912  1.00  0.00     0.080 A 
ATOM     15  N   UNL     1      45.841 130.435  16.807  1.00  0.00    -0.151 N 
ATOM     16  C   UNL     1      45.035 130.642  15.761  1.00  0.00     0.282 A 
ATOM     17  N   UNL     1      46.910 129.799  16.377  1.00  0.00    -0.166 N 
ATOM     18  N   UNL     1      45.550 130.147  14.617  1.00  0.00    -0.025 NA
ATOM     19  C   UNL     1      46.730 129.626  15.050  1.00  0.00     0.472 A 
ATOM     20  H   UNL     1      47.723 129.498  16.959  1.00  0.00     0.340 HD
ENDBRANCH   6  11
BRANCH   7  21
ATOM     21  C   UNL     1      43.454 131.986  23.505  1.00  0.00    -0.024 C 
ATOM     22  C   UNL     1      42.727 132.036  24.625  1.00  0.00     0.004 C 
ENDBRANCH   7  21
ENDBRANCH   1   4
BRANCH   1  23
ATOM     23  C   UNL     1      46.654 133.211  20.812  1.00  0.00     0.156 C 
BRANCH  23  24
ATOM     24  C   UNL     1      47.411 133.447  22.135  1.00  0.00     0.003 C 
ATOM     25  C   UNL     1      48.928 133.579  21.971  1.00  0.00     0.007 C 
ATOM     26  C   UNL     1      47.337 134.893  22.627  1.00  0.00     0.007 C 
ATOM     27  C   UNL     1      48.853 135.020  22.472  1.00  0.00    -0.014 C 
ATOM     28  C   UNL     1      49.278 136.055  21.428  1.00  0.00     0.007 C 
ENDBRANCH  23  24
ENDBRANCH   1  23
TORSDOF 6
ENDMDL
MODEL 4
REMARK VINA RESULT:      -5.0      1.070      1.683
REMARK SMILES C=C[C@H]1CN[C@H](c2ccc3nc[nH+]n3c2)/[N+](=C(\O)C[C@H]2C[C@@H](C)C2)C1
REMARK SMILES IDX 17 1 18 2 16 4 25 5 6 6 3 7 5 8 4 9 7 11 8 12 15 13 9 14
REMARK SMILES IDX 14 15 10 16 13 17 11 18 12 19 2 21 1 22 19 23 20 24 24 25
REMARK SMILES IDX 21 26 22 27 23 28
REMARK H PARENT 18 3 5 10 13 20
ROOT
ATOM      1  C   UNL     1      45.194 130.268  21.170  1.00  0.00     0.335 C 
ENDROOT
BRANCH   1   2
ATOM      2  O   UNL     1      46.430 130.931  21.150  1.00  0.00    -0.463 OA
ATOM      3  H   UNL     1      47.304 130.517  20.858  1.00  0.00     0.299 HD
ENDBRANCH   1   2
BRANCH   1   4
ATOM      4  N   UNL     1      44.066 130.891  20.863  1.00  0.00    -0.181 N 
ATOM      5  C   UNL     1      42.752 130.508  21.426  1.00  0.00     0.365 C 
ATOM      6  C   UNL     1      44.048 132.004  19.877  1.00  0.00     0.370 C 
ATOM      7  C   UNL     1      42.046 131.741  22.021  1.00  0.00     0.091 C 
ATOM      8  N   UNL     1      42.706 132.607  19.784  1.00  0.00    -0.254 NA
ATOM      9  C   UNL     1      42.232 132.987  21.119  1.00  0.00     0.102 C 
ATOM     10  H   UNL     1      42.779 133.483  19.213  1.00  0.00     0.129 HD
BRANCH   6  11
ATOM     11  C   UNL     1      44.450 131.512  18.499  1.00  0.00     0.056 A 
ATOM     12  C   UNL     1      45.603 130.704  18.342  1.00  0.00     0.020 A 
ATOM     13  C   UNL     1      43.720 131.883  17.348  1.00  0.00     0.150 A 
ATOM     14  C   UNL     1      45.994 130.252  17.071  1.00  0.00     0.080 A 
ATOM     15  N   UNL     1      44.141 131.414  16.148  1.00  0.00    -0.151 N 
ATOM     16  C   UNL     1      45.215 130.636  15.985  1.00  0.00     0.282 A 
ATOM     17  N   UNL     1      43.604 131.619  14.965  1.00  0.00    -0.166 N 
ATOM     18  N   UNL     1      45.416 130.311  14.691  1.00  0.00    -0.025 NA
ATOM     19  C   UNL     1      44.379 130.949  14.084  1.00  0.00     0.472 A 
ATOM     20  H   UNL     1      42.750 132.187  14.765  1.00  0.00     0.340 HD
ENDBRANCH   6  11
BRANCH   7  21
ATOM     21  C   UNL     1      42.541 132.014  23.425  1.00  0.00    -0.024 C 
ATOM     22  C   UNL     1      43.840 132.191  23.684  1.00  0.00     0.004 C 
ENDBRANCH   7  21
ENDBRANCH   1   4
BRANCH   1  23
ATOM     23  C   UNL     1      45.266 128.798  21.512  1.00  0.00     0.156 C 
BRANCH  23  24
ATOM     24  C   UNL     1      44.995 128.567  23.013  1.00  0.00     0.003 C 
ATOM     25  C   UNL     1      43.551 128.169  23.333  1.00  0.00     0.007 C 
ATOM     26  C   UNL     1      45.483 127.208  23.516  1.00  0.00     0.007 C 
ATOM     27  C   UNL     1      44.042 126.815  23.844  1.00  0.00    -0.014 C 
ATOM     28  C   UNL     1      43.528 125.628  23.026  1.00  0.00     0.007 C 
ENDBRANCH  23  24
ENDBRANCH   1  23
TORSDOF 6
ENDMDL
MODEL 5
REMARK VINA RESULT:      -4.9      2.698      3.703
REMARK SMILES C=C[C@H]1CN[C@H](c2ccc3nc[nH+]n3c2)/[N+](=C(\O)C[C@H]2C[C@@H](C)C2)C1
REMARK SMILES IDX 17 1 18 2 16 4 25 5 6 6 3 7 5 8 4 9 7 11 8 12 15 13 9 14
REMARK SMILES IDX 14 15 10 16 13 17 11 18 12 19 2 21 1 22 19 23 20 24 24 25
REMARK SMILES IDX 21 26 22 27 23 28
REMARK H PARENT 18 3 5 10 13 20
ROOT
ATOM      1  C   UNL     1      45.887 132.837  20.914  1.00  0.00     0.335 C 
ENDROOT
BRANCH   1   2
ATOM      2  O   UNL     1      45.782 133.883  19.986  1.00  0.00    -0.463 OA
ATOM      3  H   UNL     1      45.439 133.786  19.040  1.00  0.00     0.299 HD
ENDBRANCH   1   2
BRANCH   1   4
ATOM      4  N   UNL     1      44.915 131.953  21.079  1.00  0.00    -0.181 N 
ATOM      5  C   UNL     1      44.921 130.934  22.152  1.00  0.00     0.365 C 
ATOM      6  C   UNL     1      43.759 131.900  20.144  1.00  0.00     0.370 C 
ATOM      7  C   UNL     1      43.596 130.974  22.935  1.00  0.00     0.091 C 
ATOM      8  N   UNL     1      42.760 130.913  20.593  1.00  0.00    -0.254 NA
ATOM      9  C   UNL     1      42.387 131.174  21.987  1.00  0.00     0.102 C 
ATOM     10  H   UNL     1      41.898 131.030  20.008  1.00  0.00     0.129 HD
BRANCH   6  11
ATOM     11  C   UNL     1      44.211 131.525  18.746  1.00  0.00     0.056 A 
ATOM     12  C   UNL     1      43.409 131.857  17.627  1.00  0.00     0.020 A 
ATOM     13  C   UNL     1      45.405 130.801  18.532  1.00  0.00     0.150 A 
ATOM     14  C   UNL     1      43.808 131.505  16.327  1.00  0.00     0.080 A 
ATOM     15  N   UNL     1      45.743 130.491  17.257  1.00  0.00    -0.151 N 
ATOM     16  C   UNL     1      45.007 130.813  16.189  1.00  0.00     0.282 A 
ATOM     17  N   UNL     1      46.809 129.845  16.835  1.00  0.00    -0.166 N 
ATOM     18  N   UNL     1      45.566 130.387  15.038  1.00  0.00    -0.025 NA
ATOM     19  C   UNL     1      46.699 129.784  15.491  1.00  0.00     0.472 A 
ATOM     20  H   UNL     1      47.577 129.464  17.434  1.00  0.00     0.340 HD
ENDBRANCH   6  11
BRANCH   7  21
ATOM     21  C   UNL     1      43.634 132.055  23.994  1.00  0.00    -0.024 C 
ATOM     22  C   UNL     1      44.768 132.376  24.622  1.00  0.00     0.004 C 
ENDBRANCH   7  21
ENDBRANCH   1   4
BRANCH   1  23
ATOM     23  C   UNL     1      47.201 132.777  21.658  1.00  0.00     0.156 C 
BRANCH  23  24
ATOM     24  C   UNL     1      47.543 134.143  22.287  1.00  0.00     0.003 C 
ATOM     25  C   UNL     1      47.783 134.092  23.798  1.00  0.00     0.007 C 
ATOM     26  C   UNL     1      48.996 134.566  22.068  1.00  0.00     0.007 C 
ATOM     27  C   UNL     1      49.232 134.525  23.578  1.00  0.00    -0.014 C 
ATOM     28  C   UNL     1      50.258 133.473  24.010  1.00  0.00     0.007 C 
ENDBRANCH  23  24
ENDBRANCH   1  23
TORSDOF 6
ENDMDL
MODEL 6
REMARK VINA RESULT:      -4.8      2.679      3.784
REMARK SMILES C=C[C@H]1CN[C@H](c2ccc3nc[nH+]n3c2)/[N+](=C(\O)C[C@H]2C[C@@H](C)C2)C1
REMARK SMILES IDX 17 1 18 2 16 4 25 5 6 6 3 7 5 8 4 9 7 11 8 12 15 13 9 14
REMARK SMILES IDX 14 15 10 16 13 17 11 18 12 19 2 21 1 22 19 23 20 24 24 25
REMARK SMILES IDX 21 26 22 27 23 28
REMARK H PARENT 18 3 5 10 13 20
ROOT
ATOM      1  C   UNL     1      46.251 131.840  21.005  1.00  0.00     0.335 C 
ENDROOT
BRANCH   1   2
ATOM      2  O   UNL     1      47.310 131.293  20.267  1.00  0.00    -0.463 OA
ATOM      3  H   UNL     1      48.225 131.080  20.638  1.00  0.00     0.299 HD
ENDBRANCH   1   2
BRANCH   1   4
ATOM      4  N   UNL     1      44.992 131.506  20.767  1.00  0.00    -0.181 N 
ATOM      5  C   UNL     1      44.214 130.606  21.647  1.00  0.00     0.365 C 
ATOM      6  C   UNL     1      44.288 131.987  19.549  1.00  0.00     0.370 C 
ATOM      7  C   UNL     1      42.872 131.258  22.026  1.00  0.00     0.091 C 
ATOM      8  N   UNL     1      42.872 131.576  19.559  1.00  0.00    -0.254 NA
ATOM      9  C   UNL     1      42.237 131.988  20.816  1.00  0.00     0.102 C 
ATOM     10  H   UNL     1      42.380 132.074  18.779  1.00  0.00     0.129 HD
BRANCH   6  11
ATOM     11  C   UNL     1      44.939 131.437  18.295  1.00  0.00     0.056 A 
ATOM     12  C   UNL     1      45.298 130.068  18.223  1.00  0.00     0.020 A 
ATOM     13  C   UNL     1      45.243 132.275  17.199  1.00  0.00     0.150 A 
ATOM     14  C   UNL     1      45.912 129.547  17.073  1.00  0.00     0.080 A 
ATOM     15  N   UNL     1      45.833 131.718  16.114  1.00  0.00    -0.151 N 
ATOM     16  C   UNL     1      46.161 130.425  16.023  1.00  0.00     0.282 A 
ATOM     17  N   UNL     1      46.183 132.306  14.990  1.00  0.00    -0.166 N 
ATOM     18  N   UNL     1      46.736 130.128  14.840  1.00  0.00    -0.025 NA
ATOM     19  C   UNL     1      46.729 131.340  14.220  1.00  0.00     0.472 A 
ATOM     20  H   UNL     1      46.054 133.316  14.757  1.00  0.00     0.340 HD
ENDBRANCH   6  11
BRANCH   7  21
ATOM     21  C   UNL     1      43.049 132.206  23.193  1.00  0.00    -0.024 C 
ATOM     22  C   UNL     1      43.599 131.801  24.341  1.00  0.00     0.004 C 
ENDBRANCH   7  21
ENDBRANCH   1   4
BRANCH   1  23
ATOM     23  C   UNL     1      46.667 132.785  22.109  1.00  0.00     0.156 C 
BRANCH  23  24
ATOM     24  C   UNL     1      48.009 133.467  21.777  1.00  0.00     0.003 C 
ATOM     25  C   UNL     1      48.075 134.944  22.172  1.00  0.00     0.007 C 
ATOM     26  C   UNL     1      49.118 133.147  22.780  1.00  0.00     0.007 C 
ATOM     27  C   UNL     1      49.189 134.624  23.167  1.00  0.00    -0.014 C 
ATOM     28  C   UNL     1      48.807 134.896  24.625  1.00  0.00     0.007 C 
ENDBRANCH  23  24
ENDBRANCH   1  23
TORSDOF 6
ENDMDL
MODEL 7
REMARK VINA RESULT:      -4.5      2.011      3.040
REMARK SMILES C=C[C@H]1CN[C@H](c2ccc3nc[nH+]n3c2)/[N+](=C(\O)C[C@H]2C[C@@H](C)C2)C1
REMARK SMILES IDX 17 1 18 2 16 4 25 5 6 6 3 7 5 8 4 9 7 11 8 12 15 13 9 14
REMARK SMILES IDX 14 15 10 16 13 17 11 18 12 19 2 21 1 22 19 23 20 24 24 25
REMARK SMILES IDX 21 26 22 27 23 28
REMARK H PARENT 18 3 5 10 13 20
ROOT
ATOM      1  C   UNL     1      45.207 131.592  19.545  1.00  0.00     0.335 C 
ENDROOT
BRANCH   1   2
ATOM      2  O   UNL     1      46.267 130.749  19.181  1.00  0.00    -0.463 OA
ATOM      3  H   UNL     1      46.536 129.910  19.676  1.00  0.00     0.299 HD
ENDBRANCH   1   2
BRANCH   1   4
ATOM      4  N   UNL     1      44.075 131.621  18.859  1.00  0.00    -0.181 N 
ATOM      5  C   UNL     1      42.803 131.068  19.375  1.00  0.00     0.365 C 
ATOM      6  C   UNL     1      44.026 132.177  17.481  1.00  0.00     0.370 C 
ATOM      7  C   UNL     1      41.679 132.115  19.259  1.00  0.00     0.091 C 
ATOM      8  N   UNL     1      42.644 132.200  16.968  1.00  0.00    -0.254 NA
ATOM      9  C   UNL     1      41.765 132.889  17.920  1.00  0.00     0.102 C 
ATOM     10  H   UNL     1      42.635 132.749  16.075  1.00  0.00     0.129 HD
BRANCH   6  11
ATOM     11  C   UNL     1      44.876 131.353  16.534  1.00  0.00     0.056 A 
ATOM     12  C   UNL     1      44.818 129.938  16.576  1.00  0.00     0.020 A 
ATOM     13  C   UNL     1      45.772 131.967  15.631  1.00  0.00     0.150 A 
ATOM     14  C   UNL     1      45.608 129.161  15.714  1.00  0.00     0.080 A 
ATOM     15  N   UNL     1      46.507 131.168  14.820  1.00  0.00    -0.151 N 
ATOM     16  C   UNL     1      46.450 129.833  14.834  1.00  0.00     0.282 A 
ATOM     17  N   UNL     1      47.379 131.528  13.902  1.00  0.00    -0.166 N 
ATOM     18  N   UNL     1      47.283 129.278  13.930  1.00  0.00    -0.025 NA
ATOM     19  C   UNL     1      47.847 130.380  13.365  1.00  0.00     0.472 A 
ATOM     20  H   UNL     1      47.643 132.508  13.652  1.00  0.00     0.340 HD
ENDBRANCH   6  11
BRANCH   7  21
ATOM     21  C   UNL     1      41.714 133.068  20.434  1.00  0.00    -0.024 C 
ATOM     22  C   UNL     1      40.628 133.297  21.178  1.00  0.00     0.004 C 
ENDBRANCH   7  21
ENDBRANCH   1   4
BRANCH   1  23
ATOM     23  C   UNL     1      45.445 132.410  20.793  1.00  0.00     0.156 C 
BRANCH  23  24
ATOM     24  C   UNL     1      45.616 131.499  22.026  1.00  0.00     0.003 C 
ATOM     25  C   UNL     1      44.983 132.052  23.305  1.00  0.00     0.007 C 
ATOM     26  C   UNL     1      44.641 130.321  22.051  1.00  0.00     0.007 C 
ATOM     27  C   UNL     1      44.016 130.870  23.334  1.00  0.00    -0.014 C 
ATOM     28  C   UNL     1      42.547 131.274  23.176  1.00  0.00     0.007 C 
ENDBRANCH  23  24
ENDBRANCH   1  23
TORSDOF 6
ENDMDL
MODEL 8
REMARK VINA RESULT:      -4.5      3.618      7.006
REMARK SMILES C=C[C@H]1CN[C@H](c2ccc3nc[nH+]n3c2)/[N+](=C(\O)C[C@H]2C[C@@H](C)C2)C1
REMARK SMILES IDX 17 1 18 2 16 4 25 5 6 6 3 7 5 8 4 9 7 11 8 12 15 13 9 14
REMARK SMILES IDX 14 15 10 16 13 17 11 18 12 19 2 21 1 22 19 23 20 24 24 25
REMARK SMILES IDX 21 26 22 27 23 28
REMARK H PARENT 18 3 5 10 13 20
ROOT
ATOM      1  C   UNL     1      47.147 125.804  23.399  1.00  0.00     0.335 C 
ENDROOT
BRANCH   1   2
ATOM      2  O   UNL     1      47.594 126.464  24.552  1.00  0.00    -0.463 OA
ATOM      3  H   UNL     1      48.258 126.088  25.214  1.00  0.00     0.299 HD
ENDBRANCH   1   2
BRANCH   1   4
ATOM      4  N   UNL     1      45.881 125.442  23.251  1.00  0.00    -0.181 N 
ATOM      5  C   UNL     1      45.456 124.327  22.376  1.00  0.00     0.365 C 
ATOM      6  C   UNL     1      44.787 126.184  23.932  1.00  0.00     0.370 C 
ATOM      7  C   UNL     1      44.552 123.353  23.154  1.00  0.00     0.091 C 
ATOM      8  N   UNL     1      43.484 125.532  23.704  1.00  0.00    -0.254 NA
ATOM      9  C   UNL     1      43.561 124.114  24.071  1.00  0.00     0.102 C 
ATOM     10  H   UNL     1      42.777 125.984  24.332  1.00  0.00     0.129 HD
BRANCH   6  11
ATOM     11  C   UNL     1      44.705 127.611  23.426  1.00  0.00     0.056 A 
ATOM     12  C   UNL     1      43.999 128.589  24.169  1.00  0.00     0.020 A 
ATOM     13  C   UNL     1      45.282 127.985  22.192  1.00  0.00     0.150 A 
ATOM     14  C   UNL     1      43.903 129.912  23.707  1.00  0.00     0.080 A 
ATOM     15  N   UNL     1      45.162 129.276  21.797  1.00  0.00    -0.151 N 
ATOM     16  C   UNL     1      44.516 130.214  22.495  1.00  0.00     0.282 A 
ATOM     17  N   UNL     1      45.635 129.836  20.704  1.00  0.00    -0.166 N 
ATOM     18  N   UNL     1      44.543 131.415  21.881  1.00  0.00    -0.025 NA
ATOM     19  C   UNL     1      45.258 131.132  20.758  1.00  0.00     0.472 A 
ATOM     20  H   UNL     1      46.189 129.360  19.957  1.00  0.00     0.340 HD
ENDBRANCH   6  11
BRANCH   7  21
ATOM     21  C   UNL     1      45.383 122.375  23.956  1.00  0.00    -0.024 C 
ATOM     22  C   UNL     1      46.718 122.384  23.896  1.00  0.00     0.004 C 
ENDBRANCH   7  21
ENDBRANCH   1   4
BRANCH   1  23
ATOM     23  C   UNL     1      48.202 125.592  22.338  1.00  0.00     0.156 C 
BRANCH  23  24
ATOM     24  C   UNL     1      49.262 124.575  22.808  1.00  0.00     0.003 C 
ATOM     25  C   UNL     1      50.461 124.442  21.865  1.00  0.00     0.007 C 
ATOM     26  C   UNL     1      50.181 125.118  23.903  1.00  0.00     0.007 C 
ATOM     27  C   UNL     1      51.379 124.975  22.964  1.00  0.00    -0.014 C 
ATOM     28  C   UNL     1      52.046 126.308  22.613  1.00  0.00     0.007 C 
ENDBRANCH  23  24
ENDBRANCH   1  23
TORSDOF 6
ENDMDL
MODEL 9
REMARK VINA RESULT:      -4.4      1.589      2.534
REMARK SMILES C=C[C@H]1CN[C@H](c2ccc3nc[nH+]n3c2)/[N+](=C(\O)C[C@H]2C[C@@H](C)C2)C1
REMARK SMILES IDX 17 1 18 2 16 4 25 5 6 6 3 7 5 8 4 9 7 11 8 12 15 13 9 14
REMARK SMILES IDX 14 15 10 16 13 17 11 18 12 19 2 21 1 22 19 23 20 24 24 25
REMARK SMILES IDX 21 26 22 27 23 28
REMARK H PARENT 18 3 5 10 13 20
ROOT
ATOM      1  C   UNL     1      44.983 131.366  19.752  1.00  0.00     0.335 C 
ENDROOT
BRANCH   1   2
ATOM      2  O   UNL     1      45.775 132.471  20.093  1.00  0.00    -0.463 OA
ATOM      3  H   UNL     1      46.661 132.704  19.665  1.00  0.00     0.299 HD
ENDBRANCH   1   2
BRANCH   1   4
ATOM      4  N   UNL     1      43.904 131.491  18.995  1.00  0.00    -0.181 N 
ATOM      5  C   UNL     1      42.576 130.969  19.388  1.00  0.00     0.365 C 
ATOM      6  C   UNL     1      43.976 132.132  17.656  1.00  0.00     0.370 C 
ATOM      7  C   UNL     1      41.510 132.074  19.266  1.00  0.00     0.091 C 
ATOM      8  N   UNL     1      42.635 132.253  17.054  1.00  0.00    -0.254 NA
ATOM      9  C   UNL     1      41.723 132.923  17.987  1.00  0.00     0.102 C 
ATOM     10  H   UNL     1      42.712 132.855  16.200  1.00  0.00     0.129 HD
BRANCH   6  11
ATOM     11  C   UNL     1      44.853 131.327  16.717  1.00  0.00     0.056 A 
ATOM     12  C   UNL     1      44.916 129.918  16.837  1.00  0.00     0.020 A 
ATOM     13  C   UNL     1      45.657 131.960  15.743  1.00  0.00     0.150 A 
ATOM     14  C   UNL     1      45.733 129.159  15.983  1.00  0.00     0.080 A 
ATOM     15  N   UNL     1      46.423 131.180  14.943  1.00  0.00    -0.151 N 
ATOM     16  C   UNL     1      46.479 129.847  15.031  1.00  0.00     0.282 A 
ATOM     17  N   UNL     1      47.224 131.556  13.969  1.00  0.00    -0.166 N 
ATOM     18  N   UNL     1      47.318 129.312  14.121  1.00  0.00    -0.025 NA
ATOM     19  C   UNL     1      47.764 130.422  13.473  1.00  0.00     0.472 A 
ATOM     20  H   UNL     1      47.394 132.539  13.656  1.00  0.00     0.340 HD
ENDBRANCH   6  11
BRANCH   7  21
ATOM     21  C   UNL     1      41.504 132.951  20.499  1.00  0.00    -0.024 C 
ATOM     22  C   UNL     1      42.003 132.521  21.661  1.00  0.00     0.004 C 
ENDBRANCH   7  21
ENDBRANCH   1   4
BRANCH   1  23
ATOM     23  C   UNL     1      45.489 130.039  20.269  1.00  0.00     0.156 C 
BRANCH  23  24
ATOM     24  C   UNL     1      45.592 130.048  21.807  1.00  0.00     0.003 C 
ATOM     25  C   UNL     1      44.520 130.892  22.501  1.00  0.00     0.007 C 
ATOM     26  C   UNL     1      45.026 128.787  22.462  1.00  0.00     0.007 C 
ATOM     27  C   UNL     1      43.961 129.633  23.162  1.00  0.00    -0.014 C 
ATOM     28  C   UNL     1      42.531 129.298  22.731  1.00  0.00     0.007 C 
ENDBRANCH  23  24
ENDBRANCH   1  23
TORSDOF 6
ENDMDL


