REMARK SMILES Cc1cccc(Cc2cc3cc(F)ccc3[nH]2)[nH+]1
REMARK SMILES IDX 7 1 6 2 2 3 3 4 18 5 4 6 5 7 1 8 8 10 9 11 17 12 10 13 16 14
REMARK SMILES IDX 11 15 15 16 12 17 14 18 13 20
REMARK H PARENT 18 9 17 19
ROOT
ATOM      1  C   UNL     1       0.260   1.597   0.887  1.00  0.00     0.162 C 
ENDROOT
BRANCH   1   2
ATOM      2  C   UNL     1       1.356   0.705   1.399  1.00  0.00     0.185 A 
ATOM      3  C   UNL     1       3.621  -0.034   1.280  1.00  0.00     0.176 A 
ATOM      4  C   UNL     1       3.370  -1.006   2.258  1.00  0.00     0.074 A 
ATOM      5  N   UNL     1       2.609   0.782   0.861  1.00  0.00    -0.212 N 
ATOM      6  C   UNL     1       2.094  -1.111   2.809  1.00  0.00     0.013 A 
ATOM      7  C   UNL     1       1.079  -0.257   2.381  1.00  0.00     0.075 A 
ATOM      8  C   UNL     1       4.975   0.058   0.642  1.00  0.00     0.123 C 
ATOM      9  H   UNL     1       2.797   1.481   0.106  1.00  0.00     0.453 HD
ENDBRANCH   1   2
BRANCH   1  10
ATOM     10  C   UNL     1      -0.397   0.965  -0.300  1.00  0.00     0.026 A 
ATOM     11  C   UNL     1       0.012   1.127  -1.622  1.00  0.00     0.032 A 
ATOM     12  N   UNL     1      -1.417   0.079  -0.209  1.00  0.00    -0.358 N 
ATOM     13  C   UNL     1      -0.820   0.307  -2.351  1.00  0.00     0.003 A 
ATOM     14  C   UNL     1      -1.669  -0.311  -1.469  1.00  0.00     0.046 A 
ATOM     15  C   UNL     1      -0.873   0.056  -3.721  1.00  0.00     0.049 A 
ATOM     16  C   UNL     1      -2.632  -1.224  -1.897  1.00  0.00     0.029 A 
ATOM     17  C   UNL     1      -1.838  -0.859  -4.184  1.00  0.00     0.123 A 
ATOM     18  C   UNL     1      -2.713  -1.496  -3.275  1.00  0.00     0.041 A 
ATOM     19  H   UNL     1      -1.897  -0.245   0.661  1.00  0.00     0.166 HD
ATOM     20  F   UNL     1      -1.926  -1.132  -5.508  1.00  0.00    -0.207 F 
ENDBRANCH   1  10
TORSDOF 2


