REMARK SMILES C[C@@H](CO)[N-]C(=O)C[N+]1=C(O)c2cc(-c3ccc4[nH]ccc4c3)cnc2C1
REMARK SMILES IDX 5 1 2 2 1 3 3 4 4 5 6 7 7 8 8 9 9 10 27 11 10 12 26 13 12 14
REMARK SMILES IDX 25 15 13 16 24 17 14 18 11 19 15 21 16 22 23 23 17 24 22 25
REMARK SMILES IDX 18 26 21 27 19 28 20 29
REMARK H PARENT 4 6 11 20 19 30
ROOT
ATOM      1  N   UNL     1       2.342  -2.737   3.272  1.00  0.00    -0.644 NA
ENDROOT
BRANCH   1   2
ATOM      2  C   UNL     1       3.578  -3.386   2.844  1.00  0.00    -0.084 C 
ATOM      3  C   UNL     1       3.360  -4.899   2.823  1.00  0.00    -0.011 C 
BRANCH   2   4
ATOM      4  C   UNL     1       3.984  -2.885   1.451  1.00  0.00     0.140 C 
BRANCH   4   5
ATOM      5  O   UNL     1       4.291  -1.520   1.498  1.00  0.00    -0.398 OA
ATOM      6  H   UNL     1       4.508  -1.253   0.568  1.00  0.00     0.210 HD
ENDBRANCH   4   5
ENDBRANCH   2   4
ENDBRANCH   1   2
BRANCH   1   7
ATOM      7  C   UNL     1       2.284  -1.428   3.849  1.00  0.00     0.117 C 
ATOM      8  O   UNL     1       3.340  -0.824   4.177  1.00  0.00    -0.313 OA
BRANCH   7   9
ATOM      9  C   UNL     1       0.955  -0.769   4.043  1.00  0.00     0.410 C 
BRANCH   9  10
ATOM     10  N   UNL     1       0.307  -0.559   2.749  1.00  0.00    -0.186 N 
ATOM     11  C   UNL     1      -0.867  -1.312   2.284  1.00  0.00     0.412 C 
ATOM     12  C   UNL     1       0.694   0.296   1.848  1.00  0.00     0.370 C 
ATOM     13  C   UNL     1      -1.087  -0.731   0.930  1.00  0.00     0.122 A 
ATOM     14  C   UNL     1      -0.153   0.231   0.676  1.00  0.00     0.115 A 
ATOM     15  N   UNL     1      -2.039  -1.059   0.022  1.00  0.00    -0.253 NA
ATOM     16  C   UNL     1      -0.135   0.918  -0.532  1.00  0.00     0.031 A 
ATOM     17  C   UNL     1      -2.070  -0.414  -1.183  1.00  0.00     0.120 A 
ATOM     18  C   UNL     1      -1.118   0.593  -1.493  1.00  0.00     0.001 A 
BRANCH  12  19
ATOM     19  O   UNL     1       1.786   1.146   2.012  1.00  0.00    -0.460 OA
ATOM     20  H   UNL     1       2.058   1.794   1.283  1.00  0.00     0.300 HD
ENDBRANCH  12  19
BRANCH  18  21
ATOM     21  C   UNL     1      -1.152   1.290  -2.804  1.00  0.00    -0.016 A 
ATOM     22  C   UNL     1      -0.885   2.685  -2.884  1.00  0.00     0.011 A 
ATOM     23  C   UNL     1      -1.449   0.572  -3.987  1.00  0.00     0.019 A 
ATOM     24  C   UNL     1      -0.913   3.355  -4.120  1.00  0.00     0.027 A 
ATOM     25  C   UNL     1      -1.467   1.269  -5.193  1.00  0.00    -0.000 A 
ATOM     26  C   UNL     1      -1.209   2.611  -5.258  1.00  0.00     0.045 A 
ATOM     27  C   UNL     1      -1.716   0.834  -6.476  1.00  0.00     0.028 A 
ATOM     28  N   UNL     1      -1.284   3.050  -6.525  1.00  0.00    -0.361 N 
ATOM     29  C   UNL     1      -1.594   1.967  -7.274  1.00  0.00     0.083 A 
ATOM     30  H   UNL     1      -1.134   4.026  -6.866  1.00  0.00     0.166 HD
ENDBRANCH  18  21
ENDBRANCH   9  10
ENDBRANCH   7   9
ENDBRANCH   1   7
TORSDOF 8


