MODEL 1
REMARK VINA RESULT:      -9.8      0.000      0.000
REMARK SMILES Cc1cc(N)c(Nc2cc(F)c(C)nc2F)cc1F
REMARK SMILES IDX 1 1 2 2 3 3 4 4 6 5 17 6 18 7 19 8 5 9 7 12 8 14 9 15 15 16
REMARK SMILES IDX 10 17 14 18 12 19 16 20 11 21 13 22
REMARK H PARENT 5 10 5 11 7 13
ROOT
ATOM      1  C   UNL     1      44.164 131.567  22.296  1.00  0.00     0.047 C 
ATOM      2  C   UNL     1      44.126 131.572  20.795  1.00  0.00    -0.013 A 
ATOM      3  C   UNL     1      42.961 131.964  20.119  1.00  0.00     0.034 A 
ATOM      4  C   UNL     1      42.925 132.004  18.717  1.00  0.00     0.056 A 
ATOM      5  C   UNL     1      44.072 131.628  17.981  1.00  0.00     0.065 A 
ATOM      6  C   UNL     1      45.245 131.280  18.662  1.00  0.00     0.067 A 
ATOM      7  C   UNL     1      45.276 131.250  20.058  1.00  0.00     0.128 A 
ATOM      8  F   UNL     1      46.427 130.906  20.690  1.00  0.00    -0.207 F 
ENDROOT
BRANCH   4   9
ATOM      9  N   UNL     1      41.738 132.470  18.061  1.00  0.00    -0.397 N 
ATOM     10  H   UNL     1      41.770 132.786  17.067  1.00  0.00     0.156 HD
ATOM     11  H   UNL     1      40.807 132.449  18.530  1.00  0.00     0.156 HD
ENDBRANCH   4   9
BRANCH   5  12
ATOM     12  N   UNL     1      44.075 131.618  16.546  1.00  0.00    -0.350 N 
ATOM     13  H   UNL     1      43.325 132.160  16.061  1.00  0.00     0.167 HD
BRANCH  12  14
ATOM     14  C   UNL     1      45.150 131.076  15.752  1.00  0.00     0.097 A 
ATOM     15  C   UNL     1      45.993 131.904  14.991  1.00  0.00     0.072 A 
ATOM     16  C   UNL     1      45.356 129.688  15.707  1.00  0.00     0.237 A 
ATOM     17  C   UNL     1      47.019 131.347  14.227  1.00  0.00     0.146 A 
ATOM     18  N   UNL     1      46.363 129.170  14.954  1.00  0.00    -0.220 NA
ATOM     19  C   UNL     1      47.196 129.958  14.221  1.00  0.00     0.076 A 
ATOM     20  F   UNL     1      44.564 128.851  16.420  1.00  0.00    -0.183 F 
ATOM     21  F   UNL     1      47.831 132.154  13.496  1.00  0.00    -0.205 F 
ATOM     22  C   UNL     1      48.286 129.330  13.410  1.00  0.00     0.070 C 
ENDBRANCH  12  14
ENDBRANCH   5  12
TORSDOF 3
ENDMDL
MODEL 2
REMARK VINA RESULT:      -8.8      1.349      6.187
REMARK SMILES Cc1cc(N)c(Nc2cc(F)c(C)nc2F)cc1F
REMARK SMILES IDX 1 1 2 2 3 3 4 4 6 5 17 6 18 7 19 8 5 9 7 12 8 14 9 15 15 16
REMARK SMILES IDX 10 17 14 18 12 19 16 20 11 21 13 22
REMARK H PARENT 5 10 5 11 7 13
ROOT
ATOM      1  C   UNL     1      48.394 129.584  13.176  1.00  0.00     0.047 C 
ATOM      2  C   UNL     1      47.270 130.088  14.035  1.00  0.00    -0.013 A 
ATOM      3  C   UNL     1      46.446 129.184  14.722  1.00  0.00     0.034 A 
ATOM      4  C   UNL     1      45.414 129.646  15.555  1.00  0.00     0.056 A 
ATOM      5  C   UNL     1      45.195 131.035  15.684  1.00  0.00     0.065 A 
ATOM      6  C   UNL     1      46.048 131.933  15.030  1.00  0.00     0.067 A 
ATOM      7  C   UNL     1      47.078 131.467  14.210  1.00  0.00     0.128 A 
ATOM      8  F   UNL     1      47.887 132.361  13.587  1.00  0.00    -0.207 F 
ENDROOT
BRANCH   4   9
ATOM      9  N   UNL     1      44.632 128.695  16.290  1.00  0.00    -0.397 N 
ATOM     10  H   UNL     1      44.835 127.674  16.220  1.00  0.00     0.156 HD
ATOM     11  H   UNL     1      43.887 128.994  16.956  1.00  0.00     0.156 HD
ENDBRANCH   4   9
BRANCH   5  12
ATOM     12  N   UNL     1      44.131 131.557  16.494  1.00  0.00    -0.350 N 
ATOM     13  H   UNL     1      43.249 131.834  16.006  1.00  0.00     0.167 HD
BRANCH  12  14
ATOM     14  C   UNL     1      44.138 131.537  17.935  1.00  0.00     0.097 A 
ATOM     15  C   UNL     1      45.273 131.136  18.661  1.00  0.00     0.072 A 
ATOM     16  C   UNL     1      42.983 131.899  18.647  1.00  0.00     0.237 A 
ATOM     17  C   UNL     1      45.245 131.120  20.056  1.00  0.00     0.146 A 
ATOM     18  N   UNL     1      42.981 131.875  20.006  1.00  0.00    -0.220 NA
ATOM     19  C   UNL     1      44.074 131.501  20.724  1.00  0.00     0.076 A 
ATOM     20  F   UNL     1      41.863 132.288  17.989  1.00  0.00    -0.183 F 
ATOM     21  F   UNL     1      46.346 130.733  20.749  1.00  0.00    -0.205 F 
ATOM     22  C   UNL     1      44.011 131.492  22.220  1.00  0.00     0.070 C 
ENDBRANCH  12  14
ENDBRANCH   5  12
TORSDOF 3
ENDMDL
MODEL 3
REMARK VINA RESULT:      -8.7      1.173      1.928
REMARK SMILES Cc1cc(N)c(Nc2cc(F)c(C)nc2F)cc1F
REMARK SMILES IDX 1 1 2 2 3 3 4 4 6 5 17 6 18 7 19 8 5 9 7 12 8 14 9 15 15 16
REMARK SMILES IDX 10 17 14 18 12 19 16 20 11 21 13 22
REMARK H PARENT 5 10 5 11 7 13
ROOT
ATOM      1  C   UNL     1      44.246 131.572  22.682  1.00  0.00     0.047 C 
ATOM      2  C   UNL     1      44.146 131.617  21.184  1.00  0.00    -0.013 A 
ATOM      3  C   UNL     1      42.962 132.050  20.568  1.00  0.00     0.034 A 
ATOM      4  C   UNL     1      42.869 132.128  19.169  1.00  0.00     0.056 A 
ATOM      5  C   UNL     1      43.976 131.748  18.377  1.00  0.00     0.065 A 
ATOM      6  C   UNL     1      45.169 131.359  18.999  1.00  0.00     0.067 A 
ATOM      7  C   UNL     1      45.257 131.292  20.391  1.00  0.00     0.128 A 
ATOM      8  F   UNL     1      46.425 130.909  20.965  1.00  0.00    -0.207 F 
ENDROOT
BRANCH   4   9
ATOM      9  N   UNL     1      41.666 132.633  18.576  1.00  0.00    -0.397 N 
ATOM     10  H   UNL     1      40.785 132.073  18.603  1.00  0.00     0.156 HD
ATOM     11  H   UNL     1      41.617 133.588  18.160  1.00  0.00     0.156 HD
ENDBRANCH   4   9
BRANCH   5  12
ATOM     12  N   UNL     1      43.920 131.776  16.943  1.00  0.00    -0.350 N 
ATOM     13  H   UNL     1      43.171 132.357  16.504  1.00  0.00     0.167 HD
BRANCH  12  14
ATOM     14  C   UNL     1      44.940 131.216  16.091  1.00  0.00     0.097 A 
ATOM     15  C   UNL     1      45.006 129.837  15.829  1.00  0.00     0.072 A 
ATOM     16  C   UNL     1      45.912 132.053  15.522  1.00  0.00     0.237 A 
ATOM     17  C   UNL     1      46.010 129.326  15.006  1.00  0.00     0.146 A 
ATOM     18  N   UNL     1      46.881 131.531  14.723  1.00  0.00    -0.220 NA
ATOM     19  C   UNL     1      46.953 130.200  14.450  1.00  0.00     0.076 A 
ATOM     20  F   UNL     1      45.891 133.388  15.750  1.00  0.00    -0.183 F 
ATOM     21  F   UNL     1      46.066 127.993  14.757  1.00  0.00    -0.205 F 
ATOM     22  C   UNL     1      48.044 129.683  13.565  1.00  0.00     0.070 C 
ENDBRANCH  12  14
ENDBRANCH   5  12
TORSDOF 3
ENDMDL
MODEL 4
REMARK VINA RESULT:      -8.6      1.487      1.636
REMARK SMILES Cc1cc(N)c(Nc2cc(F)c(C)nc2F)cc1F
REMARK SMILES IDX 1 1 2 2 3 3 4 4 6 5 17 6 18 7 19 8 5 9 7 12 8 14 9 15 15 16
REMARK SMILES IDX 10 17 14 18 12 19 16 20 11 21 13 22
REMARK H PARENT 5 10 5 11 7 13
ROOT
ATOM      1  C   UNL     1      43.957 131.516  22.494  1.00  0.00     0.047 C 
ATOM      2  C   UNL     1      43.854 131.538  20.996  1.00  0.00    -0.013 A 
ATOM      3  C   UNL     1      42.683 131.997  20.375  1.00  0.00     0.034 A 
ATOM      4  C   UNL     1      42.589 132.053  18.975  1.00  0.00     0.056 A 
ATOM      5  C   UNL     1      43.681 131.625  18.187  1.00  0.00     0.065 A 
ATOM      6  C   UNL     1      44.863 131.210  18.813  1.00  0.00     0.067 A 
ATOM      7  C   UNL     1      44.953 131.164  20.206  1.00  0.00     0.128 A 
ATOM      8  F   UNL     1      46.110 130.755  20.785  1.00  0.00    -0.207 F 
ENDROOT
BRANCH   4   9
ATOM      9  N   UNL     1      41.400 132.586  18.375  1.00  0.00    -0.397 N 
ATOM     10  H   UNL     1      41.110 133.571  18.558  1.00  0.00     0.156 HD
ATOM     11  H   UNL     1      40.830 132.032  17.700  1.00  0.00     0.156 HD
ENDBRANCH   4   9
BRANCH   5  12
ATOM     12  N   UNL     1      43.622 131.629  16.753  1.00  0.00    -0.350 N 
ATOM     13  H   UNL     1      42.815 132.122  16.309  1.00  0.00     0.167 HD
BRANCH  12  14
ATOM     14  C   UNL     1      44.696 131.173  15.907  1.00  0.00     0.097 A 
ATOM     15  C   UNL     1      45.836 130.543  16.437  1.00  0.00     0.072 A 
ATOM     16  C   UNL     1      44.629 131.377  14.519  1.00  0.00     0.237 A 
ATOM     17  C   UNL     1      46.861 130.120  15.590  1.00  0.00     0.146 A 
ATOM     18  N   UNL     1      45.642 130.955  13.716  1.00  0.00    -0.220 NA
ATOM     19  C   UNL     1      46.746 130.334  14.211  1.00  0.00     0.076 A 
ATOM     20  F   UNL     1      43.552 131.984  13.964  1.00  0.00    -0.183 F 
ATOM     21  F   UNL     1      47.957 129.510  16.111  1.00  0.00    -0.205 F 
ATOM     22  C   UNL     1      47.830 129.893  13.277  1.00  0.00     0.070 C 
ENDBRANCH  12  14
ENDBRANCH   5  12
TORSDOF 3
ENDMDL
MODEL 5
REMARK VINA RESULT:      -8.5      1.834      6.026
REMARK SMILES Cc1cc(N)c(Nc2cc(F)c(C)nc2F)cc1F
REMARK SMILES IDX 1 1 2 2 3 3 4 4 6 5 17 6 18 7 19 8 5 9 7 12 8 14 9 15 15 16
REMARK SMILES IDX 10 17 14 18 12 19 16 20 11 21 13 22
REMARK H PARENT 5 10 5 11 7 13
ROOT
ATOM      1  C   UNL     1      47.698 129.845  13.473  1.00  0.00     0.047 C 
ATOM      2  C   UNL     1      46.614 130.356  14.378  1.00  0.00    -0.013 A 
ATOM      3  C   UNL     1      45.464 130.950  13.837  1.00  0.00     0.034 A 
ATOM      4  C   UNL     1      44.429 131.401  14.671  1.00  0.00     0.056 A 
ATOM      5  C   UNL     1      44.559 131.268  16.072  1.00  0.00     0.065 A 
ATOM      6  C   UNL     1      45.689 130.633  16.604  1.00  0.00     0.067 A 
ATOM      7  C   UNL     1      46.711 130.180  15.767  1.00  0.00     0.128 A 
ATOM      8  F   UNL     1      47.795 129.572  16.311  1.00  0.00    -0.207 F 
ENDROOT
BRANCH   4   9
ATOM      9  N   UNL     1      43.243 131.947  14.081  1.00  0.00    -0.397 N 
ATOM     10  H   UNL     1      42.917 132.906  14.335  1.00  0.00     0.156 HD
ATOM     11  H   UNL     1      42.711 131.436  13.344  1.00  0.00     0.156 HD
ENDBRANCH   4   9
BRANCH   5  12
ATOM     12  N   UNL     1      43.546 131.744  16.970  1.00  0.00    -0.350 N 
ATOM     13  H   UNL     1      42.627 132.017  16.554  1.00  0.00     0.167 HD
BRANCH  12  14
ATOM     14  C   UNL     1      43.655 131.681  18.406  1.00  0.00     0.097 A 
ATOM     15  C   UNL     1      44.866 131.349  19.040  1.00  0.00     0.072 A 
ATOM     16  C   UNL     1      42.529 131.931  19.206  1.00  0.00     0.237 A 
ATOM     17  C   UNL     1      44.936 131.289  20.431  1.00  0.00     0.146 A 
ATOM     18  N   UNL     1      42.624 131.866  20.561  1.00  0.00    -0.220 NA
ATOM     19  C   UNL     1      43.790 131.557  21.190  1.00  0.00     0.076 A 
ATOM     20  F   UNL     1      41.340 132.250  18.640  1.00  0.00    -0.183 F 
ATOM     21  F   UNL     1      46.110 130.969  21.034  1.00  0.00    -0.205 F 
ATOM     22  C   UNL     1      43.833 131.499  22.685  1.00  0.00     0.070 C 
ENDBRANCH  12  14
ENDBRANCH   5  12
TORSDOF 3
ENDMDL
MODEL 6
REMARK VINA RESULT:      -8.1      1.756      6.272
REMARK SMILES Cc1cc(N)c(Nc2cc(F)c(C)nc2F)cc1F
REMARK SMILES IDX 1 1 2 2 3 3 4 4 6 5 17 6 18 7 19 8 5 9 7 12 8 14 9 15 15 16
REMARK SMILES IDX 10 17 14 18 12 19 16 20 11 21 13 22
REMARK H PARENT 5 10 5 11 7 13
ROOT
ATOM      1  C   UNL     1      48.971 129.424  13.165  1.00  0.00     0.047 C 
ATOM      2  C   UNL     1      47.700 129.911  13.799  1.00  0.00    -0.013 A 
ATOM      3  C   UNL     1      46.867 129.019  14.489  1.00  0.00     0.034 A 
ATOM      4  C   UNL     1      45.694 129.470  15.114  1.00  0.00     0.056 A 
ATOM      5  C   UNL     1      45.342 130.836  15.029  1.00  0.00     0.065 A 
ATOM      6  C   UNL     1      46.200 131.730  14.375  1.00  0.00     0.067 A 
ATOM      7  C   UNL     1      47.370 131.275  13.763  1.00  0.00     0.128 A 
ATOM      8  F   UNL     1      48.181 132.164  13.135  1.00  0.00    -0.207 F 
ENDROOT
BRANCH   4   9
ATOM      9  N   UNL     1      44.899 128.541  15.864  1.00  0.00    -0.397 N 
ATOM     10  H   UNL     1      43.903 128.367  15.607  1.00  0.00     0.156 HD
ATOM     11  H   UNL     1      45.303 127.973  16.639  1.00  0.00     0.156 HD
ENDBRANCH   4   9
BRANCH   5  12
ATOM     12  N   UNL     1      44.136 131.341  15.619  1.00  0.00    -0.350 N 
ATOM     13  H   UNL     1      43.310 131.465  14.990  1.00  0.00     0.167 HD
BRANCH  12  14
ATOM     14  C   UNL     1      43.944 131.496  17.039  1.00  0.00     0.097 A 
ATOM     15  C   UNL     1      42.701 131.875  17.578  1.00  0.00     0.072 A 
ATOM     16  C   UNL     1      45.019 131.293  17.918  1.00  0.00     0.237 A 
ATOM     17  C   UNL     1      42.550 132.024  18.957  1.00  0.00     0.146 A 
ATOM     18  N   UNL     1      44.846 131.445  19.258  1.00  0.00    -0.220 NA
ATOM     19  C   UNL     1      43.648 131.799  19.797  1.00  0.00     0.076 A 
ATOM     20  F   UNL     1      46.237 130.933  17.444  1.00  0.00    -0.183 F 
ATOM     21  F   UNL     1      41.346 132.387  19.468  1.00  0.00    -0.205 F 
ATOM     22  C   UNL     1      43.519 131.953  21.280  1.00  0.00     0.070 C 
ENDBRANCH  12  14
ENDBRANCH   5  12
TORSDOF 3
ENDMDL
MODEL 7
REMARK VINA RESULT:      -7.9      1.536      2.073
REMARK SMILES Cc1cc(N)c(Nc2cc(F)c(C)nc2F)cc1F
REMARK SMILES IDX 1 1 2 2 3 3 4 4 6 5 17 6 18 7 19 8 5 9 7 12 8 14 9 15 15 16
REMARK SMILES IDX 10 17 14 18 12 19 16 20 11 21 13 22
REMARK H PARENT 5 10 5 11 7 13
ROOT
ATOM      1  C   UNL     1      43.649 131.879  21.642  1.00  0.00     0.047 C 
ATOM      2  C   UNL     1      43.791 131.754  20.152  1.00  0.00    -0.013 A 
ATOM      3  C   UNL     1      44.956 131.207  19.596  1.00  0.00     0.034 A 
ATOM      4  C   UNL     1      45.085 131.055  18.207  1.00  0.00     0.056 A 
ATOM      5  C   UNL     1      44.034 131.475  17.361  1.00  0.00     0.065 A 
ATOM      6  C   UNL     1      42.855 131.981  17.925  1.00  0.00     0.067 A 
ATOM      7  C   UNL     1      42.731 132.121  19.308  1.00  0.00     0.128 A 
ATOM      8  F   UNL     1      41.577 132.616  19.825  1.00  0.00    -0.207 F 
ENDROOT
BRANCH   4   9
ATOM      9  N   UNL     1      46.264 130.434  17.678  1.00  0.00    -0.397 N 
ATOM     10  H   UNL     1      46.465 129.428  17.868  1.00  0.00     0.156 HD
ATOM     11  H   UNL     1      46.918 130.945  17.045  1.00  0.00     0.156 HD
ENDBRANCH   4   9
BRANCH   5  12
ATOM     12  N   UNL     1      44.130 131.374  15.933  1.00  0.00    -0.350 N 
ATOM     13  H   UNL     1      43.373 131.824  15.369  1.00  0.00     0.167 HD
BRANCH  12  14
ATOM     14  C   UNL     1      45.291 130.870  15.242  1.00  0.00     0.097 A 
ATOM     15  C   UNL     1      46.158 131.723  14.539  1.00  0.00     0.072 A 
ATOM     16  C   UNL     1      45.562 129.493  15.242  1.00  0.00     0.237 A 
ATOM     17  C   UNL     1      47.269 131.203  13.875  1.00  0.00     0.146 A 
ATOM     18  N   UNL     1      46.651 129.010  14.587  1.00  0.00    -0.220 NA
ATOM     19  C   UNL     1      47.507 129.823  13.910  1.00  0.00     0.076 A 
ATOM     20  F   UNL     1      44.750 128.631  15.902  1.00  0.00    -0.183 F 
ATOM     21  F   UNL     1      48.103 132.034  13.199  1.00  0.00    -0.205 F 
ATOM     22  C   UNL     1      48.688 129.233  13.206  1.00  0.00     0.070 C 
ENDBRANCH  12  14
ENDBRANCH   5  12
TORSDOF 3
ENDMDL
MODEL 8
REMARK VINA RESULT:      -7.9      1.739      6.178
REMARK SMILES Cc1cc(N)c(Nc2cc(F)c(C)nc2F)cc1F
REMARK SMILES IDX 1 1 2 2 3 3 4 4 6 5 17 6 18 7 19 8 5 9 7 12 8 14 9 15 15 16
REMARK SMILES IDX 10 17 14 18 12 19 16 20 11 21 13 22
REMARK H PARENT 5 10 5 11 7 13
ROOT
ATOM      1  C   UNL     1      47.943 129.399  13.721  1.00  0.00     0.047 C 
ATOM      2  C   UNL     1      46.881 130.028  14.576  1.00  0.00    -0.013 A 
ATOM      3  C   UNL     1      46.860 131.416  14.770  1.00  0.00     0.034 A 
ATOM      4  C   UNL     1      45.852 132.018  15.540  1.00  0.00     0.056 A 
ATOM      5  C   UNL     1      44.859 131.210  16.138  1.00  0.00     0.065 A 
ATOM      6  C   UNL     1      44.860 129.829  15.904  1.00  0.00     0.067 A 
ATOM      7  C   UNL     1      45.862 129.238  15.131  1.00  0.00     0.128 A 
ATOM      8  F   UNL     1      45.838 127.897  14.924  1.00  0.00    -0.207 F 
ENDROOT
BRANCH   4   9
ATOM      9  N   UNL     1      45.826 133.446  15.665  1.00  0.00    -0.397 N 
ATOM     10  H   UNL     1      45.930 133.898  16.600  1.00  0.00     0.156 HD
ATOM     11  H   UNL     1      45.767 134.070  14.832  1.00  0.00     0.156 HD
ENDBRANCH   4   9
BRANCH   5  12
ATOM     12  N   UNL     1      43.828 131.771  16.963  1.00  0.00    -0.350 N 
ATOM     13  H   UNL     1      42.970 132.126  16.482  1.00  0.00     0.167 HD
BRANCH  12  14
ATOM     14  C   UNL     1      43.823 131.695  18.402  1.00  0.00     0.097 A 
ATOM     15  C   UNL     1      44.973 131.329  19.125  1.00  0.00     0.072 A 
ATOM     16  C   UNL     1      42.644 131.966  19.114  1.00  0.00     0.237 A 
ATOM     17  C   UNL     1      44.933 131.258  20.517  1.00  0.00     0.146 A 
ATOM     18  N   UNL     1      42.632 131.889  20.472  1.00  0.00    -0.220 NA
ATOM     19  C   UNL     1      43.738 131.548  21.187  1.00  0.00     0.076 A 
ATOM     20  F   UNL     1      41.510 132.318  18.460  1.00  0.00    -0.183 F 
ATOM     21  F   UNL     1      46.048 130.905  21.206  1.00  0.00    -0.205 F 
ATOM     22  C   UNL     1      43.662 131.477  22.680  1.00  0.00     0.070 C 
ENDBRANCH  12  14
ENDBRANCH   5  12
TORSDOF 3
ENDMDL
MODEL 9
REMARK VINA RESULT:      -7.9      2.536      6.635
REMARK SMILES Cc1cc(N)c(Nc2cc(F)c(C)nc2F)cc1F
REMARK SMILES IDX 1 1 2 2 3 3 4 4 6 5 17 6 18 7 19 8 5 9 7 12 8 14 9 15 15 16
REMARK SMILES IDX 10 17 14 18 12 19 16 20 11 21 13 22
REMARK H PARENT 5 10 5 11 7 13
ROOT
ATOM      1  C   UNL     1      44.979 130.225  14.625  1.00  0.00     0.047 C 
ATOM      2  C   UNL     1      44.877 130.701  16.045  1.00  0.00    -0.013 A 
ATOM      3  C   UNL     1      43.718 131.355  16.490  1.00  0.00     0.034 A 
ATOM      4  C   UNL     1      43.599 131.775  17.825  1.00  0.00     0.056 A 
ATOM      5  C   UNL     1      44.667 131.549  18.722  1.00  0.00     0.065 A 
ATOM      6  C   UNL     1      45.803 130.856  18.283  1.00  0.00     0.067 A 
ATOM      7  C   UNL     1      45.911 130.435  16.956  1.00  0.00     0.128 A 
ATOM      8  F   UNL     1      47.025 129.768  16.559  1.00  0.00    -0.207 F 
ENDROOT
BRANCH   4   9
ATOM      9  N   UNL     1      42.376 132.384  18.259  1.00  0.00    -0.397 N 
ATOM     10  H   UNL     1      42.088 133.316  17.889  1.00  0.00     0.156 HD
ATOM     11  H   UNL     1      41.717 131.896  18.902  1.00  0.00     0.156 HD
ENDBRANCH   4   9
BRANCH   5  12
ATOM     12  N   UNL     1      44.610 131.989  20.086  1.00  0.00    -0.350 N 
ATOM     13  H   UNL     1      44.725 133.013  20.265  1.00  0.00     0.167 HD
BRANCH  12  14
ATOM     14  C   UNL     1      44.213 131.143  21.185  1.00  0.00     0.097 A 
ATOM     15  C   UNL     1      44.964 130.014  21.554  1.00  0.00     0.072 A 
ATOM     16  C   UNL     1      43.037 131.426  21.897  1.00  0.00     0.237 A 
ATOM     17  C   UNL     1      44.548 129.212  22.617  1.00  0.00     0.146 A 
ATOM     18  N   UNL     1      42.653 130.629  22.929  1.00  0.00    -0.220 NA
ATOM     19  C   UNL     1      43.374 129.539  23.307  1.00  0.00     0.076 A 
ATOM     20  F   UNL     1      42.278 132.502  21.573  1.00  0.00    -0.183 F 
ATOM     21  F   UNL     1      45.281 128.124  22.968  1.00  0.00    -0.205 F 
ATOM     22  C   UNL     1      42.901 128.697  24.450  1.00  0.00     0.070 C 
ENDBRANCH  12  14
ENDBRANCH   5  12
TORSDOF 3
ENDMDL


