REMARK SMILES C=Cc1ccc(-c2ccc3[nH]ccc3c2)[nH+]c1
REMARK SMILES IDX 3 1 4 2 5 3 6 4 16 5 17 6 2 8 1 9 7 10 8 11 15 12 9 13 14 14
REMARK SMILES IDX 10 15 13 16 11 17 12 18
REMARK H PARENT 16 7 11 19
ROOT
ATOM      1  C   UNL     1      -1.569   2.391   2.354  1.00  0.00     0.038 A 
ATOM      2  C   UNL     1      -0.175   2.289   2.205  1.00  0.00     0.021 A 
ATOM      3  C   UNL     1       0.365   1.544   1.157  1.00  0.00     0.081 A 
ATOM      4  C   UNL     1      -0.487   0.901   0.246  1.00  0.00     0.210 A 
ATOM      5  N   UNL     1      -1.839   1.021   0.399  1.00  0.00    -0.211 N 
ATOM      6  C   UNL     1      -2.385   1.744   1.415  1.00  0.00     0.314 A 
ATOM      7  H   UNL     1      -2.487   0.535  -0.260  1.00  0.00     0.453 HD
ENDROOT
BRANCH   1   8
ATOM      8  C   UNL     1      -2.210   3.173   3.440  1.00  0.00     0.006 C 
ATOM      9  C   UNL     1      -1.581   3.586   4.541  1.00  0.00     0.009 C 
ENDBRANCH   1   8
BRANCH   4  10
ATOM     10  C   UNL     1       0.073   0.111  -0.879  1.00  0.00     0.047 A 
ATOM     11  C   UNL     1       1.216  -0.713  -0.685  1.00  0.00     0.017 A 
ATOM     12  C   UNL     1      -0.530   0.171  -2.157  1.00  0.00     0.025 A 
ATOM     13  C   UNL     1       1.751  -1.465  -1.747  1.00  0.00     0.027 A 
ATOM     14  C   UNL     1       0.027  -0.587  -3.184  1.00  0.00     0.000 A 
ATOM     15  C   UNL     1       1.127  -1.376  -2.988  1.00  0.00     0.045 A 
ATOM     16  C   UNL     1      -0.342  -0.716  -4.505  1.00  0.00     0.028 A 
ATOM     17  N   UNL     1       1.474  -2.003  -4.123  1.00  0.00    -0.361 N 
ATOM     18  C   UNL     1       0.579  -1.603  -5.055  1.00  0.00     0.083 A 
ATOM     19  H   UNL     1       2.271  -2.663  -4.263  1.00  0.00     0.166 HD
ENDBRANCH   4  10
TORSDOF 2


