MODEL 1
REMARK VINA RESULT:      -5.2      0.000      0.000
REMARK SMILES C/C(O)=C1\CC[C@H](c2cc3ccccc3[nH]2)C[N@H+]1C(=O)c1ncn[nH]1
REMARK SMILES IDX 4 1 5 2 6 3 7 4 17 5 18 6 2 8 1 9 3 10 19 12 20 13 21 14
REMARK SMILES IDX 22 15 25 16 23 17 24 18 8 20 9 21 16 22 10 23 15 24 11 25
REMARK SMILES IDX 14 26 12 27 13 28
REMARK H PARENT 18 7 3 11 25 19 16 29
ROOT
ATOM      1  C   UNL     1      43.804 131.379  22.318  1.00  0.00     0.152 C 
ATOM      2  C   UNL     1      44.955 132.291  21.891  1.00  0.00     0.102 C 
ATOM      3  C   UNL     1      45.207 132.275  20.386  1.00  0.00     0.026 C 
ATOM      4  C   UNL     1      45.235 130.844  19.857  1.00  0.00     0.092 C 
ATOM      5  C   UNL     1      43.887 130.177  20.165  1.00  0.00     0.285 C 
ATOM      6  N   UNL     1      43.592 130.114  21.615  1.00  0.00    -0.232 N 
ATOM      7  H   UNL     1      42.573 129.886  21.656  1.00  0.00     0.363 HD
ENDROOT
BRANCH   1   8
ATOM      8  C   UNL     1      43.132 131.643  23.479  1.00  0.00     0.146 C 
ATOM      9  C   UNL     1      43.758 132.410  24.611  1.00  0.00     0.093 C 
BRANCH   8  10
ATOM     10  O   UNL     1      41.820 131.207  23.699  1.00  0.00    -0.507 OA
ATOM     11  H   UNL     1      41.217 131.535  24.441  1.00  0.00     0.293 HD
ENDBRANCH   8  10
ENDBRANCH   1   8
BRANCH   6  12
ATOM     12  C   UNL     1      44.342 129.041  22.241  1.00  0.00     0.386 C 
ATOM     13  O   UNL     1      45.566 128.877  21.978  1.00  0.00    -0.221 OA
BRANCH  12  14
ATOM     14  C   UNL     1      43.679 128.089  23.154  1.00  0.00     0.255 A 
ATOM     15  N   UNL     1      42.732 128.432  24.049  1.00  0.00    -0.207 NA
ATOM     16  N   UNL     1      43.939 126.771  23.190  1.00  0.00    -0.252 N 
ATOM     17  C   UNL     1      42.441 127.247  24.625  1.00  0.00     0.246 A 
ATOM     18  N   UNL     1      43.165 126.233  24.113  1.00  0.00    -0.162 NA
ATOM     19  H   UNL     1      44.624 126.243  22.606  1.00  0.00     0.192 HD
ENDBRANCH  12  14
ENDBRANCH   6  12
BRANCH   4  20
ATOM     20  C   UNL     1      45.517 130.824  18.376  1.00  0.00     0.025 A 
ATOM     21  C   UNL     1      45.096 131.782  17.452  1.00  0.00     0.032 A 
ATOM     22  N   UNL     1      46.223 129.842  17.765  1.00  0.00    -0.358 N 
ATOM     23  C   UNL     1      45.579 131.343  16.239  1.00  0.00    -0.000 A 
ATOM     24  C   UNL     1      46.253 130.171  16.464  1.00  0.00     0.046 A 
ATOM     25  C   UNL     1      45.466 131.895  14.965  1.00  0.00     0.010 A 
ATOM     26  C   UNL     1      46.863 129.466  15.426  1.00  0.00     0.026 A 
ATOM     27  C   UNL     1      46.073 131.207  13.897  1.00  0.00     0.001 A 
ATOM     28  C   UNL     1      46.768 129.998  14.126  1.00  0.00     0.002 A 
ATOM     29  H   UNL     1      46.653 129.001  18.211  1.00  0.00     0.166 HD
ENDBRANCH   4  20
TORSDOF 5
ENDMDL
MODEL 2
REMARK VINA RESULT:      -4.6      2.628      3.575
REMARK SMILES C/C(O)=C1\CC[C@H](c2cc3ccccc3[nH]2)C[N@H+]1C(=O)c1ncn[nH]1
REMARK SMILES IDX 4 1 5 2 6 3 7 4 17 5 18 6 2 8 1 9 3 10 19 12 20 13 21 14
REMARK SMILES IDX 22 15 25 16 23 17 24 18 8 20 9 21 16 22 10 23 15 24 11 25
REMARK SMILES IDX 14 26 12 27 13 28
REMARK H PARENT 18 7 3 11 25 19 16 29
ROOT
ATOM      1  C   UNL     1      44.824 131.010  21.316  1.00  0.00     0.152 C 
ATOM      2  C   UNL     1      45.272 129.636  20.813  1.00  0.00     0.102 C 
ATOM      3  C   UNL     1      45.970 129.691  19.458  1.00  0.00     0.026 C 
ATOM      4  C   UNL     1      45.180 130.554  18.478  1.00  0.00     0.092 C 
ATOM      5  C   UNL     1      45.056 131.971  19.055  1.00  0.00     0.285 C 
ATOM      6  N   UNL     1      44.346 132.003  20.355  1.00  0.00    -0.232 N 
ATOM      7  H   UNL     1      44.561 132.953  20.736  1.00  0.00     0.363 HD
ENDROOT
BRANCH   1   8
ATOM      8  C   UNL     1      44.662 131.215  22.657  1.00  0.00     0.146 C 
ATOM      9  C   UNL     1      44.234 130.117  23.591  1.00  0.00     0.093 C 
BRANCH   8  10
ATOM     10  O   UNL     1      44.873 132.465  23.253  1.00  0.00    -0.507 OA
ATOM     11  H   UNL     1      45.728 132.753  23.707  1.00  0.00     0.293 HD
ENDBRANCH   8  10
ENDBRANCH   1   8
BRANCH   6  12
ATOM     12  C   UNL     1      42.913 131.886  20.156  1.00  0.00     0.386 C 
ATOM     13  O   UNL     1      42.454 131.306  19.133  1.00  0.00    -0.221 OA
BRANCH  12  14
ATOM     14  C   UNL     1      41.966 132.488  21.116  1.00  0.00     0.255 A 
ATOM     15  N   UNL     1      41.990 132.265  22.444  1.00  0.00    -0.207 NA
ATOM     16  N   UNL     1      40.978 133.331  20.773  1.00  0.00    -0.252 N 
ATOM     17  C   UNL     1      40.960 133.021  22.878  1.00  0.00     0.246 A 
ATOM     18  N   UNL     1      40.339 133.671  21.875  1.00  0.00    -0.162 NA
ATOM     19  H   UNL     1      40.737 133.672  19.816  1.00  0.00     0.192 HD
ENDBRANCH  12  14
ENDBRANCH   6  12
BRANCH   4  20
ATOM     20  C   UNL     1      45.850 130.583  17.127  1.00  0.00     0.025 A 
ATOM     21  C   UNL     1      45.827 131.651  16.228  1.00  0.00     0.032 A 
ATOM     22  N   UNL     1      46.561 129.544  16.625  1.00  0.00    -0.358 N 
ATOM     23  C   UNL     1      46.561 131.219  15.144  1.00  0.00    -0.000 A 
ATOM     24  C   UNL     1      46.987 129.946  15.417  1.00  0.00     0.046 A 
ATOM     25  C   UNL     1      46.873 131.860  13.948  1.00  0.00     0.010 A 
ATOM     26  C   UNL     1      47.759 129.222  14.508  1.00  0.00     0.026 A 
ATOM     27  C   UNL     1      47.652 131.156  13.011  1.00  0.00     0.001 A 
ATOM     28  C   UNL     1      48.093 129.843  13.290  1.00  0.00     0.002 A 
ATOM     29  H   UNL     1      46.739 128.621  17.080  1.00  0.00     0.166 HD
ENDBRANCH   4  20
TORSDOF 5
ENDMDL
MODEL 3
REMARK VINA RESULT:      -4.6      2.387      3.580
REMARK SMILES C/C(O)=C1\CC[C@H](c2cc3ccccc3[nH]2)C[N@H+]1C(=O)c1ncn[nH]1
REMARK SMILES IDX 4 1 5 2 6 3 7 4 17 5 18 6 2 8 1 9 3 10 19 12 20 13 21 14
REMARK SMILES IDX 22 15 25 16 23 17 24 18 8 20 9 21 16 22 10 23 15 24 11 25
REMARK SMILES IDX 14 26 12 27 13 28
REMARK H PARENT 18 7 3 11 25 19 16 29
ROOT
ATOM      1  C   UNL     1      44.829 130.653  22.433  1.00  0.00     0.152 C 
ATOM      2  C   UNL     1      44.953 129.310  21.710  1.00  0.00     0.102 C 
ATOM      3  C   UNL     1      45.550 129.434  20.312  1.00  0.00     0.026 C 
ATOM      4  C   UNL     1      44.885 130.568  19.538  1.00  0.00     0.092 C 
ATOM      5  C   UNL     1      45.091 131.881  20.309  1.00  0.00     0.285 C 
ATOM      6  N   UNL     1      44.496 131.852  21.665  1.00  0.00    -0.232 N 
ATOM      7  H   UNL     1      44.925 132.675  22.146  1.00  0.00     0.363 HD
ENDROOT
BRANCH   1   8
ATOM      8  C   UNL     1      44.807 130.682  23.799  1.00  0.00     0.146 C 
ATOM      9  C   UNL     1      44.622 129.439  24.625  1.00  0.00     0.093 C 
BRANCH   8  10
ATOM     10  O   UNL     1      44.943 131.872  24.524  1.00  0.00    -0.507 OA
ATOM     11  H   UNL     1      45.117 131.929  25.518  1.00  0.00     0.293 HD
ENDBRANCH   8  10
ENDBRANCH   1   8
BRANCH   6  12
ATOM     12  C   UNL     1      43.059 132.041  21.594  1.00  0.00     0.386 C 
ATOM     13  O   UNL     1      42.372 132.128  22.650  1.00  0.00    -0.221 OA
BRANCH  12  14
ATOM     14  C   UNL     1      42.366 132.080  20.291  1.00  0.00     0.255 A 
ATOM     15  N   UNL     1      42.317 133.163  19.492  1.00  0.00    -0.207 NA
ATOM     16  N   UNL     1      41.711 131.038  19.752  1.00  0.00    -0.252 N 
ATOM     17  C   UNL     1      41.596 132.713  18.444  1.00  0.00     0.246 A 
ATOM     18  N   UNL     1      41.223 131.426  18.590  1.00  0.00    -0.162 NA
ATOM     19  H   UNL     1      41.594 130.083  20.158  1.00  0.00     0.192 HD
ENDBRANCH  12  14
ENDBRANCH   6  12
BRANCH   4  20
ATOM     20  C   UNL     1      45.451 130.672  18.144  1.00  0.00     0.025 A 
ATOM     21  C   UNL     1      45.333 131.775  17.296  1.00  0.00     0.032 A 
ATOM     22  N   UNL     1      46.147 129.675  17.547  1.00  0.00    -0.358 N 
ATOM     23  C   UNL     1      45.994 131.409  16.143  1.00  0.00    -0.000 A 
ATOM     24  C   UNL     1      46.472 130.138  16.328  1.00  0.00     0.046 A 
ATOM     25  C   UNL     1      46.199 132.107  14.956  1.00  0.00     0.010 A 
ATOM     26  C   UNL     1      47.191 129.474  15.335  1.00  0.00     0.026 A 
ATOM     27  C   UNL     1      46.923 131.464  13.934  1.00  0.00     0.001 A 
ATOM     28  C   UNL     1      47.417 130.153  14.123  1.00  0.00     0.002 A 
ATOM     29  H   UNL     1      46.382 128.739  17.947  1.00  0.00     0.166 HD
ENDBRANCH   4  20
TORSDOF 5
ENDMDL
MODEL 4
REMARK VINA RESULT:      -4.6      2.489      3.694
REMARK SMILES C/C(O)=C1\CC[C@H](c2cc3ccccc3[nH]2)C[N@H+]1C(=O)c1ncn[nH]1
REMARK SMILES IDX 4 1 5 2 6 3 7 4 17 5 18 6 2 8 1 9 3 10 19 12 20 13 21 14
REMARK SMILES IDX 22 15 25 16 23 17 24 18 8 20 9 21 16 22 10 23 15 24 11 25
REMARK SMILES IDX 14 26 12 27 13 28
REMARK H PARENT 18 7 3 11 25 19 16 29
ROOT
ATOM      1  C   UNL     1      44.791 131.024  22.351  1.00  0.00     0.152 C 
ATOM      2  C   UNL     1      45.016 129.642  21.736  1.00  0.00     0.102 C 
ATOM      3  C   UNL     1      45.621 129.698  20.337  1.00  0.00     0.026 C 
ATOM      4  C   UNL     1      44.890 130.721  19.472  1.00  0.00     0.092 C 
ATOM      5  C   UNL     1      44.995 132.099  20.140  1.00  0.00     0.285 C 
ATOM      6  N   UNL     1      44.386 132.134  21.490  1.00  0.00    -0.232 N 
ATOM      7  H   UNL     1      44.751 133.020  21.908  1.00  0.00     0.363 HD
ENDROOT
BRANCH   1   8
ATOM      8  C   UNL     1      44.749 131.157  23.711  1.00  0.00     0.146 C 
ATOM      9  C   UNL     1      44.937 132.484  24.393  1.00  0.00     0.093 C 
BRANCH   8  10
ATOM     10  O   UNL     1      44.541 130.065  24.562  1.00  0.00    -0.507 OA
ATOM     11  H   UNL     1      43.669 129.563  24.659  1.00  0.00     0.293 HD
ENDBRANCH   8  10
ENDBRANCH   1   8
BRANCH   6  12
ATOM     12  C   UNL     1      42.940 132.217  21.394  1.00  0.00     0.386 C 
ATOM     13  O   UNL     1      42.229 132.217  22.437  1.00  0.00    -0.221 OA
BRANCH  12  14
ATOM     14  C   UNL     1      42.271 132.247  20.078  1.00  0.00     0.255 A 
ATOM     15  N   UNL     1      41.862 131.150  19.412  1.00  0.00    -0.207 NA
ATOM     16  N   UNL     1      41.990 133.372  19.400  1.00  0.00    -0.252 N 
ATOM     17  C   UNL     1      41.320 131.681  18.295  1.00  0.00     0.246 A 
ATOM     18  N   UNL     1      41.391 133.026  18.276  1.00  0.00    -0.162 NA
ATOM     19  H   UNL     1      42.195 134.355  19.686  1.00  0.00     0.192 HD
ENDBRANCH  12  14
ENDBRANCH   6  12
BRANCH   4  20
ATOM     20  C   UNL     1      45.464 130.755  18.078  1.00  0.00     0.025 A 
ATOM     21  C   UNL     1      45.377 131.826  17.186  1.00  0.00     0.032 A 
ATOM     22  N   UNL     1      46.140 129.719  17.525  1.00  0.00    -0.358 N 
ATOM     23  C   UNL     1      46.034 131.399  16.053  1.00  0.00    -0.000 A 
ATOM     24  C   UNL     1      46.481 130.125  16.291  1.00  0.00     0.046 A 
ATOM     25  C   UNL     1      46.262 132.044  14.840  1.00  0.00     0.010 A 
ATOM     26  C   UNL     1      47.189 129.406  15.329  1.00  0.00     0.026 A 
ATOM     27  C   UNL     1      46.975 131.344  13.849  1.00  0.00     0.001 A 
ATOM     28  C   UNL     1      47.437 130.031  14.092  1.00  0.00     0.002 A 
ATOM     29  H   UNL     1      46.350 128.795  17.963  1.00  0.00     0.166 HD
ENDBRANCH   4  20
TORSDOF 5
ENDMDL
MODEL 5
REMARK VINA RESULT:      -4.4      2.535      3.913
REMARK SMILES C/C(O)=C1\CC[C@H](c2cc3ccccc3[nH]2)C[N@H+]1C(=O)c1ncn[nH]1
REMARK SMILES IDX 4 1 5 2 6 3 7 4 17 5 18 6 2 8 1 9 3 10 19 12 20 13 21 14
REMARK SMILES IDX 22 15 25 16 23 17 24 18 8 20 9 21 16 22 10 23 15 24 11 25
REMARK SMILES IDX 14 26 12 27 13 28
REMARK H PARENT 18 7 3 11 25 19 16 29
ROOT
ATOM      1  C   UNL     1      44.796 130.977  22.360  1.00  0.00     0.152 C 
ATOM      2  C   UNL     1      44.979 129.586  21.751  1.00  0.00     0.102 C 
ATOM      3  C   UNL     1      45.590 129.617  20.354  1.00  0.00     0.026 C 
ATOM      4  C   UNL     1      44.894 130.659  19.483  1.00  0.00     0.092 C 
ATOM      5  C   UNL     1      45.042 132.036  20.145  1.00  0.00     0.285 C 
ATOM      6  N   UNL     1      44.430 132.096  21.493  1.00  0.00    -0.232 N 
ATOM      7  H   UNL     1      44.822 132.971  21.909  1.00  0.00     0.363 HD
ENDROOT
BRANCH   1   8
ATOM      8  C   UNL     1      44.755 131.117  23.719  1.00  0.00     0.146 C 
ATOM      9  C   UNL     1      44.279 130.014  24.625  1.00  0.00     0.093 C 
BRANCH   8  10
ATOM     10  O   UNL     1      45.142 132.299  24.362  1.00  0.00    -0.507 OA
ATOM     11  H   UNL     1      45.289 132.397  25.356  1.00  0.00     0.293 HD
ENDBRANCH   8  10
ENDBRANCH   1   8
BRANCH   6  12
ATOM     12  C   UNL     1      42.988 132.225  21.392  1.00  0.00     0.386 C 
ATOM     13  O   UNL     1      42.275 132.266  22.433  1.00  0.00    -0.221 OA
BRANCH  12  14
ATOM     14  C   UNL     1      42.323 132.254  20.075  1.00  0.00     0.255 A 
ATOM     15  N   UNL     1      41.927 131.156  19.402  1.00  0.00    -0.207 NA
ATOM     16  N   UNL     1      42.030 133.379  19.401  1.00  0.00    -0.252 N 
ATOM     17  C   UNL     1      41.383 131.686  18.286  1.00  0.00     0.246 A 
ATOM     18  N   UNL     1      41.439 133.032  18.274  1.00  0.00    -0.162 NA
ATOM     19  H   UNL     1      42.224 134.363  19.693  1.00  0.00     0.192 HD
ENDBRANCH  12  14
ENDBRANCH   6  12
BRANCH   4  20
ATOM     20  C   UNL     1      45.473 130.670  18.091  1.00  0.00     0.025 A 
ATOM     21  C   UNL     1      46.144 129.609  17.478  1.00  0.00     0.032 A 
ATOM     22  N   UNL     1      45.409 131.742  17.265  1.00  0.00    -0.358 N 
ATOM     23  C   UNL     1      46.490 130.081  16.230  1.00  0.00    -0.000 A 
ATOM     24  C   UNL     1      46.032 131.369  16.136  1.00  0.00     0.046 A 
ATOM     25  C   UNL     1      47.174 129.464  15.185  1.00  0.00     0.010 A 
ATOM     26  C   UNL     1      46.228 132.133  14.985  1.00  0.00     0.026 A 
ATOM     27  C   UNL     1      47.385 130.209  14.011  1.00  0.00     0.001 A 
ATOM     28  C   UNL     1      46.914 131.538  13.910  1.00  0.00     0.002 A 
ATOM     29  H   UNL     1      44.969 132.668  17.465  1.00  0.00     0.166 HD
ENDBRANCH   4  20
TORSDOF 5
ENDMDL
MODEL 6
REMARK VINA RESULT:      -4.4      2.788      4.178
REMARK SMILES C/C(O)=C1\CC[C@H](c2cc3ccccc3[nH]2)C[N@H+]1C(=O)c1ncn[nH]1
REMARK SMILES IDX 4 1 5 2 6 3 7 4 17 5 18 6 2 8 1 9 3 10 19 12 20 13 21 14
REMARK SMILES IDX 22 15 25 16 23 17 24 18 8 20 9 21 16 22 10 23 15 24 11 25
REMARK SMILES IDX 14 26 12 27 13 28
REMARK H PARENT 18 7 3 11 25 19 16 29
ROOT
ATOM      1  C   UNL     1      44.446 131.305  21.304  1.00  0.00     0.152 C 
ATOM      2  C   UNL     1      43.426 131.454  20.174  1.00  0.00     0.102 C 
ATOM      3  C   UNL     1      43.975 131.046  18.811  1.00  0.00     0.026 C 
ATOM      4  C   UNL     1      45.351 131.661  18.575  1.00  0.00     0.092 C 
ATOM      5  C   UNL     1      46.302 131.184  19.683  1.00  0.00     0.285 C 
ATOM      6  N   UNL     1      45.856 131.585  21.037  1.00  0.00    -0.232 N 
ATOM      7  H   UNL     1      46.432 130.992  21.677  1.00  0.00     0.363 HD
ENDROOT
BRANCH   1   8
ATOM      8  C   UNL     1      44.009 131.134  22.587  1.00  0.00     0.146 C 
ATOM      9  C   UNL     1      43.898 129.775  23.222  1.00  0.00     0.093 C 
BRANCH   8  10
ATOM     10  O   UNL     1      43.622 132.210  23.396  1.00  0.00    -0.507 OA
ATOM     11  H   UNL     1      44.201 133.011  23.609  1.00  0.00     0.293 HD
ENDBRANCH   8  10
ENDBRANCH   1   8
BRANCH   6  12
ATOM     12  C   UNL     1      46.164 132.982  21.282  1.00  0.00     0.386 C 
ATOM     13  O   UNL     1      45.542 133.892  20.666  1.00  0.00    -0.221 OA
BRANCH  12  14
ATOM     14  C   UNL     1      47.244 133.365  22.213  1.00  0.00     0.255 A 
ATOM     15  N   UNL     1      47.040 133.954  23.408  1.00  0.00    -0.207 NA
ATOM     16  N   UNL     1      48.551 133.165  21.977  1.00  0.00    -0.252 N 
ATOM     17  C   UNL     1      48.299 134.096  23.874  1.00  0.00     0.246 A 
ATOM     18  N   UNL     1      49.223 133.621  23.016  1.00  0.00    -0.162 NA
ATOM     19  H   UNL     1      48.984 132.728  21.133  1.00  0.00     0.192 HD
ENDBRANCH  12  14
ENDBRANCH   6  12
BRANCH   4  20
ATOM     20  C   UNL     1      45.882 131.286  17.215  1.00  0.00     0.025 A 
ATOM     21  C   UNL     1      45.747 132.042  16.049  1.00  0.00     0.032 A 
ATOM     22  N   UNL     1      46.561 130.139  16.971  1.00  0.00    -0.358 N 
ATOM     23  C   UNL     1      46.378 131.304  15.072  1.00  0.00    -0.000 A 
ATOM     24  C   UNL     1      46.857 130.163  15.661  1.00  0.00     0.046 A 
ATOM     25  C   UNL     1      46.556 131.562  13.714  1.00  0.00     0.010 A 
ATOM     26  C   UNL     1      47.550 129.197  14.931  1.00  0.00     0.026 A 
ATOM     27  C   UNL     1      47.252 130.606  12.952  1.00  0.00     0.001 A 
ATOM     28  C   UNL     1      47.748 129.429  13.557  1.00  0.00     0.002 A 
ATOM     29  H   UNL     1      46.803 129.389  17.656  1.00  0.00     0.166 HD
ENDBRANCH   4  20
TORSDOF 5
ENDMDL
MODEL 7
REMARK VINA RESULT:      -4.2      2.840      4.377
REMARK SMILES C/C(O)=C1\CC[C@H](c2cc3ccccc3[nH]2)C[N@H+]1C(=O)c1ncn[nH]1
REMARK SMILES IDX 4 1 5 2 6 3 7 4 17 5 18 6 2 8 1 9 3 10 19 12 20 13 21 14
REMARK SMILES IDX 22 15 25 16 23 17 24 18 8 20 9 21 16 22 10 23 15 24 11 25
REMARK SMILES IDX 14 26 12 27 13 28
REMARK H PARENT 18 7 3 11 25 19 16 29
ROOT
ATOM      1  C   UNL     1      44.361 131.486  21.259  1.00  0.00     0.152 C 
ATOM      2  C   UNL     1      43.363 131.633  20.109  1.00  0.00     0.102 C 
ATOM      3  C   UNL     1      43.918 131.162  18.768  1.00  0.00     0.026 C 
ATOM      4  C   UNL     1      45.318 131.721  18.535  1.00  0.00     0.092 C 
ATOM      5  C   UNL     1      46.235 131.248  19.671  1.00  0.00     0.285 C 
ATOM      6  N   UNL     1      45.784 131.708  21.005  1.00  0.00    -0.232 N 
ATOM      7  H   UNL     1      46.329 131.116  21.673  1.00  0.00     0.363 HD
ENDROOT
BRANCH   1   8
ATOM      8  C   UNL     1      43.899 131.371  22.540  1.00  0.00     0.146 C 
ATOM      9  C   UNL     1      42.586 131.961  22.975  1.00  0.00     0.093 C 
BRANCH   8  10
ATOM     10  O   UNL     1      44.622 130.708  23.539  1.00  0.00    -0.507 OA
ATOM     11  H   UNL     1      45.201 129.893  23.391  1.00  0.00     0.293 HD
ENDBRANCH   8  10
ENDBRANCH   1   8
BRANCH   6  12
ATOM     12  C   UNL     1      46.137 133.101  21.210  1.00  0.00     0.386 C 
ATOM     13  O   UNL     1      45.629 134.002  20.487  1.00  0.00    -0.221 OA
BRANCH  12  14
ATOM     14  C   UNL     1      47.134 133.485  22.229  1.00  0.00     0.255 A 
ATOM     15  N   UNL     1      48.463 133.516  22.013  1.00  0.00    -0.207 NA
ATOM     16  N   UNL     1      46.828 133.854  23.484  1.00  0.00    -0.252 N 
ATOM     17  C   UNL     1      48.937 133.923  23.209  1.00  0.00     0.246 A 
ATOM     18  N   UNL     1      47.956 134.131  24.109  1.00  0.00    -0.162 NA
ATOM     19  H   UNL     1      45.878 133.918  23.913  1.00  0.00     0.192 HD
ENDBRANCH  12  14
ENDBRANCH   6  12
BRANCH   4  20
ATOM     20  C   UNL     1      45.855 131.283  17.195  1.00  0.00     0.025 A 
ATOM     21  C   UNL     1      46.425 130.041  16.911  1.00  0.00     0.032 A 
ATOM     22  N   UNL     1      45.847 132.074  16.095  1.00  0.00    -0.358 N 
ATOM     23  C   UNL     1      46.769 130.104  15.579  1.00  0.00    -0.000 A 
ATOM     24  C   UNL     1      46.407 131.343  15.118  1.00  0.00     0.046 A 
ATOM     25  C   UNL     1      47.374 129.159  14.753  1.00  0.00     0.010 A 
ATOM     26  C   UNL     1      46.626 131.724  13.795  1.00  0.00     0.026 A 
ATOM     27  C   UNL     1      47.606 129.514  13.412  1.00  0.00     0.001 A 
ATOM     28  C   UNL     1      47.234 130.791  12.934  1.00  0.00     0.002 A 
ATOM     29  H   UNL     1      45.485 133.051  16.021  1.00  0.00     0.166 HD
ENDBRANCH   4  20
TORSDOF 5
ENDMDL
MODEL 8
REMARK VINA RESULT:      -4.2      2.678      3.767
REMARK SMILES C/C(O)=C1\CC[C@H](c2cc3ccccc3[nH]2)C[N@H+]1C(=O)c1ncn[nH]1
REMARK SMILES IDX 4 1 5 2 6 3 7 4 17 5 18 6 2 8 1 9 3 10 19 12 20 13 21 14
REMARK SMILES IDX 22 15 25 16 23 17 24 18 8 20 9 21 16 22 10 23 15 24 11 25
REMARK SMILES IDX 14 26 12 27 13 28
REMARK H PARENT 18 7 3 11 25 19 16 29
ROOT
ATOM      1  C   UNL     1      43.374 131.551  20.485  1.00  0.00     0.152 C 
ATOM      2  C   UNL     1      42.749 132.068  19.188  1.00  0.00     0.102 C 
ATOM      3  C   UNL     1      43.478 131.588  17.937  1.00  0.00     0.026 C 
ATOM      4  C   UNL     1      44.985 131.764  18.088  1.00  0.00     0.092 C 
ATOM      5  C   UNL     1      45.459 130.959  19.307  1.00  0.00     0.285 C 
ATOM      6  N   UNL     1      44.825 131.401  20.571  1.00  0.00    -0.232 N 
ATOM      7  H   UNL     1      45.033 130.625  21.241  1.00  0.00     0.363 HD
ENDROOT
BRANCH   1   8
ATOM      8  C   UNL     1      42.603 131.451  21.610  1.00  0.00     0.146 C 
ATOM      9  C   UNL     1      42.568 130.204  22.449  1.00  0.00     0.093 C 
BRANCH   8  10
ATOM     10  O   UNL     1      41.785 132.498  22.051  1.00  0.00    -0.507 OA
ATOM     11  H   UNL     1      40.852 132.387  22.422  1.00  0.00     0.293 HD
ENDBRANCH   8  10
ENDBRANCH   1   8
BRANCH   6  12
ATOM     12  C   UNL     1      45.446 132.621  21.052  1.00  0.00     0.386 C 
ATOM     13  O   UNL     1      45.868 133.489  20.238  1.00  0.00    -0.221 OA
BRANCH  12  14
ATOM     14  C   UNL     1      45.647 132.847  22.497  1.00  0.00     0.255 A 
ATOM     15  N   UNL     1      46.564 133.688  23.012  1.00  0.00    -0.207 NA
ATOM     16  N   UNL     1      44.932 132.244  23.462  1.00  0.00    -0.252 N 
ATOM     17  C   UNL     1      46.360 133.555  24.340  1.00  0.00     0.246 A 
ATOM     18  N   UNL     1      45.374 132.683  24.625  1.00  0.00    -0.162 NA
ATOM     19  H   UNL     1      44.161 131.550  23.342  1.00  0.00     0.192 HD
ENDBRANCH  12  14
ENDBRANCH   6  12
BRANCH   4  20
ATOM     20  C   UNL     1      45.706 131.321  16.840  1.00  0.00     0.025 A 
ATOM     21  C   UNL     1      46.286 130.068  16.635  1.00  0.00     0.032 A 
ATOM     22  N   UNL     1      45.879 132.116  15.757  1.00  0.00    -0.358 N 
ATOM     23  C   UNL     1      46.825 130.129  15.368  1.00  0.00    -0.000 A 
ATOM     24  C   UNL     1      46.562 131.377  14.868  1.00  0.00     0.046 A 
ATOM     25  C   UNL     1      47.525 129.174  14.634  1.00  0.00     0.010 A 
ATOM     26  C   UNL     1      46.983 131.759  13.594  1.00  0.00     0.026 A 
ATOM     27  C   UNL     1      47.962 129.530  13.345  1.00  0.00     0.001 A 
ATOM     28  C   UNL     1      47.692 130.816  12.827  1.00  0.00     0.002 A 
ATOM     29  H   UNL     1      45.552 133.101  15.637  1.00  0.00     0.166 HD
ENDBRANCH   4  20
TORSDOF 5
ENDMDL
MODEL 9
REMARK VINA RESULT:      -4.1      1.885      2.367
REMARK SMILES C/C(O)=C1\CC[C@H](c2cc3ccccc3[nH]2)C[N@H+]1C(=O)c1ncn[nH]1
REMARK SMILES IDX 4 1 5 2 6 3 7 4 17 5 18 6 2 8 1 9 3 10 19 12 20 13 21 14
REMARK SMILES IDX 22 15 25 16 23 17 24 18 8 20 9 21 16 22 10 23 15 24 11 25
REMARK SMILES IDX 14 26 12 27 13 28
REMARK H PARENT 18 7 3 11 25 19 16 29
ROOT
ATOM      1  C   UNL     1      45.048 131.523  22.183  1.00  0.00     0.152 C 
ATOM      2  C   UNL     1      45.650 130.195  21.723  1.00  0.00     0.102 C 
ATOM      3  C   UNL     1      46.075 130.204  20.258  1.00  0.00     0.026 C 
ATOM      4  C   UNL     1      44.978 130.798  19.380  1.00  0.00     0.092 C 
ATOM      5  C   UNL     1      44.694 132.233  19.847  1.00  0.00     0.285 C 
ATOM      6  N   UNL     1      44.231 132.300  21.252  1.00  0.00    -0.232 N 
ATOM      7  H   UNL     1      44.327 133.311  21.501  1.00  0.00     0.363 HD
ENDROOT
BRANCH   1   8
ATOM      8  C   UNL     1      45.089 131.857  23.508  1.00  0.00     0.146 C 
ATOM      9  C   UNL     1      45.508 133.223  23.978  1.00  0.00     0.093 C 
BRANCH   8  10
ATOM     10  O   UNL     1      44.756 130.947  24.519  1.00  0.00    -0.507 OA
ATOM     11  H   UNL     1      45.108 130.003  24.587  1.00  0.00     0.293 HD
ENDBRANCH   8  10
ENDBRANCH   1   8
BRANCH   6  12
ATOM     12  C   UNL     1      42.833 131.921  21.347  1.00  0.00     0.386 C 
ATOM     13  O   UNL     1      42.010 132.284  20.461  1.00  0.00    -0.221 OA
BRANCH  12  14
ATOM     14  C   UNL     1      42.336 131.152  22.505  1.00  0.00     0.255 A 
ATOM     15  N   UNL     1      41.875 131.709  23.642  1.00  0.00    -0.207 NA
ATOM     16  N   UNL     1      42.281 129.811  22.553  1.00  0.00    -0.252 N 
ATOM     17  C   UNL     1      41.542 130.625  24.375  1.00  0.00     0.246 A 
ATOM     18  N   UNL     1      41.783 129.470  23.726  1.00  0.00    -0.162 NA
ATOM     19  H   UNL     1      42.572 129.136  21.811  1.00  0.00     0.192 HD
ENDBRANCH  12  14
ENDBRANCH   6  12
BRANCH   4  20
ATOM     20  C   UNL     1      45.382 130.779  17.927  1.00  0.00     0.025 A 
ATOM     21  C   UNL     1      44.832 131.569  16.916  1.00  0.00     0.032 A 
ATOM     22  N   UNL     1      46.345 129.964  17.432  1.00  0.00    -0.358 N 
ATOM     23  C   UNL     1      45.505 131.201  15.772  1.00  0.00    -0.000 A 
ATOM     24  C   UNL     1      46.409 130.232  16.118  1.00  0.00     0.046 A 
ATOM     25  C   UNL     1      45.377 131.654  14.460  1.00  0.00     0.010 A 
ATOM     26  C   UNL     1      47.251 129.645  15.174  1.00  0.00     0.026 A 
ATOM     27  C   UNL     1      46.214 131.081  13.485  1.00  0.00     0.001 A 
ATOM     28  C   UNL     1      47.148 130.081  13.840  1.00  0.00     0.002 A 
ATOM     29  H   UNL     1      46.918 129.268  17.961  1.00  0.00     0.166 HD
ENDBRANCH   4  20
TORSDOF 5
ENDMDL


