MODEL 1
REMARK VINA RESULT:      -4.1      0.000      0.000
REMARK SMILES CC1=CCC=C[C@H]1C(=O)Oc1c(C)c(F)c([NH2+]N)c([O-])c1-n1nc2ccccc2n1
REMARK SMILES IDX 11 1 12 2 13 3 14 4 15 5 16 6 19 7 20 8 21 9 10 10 8 11 9 12
REMARK SMILES IDX 7 13 2 14 3 15 4 16 6 17 5 18 1 19 22 20 23 21 30 22 24 23
REMARK SMILES IDX 29 24 25 25 28 26 26 27 27 28 17 29 18 32
REMARK H PARENT 17 30 17 31 18 33 18 34
ROOT
ATOM      1  C   UNL     1      42.633 126.044  23.843  1.00  0.00     0.164 A 
ATOM      2  C   UNL     1      41.333 126.574  23.970  1.00  0.00     0.036 A 
ATOM      3  C   UNL     1      41.125 128.039  24.255  1.00  0.00     0.052 C 
ATOM      4  C   UNL     1      40.224 125.716  23.884  1.00  0.00     0.191 A 
ATOM      5  F   UNL     1      38.974 126.213  24.072  1.00  0.00    -0.200 F 
ATOM      6  C   UNL     1      40.398 124.347  23.611  1.00  0.00     0.179 A 
ATOM      7  C   UNL     1      41.699 123.832  23.458  1.00  0.00    -0.008 A 
ATOM      8  O   UNL     1      41.876 122.477  23.193  1.00  0.00    -0.867 OA
ATOM      9  C   UNL     1      42.818 124.677  23.560  1.00  0.00     0.127 A 
ENDROOT
BRANCH   1  10
ATOM     10  O   UNL     1      43.754 126.862  24.014  1.00  0.00    -0.423 OA
BRANCH  10  11
ATOM     11  C   UNL     1      44.396 127.495  22.943  1.00  0.00     0.322 C 
ATOM     12  O   UNL     1      44.444 126.946  21.808  1.00  0.00    -0.251 OA
BRANCH  11  13
ATOM     13  C   UNL     1      44.998 128.852  23.140  1.00  0.00     0.147 C 
ATOM     14  C   UNL     1      44.718 129.721  21.926  1.00  0.00    -0.059 C 
ATOM     15  C   UNL     1      43.715 130.621  21.938  1.00  0.00    -0.023 C 
ATOM     16  C   UNL     1      42.796 130.764  23.124  1.00  0.00     0.054 C 
ATOM     17  C   UNL     1      44.469 129.463  24.417  1.00  0.00    -0.012 C 
ATOM     18  C   UNL     1      43.464 130.349  24.408  1.00  0.00    -0.026 C 
ATOM     19  C   UNL     1      45.536 129.546  20.675  1.00  0.00     0.040 C 
ENDBRANCH  11  13
ENDBRANCH  10  11
ENDBRANCH   1  10
BRANCH   9  20
ATOM     20  N   UNL     1      44.147 124.148  23.408  1.00  0.00    -0.147 N 
ATOM     21  N   UNL     1      44.834 123.582  24.400  1.00  0.00    -0.148 NA
ATOM     22  N   UNL     1      44.826 124.184  22.262  1.00  0.00    -0.148 NA
ATOM     23  C   UNL     1      46.010 123.243  23.852  1.00  0.00     0.113 A 
ATOM     24  C   UNL     1      46.004 123.610  22.543  1.00  0.00     0.113 A 
ATOM     25  C   UNL     1      47.106 122.624  24.446  1.00  0.00     0.032 A 
ATOM     26  C   UNL     1      47.090 123.384  21.704  1.00  0.00     0.032 A 
ATOM     27  C   UNL     1      48.231 122.384  23.631  1.00  0.00     0.002 A 
ATOM     28  C   UNL     1      48.222 122.761  22.266  1.00  0.00     0.002 A 
ENDBRANCH   9  20
BRANCH   6  29
ATOM     29  N   UNL     1      39.254 123.469  23.542  1.00  0.00    -0.237 N 
ATOM     30  H   UNL     1      38.460 123.865  24.097  1.00  0.00     0.376 HD
ATOM     31  H   UNL     1      39.473 122.519  23.926  1.00  0.00     0.376 HD
BRANCH  29  32
ATOM     32  N   UNL     1      38.857 123.353  22.194  1.00  0.00    -0.178 NA
ATOM     33  H   UNL     1      39.451 123.996  21.618  1.00  0.00     0.183 HD
ATOM     34  H   UNL     1      39.079 122.382  21.876  1.00  0.00     0.183 HD
ENDBRANCH  29  32
ENDBRANCH   6  29
TORSDOF 6
ENDMDL
MODEL 2
REMARK VINA RESULT:      -2.0      4.595      7.473
REMARK SMILES CC1=CCC=C[C@H]1C(=O)Oc1c(C)c(F)c([NH2+]N)c([O-])c1-n1nc2ccccc2n1
REMARK SMILES IDX 11 1 12 2 13 3 14 4 15 5 16 6 19 7 20 8 21 9 10 10 8 11 9 12
REMARK SMILES IDX 7 13 2 14 3 15 4 16 6 17 5 18 1 19 22 20 23 21 30 22 24 23
REMARK SMILES IDX 29 24 25 25 28 26 26 27 27 28 17 29 18 32
REMARK H PARENT 17 30 17 31 18 33 18 34
ROOT
ATOM      1  C   UNL     1      44.252 130.784  21.973  1.00  0.00     0.164 A 
ATOM      2  C   UNL     1      43.730 131.035  23.258  1.00  0.00     0.036 A 
ATOM      3  C   UNL     1      44.344 130.396  24.476  1.00  0.00     0.052 C 
ATOM      4  C   UNL     1      42.590 131.845  23.395  1.00  0.00     0.191 A 
ATOM      5  F   UNL     1      42.044 132.035  24.625  1.00  0.00    -0.200 F 
ATOM      6  C   UNL     1      42.006 132.456  22.271  1.00  0.00     0.179 A 
ATOM      7  C   UNL     1      42.552 132.222  20.995  1.00  0.00    -0.008 A 
ATOM      8  O   UNL     1      41.975 132.820  19.878  1.00  0.00    -0.867 OA
ATOM      9  C   UNL     1      43.682 131.398  20.842  1.00  0.00     0.127 A 
ENDROOT
BRANCH   1  10
ATOM     10  O   UNL     1      45.330 129.910  21.803  1.00  0.00    -0.423 OA
BRANCH  10  11
ATOM     11  C   UNL     1      45.204 128.523  21.936  1.00  0.00     0.322 C 
ATOM     12  O   UNL     1      45.381 127.764  20.943  1.00  0.00    -0.251 OA
BRANCH  11  13
ATOM     13  C   UNL     1      44.893 127.933  23.277  1.00  0.00     0.147 C 
ATOM     14  C   UNL     1      43.581 127.171  23.213  1.00  0.00    -0.059 C 
ATOM     15  C   UNL     1      43.567 125.830  23.081  1.00  0.00    -0.023 C 
ATOM     16  C   UNL     1      44.840 125.037  22.933  1.00  0.00     0.054 C 
ATOM     17  C   UNL     1      46.042 127.060  23.727  1.00  0.00    -0.012 C 
ATOM     18  C   UNL     1      46.012 125.728  23.578  1.00  0.00    -0.026 C 
ATOM     19  C   UNL     1      42.277 127.921  23.247  1.00  0.00     0.040 C 
ENDBRANCH  11  13
ENDBRANCH  10  11
ENDBRANCH   1  10
BRANCH   9  20
ATOM     20  N   UNL     1      44.236 131.156  19.537  1.00  0.00    -0.147 N 
ATOM     21  N   UNL     1      45.363 130.476  19.328  1.00  0.00    -0.148 NA
ATOM     22  N   UNL     1      43.683 131.601  18.408  1.00  0.00    -0.148 NA
ATOM     23  C   UNL     1      45.531 130.491  17.998  1.00  0.00     0.113 A 
ATOM     24  C   UNL     1      44.501 131.179  17.435  1.00  0.00     0.113 A 
ATOM     25  C   UNL     1      46.554 129.932  17.239  1.00  0.00     0.032 A 
ATOM     26  C   UNL     1      44.395 131.364  16.061  1.00  0.00     0.032 A 
ATOM     27  C   UNL     1      46.488 130.103  15.841  1.00  0.00     0.002 A 
ATOM     28  C   UNL     1      45.412 130.814  15.255  1.00  0.00     0.002 A 
ENDBRANCH   9  20
BRANCH   6  29
ATOM     29  N   UNL     1      40.824 133.272  22.419  1.00  0.00    -0.237 N 
ATOM     30  H   UNL     1      41.004 134.049  23.096  1.00  0.00     0.376 HD
ATOM     31  H   UNL     1      40.012 132.715  22.776  1.00  0.00     0.376 HD
BRANCH  29  32
ATOM     32  N   UNL     1      40.500 133.826  21.163  1.00  0.00    -0.178 NA
ATOM     33  H   UNL     1      41.027 134.725  21.052  1.00  0.00     0.183 HD
ATOM     34  H   UNL     1      40.862 133.180  20.424  1.00  0.00     0.183 HD
ENDBRANCH  29  32
ENDBRANCH   6  29
TORSDOF 6
ENDMDL
MODEL 3
REMARK VINA RESULT:      -1.3      4.637      7.553
REMARK SMILES CC1=CCC=C[C@H]1C(=O)Oc1c(C)c(F)c([NH2+]N)c([O-])c1-n1nc2ccccc2n1
REMARK SMILES IDX 11 1 12 2 13 3 14 4 15 5 16 6 19 7 20 8 21 9 10 10 8 11 9 12
REMARK SMILES IDX 7 13 2 14 3 15 4 16 6 17 5 18 1 19 22 20 23 21 30 22 24 23
REMARK SMILES IDX 29 24 25 25 28 26 26 27 27 28 17 29 18 32
REMARK H PARENT 17 30 17 31 18 33 18 34
ROOT
ATOM      1  C   UNL     1      44.133 131.017  21.803  1.00  0.00     0.164 A 
ATOM      2  C   UNL     1      43.571 131.319  23.060  1.00  0.00     0.036 A 
ATOM      3  C   UNL     1      44.163 130.753  24.324  1.00  0.00     0.052 C 
ATOM      4  C   UNL     1      42.412 132.112  23.127  1.00  0.00     0.191 A 
ATOM      5  F   UNL     1      41.830 132.350  24.331  1.00  0.00    -0.200 F 
ATOM      6  C   UNL     1      41.848 132.655  21.960  1.00  0.00     0.179 A 
ATOM      7  C   UNL     1      42.433 132.371  20.711  1.00  0.00    -0.008 A 
ATOM      8  O   UNL     1      41.875 132.902  19.552  1.00  0.00    -0.867 OA
ATOM      9  C   UNL     1      43.582 131.563  20.629  1.00  0.00     0.127 A 
ENDROOT
BRANCH   1  10
ATOM     10  O   UNL     1      45.232 130.158  21.705  1.00  0.00    -0.423 OA
BRANCH  10  11
ATOM     11  C   UNL     1      45.123 128.773  21.873  1.00  0.00     0.322 C 
ATOM     12  O   UNL     1      45.322 127.991  20.903  1.00  0.00    -0.251 OA
BRANCH  11  13
ATOM     13  C   UNL     1      44.804 128.214  23.226  1.00  0.00     0.147 C 
ATOM     14  C   UNL     1      43.468 127.492  23.183  1.00  0.00    -0.059 C 
ATOM     15  C   UNL     1      43.412 126.151  23.073  1.00  0.00    -0.023 C 
ATOM     16  C   UNL     1      44.659 125.317  22.928  1.00  0.00     0.054 C 
ATOM     17  C   UNL     1      45.929 127.313  23.680  1.00  0.00    -0.012 C 
ATOM     18  C   UNL     1      45.857 125.981  23.553  1.00  0.00    -0.026 C 
ATOM     19  C   UNL     1      42.189 128.283  23.215  1.00  0.00     0.040 C 
ENDBRANCH  11  13
ENDBRANCH  10  11
ENDBRANCH   1  10
BRANCH   9  20
ATOM     20  N   UNL     1      44.176 131.270  19.352  1.00  0.00    -0.147 N 
ATOM     21  N   UNL     1      43.638 131.630  18.187  1.00  0.00    -0.148 NA
ATOM     22  N   UNL     1      45.319 130.598  19.209  1.00  0.00    -0.148 NA
ATOM     23  C   UNL     1      44.484 131.161  17.259  1.00  0.00     0.113 A 
ATOM     24  C   UNL     1      45.514 130.530  17.885  1.00  0.00     0.113 A 
ATOM     25  C   UNL     1      44.401 131.251  15.873  1.00  0.00     0.032 A 
ATOM     26  C   UNL     1      46.559 129.939  17.184  1.00  0.00     0.032 A 
ATOM     27  C   UNL     1      45.437 130.659  15.124  1.00  0.00     0.002 A 
ATOM     28  C   UNL     1      46.513 130.007  15.777  1.00  0.00     0.002 A 
ENDBRANCH   9  20
BRANCH   6  29
ATOM     29  N   UNL     1      40.647 133.454  22.036  1.00  0.00    -0.237 N 
ATOM     30  H   UNL     1      39.978 133.172  21.282  1.00  0.00     0.376 HD
ATOM     31  H   UNL     1      40.855 134.474  21.918  1.00  0.00     0.376 HD
BRANCH  29  32
ATOM     32  N   UNL     1      40.042 133.237  23.290  1.00  0.00    -0.178 NA
ATOM     33  H   UNL     1      40.670 132.620  23.858  1.00  0.00     0.183 HD
ATOM     34  H   UNL     1      40.000 134.155  23.790  1.00  0.00     0.183 HD
ENDBRANCH  29  32
ENDBRANCH   6  29
TORSDOF 6
ENDMDL


