REMARK SMILES C/C(O)=C1\CC[C@@H](c2cc3ccccc3[nH]2)C[N@@H+]1C(=O)c1ncn[nH]1
REMARK SMILES IDX 4 1 5 2 6 3 7 4 17 5 18 6 2 8 1 9 3 10 19 12 20 13 21 14
REMARK SMILES IDX 22 15 25 16 23 17 24 18 8 20 9 21 16 22 10 23 15 24 11 25
REMARK SMILES IDX 14 26 12 27 13 28
REMARK H PARENT 18 7 3 11 25 19 16 29
ROOT
ATOM      1  C   UNL     1       1.483  -0.339  -2.068  1.00  0.00     0.152 C 
ATOM      2  C   UNL     1       2.443  -1.054  -1.123  1.00  0.00     0.102 C 
ATOM      3  C   UNL     1       2.359  -0.519   0.305  1.00  0.00     0.026 C 
ATOM      4  C   UNL     1       0.905  -0.418   0.763  1.00  0.00     0.092 C 
ATOM      5  C   UNL     1       0.138   0.511  -0.192  1.00  0.00     0.285 C 
ATOM      6  N   UNL     1       0.154   0.039  -1.595  1.00  0.00    -0.232 N 
ATOM      7  H   UNL     1      -0.169   0.861  -2.156  1.00  0.00     0.363 HD
ENDROOT
BRANCH   1   8
ATOM      8  C   UNL     1       1.765  -0.252  -3.395  1.00  0.00     0.146 C 
ATOM      9  C   UNL     1       3.059  -0.748  -3.984  1.00  0.00     0.093 C 
BRANCH   8  10
ATOM     10  O   UNL     1       0.827   0.321  -4.257  1.00  0.00    -0.507 OA
ATOM     11  H   UNL     1       1.002   0.419  -5.251  1.00  0.00     0.293 HD
ENDBRANCH   8  10
ENDBRANCH   1   8
BRANCH   6  12
ATOM     12  C   UNL     1      -0.788  -1.046  -1.787  1.00  0.00     0.386 C 
ATOM     13  O   UNL     1      -0.455  -2.236  -1.528  1.00  0.00    -0.221 OA
BRANCH  12  14
ATOM     14  C   UNL     1      -2.168  -0.781  -2.236  1.00  0.00     0.255 A 
ATOM     15  N   UNL     1      -2.645   0.443  -2.539  1.00  0.00    -0.207 NA
ATOM     16  N   UNL     1      -3.101  -1.732  -2.413  1.00  0.00    -0.252 N 
ATOM     17  C   UNL     1      -3.917   0.172  -2.909  1.00  0.00     0.246 A 
ATOM     18  N   UNL     1      -4.202  -1.143  -2.838  1.00  0.00    -0.162 NA
ATOM     19  H   UNL     1      -3.002  -2.757  -2.253  1.00  0.00     0.192 HD
ENDBRANCH  12  14
ENDBRANCH   6  12
BRANCH   4  20
ATOM     20  C   UNL     1       0.822   0.089   2.180  1.00  0.00     0.025 A 
ATOM     21  C   UNL     1       1.340   1.299   2.646  1.00  0.00     0.032 A 
ATOM     22  N   UNL     1       0.208  -0.589   3.180  1.00  0.00    -0.358 N 
ATOM     23  C   UNL     1       1.021   1.331   3.986  1.00  0.00    -0.000 A 
ATOM     24  C   UNL     1       0.339   0.178   4.274  1.00  0.00     0.046 A 
ATOM     25  C   UNL     1       1.286   2.292   4.960  1.00  0.00     0.010 A 
ATOM     26  C   UNL     1      -0.127  -0.094   5.560  1.00  0.00     0.026 A 
ATOM     27  C   UNL     1       0.830   2.045   6.268  1.00  0.00     0.001 A 
ATOM     28  C   UNL     1       0.127   0.857   6.566  1.00  0.00     0.002 A 
ATOM     29  H   UNL     1      -0.269  -1.516   3.116  1.00  0.00     0.166 HD
ENDBRANCH   4  20
TORSDOF 5


