REMARK SMILES Cn1cc2ccc(-c3ccc4[nH]ccc4c3)cc2n1
REMARK SMILES IDX 1 1 2 2 3 3 4 4 5 5 6 6 7 7 17 8 18 9 19 10 8 11 9 12 16 13
REMARK SMILES IDX 10 14 15 15 11 16 14 17 12 18 13 19
REMARK H PARENT 12 20
ROOT
ATOM      1  C   UNL     1      -1.042   1.891   5.742  1.00  0.00     0.173 C 
ATOM      2  N   UNL     1      -0.857   1.389   4.388  1.00  0.00    -0.275 N 
ATOM      3  C   UNL     1      -1.790   0.733   3.659  1.00  0.00     0.117 A 
ATOM      4  C   UNL     1      -1.194   0.374   2.474  1.00  0.00     0.020 A 
ATOM      5  C   UNL     1      -1.670  -0.308   1.361  1.00  0.00     0.012 A 
ATOM      6  C   UNL     1      -0.776  -0.520   0.295  1.00  0.00     0.009 A 
ATOM      7  C   UNL     1       0.567  -0.052   0.364  1.00  0.00    -0.016 A 
ATOM      8  C   UNL     1       1.005   0.636   1.523  1.00  0.00     0.039 A 
ATOM      9  C   UNL     1       0.092   0.829   2.555  1.00  0.00     0.093 A 
ATOM     10  N   UNL     1       0.299   1.445   3.733  1.00  0.00    -0.173 NA
ENDROOT
BRANCH   7  11
ATOM     11  C   UNL     1       1.500  -0.282  -0.768  1.00  0.00    -0.018 A 
ATOM     12  C   UNL     1       2.856  -0.634  -0.522  1.00  0.00     0.011 A 
ATOM     13  C   UNL     1       1.048  -0.153  -2.103  1.00  0.00     0.019 A 
ATOM     14  C   UNL     1       3.748  -0.853  -1.586  1.00  0.00     0.027 A 
ATOM     15  C   UNL     1       1.961  -0.378  -3.131  1.00  0.00    -0.000 A 
ATOM     16  C   UNL     1       3.263  -0.715  -2.883  1.00  0.00     0.045 A 
ATOM     17  C   UNL     1       1.803  -0.319  -4.498  1.00  0.00     0.028 A 
ATOM     18  N   UNL     1       3.941  -0.876  -4.031  1.00  0.00    -0.361 N 
ATOM     19  C   UNL     1       3.053  -0.635  -5.022  1.00  0.00     0.083 A 
ATOM     20  H   UNL     1       4.947  -1.133  -4.140  1.00  0.00     0.166 HD
ENDBRANCH   7  11
TORSDOF 1


