REMARK SMILES C=C[C@@H]1C[NH2+][C@@H](c2ccc3ncnn3c2)N(C(=O)c2cccc(C)c2)C1
REMARK SMILES IDX 3 1 4 2 5 3 6 4 16 5 26 6 2 9 1 10 17 11 18 12 19 13 20 14
REMARK SMILES IDX 25 15 21 16 23 17 22 18 24 19 7 20 8 21 15 22 9 23 14 24
REMARK SMILES IDX 10 25 13 26 11 27 12 28
REMARK H PARENT 5 7 5 8
ROOT
ATOM      1  C   UNL     1       2.525   2.430  -2.667  1.00  0.00     0.086 C 
ATOM      2  C   UNL     1       3.450   2.453  -1.424  1.00  0.00     0.272 C 
ATOM      3  N   UNL     1       2.695   2.727  -0.196  1.00  0.00    -0.322 N 
ATOM      4  C   UNL     1       1.744   1.631   0.075  1.00  0.00     0.320 C 
ATOM      5  N   UNL     1       0.906   1.340  -1.111  1.00  0.00    -0.284 N 
ATOM      6  C   UNL     1       1.040   2.185  -2.307  1.00  0.00     0.139 C 
ATOM      7  H   UNL     1       2.199   3.645  -0.288  1.00  0.00     0.348 HD
ATOM      8  H   UNL     1       3.370   2.798   0.602  1.00  0.00     0.348 HD
ENDROOT
BRANCH   1   9
ATOM      9  C   UNL     1       3.021   1.447  -3.705  1.00  0.00    -0.024 C 
ATOM     10  C   UNL     1       3.027   0.125  -3.503  1.00  0.00     0.004 C 
ENDBRANCH   1   9
BRANCH   5  11
ATOM     11  C   UNL     1      -0.196   0.405  -1.029  1.00  0.00     0.258 C 
ATOM     12  O   UNL     1      -1.207   0.562  -1.767  1.00  0.00    -0.269 OA
BRANCH  11  13
ATOM     13  C   UNL     1      -0.198  -0.710  -0.059  1.00  0.00     0.040 A 
ATOM     14  C   UNL     1      -1.331  -0.940   0.736  1.00  0.00     0.014 A 
ATOM     15  C   UNL     1       0.918  -1.551   0.073  1.00  0.00     0.017 A 
ATOM     16  C   UNL     1      -1.337  -1.978   1.670  1.00  0.00     0.001 A 
ATOM     17  C   UNL     1       0.923  -2.582   1.024  1.00  0.00    -0.050 A 
ATOM     18  C   UNL     1      -0.216  -2.799   1.814  1.00  0.00     0.003 A 
ATOM     19  C   UNL     1       2.111  -3.491   1.144  1.00  0.00     0.044 C 
ENDBRANCH  11  13
ENDBRANCH   5  11
BRANCH   4  20
ATOM     20  C   UNL     1       0.881   1.976   1.275  1.00  0.00     0.050 A 
ATOM     21  C   UNL     1       1.046   1.282   2.500  1.00  0.00     0.017 A 
ATOM     22  C   UNL     1      -0.108   2.978   1.192  1.00  0.00     0.127 A 
ATOM     23  C   UNL     1       0.229   1.575   3.604  1.00  0.00     0.050 A 
ATOM     24  N   UNL     1      -0.866   3.222   2.289  1.00  0.00    -0.221 N 
ATOM     25  C   UNL     1      -0.729   2.570   3.446  1.00  0.00     0.155 A 
ATOM     26  N   UNL     1      -1.839   4.102   2.408  1.00  0.00    -0.155 NA
ATOM     27  N   UNL     1      -1.606   2.998   4.372  1.00  0.00    -0.215 NA
ATOM     28  C   UNL     1      -2.280   3.955   3.680  1.00  0.00     0.247 A 
ENDBRANCH   4  20
TORSDOF 4


