REMARK SMILES CC(=O)c1ccc([C@H]2[C@H](F)[C@H](C)CCN2C(=S)[NH2+]c2[nH+]c3ccccc3s2)cc1F
REMARK SMILES IDX 8 1 9 2 10 3 11 4 12 5 13 6 14 7 15 8 7 9 4 10 5 11 29 12
REMARK SMILES IDX 6 13 28 14 30 15 2 16 1 17 3 18 16 19 17 20 18 21 19 24
REMARK SMILES IDX 20 25 27 26 21 27 26 28 22 29 25 30 23 31 24 32
REMARK H PARENT 18 22 18 23 20 33
ROOT
ATOM      1  C   UNL     1       2.642   0.486   1.218  1.00  0.00     0.153 C 
ATOM      2  C   UNL     1       3.841  -0.479   1.384  1.00  0.00     0.196 C 
ATOM      3  F   UNL     1       4.837   0.167   2.104  1.00  0.00    -0.245 F 
ATOM      4  C   UNL     1       4.415  -0.970   0.045  1.00  0.00     0.024 C 
ATOM      5  C   UNL     1       5.640  -1.866   0.266  1.00  0.00     0.011 C 
ATOM      6  C   UNL     1       4.779   0.232  -0.831  1.00  0.00     0.028 C 
ATOM      7  C   UNL     1       3.550   1.090  -1.125  1.00  0.00     0.124 C 
ATOM      8  N   UNL     1       2.808   1.444   0.098  1.00  0.00    -0.308 N 
ENDROOT
BRANCH   1   9
ATOM      9  C   UNL     1       1.311  -0.251   1.135  1.00  0.00    -0.019 A 
ATOM     10  C   UNL     1      -1.145  -1.671   1.068  1.00  0.00     0.053 A 
ATOM     11  C   UNL     1      -0.279  -1.669  -0.040  1.00  0.00     0.015 A 
ATOM     12  C   UNL     1      -0.759  -0.953   2.221  1.00  0.00     0.134 A 
ATOM     13  C   UNL     1       0.927  -0.967  -0.009  1.00  0.00     0.007 A 
ATOM     14  C   UNL     1       0.454  -0.258   2.248  1.00  0.00     0.046 A 
ATOM     15  F   UNL     1      -1.525  -0.937   3.340  1.00  0.00    -0.206 F 
BRANCH  10  16
ATOM     16  C   UNL     1      -2.428  -2.426   0.984  1.00  0.00     0.162 C 
ATOM     17  C   UNL     1      -3.539  -2.247   1.973  1.00  0.00     0.093 C 
ATOM     18  O   UNL     1      -2.597  -3.257   0.050  1.00  0.00    -0.294 OA
ENDBRANCH  10  16
ENDBRANCH   1   9
BRANCH   8  19
ATOM     19  C   UNL     1       2.046   2.675   0.109  1.00  0.00     0.280 C 
ATOM     20  S   UNL     1       1.993   3.598   1.471  1.00  0.00     0.004 S 
BRANCH  19  21
ATOM     21  N   UNL     1       1.298   3.093  -1.051  1.00  0.00    -0.191 N 
ATOM     22  H   UNL     1       1.889   3.035  -1.909  1.00  0.00     0.366 HD
ATOM     23  H   UNL     1       0.984   4.086  -0.951  1.00  0.00     0.366 HD
BRANCH  21  24
ATOM     24  C   UNL     1       0.137   2.266  -1.202  1.00  0.00     0.433 A 
ATOM     25  N   UNL     1      -0.884   2.240  -0.308  1.00  0.00    -0.146 N 
ATOM     26  S   UNL     1      -0.157   1.263  -2.537  1.00  0.00    -0.000 S 
ATOM     27  C   UNL     1      -1.875   1.406  -0.712  1.00  0.00     0.227 A 
ATOM     28  C   UNL     1      -1.646   0.775  -1.927  1.00  0.00     0.111 A 
ATOM     29  C   UNL     1      -3.053   1.162  -0.002  1.00  0.00     0.081 A 
ATOM     30  C   UNL     1      -2.560  -0.118  -2.479  1.00  0.00     0.026 A 
ATOM     31  C   UNL     1      -3.994   0.269  -0.542  1.00  0.00     0.007 A 
ATOM     32  C   UNL     1      -3.747  -0.371  -1.773  1.00  0.00     0.002 A 
ATOM     33  H   UNL     1      -0.905   2.795   0.576  1.00  0.00     0.461 HD
ENDBRANCH  21  24
ENDBRANCH  19  21
ENDBRANCH   8  19
TORSDOF 5


