REMARK SMILES CC(=O)c1cc(-c2ccc(C)cc2)c(/C(O)=N/[C@@H]2C=CCC2)c(F)c1[O-]
REMARK SMILES IDX 14 1 23 2 24 3 25 4 26 5 4 6 5 7 6 8 15 9 16 10 17 12 18 13
REMARK SMILES IDX 19 14 22 15 20 16 21 17 7 18 8 19 13 20 9 21 12 22 10 23
REMARK SMILES IDX 11 24 2 25 3 26 1 27
REMARK H PARENT 16 11
ROOT
ATOM      1  C   UNL     1       1.258   2.482   0.598  1.00  0.00     0.079 A 
ATOM      2  C   UNL     1       1.583   3.806   0.254  1.00  0.00     0.129 A 
ATOM      3  F   UNL     1       1.839   4.725   1.220  1.00  0.00    -0.207 F 
ATOM      4  C   UNL     1       1.697   4.189  -1.087  1.00  0.00    -0.060 A 
ATOM      5  O   UNL     1       2.009   5.515  -1.375  1.00  0.00    -0.870 OA
ATOM      6  C   UNL     1       1.496   3.251  -2.121  1.00  0.00     0.013 A 
ATOM      7  C   UNL     1       1.171   1.927  -1.774  1.00  0.00     0.021 A 
ATOM      8  C   UNL     1       1.041   1.536  -0.433  1.00  0.00    -0.002 A 
ENDROOT
BRANCH   1   9
ATOM      9  C   UNL     1       1.210   2.096   2.030  1.00  0.00     0.217 C 
BRANCH   9  10
ATOM     10  O   UNL     1       0.556   2.905   2.961  1.00  0.00    -0.493 OA
ATOM     11  H   UNL     1       0.037   3.728   2.679  1.00  0.00     0.295 HD
ENDBRANCH   9  10
BRANCH   9  12
ATOM     12  N   UNL     1       1.782   0.993   2.413  1.00  0.00    -0.244 NA
BRANCH  12  13
ATOM     13  C   UNL     1       1.786   0.498   3.788  1.00  0.00     0.132 C 
ATOM     14  C   UNL     1       2.657  -0.703   3.869  1.00  0.00    -0.005 C 
ATOM     15  C   UNL     1       0.398  -0.017   4.211  1.00  0.00     0.036 C 
ATOM     16  C   UNL     1       1.985  -1.796   4.182  1.00  0.00    -0.029 C 
ATOM     17  C   UNL     1       0.538  -1.533   4.383  1.00  0.00     0.029 C 
ENDBRANCH  12  13
ENDBRANCH   9  12
ENDBRANCH   1   9
BRANCH   8  18
ATOM     18  C   UNL     1       0.645   0.140  -0.140  1.00  0.00    -0.017 A 
ATOM     19  C   UNL     1       1.472  -0.925  -0.529  1.00  0.00     0.009 A 
ATOM     20  C   UNL     1      -0.552  -0.129   0.540  1.00  0.00     0.009 A 
ATOM     21  C   UNL     1       1.121  -2.240  -0.212  1.00  0.00     0.004 A 
ATOM     22  C   UNL     1      -0.905  -1.445   0.853  1.00  0.00     0.004 A 
ATOM     23  C   UNL     1      -0.058  -2.506   0.499  1.00  0.00    -0.051 A 
ATOM     24  C   UNL     1      -0.445  -3.919   0.821  1.00  0.00     0.044 C 
ENDBRANCH   8  18
BRANCH   6  25
ATOM     25  C   UNL     1       1.627   3.642  -3.555  1.00  0.00     0.159 C 
ATOM     26  O   UNL     1       2.225   4.706  -3.869  1.00  0.00    -0.295 OA
ATOM     27  C   UNL     1       1.092   2.781  -4.660  1.00  0.00     0.093 C 
ENDBRANCH   6  25
TORSDOF 6


