REMARK SMILES C/C=C/C(O)=N/c1ccc(-c2ccc(C)cc2)cc1C=O
REMARK SMILES IDX 4 1 5 2 6 4 7 5 8 6 19 7 9 8 18 9 10 10 20 11 21 12 11 13
REMARK SMILES IDX 12 14 17 15 13 16 16 17 14 18 15 19 3 20 2 21 1 22
REMARK H PARENT 5 3
ROOT
ATOM      1  C   UNL     1       3.660   2.406   0.261  1.00  0.00     0.210 C 
ENDROOT
BRANCH   1   2
ATOM      2  O   UNL     1       3.395   2.660   1.609  1.00  0.00    -0.493 OA
ATOM      3  H   UNL     1       2.690   2.164   2.138  1.00  0.00     0.295 HD
ENDBRANCH   1   2
BRANCH   1   4
ATOM      4  N   UNL     1       2.901   1.624  -0.455  1.00  0.00    -0.214 NA
BRANCH   4   5
ATOM      5  C   UNL     1       1.657   1.030  -0.048  1.00  0.00     0.078 A 
ATOM      6  C   UNL     1       0.648   1.822   0.522  1.00  0.00     0.030 A 
ATOM      7  C   UNL     1       1.401  -0.330  -0.323  1.00  0.00     0.041 A 
ATOM      8  C   UNL     1      -0.582   1.265   0.870  1.00  0.00     0.011 A 
ATOM      9  C   UNL     1       0.157  -0.883   0.033  1.00  0.00     0.022 A 
ATOM     10  C   UNL     1      -0.840  -0.095   0.636  1.00  0.00    -0.018 A 
BRANCH   7  11
ATOM     11  C   UNL     1       2.431  -1.175  -0.968  1.00  0.00     0.262 C 
ATOM     12  O   UNL     1       2.212  -2.390  -1.219  1.00  0.00    -0.298 OA
ENDBRANCH   7  11
BRANCH  10  13
ATOM     13  C   UNL     1      -2.149  -0.690   1.008  1.00  0.00    -0.018 A 
ATOM     14  C   UNL     1      -3.345   0.014   0.783  1.00  0.00     0.009 A 
ATOM     15  C   UNL     1      -2.211  -1.965   1.599  1.00  0.00     0.009 A 
ATOM     16  C   UNL     1      -4.576  -0.547   1.135  1.00  0.00     0.004 A 
ATOM     17  C   UNL     1      -3.443  -2.525   1.950  1.00  0.00     0.004 A 
ATOM     18  C   UNL     1      -4.634  -1.826   1.706  1.00  0.00    -0.051 A 
ATOM     19  C   UNL     1      -5.952  -2.411   2.120  1.00  0.00     0.044 C 
ENDBRANCH  10  13
ENDBRANCH   4   5
ENDBRANCH   1   4
BRANCH   1  20
ATOM     20  C   UNL     1       4.860   3.022  -0.333  1.00  0.00     0.063 C 
BRANCH  20  21
ATOM     21  C   UNL     1       5.221   2.831  -1.606  1.00  0.00    -0.025 C 
ATOM     22  C   UNL     1       6.450   3.479  -2.160  1.00  0.00     0.036 C 
ENDBRANCH  20  21
ENDBRANCH   1  20
TORSDOF 7


