MODEL 1
REMARK VINA RESULT:      -7.6      0.000      0.000
REMARK SMILES C=C[C@H](OCC)/C(O)=N/c1cc(F)c[n-]/c1=N\c1c[nH]c2nccc-2c1
REMARK SMILES IDX 7 1 8 2 9 4 10 5 11 6 16 7 12 8 15 9 14 10 13 11 17 12 18 13
REMARK SMILES IDX 26 14 19 15 25 16 20 17 24 18 21 19 23 20 22 21 3 23 4 24
REMARK SMILES IDX 5 25 6 26 2 27 1 28
REMARK H PARENT 8 3 20 22
ROOT
ATOM      1  C   UNL     1      45.410 129.966  21.460  1.00  0.00     0.220 C 
ENDROOT
BRANCH   1   2
ATOM      2  O   UNL     1      46.204 129.175  20.623  1.00  0.00    -0.494 OA
ATOM      3  H   UNL     1      45.859 128.341  20.164  1.00  0.00     0.295 HD
ENDBRANCH   1   2
BRANCH   1   4
ATOM      4  N   UNL     1      45.101 131.195  21.156  1.00  0.00    -0.216 NA
BRANCH   4   5
ATOM      5  C   UNL     1      44.035 131.594  20.283  1.00  0.00     0.069 A 
ATOM      6  C   UNL     1      42.990 132.370  20.793  1.00  0.00     0.067 A 
ATOM      7  C   UNL     1      44.055 131.293  18.904  1.00  0.00    -0.032 A 
ATOM      8  C   UNL     1      41.959 132.795  19.954  1.00  0.00     0.121 A 
ATOM      9  N   UNL     1      43.037 131.733  18.109  1.00  0.00    -0.438 NA
ATOM     10  C   UNL     1      41.997 132.458  18.600  1.00  0.00     0.018 A 
ATOM     11  F   UNL     1      40.933 133.532  20.447  1.00  0.00    -0.207 F 
BRANCH   7  12
ATOM     12  N   UNL     1      45.072 130.656  18.397  1.00  0.00    -0.433 NA
BRANCH  12  13
ATOM     13  C   UNL     1      45.640 130.826  17.088  1.00  0.00    -0.024 A 
ATOM     14  C   UNL     1      46.349 129.783  16.443  1.00  0.00     0.017 A 
ATOM     15  C   UNL     1      45.561 132.107  16.481  1.00  0.00     0.088 A 
ATOM     16  C   UNL     1      46.899 130.062  15.203  1.00  0.00     0.019 A 
ATOM     17  N   UNL     1      46.116 132.355  15.254  1.00  0.00    -0.346 N 
ATOM     18  C   UNL     1      47.642 129.324  14.318  1.00  0.00     0.032 A 
ATOM     19  C   UNL     1      46.768 131.353  14.620  1.00  0.00     0.137 A 
ATOM     20  C   UNL     1      47.920 130.187  13.255  1.00  0.00     0.114 A 
ATOM     21  N   UNL     1      47.394 131.427  13.434  1.00  0.00    -0.239 NA
ATOM     22  H   UNL     1      46.043 133.302  14.820  1.00  0.00     0.167 HD
ENDBRANCH  12  13
ENDBRANCH   7  12
ENDBRANCH   4   5
ENDBRANCH   1   4
BRANCH   1  23
ATOM     23  C   UNL     1      44.915 129.383  22.748  1.00  0.00     0.226 C 
BRANCH  23  24
ATOM     24  O   UNL     1      43.569 129.780  22.936  1.00  0.00    -0.365 OA
BRANCH  24  25
ATOM     25  C   UNL     1      43.438 130.548  24.116  1.00  0.00     0.158 C 
ATOM     26  C   UNL     1      41.985 130.523  24.568  1.00  0.00     0.035 C 
ENDBRANCH  24  25
ENDBRANCH  23  24
BRANCH  23  27
ATOM     27  C   UNL     1      44.993 127.880  22.643  1.00  0.00     0.006 C 
ATOM     28  C   UNL     1      44.787 127.085  23.697  1.00  0.00     0.007 C 
ENDBRANCH  23  27
ENDBRANCH   1  23
TORSDOF 9
ENDMDL
MODEL 2
REMARK VINA RESULT:      -5.0      2.232      3.762
REMARK SMILES C=C[C@H](OCC)/C(O)=N/c1cc(F)c[n-]/c1=N\c1c[nH]c2nccc-2c1
REMARK SMILES IDX 7 1 8 2 9 4 10 5 11 6 16 7 12 8 15 9 14 10 13 11 17 12 18 13
REMARK SMILES IDX 26 14 19 15 25 16 20 17 24 18 21 19 23 20 22 21 3 23 4 24
REMARK SMILES IDX 5 25 6 26 2 27 1 28
REMARK H PARENT 8 3 20 22
ROOT
ATOM      1  C   UNL     1      45.173 127.628  22.952  1.00  0.00     0.220 C 
ENDROOT
BRANCH   1   2
ATOM      2  O   UNL     1      45.252 127.788  24.339  1.00  0.00    -0.494 OA
ATOM      3  H   UNL     1      44.950 128.629  24.815  1.00  0.00     0.295 HD
ENDBRANCH   1   2
BRANCH   1   4
ATOM      4  N   UNL     1      45.307 128.634  22.134  1.00  0.00    -0.216 NA
BRANCH   4   5
ATOM      5  C   UNL     1      44.450 129.783  22.081  1.00  0.00     0.069 A 
ATOM      6  C   UNL     1      43.448 129.932  23.044  1.00  0.00     0.067 A 
ATOM      7  C   UNL     1      44.644 130.808  21.130  1.00  0.00    -0.032 A 
ATOM      8  C   UNL     1      42.623 131.058  23.028  1.00  0.00     0.121 A 
ATOM      9  N   UNL     1      43.826 131.900  21.149  1.00  0.00    -0.438 NA
ATOM     10  C   UNL     1      42.826 132.040  22.058  1.00  0.00     0.018 A 
ATOM     11  F   UNL     1      41.638 131.199  23.949  1.00  0.00    -0.207 F 
BRANCH   7  12
ATOM     12  N   UNL     1      45.635 130.728  20.288  1.00  0.00    -0.433 NA
BRANCH  12  13
ATOM     13  C   UNL     1      45.558 130.713  18.853  1.00  0.00    -0.024 A 
ATOM     14  C   UNL     1      44.528 131.390  18.156  1.00  0.00     0.017 A 
ATOM     15  C   UNL     1      46.490 129.916  18.137  1.00  0.00     0.088 A 
ATOM     16  C   UNL     1      44.513 131.275  16.775  1.00  0.00     0.019 A 
ATOM     17  N   UNL     1      46.451 129.820  16.772  1.00  0.00    -0.346 N 
ATOM     18  C   UNL     1      43.683 131.766  15.801  1.00  0.00     0.032 A 
ATOM     19  C   UNL     1      45.487 130.489  16.098  1.00  0.00     0.137 A 
ATOM     20  C   UNL     1      44.185 131.266  14.597  1.00  0.00     0.114 A 
ATOM     21  N   UNL     1      45.283 130.483  14.771  1.00  0.00    -0.239 NA
ATOM     22  H   UNL     1      47.148 129.234  16.261  1.00  0.00     0.167 HD
ENDBRANCH  12  13
ENDBRANCH   7  12
ENDBRANCH   4   5
ENDBRANCH   1   4
BRANCH   1  23
ATOM     23  C   UNL     1      44.915 126.261  22.397  1.00  0.00     0.226 C 
BRANCH  23  24
ATOM     24  O   UNL     1      46.159 125.620  22.179  1.00  0.00    -0.365 OA
BRANCH  24  25
ATOM     25  C   UNL     1      46.822 125.394  23.408  1.00  0.00     0.158 C 
ATOM     26  C   UNL     1      47.489 124.027  23.370  1.00  0.00     0.035 C 
ENDBRANCH  24  25
ENDBRANCH  23  24
BRANCH  23  27
ATOM     27  C   UNL     1      44.112 125.486  23.413  1.00  0.00     0.006 C 
ATOM     28  C   UNL     1      43.422 124.391  23.082  1.00  0.00     0.007 C 
ENDBRANCH  23  27
ENDBRANCH   1  23
TORSDOF 9
ENDMDL
MODEL 3
REMARK VINA RESULT:      -4.7      1.154      1.839
REMARK SMILES C=C[C@H](OCC)/C(O)=N/c1cc(F)c[n-]/c1=N\c1c[nH]c2nccc-2c1
REMARK SMILES IDX 7 1 8 2 9 4 10 5 11 6 16 7 12 8 15 9 14 10 13 11 17 12 18 13
REMARK SMILES IDX 26 14 19 15 25 16 20 17 24 18 21 19 23 20 22 21 3 23 4 24
REMARK SMILES IDX 5 25 6 26 2 27 1 28
REMARK H PARENT 8 3 20 22
ROOT
ATOM      1  C   UNL     1      45.729 131.684  21.449  1.00  0.00     0.220 C 
ENDROOT
BRANCH   1   2
ATOM      2  O   UNL     1      46.889 132.127  22.093  1.00  0.00    -0.494 OA
ATOM      3  H   UNL     1      47.786 131.671  21.987  1.00  0.00     0.295 HD
ENDBRANCH   1   2
BRANCH   1   4
ATOM      4  N   UNL     1      45.477 131.979  20.204  1.00  0.00    -0.216 NA
BRANCH   4   5
ATOM      5  C   UNL     1      44.191 131.897  19.573  1.00  0.00     0.069 A 
ATOM      6  C   UNL     1      43.142 132.683  20.058  1.00  0.00     0.067 A 
ATOM      7  C   UNL     1      43.980 131.105  18.424  1.00  0.00    -0.032 A 
ATOM      8  C   UNL     1      41.892 132.641  19.439  1.00  0.00     0.121 A 
ATOM      9  N   UNL     1      42.748 131.096  17.836  1.00  0.00    -0.438 NA
ATOM     10  C   UNL     1      41.710 131.827  18.320  1.00  0.00     0.018 A 
ATOM     11  F   UNL     1      40.865 133.388  19.916  1.00  0.00    -0.207 F 
BRANCH   7  12
ATOM     12  N   UNL     1      44.975 130.444  17.904  1.00  0.00    -0.433 NA
BRANCH  12  13
ATOM     13  C   UNL     1      45.620 130.694  16.643  1.00  0.00    -0.024 A 
ATOM     14  C   UNL     1      46.457 129.729  16.031  1.00  0.00     0.017 A 
ATOM     15  C   UNL     1      45.480 131.981  16.059  1.00  0.00     0.088 A 
ATOM     16  C   UNL     1      47.070 130.083  14.841  1.00  0.00     0.019 A 
ATOM     17  N   UNL     1      46.100 132.304  14.882  1.00  0.00    -0.346 N 
ATOM     18  C   UNL     1      47.933 129.431  13.999  1.00  0.00     0.032 A 
ATOM     19  C   UNL     1      46.876 131.375  14.277  1.00  0.00     0.137 A 
ATOM     20  C   UNL     1      48.215 130.341  12.977  1.00  0.00     0.114 A 
ATOM     21  N   UNL     1      47.578 131.530  13.142  1.00  0.00    -0.239 NA
ATOM     22  H   UNL     1      45.981 133.253  14.463  1.00  0.00     0.167 HD
ENDBRANCH  12  13
ENDBRANCH   7  12
ENDBRANCH   4   5
ENDBRANCH   1   4
BRANCH   1  23
ATOM     23  C   UNL     1      44.746 130.858  22.221  1.00  0.00     0.226 C 
BRANCH  23  24
ATOM     24  O   UNL     1      45.239 129.533  22.308  1.00  0.00    -0.365 OA
BRANCH  24  25
ATOM     25  C   UNL     1      44.204 128.641  22.672  1.00  0.00     0.158 C 
ATOM     26  C   UNL     1      44.442 128.156  24.094  1.00  0.00     0.035 C 
ENDBRANCH  24  25
ENDBRANCH  23  24
BRANCH  23  27
ATOM     27  C   UNL     1      44.621 131.448  23.604  1.00  0.00     0.006 C 
ATOM     28  C   UNL     1      43.692 132.361  23.902  1.00  0.00     0.007 C 
ENDBRANCH  23  27
ENDBRANCH   1  23
TORSDOF 9
ENDMDL


