MODEL 1
REMARK VINA RESULT:      -7.6      0.000      0.000
REMARK SMILES C=C1CC[C@@H](N[C@H]2CCC[C@@H]([NH2+]N)[C@@H]2O)C[C@H]1F
REMARK SMILES IDX 7 1 8 2 9 3 10 4 11 5 14 6 6 7 5 9 2 10 3 11 17 12 4 13
REMARK SMILES IDX 16 14 1 15 18 16 15 17 12 19 13 22
REMARK H PARENT 6 8 15 18 12 20 12 21 13 23 13 24
ROOT
ATOM      1  C   UNL     1      44.841 131.763  16.588  1.00  0.00     0.088 C 
ATOM      2  C   UNL     1      45.927 132.516  15.788  1.00  0.00     0.022 C 
ATOM      3  C   UNL     1      46.774 131.566  14.934  1.00  0.00     0.008 C 
ATOM      4  C   UNL     1      45.895 130.743  13.984  1.00  0.00     0.070 C 
ATOM      5  C   UNL     1      44.773 129.971  14.721  1.00  0.00     0.232 C 
ATOM      6  C   UNL     1      43.949 130.930  15.630  1.00  0.00     0.191 C 
ENDROOT
BRANCH   1   7
ATOM      7  N   UNL     1      45.444 130.900  17.627  1.00  0.00    -0.308 NA
ATOM      8  H   UNL     1      46.466 130.751  17.453  1.00  0.00     0.123 HD
BRANCH   7   9
ATOM      9  C   UNL     1      45.268 131.430  18.994  1.00  0.00     0.057 C 
ATOM     10  C   UNL     1      44.198 131.303  21.693  1.00  0.00    -0.044 C 
ATOM     11  C   UNL     1      45.002 130.113  21.227  1.00  0.00     0.035 C 
ATOM     12  C   UNL     1      43.510 132.172  20.666  1.00  0.00     0.193 C 
ATOM     13  C   UNL     1      45.929 130.503  20.064  1.00  0.00     0.023 C 
ATOM     14  C   UNL     1      43.765 131.659  19.243  1.00  0.00     0.061 C 
ATOM     15  C   UNL     1      44.070 131.577  22.999  1.00  0.00     0.011 C 
ATOM     16  F   UNL     1      42.146 132.188  20.904  1.00  0.00    -0.243 F 
ENDBRANCH   7   9
ENDBRANCH   1   7
BRANCH   6  17
ATOM     17  O   UNL     1      43.201 131.813  14.831  1.00  0.00    -0.385 OA
ATOM     18  H   UNL     1      42.243 131.655  15.041  1.00  0.00     0.211 HD
ENDBRANCH   6  17
BRANCH   5  19
ATOM     19  N   UNL     1      45.289 128.805  15.473  1.00  0.00    -0.267 N 
ATOM     20  H   UNL     1      44.632 127.997  15.359  1.00  0.00     0.370 HD
ATOM     21  H   UNL     1      45.394 129.005  16.494  1.00  0.00     0.370 HD
BRANCH  19  22
ATOM     22  N   UNL     1      46.541 128.419  14.944  1.00  0.00    -0.183 NA
ATOM     23  H   UNL     1      47.230 128.377  15.732  1.00  0.00     0.183 HD
ATOM     24  H   UNL     1      46.886 129.176  14.309  1.00  0.00     0.183 HD
ENDBRANCH  19  22
ENDBRANCH   5  19
TORSDOF 5
ENDMDL
MODEL 2
REMARK VINA RESULT:      -7.3      2.044      2.668
REMARK SMILES C=C1CC[C@@H](N[C@H]2CCC[C@@H]([NH2+]N)[C@@H]2O)C[C@H]1F
REMARK SMILES IDX 7 1 8 2 9 3 10 4 11 5 14 6 6 7 5 9 2 10 3 11 17 12 4 13
REMARK SMILES IDX 16 14 1 15 18 16 15 17 12 19 13 22
REMARK H PARENT 6 8 15 18 12 20 12 21 13 23 13 24
ROOT
ATOM      1  C   UNL     1      45.253 131.858  16.600  1.00  0.00     0.088 C 
ATOM      2  C   UNL     1      45.936 130.542  17.031  1.00  0.00     0.022 C 
ATOM      3  C   UNL     1      45.424 129.340  16.229  1.00  0.00     0.008 C 
ATOM      4  C   UNL     1      45.608 129.561  14.722  1.00  0.00     0.070 C 
ATOM      5  C   UNL     1      44.958 130.875  14.223  1.00  0.00     0.232 C 
ATOM      6  C   UNL     1      45.438 132.087  15.077  1.00  0.00     0.191 C 
ENDROOT
BRANCH   1   7
ATOM      7  N   UNL     1      43.818 131.860  16.961  1.00  0.00    -0.308 NA
ATOM      8  H   UNL     1      43.261 131.257  16.310  1.00  0.00     0.123 HD
BRANCH   7   9
ATOM      9  C   UNL     1      43.569 131.417  18.347  1.00  0.00     0.057 C 
ATOM     10  C   UNL     1      43.164 131.917  21.181  1.00  0.00    -0.044 C 
ATOM     11  C   UNL     1      42.241 132.637  20.230  1.00  0.00     0.035 C 
ATOM     12  C   UNL     1      44.528 131.483  20.696  1.00  0.00     0.193 C 
ATOM     13  C   UNL     1      42.184 131.914  18.873  1.00  0.00     0.023 C 
ATOM     14  C   UNL     1      44.746 131.876  19.228  1.00  0.00     0.061 C 
ATOM     15  C   UNL     1      42.798 131.685  22.451  1.00  0.00     0.011 C 
ATOM     16  F   UNL     1      45.511 132.070  21.474  1.00  0.00    -0.243 F 
ENDBRANCH   7   9
ENDBRANCH   1   7
BRANCH   6  17
ATOM     17  O   UNL     1      46.798 132.335  14.822  1.00  0.00    -0.385 OA
ATOM     18  H   UNL     1      46.896 132.435  13.839  1.00  0.00     0.211 HD
ENDBRANCH   6  17
BRANCH   5  19
ATOM     19  N   UNL     1      43.480 130.789  14.169  1.00  0.00    -0.267 N 
ATOM     20  H   UNL     1      43.109 130.576  15.125  1.00  0.00     0.370 HD
ATOM     21  H   UNL     1      43.149 130.047  13.511  1.00  0.00     0.370 HD
BRANCH  19  22
ATOM     22  N   UNL     1      42.950 132.035  13.770  1.00  0.00    -0.183 NA
ATOM     23  H   UNL     1      42.077 132.211  14.322  1.00  0.00     0.183 HD
ATOM     24  H   UNL     1      42.642 131.967  12.772  1.00  0.00     0.183 HD
ENDBRANCH  19  22
ENDBRANCH   5  19
TORSDOF 5
ENDMDL
MODEL 3
REMARK VINA RESULT:      -7.1      3.247      6.320
REMARK SMILES C=C1CC[C@@H](N[C@H]2CCC[C@@H]([NH2+]N)[C@@H]2O)C[C@H]1F
REMARK SMILES IDX 7 1 8 2 9 3 10 4 11 5 14 6 6 7 5 9 2 10 3 11 17 12 4 13
REMARK SMILES IDX 16 14 1 15 18 16 15 17 12 19 13 22
REMARK H PARENT 6 8 15 18 12 20 12 21 13 23 13 24
ROOT
ATOM      1  C   UNL     1      45.045 131.900  19.408  1.00  0.00     0.088 C 
ATOM      2  C   UNL     1      43.622 132.337  19.820  1.00  0.00     0.022 C 
ATOM      3  C   UNL     1      42.921 131.277  20.677  1.00  0.00     0.008 C 
ATOM      4  C   UNL     1      43.749 130.938  21.923  1.00  0.00     0.070 C 
ATOM      5  C   UNL     1      45.197 130.504  21.584  1.00  0.00     0.232 C 
ATOM      6  C   UNL     1      45.886 131.557  20.665  1.00  0.00     0.191 C 
ENDROOT
BRANCH   1   7
ATOM      7  N   UNL     1      45.005 130.753  18.475  1.00  0.00    -0.308 NA
ATOM      8  H   UNL     1      44.032 130.574  18.132  1.00  0.00     0.123 HD
BRANCH   7   9
ATOM      9  C   UNL     1      45.895 130.923  17.309  1.00  0.00     0.057 C 
ATOM     10  C   UNL     1      46.444 130.891  14.456  1.00  0.00    -0.044 C 
ATOM     11  C   UNL     1      45.296 131.757  14.914  1.00  0.00     0.035 C 
ATOM     12  C   UNL     1      46.852 129.705  15.299  1.00  0.00     0.193 C 
ATOM     13  C   UNL     1      45.441 132.111  16.403  1.00  0.00     0.023 C 
ATOM     14  C   UNL     1      45.972 129.584  16.551  1.00  0.00     0.061 C 
ATOM     15  C   UNL     1      47.080 131.146  13.303  1.00  0.00     0.011 C 
ATOM     16  F   UNL     1      46.746 128.542  14.556  1.00  0.00    -0.243 F 
ENDBRANCH   7   9
ENDBRANCH   1   7
BRANCH   6  17
ATOM     17  O   UNL     1      46.113 132.741  21.391  1.00  0.00    -0.385 OA
ATOM     18  H   UNL     1      45.982 132.523  22.351  1.00  0.00     0.211 HD
ENDBRANCH   6  17
BRANCH   5  19
ATOM     19  N   UNL     1      45.258 129.143  21.004  1.00  0.00    -0.267 N 
ATOM     20  H   UNL     1      46.186 129.003  20.540  1.00  0.00     0.370 HD
ATOM     21  H   UNL     1      44.505 128.977  20.298  1.00  0.00     0.370 HD
BRANCH  19  22
ATOM     22  N   UNL     1      45.144 128.186  22.037  1.00  0.00    -0.183 NA
ATOM     23  H   UNL     1      46.101 127.812  22.242  1.00  0.00     0.183 HD
ATOM     24  H   UNL     1      44.594 127.370  21.681  1.00  0.00     0.183 HD
ENDBRANCH  19  22
ENDBRANCH   5  19
TORSDOF 5
ENDMDL
MODEL 4
REMARK VINA RESULT:      -6.7      1.206      1.759
REMARK SMILES C=C1CC[C@@H](N[C@H]2CCC[C@@H]([NH2+]N)[C@@H]2O)C[C@H]1F
REMARK SMILES IDX 7 1 8 2 9 3 10 4 11 5 14 6 6 7 5 9 2 10 3 11 17 12 4 13
REMARK SMILES IDX 16 14 1 15 18 16 15 17 12 19 13 22
REMARK H PARENT 6 8 15 18 12 20 12 21 13 23 13 24
ROOT
ATOM      1  C   UNL     1      45.072 131.718  16.094  1.00  0.00     0.088 C 
ATOM      2  C   UNL     1      46.066 132.669  15.394  1.00  0.00     0.022 C 
ATOM      3  C   UNL     1      47.120 131.905  14.585  1.00  0.00     0.008 C 
ATOM      4  C   UNL     1      46.462 130.979  13.554  1.00  0.00     0.070 C 
ATOM      5  C   UNL     1      45.438 130.004  14.188  1.00  0.00     0.232 C 
ATOM      6  C   UNL     1      44.402 130.780  15.055  1.00  0.00     0.191 C 
ENDROOT
BRANCH   1   7
ATOM      7  N   UNL     1      45.739 130.932  17.156  1.00  0.00    -0.308 NA
ATOM      8  H   UNL     1      46.641 131.376  17.448  1.00  0.00     0.123 HD
BRANCH   7   9
ATOM      9  C   UNL     1      44.895 130.742  18.352  1.00  0.00     0.057 C 
ATOM     10  C   UNL     1      43.610 131.688  20.781  1.00  0.00    -0.044 C 
ATOM     11  C   UNL     1      43.312 132.456  19.516  1.00  0.00     0.035 C 
ATOM     12  C   UNL     1      44.903 130.914  20.884  1.00  0.00     0.193 C 
ATOM     13  C   UNL     1      43.583 131.587  18.276  1.00  0.00     0.023 C 
ATOM     14  C   UNL     1      45.738 131.053  19.603  1.00  0.00     0.061 C 
ATOM     15  C   UNL     1      42.756 131.711  21.815  1.00  0.00     0.011 C 
ATOM     16  F   UNL     1      45.643 131.377  21.960  1.00  0.00    -0.243 F 
ENDBRANCH   7   9
ENDBRANCH   1   7
BRANCH   6  17
ATOM     17  O   UNL     1      43.572 131.552  14.223  1.00  0.00    -0.385 OA
ATOM     18  H   UNL     1      43.006 130.919  13.709  1.00  0.00     0.211 HD
ENDBRANCH   6  17
BRANCH   5  19
ATOM     19  N   UNL     1      46.092 128.917  14.951  1.00  0.00    -0.267 N 
ATOM     20  H   UNL     1      46.747 129.330  15.656  1.00  0.00     0.370 HD
ATOM     21  H   UNL     1      46.634 128.269  14.334  1.00  0.00     0.370 HD
BRANCH  19  22
ATOM     22  N   UNL     1      45.113 128.180  15.653  1.00  0.00    -0.183 NA
ATOM     23  H   UNL     1      44.723 128.791  16.409  1.00  0.00     0.183 HD
ATOM     24  H   UNL     1      45.581 127.385  16.149  1.00  0.00     0.183 HD
ENDBRANCH  19  22
ENDBRANCH   5  19
TORSDOF 5
ENDMDL
MODEL 5
REMARK VINA RESULT:      -6.7      1.831      2.149
REMARK SMILES C=C1CC[C@@H](N[C@H]2CCC[C@@H]([NH2+]N)[C@@H]2O)C[C@H]1F
REMARK SMILES IDX 7 1 8 2 9 3 10 4 11 5 14 6 6 7 5 9 2 10 3 11 17 12 4 13
REMARK SMILES IDX 16 14 1 15 18 16 15 17 12 19 13 22
REMARK H PARENT 6 8 15 18 12 20 12 21 13 23 13 24
ROOT
ATOM      1  C   UNL     1      45.729 131.434  16.874  1.00  0.00     0.088 C 
ATOM      2  C   UNL     1      46.219 129.981  16.684  1.00  0.00     0.022 C 
ATOM      3  C   UNL     1      45.328 129.197  15.715  1.00  0.00     0.008 C 
ATOM      4  C   UNL     1      45.232 129.902  14.356  1.00  0.00     0.070 C 
ATOM      5  C   UNL     1      44.759 131.372  14.474  1.00  0.00     0.232 C 
ATOM      6  C   UNL     1      45.632 132.152  15.502  1.00  0.00     0.191 C 
ENDROOT
BRANCH   1   7
ATOM      7  N   UNL     1      44.429 131.473  17.579  1.00  0.00    -0.308 NA
ATOM      8  H   UNL     1      43.931 130.554  17.513  1.00  0.00     0.123 HD
BRANCH   7   9
ATOM      9  C   UNL     1      44.554 131.843  19.003  1.00  0.00     0.057 C 
ATOM     10  C   UNL     1      44.236 131.316  21.843  1.00  0.00    -0.044 C 
ATOM     11  C   UNL     1      45.019 130.298  21.050  1.00  0.00     0.035 C 
ATOM     12  C   UNL     1      43.215 132.174  21.133  1.00  0.00     0.193 C 
ATOM     13  C   UNL     1      45.566 130.920  19.754  1.00  0.00     0.023 C 
ATOM     14  C   UNL     1      43.150 131.837  19.637  1.00  0.00     0.061 C 
ATOM     15  C   UNL     1      44.419 131.445  23.165  1.00  0.00     0.011 C 
ATOM     16  F   UNL     1      41.965 131.979  21.697  1.00  0.00    -0.243 F 
ENDBRANCH   7   9
ENDBRANCH   1   7
BRANCH   6  17
ATOM     17  O   UNL     1      46.931 132.318  14.989  1.00  0.00    -0.385 OA
ATOM     18  H   UNL     1      47.541 131.781  15.561  1.00  0.00     0.211 HD
ENDBRANCH   6  17
BRANCH   5  19
ATOM     19  N   UNL     1      43.315 131.478  14.784  1.00  0.00    -0.267 N 
ATOM     20  H   UNL     1      43.166 132.235  15.492  1.00  0.00     0.370 HD
ATOM     21  H   UNL     1      42.924 130.586  15.164  1.00  0.00     0.370 HD
BRANCH  19  22
ATOM     22  N   UNL     1      42.607 131.836  13.616  1.00  0.00    -0.183 NA
ATOM     23  H   UNL     1      42.874 132.816  13.359  1.00  0.00     0.183 HD
ATOM     24  H   UNL     1      41.585 131.872  13.839  1.00  0.00     0.183 HD
ENDBRANCH  19  22
ENDBRANCH   5  19
TORSDOF 5
ENDMDL
MODEL 6
REMARK VINA RESULT:      -6.4      1.353      1.564
REMARK SMILES C=C1CC[C@@H](N[C@H]2CCC[C@@H]([NH2+]N)[C@@H]2O)C[C@H]1F
REMARK SMILES IDX 7 1 8 2 9 3 10 4 11 5 14 6 6 7 5 9 2 10 3 11 17 12 4 13
REMARK SMILES IDX 16 14 1 15 18 16 15 17 12 19 13 22
REMARK H PARENT 6 8 15 18 12 20 12 21 13 23 13 24
ROOT
ATOM      1  C   UNL     1      44.968 130.202  16.743  1.00  0.00     0.088 C 
ATOM      2  C   UNL     1      44.425 131.399  15.933  1.00  0.00     0.022 C 
ATOM      3  C   UNL     1      45.439 131.901  14.901  1.00  0.00     0.008 C 
ATOM      4  C   UNL     1      45.868 130.775  13.952  1.00  0.00     0.070 C 
ATOM      5  C   UNL     1      46.412 129.533  14.701  1.00  0.00     0.232 C 
ATOM      6  C   UNL     1      45.401 129.059  15.788  1.00  0.00     0.191 C 
ENDROOT
BRANCH   1   7
ATOM      7  N   UNL     1      46.090 130.610  17.616  1.00  0.00    -0.308 NA
ATOM      8  H   UNL     1      46.738 131.268  17.121  1.00  0.00     0.123 HD
BRANCH   7   9
ATOM      9  C   UNL     1      45.645 131.240  18.875  1.00  0.00     0.057 C 
ATOM     10  C   UNL     1      44.090 131.283  21.329  1.00  0.00    -0.044 C 
ATOM     11  C   UNL     1      44.999 130.095  21.126  1.00  0.00     0.035 C 
ATOM     12  C   UNL     1      43.584 132.037  20.121  1.00  0.00     0.193 C 
ATOM     13  C   UNL     1      46.117 130.431  20.125  1.00  0.00     0.023 C 
ATOM     14  C   UNL     1      44.117 131.423  18.820  1.00  0.00     0.061 C 
ATOM     15  C   UNL     1      43.709 131.654  22.561  1.00  0.00     0.011 C 
ATOM     16  F   UNL     1      42.199 132.013  20.100  1.00  0.00    -0.243 F 
ENDBRANCH   7   9
ENDBRANCH   1   7
BRANCH   6  17
ATOM     17  O   UNL     1      44.254 128.531  15.169  1.00  0.00    -0.385 OA
ATOM     18  H   UNL     1      43.902 127.820  15.767  1.00  0.00     0.211 HD
ENDBRANCH   6  17
BRANCH   5  19
ATOM     19  N   UNL     1      47.762 129.759  15.264  1.00  0.00    -0.267 N 
ATOM     20  H   UNL     1      47.870 129.201  16.144  1.00  0.00     0.370 HD
ATOM     21  H   UNL     1      47.938 130.766  15.485  1.00  0.00     0.370 HD
BRANCH  19  22
ATOM     22  N   UNL     1      48.737 129.307  14.347  1.00  0.00    -0.183 NA
ATOM     23  H   UNL     1      48.244 128.828  13.556  1.00  0.00     0.183 HD
ATOM     24  H   UNL     1      49.316 128.567  14.807  1.00  0.00     0.183 HD
ENDBRANCH  19  22
ENDBRANCH   5  19
TORSDOF 5
ENDMDL
MODEL 7
REMARK VINA RESULT:      -6.0      3.092      6.146
REMARK SMILES C=C1CC[C@@H](N[C@H]2CCC[C@@H]([NH2+]N)[C@@H]2O)C[C@H]1F
REMARK SMILES IDX 7 1 8 2 9 3 10 4 11 5 14 6 6 7 5 9 2 10 3 11 17 12 4 13
REMARK SMILES IDX 16 14 1 15 18 16 15 17 12 19 13 22
REMARK H PARENT 6 8 15 18 12 20 12 21 13 23 13 24
ROOT
ATOM      1  C   UNL     1      45.138 131.675  19.368  1.00  0.00     0.088 C 
ATOM      2  C   UNL     1      43.752 132.308  19.626  1.00  0.00     0.022 C 
ATOM      3  C   UNL     1      42.926 131.492  20.626  1.00  0.00     0.008 C 
ATOM      4  C   UNL     1      43.678 131.313  21.951  1.00  0.00     0.070 C 
ATOM      5  C   UNL     1      45.086 130.695  21.764  1.00  0.00     0.232 C 
ATOM      6  C   UNL     1      45.903 131.494  20.705  1.00  0.00     0.191 C 
ENDROOT
BRANCH   1   7
ATOM      7  N   UNL     1      45.013 130.384  18.656  1.00  0.00    -0.308 NA
ATOM      8  H   UNL     1      44.127 129.890  18.915  1.00  0.00     0.123 HD
BRANCH   7   9
ATOM      9  C   UNL     1      45.065 130.526  17.187  1.00  0.00     0.057 C 
ATOM     10  C   UNL     1      46.484 130.918  14.682  1.00  0.00    -0.044 C 
ATOM     11  C   UNL     1      46.943 129.769  15.546  1.00  0.00     0.035 C 
ATOM     12  C   UNL     1      45.791 132.094  15.330  1.00  0.00     0.193 C 
ATOM     13  C   UNL     1      45.831 129.340  16.518  1.00  0.00     0.023 C 
ATOM     14  C   UNL     1      45.671 131.901  16.847  1.00  0.00     0.061 C 
ATOM     15  C   UNL     1      46.707 130.915  13.359  1.00  0.00     0.011 C 
ATOM     16  F   UNL     1      46.503 133.255  15.076  1.00  0.00    -0.243 F 
ENDBRANCH   7   9
ENDBRANCH   1   7
BRANCH   6  17
ATOM     17  O   UNL     1      46.223 132.765  21.215  1.00  0.00    -0.385 OA
ATOM     18  H   UNL     1      46.966 133.122  20.661  1.00  0.00     0.211 HD
ENDBRANCH   6  17
BRANCH   5  19
ATOM     19  N   UNL     1      45.030 129.251  21.443  1.00  0.00    -0.267 N 
ATOM     20  H   UNL     1      45.953 128.945  21.052  1.00  0.00     0.370 HD
ATOM     21  H   UNL     1      44.284 129.027  20.746  1.00  0.00     0.370 HD
BRANCH  19  22
ATOM     22  N   UNL     1      44.798 128.513  22.625  1.00  0.00    -0.183 NA
ATOM     23  H   UNL     1      44.495 127.548  22.354  1.00  0.00     0.183 HD
ATOM     24  H   UNL     1      43.982 128.932  23.129  1.00  0.00     0.183 HD
ENDBRANCH  19  22
ENDBRANCH   5  19
TORSDOF 5
ENDMDL
MODEL 8
REMARK VINA RESULT:      -5.9      2.148      2.979
REMARK SMILES C=C1CC[C@@H](N[C@H]2CCC[C@@H]([NH2+]N)[C@@H]2O)C[C@H]1F
REMARK SMILES IDX 7 1 8 2 9 3 10 4 11 5 14 6 6 7 5 9 2 10 3 11 17 12 4 13
REMARK SMILES IDX 16 14 1 15 18 16 15 17 12 19 13 22
REMARK H PARENT 6 8 15 18 12 20 12 21 13 23 13 24
ROOT
ATOM      1  C   UNL     1      46.317 129.567  16.209  1.00  0.00     0.088 C 
ATOM      2  C   UNL     1      44.888 129.332  15.673  1.00  0.00     0.022 C 
ATOM      3  C   UNL     1      44.389 130.512  14.832  1.00  0.00     0.008 C 
ATOM      4  C   UNL     1      45.345 130.807  13.669  1.00  0.00     0.070 C 
ATOM      5  C   UNL     1      46.804 131.039  14.135  1.00  0.00     0.232 C 
ATOM      6  C   UNL     1      47.289 129.864  15.037  1.00  0.00     0.191 C 
ENDROOT
BRANCH   1   7
ATOM      7  N   UNL     1      46.343 130.663  17.203  1.00  0.00    -0.308 NA
ATOM      8  H   UNL     1      46.257 131.598  16.740  1.00  0.00     0.123 HD
BRANCH   7   9
ATOM      9  C   UNL     1      45.288 130.541  18.227  1.00  0.00     0.057 C 
ATOM     10  C   UNL     1      43.858 131.465  20.583  1.00  0.00    -0.044 C 
ATOM     11  C   UNL     1      43.962 132.435  19.431  1.00  0.00     0.035 C 
ATOM     12  C   UNL     1      44.905 130.386  20.731  1.00  0.00     0.193 C 
ATOM     13  C   UNL     1      44.235 131.690  18.114  1.00  0.00     0.023 C 
ATOM     14  C   UNL     1      45.954 130.472  19.614  1.00  0.00     0.061 C 
ATOM     15  C   UNL     1      42.869 131.570  21.482  1.00  0.00     0.011 C 
ATOM     16  F   UNL     1      45.537 130.510  21.957  1.00  0.00    -0.243 F 
ENDBRANCH   7   9
ENDBRANCH   1   7
BRANCH   6  17
ATOM     17  O   UNL     1      47.427 128.699  14.261  1.00  0.00    -0.385 OA
ATOM     18  H   UNL     1      48.137 128.150  14.685  1.00  0.00     0.211 HD
ENDBRANCH   6  17
BRANCH   5  19
ATOM     19  N   UNL     1      46.984 132.352  14.796  1.00  0.00    -0.267 N 
ATOM     20  H   UNL     1      47.298 133.058  14.089  1.00  0.00     0.370 HD
ATOM     21  H   UNL     1      47.690 132.316  15.567  1.00  0.00     0.370 HD
BRANCH  19  22
ATOM     22  N   UNL     1      45.747 132.789  15.320  1.00  0.00    -0.183 NA
ATOM     23  H   UNL     1      45.409 133.589  14.734  1.00  0.00     0.183 HD
ATOM     24  H   UNL     1      45.907 133.187  16.274  1.00  0.00     0.183 HD
ENDBRANCH  19  22
ENDBRANCH   5  19
TORSDOF 5
ENDMDL
MODEL 9
REMARK VINA RESULT:      -5.9      1.287      1.642
REMARK SMILES C=C1CC[C@@H](N[C@H]2CCC[C@@H]([NH2+]N)[C@@H]2O)C[C@H]1F
REMARK SMILES IDX 7 1 8 2 9 3 10 4 11 5 14 6 6 7 5 9 2 10 3 11 17 12 4 13
REMARK SMILES IDX 16 14 1 15 18 16 15 17 12 19 13 22
REMARK H PARENT 6 8 15 18 12 20 12 21 13 23 13 24
ROOT
ATOM      1  C   UNL     1      45.071 131.913  16.515  1.00  0.00     0.088 C 
ATOM      2  C   UNL     1      46.094 132.548  15.547  1.00  0.00     0.022 C 
ATOM      3  C   UNL     1      46.816 131.493  14.702  1.00  0.00     0.008 C 
ATOM      4  C   UNL     1      45.817 130.630  13.921  1.00  0.00     0.070 C 
ATOM      5  C   UNL     1      44.750 129.973  14.832  1.00  0.00     0.232 C 
ATOM      6  C   UNL     1      44.057 131.041  15.729  1.00  0.00     0.191 C 
ENDROOT
BRANCH   1   7
ATOM      7  N   UNL     1      45.747 131.117  17.563  1.00  0.00    -0.308 NA
ATOM      8  H   UNL     1      46.700 131.496  17.774  1.00  0.00     0.123 HD
BRANCH   7   9
ATOM      9  C   UNL     1      44.977 131.041  18.820  1.00  0.00     0.057 C 
ATOM     10  C   UNL     1      44.733 131.214  21.711  1.00  0.00    -0.044 C 
ATOM     11  C   UNL     1      45.291 132.427  21.005  1.00  0.00     0.035 C 
ATOM     12  C   UNL     1      44.874 129.857  21.062  1.00  0.00     0.193 C 
ATOM     13  C   UNL     1      44.879 132.432  19.524  1.00  0.00     0.023 C 
ATOM     14  C   UNL     1      45.606 129.957  19.716  1.00  0.00     0.061 C 
ATOM     15  C   UNL     1      44.143 131.328  22.909  1.00  0.00     0.011 C 
ATOM     16  F   UNL     1      45.579 129.008  21.899  1.00  0.00    -0.243 F 
ENDBRANCH   7   9
ENDBRANCH   1   7
BRANCH   6  17
ATOM     17  O   UNL     1      43.261 131.884  14.933  1.00  0.00    -0.385 OA
ATOM     18  H   UNL     1      42.669 131.299  14.392  1.00  0.00     0.211 HD
ENDBRANCH   6  17
BRANCH   5  19
ATOM     19  N   UNL     1      45.301 128.854  15.630  1.00  0.00    -0.267 N 
ATOM     20  H   UNL     1      44.598 128.078  15.674  1.00  0.00     0.370 HD
ATOM     21  H   UNL     1      45.538 129.142  16.607  1.00  0.00     0.370 HD
BRANCH  19  22
ATOM     22  N   UNL     1      46.460 128.351  15.000  1.00  0.00    -0.183 NA
ATOM     23  H   UNL     1      46.236 127.403  14.614  1.00  0.00     0.183 HD
ATOM     24  H   UNL     1      47.196 128.192  15.726  1.00  0.00     0.183 HD
ENDBRANCH  19  22
ENDBRANCH   5  19
TORSDOF 5
ENDMDL


