MODEL 1
REMARK VINA RESULT:      -6.3      0.000      0.000
REMARK SMILES Cc1ccc([NH2+][C@@H]2CCC[C@@H](NN)[C@@]2(O)c2nc3ccccc3[n-]2)cc1F
REMARK SMILES IDX 7 1 8 2 9 3 10 4 11 5 14 6 6 7 5 10 2 11 3 12 26 13 4 14
REMARK SMILES IDX 25 15 1 16 27 17 15 18 16 20 17 21 24 22 18 23 23 24 19 25
REMARK SMILES IDX 22 26 20 27 21 28 12 29 13 31
REMARK H PARENT 6 8 6 9 15 19 12 30 13 32 13 33
ROOT
ATOM      1  C   UNL     1      43.927 130.452  22.236  1.00  0.00     0.225 C 
ATOM      2  C   UNL     1      43.291 131.859  22.371  1.00  0.00     0.069 C 
ATOM      3  C   UNL     1      41.949 131.837  23.104  1.00  0.00     0.008 C 
ATOM      4  C   UNL     1      42.082 131.187  24.483  1.00  0.00     0.024 C 
ATOM      5  C   UNL     1      42.702 129.772  24.413  1.00  0.00     0.111 C 
ATOM      6  C   UNL     1      44.077 129.788  23.657  1.00  0.00     0.150 C 
ENDROOT
BRANCH   1   7
ATOM      7  N   UNL     1      45.223 130.594  21.514  1.00  0.00    -0.309 N 
ATOM      8  H   UNL     1      45.754 131.407  21.905  1.00  0.00     0.352 HD
ATOM      9  H   UNL     1      45.819 129.751  21.679  1.00  0.00     0.352 HD
BRANCH   7  10
ATOM     10  C   UNL     1      45.076 130.848  20.098  1.00  0.00     0.132 A 
ATOM     11  C   UNL     1      44.769 131.309  17.333  1.00  0.00    -0.015 A 
ATOM     12  C   UNL     1      43.922 131.942  18.256  1.00  0.00     0.012 A 
ATOM     13  C   UNL     1      45.804 130.484  17.802  1.00  0.00     0.132 A 
ATOM     14  C   UNL     1      44.078 131.719  19.626  1.00  0.00     0.068 A 
ATOM     15  C   UNL     1      45.958 130.259  19.173  1.00  0.00     0.107 A 
ATOM     16  C   UNL     1      44.599 131.545  15.861  1.00  0.00     0.047 C 
ATOM     17  F   UNL     1      46.655 129.885  16.931  1.00  0.00    -0.206 F 
ENDBRANCH   7  10
ENDBRANCH   1   7
BRANCH   6  18
ATOM     18  O   UNL     1      45.006 130.556  24.395  1.00  0.00    -0.378 OA
ATOM     19  H   UNL     1      45.758 129.969  24.672  1.00  0.00     0.212 HD
ENDBRANCH   6  18
BRANCH   6  20
ATOM     20  C   UNL     1      44.582 128.357  23.546  1.00  0.00    -0.042 A 
ATOM     21  N   UNL     1      45.178 127.866  22.425  1.00  0.00    -0.437 NA
ATOM     22  N   UNL     1      44.478 127.457  24.562  1.00  0.00    -0.437 NA
ATOM     23  C   UNL     1      45.442 126.596  22.764  1.00  0.00    -0.038 A 
ATOM     24  C   UNL     1      45.025 126.353  24.035  1.00  0.00    -0.038 A 
ATOM     25  C   UNL     1      46.014 125.603  21.972  1.00  0.00     0.004 A 
ATOM     26  C   UNL     1      45.144 125.096  24.625  1.00  0.00     0.004 A 
ATOM     27  C   UNL     1      46.152 124.319  22.534  1.00  0.00     0.000 A 
ATOM     28  C   UNL     1      45.717 124.067  23.856  1.00  0.00     0.000 A 
ENDBRANCH   6  20
BRANCH   5  29
ATOM     29  N   UNL     1      41.770 128.787  23.827  1.00  0.00    -0.254 NA
ATOM     30  H   UNL     1      41.514 129.061  22.851  1.00  0.00     0.141 HD
BRANCH  29  31
ATOM     31  N   UNL     1      40.593 128.744  24.597  1.00  0.00    -0.271 NA
ATOM     32  H   UNL     1      40.464 129.693  25.017  1.00  0.00     0.137 HD
ATOM     33  H   UNL     1      40.765 128.102  25.405  1.00  0.00     0.137 HD
ENDBRANCH  29  31
ENDBRANCH   5  29
TORSDOF 6
ENDMDL
MODEL 2
REMARK VINA RESULT:      -6.2      1.048      1.625
REMARK SMILES Cc1ccc([NH2+][C@@H]2CCC[C@@H](NN)[C@@]2(O)c2nc3ccccc3[n-]2)cc1F
REMARK SMILES IDX 7 1 8 2 9 3 10 4 11 5 14 6 6 7 5 10 2 11 3 12 26 13 4 14
REMARK SMILES IDX 25 15 1 16 27 17 15 18 16 20 17 21 24 22 18 23 23 24 19 25
REMARK SMILES IDX 22 26 20 27 21 28 12 29 13 31
REMARK H PARENT 6 8 6 9 15 19 12 30 13 32 13 33
ROOT
ATOM      1  C   UNL     1      44.003 130.713  21.062  1.00  0.00     0.225 C 
ATOM      2  C   UNL     1      43.286 132.076  20.887  1.00  0.00     0.069 C 
ATOM      3  C   UNL     1      41.956 132.149  21.638  1.00  0.00     0.008 C 
ATOM      4  C   UNL     1      42.142 131.841  23.125  1.00  0.00     0.024 C 
ATOM      5  C   UNL     1      42.845 130.484  23.365  1.00  0.00     0.111 C 
ATOM      6  C   UNL     1      44.208 130.402  22.593  1.00  0.00     0.150 C 
ENDROOT
BRANCH   1   7
ATOM      7  N   UNL     1      45.280 130.757  20.295  1.00  0.00    -0.309 N 
ATOM      8  H   UNL     1      45.846 131.582  20.605  1.00  0.00     0.352 HD
ATOM      9  H   UNL     1      45.856 129.911  20.509  1.00  0.00     0.352 HD
BRANCH   7  10
ATOM     10  C   UNL     1      45.098 130.904  18.868  1.00  0.00     0.132 A 
ATOM     11  C   UNL     1      44.727 131.154  16.084  1.00  0.00    -0.015 A 
ATOM     12  C   UNL     1      43.803 131.721  16.976  1.00  0.00     0.012 A 
ATOM     13  C   UNL     1      45.865 130.506  16.590  1.00  0.00     0.132 A 
ATOM     14  C   UNL     1      43.991 131.603  18.355  1.00  0.00     0.068 A 
ATOM     15  C   UNL     1      46.050 130.386  17.971  1.00  0.00     0.107 A 
ATOM     16  C   UNL     1      44.524 131.276  14.602  1.00  0.00     0.047 C 
ATOM     17  F   UNL     1      46.787 129.975  15.748  1.00  0.00    -0.206 F 
ENDBRANCH   7  10
ENDBRANCH   1   7
BRANCH   6  18
ATOM     18  O   UNL     1      45.098 131.369  23.112  1.00  0.00    -0.378 OA
ATOM     19  H   UNL     1      46.023 131.131  22.841  1.00  0.00     0.212 HD
ENDBRANCH   6  18
BRANCH   6  20
ATOM     20  C   UNL     1      44.796 129.015  22.799  1.00  0.00    -0.042 A 
ATOM     21  N   UNL     1      44.904 128.428  24.022  1.00  0.00    -0.437 NA
ATOM     22  N   UNL     1      45.260 128.250  21.772  1.00  0.00    -0.437 NA
ATOM     23  C   UNL     1      45.474 127.249  23.736  1.00  0.00    -0.038 A 
ATOM     24  C   UNL     1      45.687 127.144  22.396  1.00  0.00    -0.038 A 
ATOM     25  C   UNL     1      45.863 126.251  24.624  1.00  0.00     0.004 A 
ATOM     26  C   UNL     1      46.305 126.031  21.831  1.00  0.00     0.004 A 
ATOM     27  C   UNL     1      46.491 125.109  24.091  1.00  0.00     0.000 A 
ATOM     28  C   UNL     1      46.711 125.000  22.698  1.00  0.00     0.000 A 
ENDBRANCH   6  20
BRANCH   5  29
ATOM     29  N   UNL     1      41.967 129.341  23.042  1.00  0.00    -0.254 NA
ATOM     30  H   UNL     1      41.475 129.502  22.135  1.00  0.00     0.141 HD
BRANCH  29  31
ATOM     31  N   UNL     1      40.996 129.199  24.052  1.00  0.00    -0.271 NA
ATOM     32  H   UNL     1      40.091 128.966  23.580  1.00  0.00     0.137 HD
ATOM     33  H   UNL     1      40.850 130.139  24.487  1.00  0.00     0.137 HD
ENDBRANCH  29  31
ENDBRANCH   5  29
TORSDOF 6
ENDMDL
MODEL 3
REMARK VINA RESULT:      -5.7      1.238      1.555
REMARK SMILES Cc1ccc([NH2+][C@@H]2CCC[C@@H](NN)[C@@]2(O)c2nc3ccccc3[n-]2)cc1F
REMARK SMILES IDX 7 1 8 2 9 3 10 4 11 5 14 6 6 7 5 10 2 11 3 12 26 13 4 14
REMARK SMILES IDX 25 15 1 16 27 17 15 18 16 20 17 21 24 22 18 23 23 24 19 25
REMARK SMILES IDX 22 26 20 27 21 28 12 29 13 31
REMARK H PARENT 6 8 6 9 15 19 12 30 13 32 13 33
ROOT
ATOM      1  C   UNL     1      43.832 130.420  22.291  1.00  0.00     0.225 C 
ATOM      2  C   UNL     1      43.315 131.857  22.558  1.00  0.00     0.069 C 
ATOM      3  C   UNL     1      41.983 131.880  23.307  1.00  0.00     0.008 C 
ATOM      4  C   UNL     1      42.074 131.103  24.622  1.00  0.00     0.024 C 
ATOM      5  C   UNL     1      42.574 129.654  24.419  1.00  0.00     0.111 C 
ATOM      6  C   UNL     1      43.939 129.624  23.646  1.00  0.00     0.150 C 
ENDROOT
BRANCH   1   7
ATOM      7  N   UNL     1      45.129 130.520  21.563  1.00  0.00    -0.309 N 
ATOM      8  H   UNL     1      45.687 131.316  21.950  1.00  0.00     0.352 HD
ATOM      9  H   UNL     1      45.698 129.657  21.726  1.00  0.00     0.352 HD
BRANCH   7  10
ATOM     10  C   UNL     1      44.985 130.776  20.147  1.00  0.00     0.132 A 
ATOM     11  C   UNL     1      44.718 131.313  17.392  1.00  0.00    -0.015 A 
ATOM     12  C   UNL     1      45.844 130.628  17.875  1.00  0.00     0.012 A 
ATOM     13  C   UNL     1      43.701 131.683  18.286  1.00  0.00     0.132 A 
ATOM     14  C   UNL     1      45.973 130.356  19.239  1.00  0.00     0.068 A 
ATOM     15  C   UNL     1      43.832 131.413  19.652  1.00  0.00     0.107 A 
ATOM     16  C   UNL     1      44.581 131.610  15.927  1.00  0.00     0.047 C 
ATOM     17  F   UNL     1      42.589 132.320  17.839  1.00  0.00    -0.206 F 
ENDBRANCH   7  10
ENDBRANCH   1   7
BRANCH   6  18
ATOM     18  O   UNL     1      44.935 130.245  24.432  1.00  0.00    -0.378 OA
ATOM     19  H   UNL     1      44.502 130.906  25.034  1.00  0.00     0.212 HD
ENDBRANCH   6  18
BRANCH   6  20
ATOM     20  C   UNL     1      44.324 128.172  23.402  1.00  0.00    -0.042 A 
ATOM     21  N   UNL     1      43.498 127.278  22.792  1.00  0.00    -0.437 NA
ATOM     22  N   UNL     1      45.527 127.655  23.774  1.00  0.00    -0.437 NA
ATOM     23  C   UNL     1      44.224 126.151  22.802  1.00  0.00    -0.038 A 
ATOM     24  C   UNL     1      45.432 126.376  23.387  1.00  0.00    -0.038 A 
ATOM     25  C   UNL     1      43.851 124.891  22.343  1.00  0.00     0.004 A 
ATOM     26  C   UNL     1      46.369 125.361  23.562  1.00  0.00     0.004 A 
ATOM     27  C   UNL     1      44.773 123.839  22.501  1.00  0.00     0.000 A 
ATOM     28  C   UNL     1      46.027 124.073  23.110  1.00  0.00     0.000 A 
ENDBRANCH   6  20
BRANCH   5  29
ATOM     29  N   UNL     1      41.559 128.803  23.764  1.00  0.00    -0.254 NA
ATOM     30  H   UNL     1      41.261 129.223  22.855  1.00  0.00     0.141 HD
BRANCH  29  31
ATOM     31  N   UNL     1      40.428 128.702  24.596  1.00  0.00    -0.271 NA
ATOM     32  H   UNL     1      39.791 127.993  24.166  1.00  0.00     0.137 HD
ATOM     33  H   UNL     1      39.912 129.610  24.542  1.00  0.00     0.137 HD
ENDBRANCH  29  31
ENDBRANCH   5  29
TORSDOF 6
ENDMDL
MODEL 4
REMARK VINA RESULT:      -5.5      1.322      1.934
REMARK SMILES Cc1ccc([NH2+][C@@H]2CCC[C@@H](NN)[C@@]2(O)c2nc3ccccc3[n-]2)cc1F
REMARK SMILES IDX 7 1 8 2 9 3 10 4 11 5 14 6 6 7 5 10 2 11 3 12 26 13 4 14
REMARK SMILES IDX 25 15 1 16 27 17 15 18 16 20 17 21 24 22 18 23 23 24 19 25
REMARK SMILES IDX 22 26 20 27 21 28 12 29 13 31
REMARK H PARENT 6 8 6 9 15 19 12 30 13 32 13 33
ROOT
ATOM      1  C   UNL     1      44.395 130.766  20.248  1.00  0.00     0.225 C 
ATOM      2  C   UNL     1      43.876 132.184  19.895  1.00  0.00     0.069 C 
ATOM      3  C   UNL     1      42.514 132.491  20.519  1.00  0.00     0.008 C 
ATOM      4  C   UNL     1      42.547 132.307  22.037  1.00  0.00     0.024 C 
ATOM      5  C   UNL     1      43.047 130.904  22.453  1.00  0.00     0.111 C 
ATOM      6  C   UNL     1      44.442 130.582  21.812  1.00  0.00     0.150 C 
ENDROOT
BRANCH   1   7
ATOM      7  N   UNL     1      45.721 130.580  19.594  1.00  0.00    -0.309 N 
ATOM      8  H   UNL     1      46.381 131.323  19.922  1.00  0.00     0.352 HD
ATOM      9  H   UNL     1      46.140 129.667  19.887  1.00  0.00     0.352 HD
BRANCH   7  10
ATOM     10  C   UNL     1      45.679 130.683  18.152  1.00  0.00     0.132 A 
ATOM     11  C   UNL     1      45.578 130.850  15.339  1.00  0.00    -0.015 A 
ATOM     12  C   UNL     1      44.646 131.546  16.125  1.00  0.00     0.012 A 
ATOM     13  C   UNL     1      46.593 130.111  15.968  1.00  0.00     0.132 A 
ATOM     14  C   UNL     1      44.700 131.469  17.519  1.00  0.00     0.068 A 
ATOM     15  C   UNL     1      46.645 130.032  17.363  1.00  0.00     0.107 A 
ATOM     16  C   UNL     1      45.518 130.928  13.842  1.00  0.00     0.047 C 
ATOM     17  F   UNL     1      47.523 129.453  15.231  1.00  0.00    -0.206 F 
ENDBRANCH   7  10
ENDBRANCH   1   7
BRANCH   6  18
ATOM     18  O   UNL     1      45.409 131.478  22.322  1.00  0.00    -0.378 OA
ATOM     19  H   UNL     1      44.946 132.192  22.834  1.00  0.00     0.212 HD
ENDBRANCH   6  18
BRANCH   6  20
ATOM     20  C   UNL     1      44.828 129.159  22.187  1.00  0.00    -0.042 A 
ATOM     21  N   UNL     1      45.794 128.455  21.535  1.00  0.00    -0.437 NA
ATOM     22  N   UNL     1      44.235 128.478  23.206  1.00  0.00    -0.437 NA
ATOM     23  C   UNL     1      45.788 127.279  22.178  1.00  0.00    -0.038 A 
ATOM     24  C   UNL     1      44.859 127.292  23.172  1.00  0.00    -0.038 A 
ATOM     25  C   UNL     1      46.553 126.150  21.899  1.00  0.00     0.004 A 
ATOM     26  C   UNL     1      44.617 126.179  23.973  1.00  0.00     0.004 A 
ATOM     27  C   UNL     1      46.337 125.004  22.688  1.00  0.00     0.000 A 
ATOM     28  C   UNL     1      45.372 125.018  23.721  1.00  0.00     0.000 A 
ENDBRANCH   6  20
BRANCH   5  29
ATOM     29  N   UNL     1      42.055 129.851  22.155  1.00  0.00    -0.254 NA
ATOM     30  H   UNL     1      41.253 130.246  21.614  1.00  0.00     0.141 HD
BRANCH  29  31
ATOM     31  N   UNL     1      41.556 129.325  23.362  1.00  0.00    -0.271 NA
ATOM     32  H   UNL     1      42.258 129.543  24.107  1.00  0.00     0.137 HD
ATOM     33  H   UNL     1      41.555 128.282  23.278  1.00  0.00     0.137 HD
ENDBRANCH  29  31
ENDBRANCH   5  29
TORSDOF 6
ENDMDL
MODEL 5
REMARK VINA RESULT:      -5.2      1.594      2.463
REMARK SMILES Cc1ccc([NH2+][C@@H]2CCC[C@@H](NN)[C@@]2(O)c2nc3ccccc3[n-]2)cc1F
REMARK SMILES IDX 7 1 8 2 9 3 10 4 11 5 14 6 6 7 5 10 2 11 3 12 26 13 4 14
REMARK SMILES IDX 25 15 1 16 27 17 15 18 16 20 17 21 24 22 18 23 23 24 19 25
REMARK SMILES IDX 22 26 20 27 21 28 12 29 13 31
REMARK H PARENT 6 8 6 9 15 19 12 30 13 32 13 33
ROOT
ATOM      1  C   UNL     1      44.518 130.475  20.025  1.00  0.00     0.225 C 
ATOM      2  C   UNL     1      44.059 131.845  19.463  1.00  0.00     0.069 C 
ATOM      3  C   UNL     1      42.772 132.354  20.114  1.00  0.00     0.008 C 
ATOM      4  C   UNL     1      42.915 132.433  21.635  1.00  0.00     0.024 C 
ATOM      5  C   UNL     1      43.361 131.090  22.258  1.00  0.00     0.111 C 
ATOM      6  C   UNL     1      44.678 130.560  21.590  1.00  0.00     0.150 C 
ENDROOT
BRANCH   1   7
ATOM      7  N   UNL     1      45.773 130.082  19.326  1.00  0.00    -0.309 N 
ATOM      8  H   UNL     1      46.576 130.635  19.709  1.00  0.00     0.352 HD
ATOM      9  H   UNL     1      45.993 129.078  19.521  1.00  0.00     0.352 HD
BRANCH   7  10
ATOM     10  C   UNL     1      45.751 130.333  17.902  1.00  0.00     0.132 A 
ATOM     11  C   UNL     1      45.723 130.857  15.131  1.00  0.00    -0.015 A 
ATOM     12  C   UNL     1      46.744 130.075  15.695  1.00  0.00     0.012 A 
ATOM     13  C   UNL     1      44.687 131.331  15.951  1.00  0.00     0.132 A 
ATOM     14  C   UNL     1      46.754 129.810  17.067  1.00  0.00     0.068 A 
ATOM     15  C   UNL     1      44.700 131.068  17.324  1.00  0.00     0.107 A 
ATOM     16  C   UNL     1      45.715 131.146  13.659  1.00  0.00     0.047 C 
ATOM     17  F   UNL     1      43.673 132.064  15.425  1.00  0.00    -0.206 F 
ENDBRANCH   7  10
ENDBRANCH   1   7
BRANCH   6  18
ATOM     18  O   UNL     1      45.735 131.457  21.866  1.00  0.00    -0.378 OA
ATOM     19  H   UNL     1      46.598 130.984  21.735  1.00  0.00     0.212 HD
ENDBRANCH   6  18
BRANCH   6  20
ATOM     20  C   UNL     1      45.006 129.198  22.184  1.00  0.00    -0.042 A 
ATOM     21  N   UNL     1      45.674 128.230  21.499  1.00  0.00    -0.437 NA
ATOM     22  N   UNL     1      44.656 128.842  23.451  1.00  0.00    -0.437 NA
ATOM     23  C   UNL     1      45.727 127.225  22.383  1.00  0.00    -0.038 A 
ATOM     24  C   UNL     1      45.120 127.589  23.545  1.00  0.00    -0.038 A 
ATOM     25  C   UNL     1      46.264 125.954  22.199  1.00  0.00     0.004 A 
ATOM     26  C   UNL     1      44.999 126.714  24.622  1.00  0.00     0.004 A 
ATOM     27  C   UNL     1      46.162 125.041  23.266  1.00  0.00     0.000 A 
ATOM     28  C   UNL     1      45.531 125.419  24.473  1.00  0.00     0.000 A 
ENDBRANCH   6  20
BRANCH   5  29
ATOM     29  N   UNL     1      42.286 130.077  22.219  1.00  0.00    -0.254 NA
ATOM     30  H   UNL     1      41.455 130.444  21.702  1.00  0.00     0.141 HD
BRANCH  29  31
ATOM     31  N   UNL     1      41.888 129.769  23.534  1.00  0.00    -0.271 NA
ATOM     32  H   UNL     1      42.653 129.198  23.962  1.00  0.00     0.137 HD
ATOM     33  H   UNL     1      41.062 129.130  23.474  1.00  0.00     0.137 HD
ENDBRANCH  29  31
ENDBRANCH   5  29
TORSDOF 6
ENDMDL
MODEL 6
REMARK VINA RESULT:      -5.0      0.392      1.244
REMARK SMILES Cc1ccc([NH2+][C@@H]2CCC[C@@H](NN)[C@@]2(O)c2nc3ccccc3[n-]2)cc1F
REMARK SMILES IDX 7 1 8 2 9 3 10 4 11 5 14 6 6 7 5 10 2 11 3 12 26 13 4 14
REMARK SMILES IDX 25 15 1 16 27 17 15 18 16 20 17 21 24 22 18 23 23 24 19 25
REMARK SMILES IDX 22 26 20 27 21 28 12 29 13 31
REMARK H PARENT 6 8 6 9 15 19 12 30 13 32 13 33
ROOT
ATOM      1  C   UNL     1      43.854 130.624  22.306  1.00  0.00     0.225 C 
ATOM      2  C   UNL     1      43.350 132.083  22.451  1.00  0.00     0.069 C 
ATOM      3  C   UNL     1      42.048 132.186  23.245  1.00  0.00     0.008 C 
ATOM      4  C   UNL     1      42.188 131.539  24.625  1.00  0.00     0.024 C 
ATOM      5  C   UNL     1      42.678 130.074  24.545  1.00  0.00     0.111 C 
ATOM      6  C   UNL     1      44.011 129.962  23.727  1.00  0.00     0.150 C 
ENDROOT
BRANCH   1   7
ATOM      7  N   UNL     1      45.122 130.645  21.523  1.00  0.00    -0.309 N 
ATOM      8  H   UNL     1      45.734 131.421  21.868  1.00  0.00     0.352 HD
ATOM      9  H   UNL     1      45.656 129.760  21.682  1.00  0.00     0.352 HD
BRANCH   7  10
ATOM     10  C   UNL     1      44.930 130.879  20.109  1.00  0.00     0.132 A 
ATOM     11  C   UNL     1      44.539 131.300  17.348  1.00  0.00    -0.015 A 
ATOM     12  C   UNL     1      43.643 131.843  18.282  1.00  0.00     0.012 A 
ATOM     13  C   UNL     1      45.661 130.588  17.803  1.00  0.00     0.132 A 
ATOM     14  C   UNL     1      43.841 131.640  19.650  1.00  0.00     0.068 A 
ATOM     15  C   UNL     1      45.856 130.383  19.172  1.00  0.00     0.107 A 
ATOM     16  C   UNL     1      44.325 131.513  15.878  1.00  0.00     0.047 C 
ATOM     17  F   UNL     1      46.557 130.078  16.921  1.00  0.00    -0.206 F 
ENDBRANCH   7  10
ENDBRANCH   1   7
BRANCH   6  18
ATOM     18  O   UNL     1      45.038 130.651  24.411  1.00  0.00    -0.378 OA
ATOM     19  H   UNL     1      45.459 131.300  23.788  1.00  0.00     0.212 HD
ENDBRANCH   6  18
BRANCH   6  20
ATOM     20  C   UNL     1      44.384 128.492  23.610  1.00  0.00    -0.042 A 
ATOM     21  N   UNL     1      44.039 127.562  24.544  1.00  0.00    -0.437 NA
ATOM     22  N   UNL     1      45.092 127.990  22.561  1.00  0.00    -0.437 NA
ATOM     23  C   UNL     1      44.572 126.436  24.050  1.00  0.00    -0.038 A 
ATOM     24  C   UNL     1      45.200 126.691  22.870  1.00  0.00    -0.038 A 
ATOM     25  C   UNL     1      44.566 125.167  24.622  1.00  0.00     0.004 A 
ATOM     26  C   UNL     1      45.874 125.699  22.162  1.00  0.00     0.004 A 
ATOM     27  C   UNL     1      45.237 124.137  23.935  1.00  0.00     0.000 A 
ATOM     28  C   UNL     1      45.889 124.403  22.709  1.00  0.00     0.000 A 
ENDBRANCH   6  20
BRANCH   5  29
ATOM     29  N   UNL     1      41.637 129.170  24.015  1.00  0.00    -0.254 NA
ATOM     30  H   UNL     1      41.683 128.240  24.489  1.00  0.00     0.141 HD
BRANCH  29  31
ATOM     31  N   UNL     1      41.847 128.974  22.636  1.00  0.00    -0.271 NA
ATOM     32  H   UNL     1      41.369 128.080  22.375  1.00  0.00     0.137 HD
ATOM     33  H   UNL     1      42.868 128.797  22.492  1.00  0.00     0.137 HD
ENDBRANCH  29  31
ENDBRANCH   5  29
TORSDOF 6
ENDMDL
MODEL 7
REMARK VINA RESULT:      -4.9      1.343      2.215
REMARK SMILES Cc1ccc([NH2+][C@@H]2CCC[C@@H](NN)[C@@]2(O)c2nc3ccccc3[n-]2)cc1F
REMARK SMILES IDX 7 1 8 2 9 3 10 4 11 5 14 6 6 7 5 10 2 11 3 12 26 13 4 14
REMARK SMILES IDX 25 15 1 16 27 17 15 18 16 20 17 21 24 22 18 23 23 24 19 25
REMARK SMILES IDX 22 26 20 27 21 28 12 29 13 31
REMARK H PARENT 6 8 6 9 15 19 12 30 13 32 13 33
ROOT
ATOM      1  C   UNL     1      44.424 130.413  20.562  1.00  0.00     0.225 C 
ATOM      2  C   UNL     1      43.905 131.827  20.195  1.00  0.00     0.069 C 
ATOM      3  C   UNL     1      42.576 132.167  20.872  1.00  0.00     0.008 C 
ATOM      4  C   UNL     1      42.676 132.022  22.391  1.00  0.00     0.024 C 
ATOM      5  C   UNL     1      43.179 130.624  22.821  1.00  0.00     0.111 C 
ATOM      6  C   UNL     1      44.540 130.269  22.126  1.00  0.00     0.150 C 
ENDROOT
BRANCH   1   7
ATOM      7  N   UNL     1      45.717 130.194  19.854  1.00  0.00    -0.309 N 
ATOM      8  H   UNL     1      46.432 130.868  20.214  1.00  0.00     0.352 HD
ATOM      9  H   UNL     1      46.084 129.238  20.066  1.00  0.00     0.352 HD
BRANCH   7  10
ATOM     10  C   UNL     1      45.642 130.406  18.425  1.00  0.00     0.132 A 
ATOM     11  C   UNL     1      45.536 130.824  15.638  1.00  0.00    -0.015 A 
ATOM     12  C   UNL     1      45.499 129.522  16.163  1.00  0.00     0.012 A 
ATOM     13  C   UNL     1      45.575 131.919  16.517  1.00  0.00     0.132 A 
ATOM     14  C   UNL     1      45.545 129.315  17.543  1.00  0.00     0.068 A 
ATOM     15  C   UNL     1      45.623 131.711  17.899  1.00  0.00     0.107 A 
ATOM     16  C   UNL     1      45.492 131.046  14.155  1.00  0.00     0.047 C 
ATOM     17  F   UNL     1      45.582 133.187  16.036  1.00  0.00    -0.206 F 
ENDBRANCH   7  10
ENDBRANCH   1   7
BRANCH   6  18
ATOM     18  O   UNL     1      45.538 131.166  22.568  1.00  0.00    -0.378 OA
ATOM     19  H   UNL     1      46.376 130.986  22.066  1.00  0.00     0.212 HD
ENDBRANCH   6  18
BRANCH   6  20
ATOM     20  C   UNL     1      44.927 128.851  22.521  1.00  0.00    -0.042 A 
ATOM     21  N   UNL     1      44.593 128.297  23.719  1.00  0.00    -0.437 NA
ATOM     22  N   UNL     1      45.638 128.026  21.704  1.00  0.00    -0.437 NA
ATOM     23  C   UNL     1      45.137 127.074  23.640  1.00  0.00    -0.038 A 
ATOM     24  C   UNL     1      45.759 126.913  22.441  1.00  0.00    -0.038 A 
ATOM     25  C   UNL     1      45.145 126.079  24.613  1.00  0.00     0.004 A 
ATOM     26  C   UNL     1      46.442 125.745  22.113  1.00  0.00     0.004 A 
ATOM     27  C   UNL     1      45.824 124.882  24.319  1.00  0.00     0.000 A 
ATOM     28  C   UNL     1      46.472 124.716  23.072  1.00  0.00     0.000 A 
ENDBRANCH   6  20
BRANCH   5  29
ATOM     29  N   UNL     1      42.163 129.576  22.596  1.00  0.00    -0.254 NA
ATOM     30  H   UNL     1      41.494 129.869  21.848  1.00  0.00     0.141 HD
BRANCH  29  31
ATOM     31  N   UNL     1      41.435 129.370  23.783  1.00  0.00    -0.271 NA
ATOM     32  H   UNL     1      41.033 130.295  24.063  1.00  0.00     0.137 HD
ATOM     33  H   UNL     1      42.118 129.123  24.536  1.00  0.00     0.137 HD
ENDBRANCH  29  31
ENDBRANCH   5  29
TORSDOF 6
ENDMDL
MODEL 8
REMARK VINA RESULT:      -3.9      3.508      5.531
REMARK SMILES Cc1ccc([NH2+][C@@H]2CCC[C@@H](NN)[C@@]2(O)c2nc3ccccc3[n-]2)cc1F
REMARK SMILES IDX 7 1 8 2 9 3 10 4 11 5 14 6 6 7 5 10 2 11 3 12 26 13 4 14
REMARK SMILES IDX 25 15 1 16 27 17 15 18 16 20 17 21 24 22 18 23 23 24 19 25
REMARK SMILES IDX 22 26 20 27 21 28 12 29 13 31
REMARK H PARENT 6 8 6 9 15 19 12 30 13 32 13 33
ROOT
ATOM      1  C   UNL     1      43.966 125.555  22.912  1.00  0.00     0.225 C 
ATOM      2  C   UNL     1      42.444 125.617  23.203  1.00  0.00     0.069 C 
ATOM      3  C   UNL     1      41.650 124.549  22.449  1.00  0.00     0.008 C 
ATOM      4  C   UNL     1      42.185 123.147  22.748  1.00  0.00     0.024 C 
ATOM      5  C   UNL     1      43.700 123.019  22.466  1.00  0.00     0.111 C 
ATOM      6  C   UNL     1      44.519 124.115  23.233  1.00  0.00     0.150 C 
ENDROOT
BRANCH   1   7
ATOM      7  N   UNL     1      44.634 126.630  23.697  1.00  0.00    -0.309 N 
ATOM      8  H   UNL     1      44.166 126.726  24.629  1.00  0.00     0.352 HD
ATOM      9  H   UNL     1      45.626 126.366  23.896  1.00  0.00     0.352 HD
BRANCH   7  10
ATOM     10  C   UNL     1      44.567 127.934  23.074  1.00  0.00     0.132 A 
ATOM     11  C   UNL     1      44.465 130.489  21.885  1.00  0.00    -0.015 A 
ATOM     12  C   UNL     1      45.234 129.466  21.305  1.00  0.00     0.012 A 
ATOM     13  C   UNL     1      43.707 130.213  23.033  1.00  0.00     0.132 A 
ATOM     14  C   UNL     1      45.279 128.199  21.891  1.00  0.00     0.068 A 
ATOM     15  C   UNL     1      43.755 128.944  23.620  1.00  0.00     0.107 A 
ATOM     16  C   UNL     1      44.421 131.852  21.259  1.00  0.00     0.047 C 
ATOM     17  F   UNL     1      42.933 131.175  23.595  1.00  0.00    -0.206 F 
ENDBRANCH   7  10
ENDBRANCH   1   7
BRANCH   6  18
ATOM     18  O   UNL     1      44.390 123.906  24.625  1.00  0.00    -0.378 OA
ATOM     19  H   UNL     1      43.641 124.461  24.965  1.00  0.00     0.212 HD
ENDBRANCH   6  18
BRANCH   6  20
ATOM     20  C   UNL     1      45.983 123.988  22.839  1.00  0.00    -0.042 A 
ATOM     21  N   UNL     1      46.388 123.484  21.641  1.00  0.00    -0.437 NA
ATOM     22  N   UNL     1      47.003 124.370  23.656  1.00  0.00    -0.437 NA
ATOM     23  C   UNL     1      47.724 123.549  21.730  1.00  0.00    -0.038 A 
ATOM     24  C   UNL     1      48.090 124.075  22.930  1.00  0.00    -0.038 A 
ATOM     25  C   UNL     1      48.663 123.118  20.797  1.00  0.00     0.004 A 
ATOM     26  C   UNL     1      49.425 124.217  23.299  1.00  0.00     0.004 A 
ATOM     27  C   UNL     1      50.025 123.247  21.133  1.00  0.00     0.000 A 
ATOM     28  C   UNL     1      50.404 123.794  22.381  1.00  0.00     0.000 A 
ENDBRANCH   6  20
BRANCH   5  29
ATOM     29  N   UNL     1      43.997 123.032  21.019  1.00  0.00    -0.254 NA
ATOM     30  H   UNL     1      44.631 123.828  20.782  1.00  0.00     0.141 HD
BRANCH  29  31
ATOM     31  N   UNL     1      42.798 123.192  20.298  1.00  0.00    -0.271 NA
ATOM     32  H   UNL     1      42.431 124.147  20.518  1.00  0.00     0.137 HD
ATOM     33  H   UNL     1      42.097 122.525  20.696  1.00  0.00     0.137 HD
ENDBRANCH  29  31
ENDBRANCH   5  29
TORSDOF 6
ENDMDL
MODEL 9
REMARK VINA RESULT:      -3.5      1.949      3.161
REMARK SMILES Cc1ccc([NH2+][C@@H]2CCC[C@@H](NN)[C@@]2(O)c2nc3ccccc3[n-]2)cc1F
REMARK SMILES IDX 7 1 8 2 9 3 10 4 11 5 14 6 6 7 5 10 2 11 3 12 26 13 4 14
REMARK SMILES IDX 25 15 1 16 27 17 15 18 16 20 17 21 24 22 18 23 23 24 19 25
REMARK SMILES IDX 22 26 20 27 21 28 12 29 13 31
REMARK H PARENT 6 8 6 9 15 19 12 30 13 32 13 33
ROOT
ATOM      1  C   UNL     1      44.671 130.421  19.500  1.00  0.00     0.225 C 
ATOM      2  C   UNL     1      44.350 131.761  18.789  1.00  0.00     0.069 C 
ATOM      3  C   UNL     1      43.202 132.525  19.451  1.00  0.00     0.008 C 
ATOM      4  C   UNL     1      43.485 132.772  20.934  1.00  0.00     0.024 C 
ATOM      5  C   UNL     1      43.802 131.467  21.702  1.00  0.00     0.111 C 
ATOM      6  C   UNL     1      44.975 130.677  21.024  1.00  0.00     0.150 C 
ENDROOT
BRANCH   1   7
ATOM      7  N   UNL     1      45.798 129.769  18.776  1.00  0.00    -0.309 N 
ATOM      8  H   UNL     1      46.708 130.114  19.162  1.00  0.00     0.352 HD
ATOM      9  H   UNL     1      45.783 128.737  18.945  1.00  0.00     0.352 HD
BRANCH   7  10
ATOM     10  C   UNL     1      45.824 130.055  17.359  1.00  0.00     0.132 A 
ATOM     11  C   UNL     1      45.887 130.649  14.603  1.00  0.00    -0.015 A 
ATOM     12  C   UNL     1      46.969 129.993  15.212  1.00  0.00     0.012 A 
ATOM     13  C   UNL     1      44.751 130.959  15.368  1.00  0.00     0.132 A 
ATOM     14  C   UNL     1      46.935 129.693  16.576  1.00  0.00     0.068 A 
ATOM     15  C   UNL     1      44.720 130.661  16.733  1.00  0.00     0.107 A 
ATOM     16  C   UNL     1      45.925 130.976  13.139  1.00  0.00     0.047 C 
ATOM     17  F   UNL     1      43.681 131.566  14.796  1.00  0.00    -0.206 F 
ENDBRANCH   7  10
ENDBRANCH   1   7
BRANCH   6  18
ATOM     18  O   UNL     1      46.161 131.442  21.103  1.00  0.00    -0.378 OA
ATOM     19  H   UNL     1      46.225 132.018  20.297  1.00  0.00     0.212 HD
ENDBRANCH   6  18
BRANCH   6  20
ATOM     20  C   UNL     1      45.170 129.367  21.773  1.00  0.00    -0.042 A 
ATOM     21  N   UNL     1      44.788 129.188  23.068  1.00  0.00    -0.437 NA
ATOM     22  N   UNL     1      45.744 128.271  21.206  1.00  0.00    -0.437 NA
ATOM     23  C   UNL     1      45.155 127.922  23.312  1.00  0.00    -0.038 A 
ATOM     24  C   UNL     1      45.725 127.377  22.204  1.00  0.00    -0.038 A 
ATOM     25  C   UNL     1      45.045 127.218  24.507  1.00  0.00     0.004 A 
ATOM     26  C   UNL     1      46.233 126.080  22.196  1.00  0.00     0.004 A 
ATOM     27  C   UNL     1      45.547 125.902  24.539  1.00  0.00     0.000 A 
ATOM     28  C   UNL     1      46.140 125.336  23.386  1.00  0.00     0.000 A 
ENDBRANCH   6  20
BRANCH   5  29
ATOM     29  N   UNL     1      42.604 130.621  21.874  1.00  0.00    -0.254 NA
ATOM     30  H   UNL     1      41.951 130.740  21.066  1.00  0.00     0.141 HD
BRANCH  29  31
ATOM     31  N   UNL     1      41.927 131.004  23.048  1.00  0.00    -0.271 NA
ATOM     32  H   UNL     1      41.735 130.130  23.592  1.00  0.00     0.137 HD
ATOM     33  H   UNL     1      40.988 131.371  22.769  1.00  0.00     0.137 HD
ENDBRANCH  29  31
ENDBRANCH   5  29
TORSDOF 6
ENDMDL


