REMARK SMILES Nc1cc([O-])c(F)cc1Nc1ccc2cc[nH]c2c1
REMARK SMILES IDX 2 1 3 2 4 3 5 4 6 5 7 6 8 7 9 8 1 9 10 12 11 14 12 15 19 16
REMARK SMILES IDX 13 17 18 18 14 19 17 20 15 21 16 22
REMARK H PARENT 1 10 1 11 10 13 17 23
ROOT
ATOM      1  C   UNL     1       2.799  -0.676   0.246  1.00  0.00     0.055 A 
ATOM      2  C   UNL     1       3.540  -1.525  -0.592  1.00  0.00     0.022 A 
ATOM      3  C   UNL     1       3.562  -1.316  -1.973  1.00  0.00    -0.070 A 
ATOM      4  O   UNL     1       4.302  -2.163  -2.790  1.00  0.00    -0.870 OA
ATOM      5  C   UNL     1       2.847  -0.253  -2.531  1.00  0.00     0.117 A 
ATOM      6  F   UNL     1       2.873  -0.042  -3.871  1.00  0.00    -0.208 F 
ATOM      7  C   UNL     1       2.100   0.594  -1.709  1.00  0.00     0.066 A 
ATOM      8  C   UNL     1       2.049   0.379  -0.324  1.00  0.00     0.065 A 
ENDROOT
BRANCH   1   9
ATOM      9  N   UNL     1       2.850  -0.873   1.664  1.00  0.00    -0.397 N 
ATOM     10  H   UNL     1       3.368  -1.685   2.069  1.00  0.00     0.156 HD
ATOM     11  H   UNL     1       2.431  -0.188   2.330  1.00  0.00     0.156 HD
ENDBRANCH   1   9
BRANCH   8  12
ATOM     12  N   UNL     1       1.250   1.256   0.483  1.00  0.00    -0.354 N 
ATOM     13  H   UNL     1       1.396   2.284   0.366  1.00  0.00     0.167 HD
BRANCH  12  14
ATOM     14  C   UNL     1       0.145   0.813   1.292  1.00  0.00     0.041 A 
ATOM     15  C   UNL     1      -0.440   1.715   2.216  1.00  0.00     0.027 A 
ATOM     16  C   UNL     1      -0.382  -0.497   1.168  1.00  0.00     0.052 A 
ATOM     17  C   UNL     1      -1.524   1.322   3.022  1.00  0.00     0.012 A 
ATOM     18  C   UNL     1      -1.455  -0.853   1.982  1.00  0.00     0.047 A 
ATOM     19  C   UNL     1      -2.004   0.025   2.876  1.00  0.00    -0.001 A 
ATOM     20  N   UNL     1      -2.093  -2.034   2.021  1.00  0.00    -0.361 N 
ATOM     21  C   UNL     1      -3.037  -0.627   3.514  1.00  0.00     0.028 A 
ATOM     22  C   UNL     1      -3.060  -1.902   2.957  1.00  0.00     0.083 A 
ATOM     23  H   UNL     1      -1.887  -2.883   1.449  1.00  0.00     0.166 HD
ENDBRANCH  12  14
ENDBRANCH   8  12
TORSDOF 3


