REMARK SMILES C=C[C@@H]1C[NH2+][C@@H](c2ccc3nc[nH+]n3c2)N(C(=O)OCCCCCC)C1
REMARK SMILES IDX 20 1 19 2 17 3 18 4 16 5 3 6 4 7 26 8 5 9 6 10 2 13 1 14
REMARK SMILES IDX 7 15 8 16 15 17 9 18 14 19 10 20 13 21 11 22 12 23 21 25
REMARK SMILES IDX 22 26 23 27 24 28 25 29
REMARK H PARENT 5 11 5 12 13 24
ROOT
ATOM      1  C   UNL     1      -0.901  -1.691  -0.883  1.00  0.00     0.235 C 
ENDROOT
BRANCH   1   2
ATOM      2  O   UNL     1      -0.982  -0.808   0.233  1.00  0.00    -0.449 OA
BRANCH   2   3
ATOM      3  C   UNL     1      -0.182  -0.929   1.377  1.00  0.00     0.414 C 
ATOM      4  O   UNL     1       0.529  -1.957   1.546  1.00  0.00    -0.224 OA
BRANCH   3   5
ATOM      5  N   UNL     1      -0.181   0.119   2.369  1.00  0.00    -0.253 N 
ATOM      6  C   UNL     1       0.223   0.805   4.725  1.00  0.00     0.086 C 
ATOM      7  C   UNL     1      -0.520   2.096   4.368  1.00  0.00     0.272 C 
ATOM      8  C   UNL     1      -0.222  -0.313   3.776  1.00  0.00     0.143 C 
ATOM      9  N   UNL     1      -0.216   2.485   2.988  1.00  0.00    -0.322 N 
ATOM     10  C   UNL     1      -0.676   1.472   2.016  1.00  0.00     0.323 C 
ATOM     11  H   UNL     1       0.816   2.640   2.898  1.00  0.00     0.348 HD
ATOM     12  H   UNL     1      -0.699   3.393   2.789  1.00  0.00     0.348 HD
BRANCH   6  13
ATOM     13  C   UNL     1      -0.034   0.422   6.165  1.00  0.00    -0.024 C 
ATOM     14  C   UNL     1       0.686  -0.524   6.776  1.00  0.00     0.004 C 
ENDBRANCH   6  13
BRANCH  10  15
ATOM     15  C   UNL     1      -0.225   1.891   0.625  1.00  0.00     0.052 A 
ATOM     16  C   UNL     1      -1.165   2.367  -0.324  1.00  0.00     0.020 A 
ATOM     17  C   UNL     1       1.137   1.836   0.259  1.00  0.00     0.150 A 
ATOM     18  C   UNL     1      -0.752   2.761  -1.607  1.00  0.00     0.080 A 
ATOM     19  N   UNL     1       1.479   2.234  -0.992  1.00  0.00    -0.151 N 
ATOM     20  C   UNL     1       0.605   2.677  -1.900  1.00  0.00     0.282 A 
ATOM     21  N   UNL     1       2.678   2.262  -1.534  1.00  0.00    -0.166 N 
ATOM     22  N   UNL     1       1.203   3.008  -3.062  1.00  0.00    -0.025 NA
ATOM     23  C   UNL     1       2.506   2.733  -2.789  1.00  0.00     0.472 A 
ATOM     24  H   UNL     1       3.570   1.971  -1.074  1.00  0.00     0.340 HD
ENDBRANCH  10  15
ENDBRANCH   3   5
ENDBRANCH   2   3
ENDBRANCH   1   2
BRANCH   1  25
ATOM     25  C   UNL     1       0.378  -1.421  -1.681  1.00  0.00     0.042 C 
BRANCH  25  26
ATOM     26  C   UNL     1       0.399  -2.230  -2.985  1.00  0.00     0.003 C 
BRANCH  26  27
ATOM     27  C   UNL     1       1.758  -2.171  -3.705  1.00  0.00    -0.000 C 
BRANCH  27  28
ATOM     28  C   UNL     1       2.233  -0.755  -4.077  1.00  0.00    -0.003 C 
ATOM     29  C   UNL     1       1.267  -0.024  -5.009  1.00  0.00     0.004 C 
ENDBRANCH  27  28
ENDBRANCH  26  27
ENDBRANCH  25  26
ENDBRANCH   1  25
TORSDOF 9


