REMARK SMILES Cc1cc2ccc([C@@H]3O[C@H](C)NN3C(O)=C3C[NH2+]C3)cc2[nH]1
REMARK SMILES IDX 8 1 9 2 10 3 11 4 12 5 13 6 7 8 2 9 3 10 22 11 4 12 21 13
REMARK SMILES IDX 5 14 20 15 6 16 1 17 14 19 15 20 16 22 17 23 19 24 18 25
REMARK H PARENT 12 7 22 18 15 21 18 26 18 27
ROOT
ATOM      1  C   UNL     1       0.555   2.204   0.457  1.00  0.00     0.267 C 
ATOM      2  O   UNL     1       0.114   3.053  -0.571  1.00  0.00    -0.333 OA
ATOM      3  C   UNL     1       0.870   2.730  -1.728  1.00  0.00     0.204 C 
ATOM      4  C   UNL     1      -0.070   2.501  -2.905  1.00  0.00     0.058 C 
ATOM      5  N   UNL     1       1.673   1.526  -1.496  1.00  0.00    -0.201 NA
ATOM      6  N   UNL     1       1.470   1.266  -0.145  1.00  0.00    -0.243 N 
ATOM      7  H   UNL     1       2.682   1.777  -1.614  1.00  0.00     0.151 HD
ENDROOT
BRANCH   1   8
ATOM      8  C   UNL     1      -0.629   1.496   1.071  1.00  0.00     0.005 A 
ATOM      9  C   UNL     1      -4.151  -1.308   1.376  1.00  0.00     0.013 A 
ATOM     10  C   UNL     1      -3.918  -0.554   2.522  1.00  0.00     0.031 A 
ATOM     11  N   UNL     1      -3.243  -1.026   0.412  1.00  0.00    -0.359 N 
ATOM     12  C   UNL     1      -2.826   0.228   2.214  1.00  0.00    -0.000 A 
ATOM     13  C   UNL     1      -2.443  -0.082   0.936  1.00  0.00     0.046 A 
ATOM     14  C   UNL     1      -2.146   1.173   2.976  1.00  0.00     0.011 A 
ATOM     15  C   UNL     1      -1.351   0.532   0.329  1.00  0.00     0.035 A 
ATOM     16  C   UNL     1      -1.039   1.815   2.392  1.00  0.00     0.009 A 
ATOM     17  C   UNL     1      -5.200  -2.363   1.242  1.00  0.00     0.064 C 
ATOM     18  H   UNL     1      -3.171  -1.460  -0.535  1.00  0.00     0.166 HD
ENDBRANCH   1   8
BRANCH   6  19
ATOM     19  C   UNL     1       2.136   0.213   0.574  1.00  0.00     0.214 C 
BRANCH  19  20
ATOM     20  O   UNL     1       2.077   0.195   1.967  1.00  0.00    -0.493 OA
ATOM     21  H   UNL     1       2.524  -0.533   2.514  1.00  0.00     0.295 HD
ENDBRANCH  19  20
BRANCH  19  22
ATOM     22  C   UNL     1       2.792  -0.754  -0.072  1.00  0.00     0.099 C 
ATOM     23  C   UNL     1       3.574  -2.001   0.268  1.00  0.00     0.304 C 
ATOM     24  C   UNL     1       3.113  -1.189  -1.484  1.00  0.00     0.304 C 
ATOM     25  N   UNL     1       3.850  -2.373  -1.102  1.00  0.00    -0.339 N 
ATOM     26  H   UNL     1       3.365  -3.257  -1.384  1.00  0.00     0.346 HD
ATOM     27  H   UNL     1       4.867  -2.308  -1.339  1.00  0.00     0.346 HD
ENDBRANCH  19  22
ENDBRANCH   6  19
TORSDOF 4


