MODEL 1
REMARK VINA RESULT:      -9.9      0.000      0.000
REMARK SMILES C=Cc1ccc(-c2cc(F)cc(F)c2[O-])[nH+]c1
REMARK SMILES IDX 3 1 4 2 5 3 6 4 16 5 17 6 2 8 1 9 7 10 8 11 14 12 9 13 12 14
REMARK SMILES IDX 11 15 15 16 10 17 13 18
REMARK H PARENT 16 7
ROOT
ATOM      1  C   UNL     1      46.730 130.845  14.820  1.00  0.00     0.038 A 
ATOM      2  C   UNL     1      46.591 129.785  15.733  1.00  0.00     0.021 A 
ATOM      3  C   UNL     1      45.894 129.975  16.926  1.00  0.00     0.080 A 
ATOM      4  C   UNL     1      45.322 131.224  17.206  1.00  0.00     0.210 A 
ATOM      5  N   UNL     1      45.462 132.241  16.307  1.00  0.00    -0.211 N 
ATOM      6  C   UNL     1      46.138 132.076  15.137  1.00  0.00     0.314 A 
ATOM      7  H   UNL     1      45.063 133.184  16.516  1.00  0.00     0.453 HD
ENDROOT
BRANCH   1   8
ATOM      8  C   UNL     1      47.450 130.710  13.529  1.00  0.00     0.006 C 
ATOM      9  C   UNL     1      48.328 129.744  13.255  1.00  0.00     0.009 C 
ENDBRANCH   1   8
BRANCH   4  10
ATOM     10  C   UNL     1      44.579 131.437  18.472  1.00  0.00     0.044 A 
ATOM     11  C   UNL     1      45.211 131.195  19.704  1.00  0.00     0.053 A 
ATOM     12  C   UNL     1      43.239 131.879  18.463  1.00  0.00    -0.058 A 
ATOM     13  C   UNL     1      44.526 131.403  20.905  1.00  0.00     0.126 A 
ATOM     14  C   UNL     1      42.561 132.090  19.671  1.00  0.00     0.119 A 
ATOM     15  C   UNL     1      43.204 131.852  20.888  1.00  0.00     0.077 A 
ATOM     16  O   UNL     1      42.568 132.090  17.263  1.00  0.00    -0.870 OA
ATOM     17  F   UNL     1      45.147 131.173  22.088  1.00  0.00    -0.207 F 
ATOM     18  F   UNL     1      41.274 132.516  19.663  1.00  0.00    -0.208 F 
ENDBRANCH   4  10
TORSDOF 2
ENDMDL
MODEL 2
REMARK VINA RESULT:      -9.9      1.432      2.651
REMARK SMILES C=Cc1ccc(-c2cc(F)cc(F)c2[O-])[nH+]c1
REMARK SMILES IDX 3 1 4 2 5 3 6 4 16 5 17 6 2 8 1 9 7 10 8 11 14 12 9 13 12 14
REMARK SMILES IDX 11 15 15 16 10 17 13 18
REMARK H PARENT 16 7
ROOT
ATOM      1  C   UNL     1      46.692 130.601  15.098  1.00  0.00     0.038 A 
ATOM      2  C   UNL     1      46.057 131.844  15.276  1.00  0.00     0.021 A 
ATOM      3  C   UNL     1      45.337 132.102  16.442  1.00  0.00     0.080 A 
ATOM      4  C   UNL     1      45.257 131.122  17.442  1.00  0.00     0.210 A 
ATOM      5  N   UNL     1      45.883 129.923  17.256  1.00  0.00    -0.211 N 
ATOM      6  C   UNL     1      46.590 129.652  16.126  1.00  0.00     0.314 A 
ATOM      7  H   UNL     1      45.808 129.176  17.982  1.00  0.00     0.453 HD
ENDROOT
BRANCH   1   8
ATOM      8  C   UNL     1      47.482 130.263  13.888  1.00  0.00     0.006 C 
ATOM      9  C   UNL     1      47.643 131.078  12.844  1.00  0.00     0.009 C 
ENDBRANCH   1   8
BRANCH   4  10
ATOM     10  C   UNL     1      44.493 131.385  18.686  1.00  0.00     0.044 A 
ATOM     11  C   UNL     1      43.224 131.987  18.614  1.00  0.00     0.053 A 
ATOM     12  C   UNL     1      45.021 131.045  19.949  1.00  0.00    -0.058 A 
ATOM     13  C   UNL     1      42.488 132.230  19.777  1.00  0.00     0.126 A 
ATOM     14  C   UNL     1      44.275 131.289  21.110  1.00  0.00     0.119 A 
ATOM     15  C   UNL     1      43.013 131.879  21.023  1.00  0.00     0.077 A 
ATOM     16  O   UNL     1      46.290 130.487  20.062  1.00  0.00    -0.870 OA
ATOM     17  F   UNL     1      41.262 132.803  19.695  1.00  0.00    -0.207 F 
ATOM     18  F   UNL     1      44.781 130.960  22.324  1.00  0.00    -0.208 F 
ENDBRANCH   4  10
TORSDOF 2
ENDMDL
MODEL 3
REMARK VINA RESULT:      -9.4      1.167      2.324
REMARK SMILES C=Cc1ccc(-c2cc(F)cc(F)c2[O-])[nH+]c1
REMARK SMILES IDX 3 1 4 2 5 3 6 4 16 5 17 6 2 8 1 9 7 10 8 11 14 12 9 13 12 14
REMARK SMILES IDX 11 15 15 16 10 17 13 18
REMARK H PARENT 16 7
ROOT
ATOM      1  C   UNL     1      46.757 130.797  14.870  1.00  0.00     0.038 A 
ATOM      2  C   UNL     1      46.563 129.752  15.791  1.00  0.00     0.021 A 
ATOM      3  C   UNL     1      45.823 129.972  16.953  1.00  0.00     0.080 A 
ATOM      4  C   UNL     1      45.263 131.235  17.193  1.00  0.00     0.210 A 
ATOM      5  N   UNL     1      45.457 132.236  16.286  1.00  0.00    -0.211 N 
ATOM      6  C   UNL     1      46.175 132.042  15.147  1.00  0.00     0.314 A 
ATOM      7  H   UNL     1      45.067 133.188  16.467  1.00  0.00     0.453 HD
ENDROOT
BRANCH   1   8
ATOM      8  C   UNL     1      47.525 130.631  13.610  1.00  0.00     0.006 C 
ATOM      9  C   UNL     1      48.320 129.593  13.346  1.00  0.00     0.009 C 
ENDBRANCH   1   8
BRANCH   4  10
ATOM     10  C   UNL     1      44.474 131.479  18.425  1.00  0.00     0.044 A 
ATOM     11  C   UNL     1      43.159 131.967  18.329  1.00  0.00     0.053 A 
ATOM     12  C   UNL     1      45.023 131.231  19.700  1.00  0.00    -0.058 A 
ATOM     13  C   UNL     1      42.400 132.190  19.481  1.00  0.00     0.126 A 
ATOM     14  C   UNL     1      44.254 131.453  20.851  1.00  0.00     0.119 A 
ATOM     15  C   UNL     1      42.946 131.931  20.740  1.00  0.00     0.077 A 
ATOM     16  O   UNL     1      46.334 130.787  19.837  1.00  0.00    -0.870 OA
ATOM     17  F   UNL     1      41.131 132.654  19.377  1.00  0.00    -0.207 F 
ATOM     18  F   UNL     1      44.780 131.214  22.077  1.00  0.00    -0.208 F 
ENDBRANCH   4  10
TORSDOF 2
ENDMDL
MODEL 4
REMARK VINA RESULT:      -9.4      0.773      1.243
REMARK SMILES C=Cc1ccc(-c2cc(F)cc(F)c2[O-])[nH+]c1
REMARK SMILES IDX 3 1 4 2 5 3 6 4 16 5 17 6 2 8 1 9 7 10 8 11 14 12 9 13 12 14
REMARK SMILES IDX 11 15 15 16 10 17 13 18
REMARK H PARENT 16 7
ROOT
ATOM      1  C   UNL     1      46.705 130.563  14.971  1.00  0.00     0.038 A 
ATOM      2  C   UNL     1      46.111 131.820  15.182  1.00  0.00     0.021 A 
ATOM      3  C   UNL     1      45.431 132.081  16.371  1.00  0.00     0.080 A 
ATOM      4  C   UNL     1      45.350 131.090  17.360  1.00  0.00     0.210 A 
ATOM      5  N   UNL     1      45.936 129.877  17.140  1.00  0.00    -0.211 N 
ATOM      6  C   UNL     1      46.605 129.602  15.987  1.00  0.00     0.314 A 
ATOM      7  H   UNL     1      45.860 129.122  17.858  1.00  0.00     0.453 HD
ENDROOT
BRANCH   1   8
ATOM      8  C   UNL     1      47.452 130.219  13.734  1.00  0.00     0.006 C 
ATOM      9  C   UNL     1      47.803 131.103  12.799  1.00  0.00     0.009 C 
ENDBRANCH   1   8
BRANCH   4  10
ATOM     10  C   UNL     1      44.628 131.358  18.627  1.00  0.00     0.044 A 
ATOM     11  C   UNL     1      45.263 131.114  19.859  1.00  0.00     0.053 A 
ATOM     12  C   UNL     1      43.308 131.853  18.622  1.00  0.00    -0.058 A 
ATOM     13  C   UNL     1      44.599 131.373  21.062  1.00  0.00     0.126 A 
ATOM     14  C   UNL     1      42.651 132.114  19.832  1.00  0.00     0.119 A 
ATOM     15  C   UNL     1      43.296 131.875  21.047  1.00  0.00     0.077 A 
ATOM     16  O   UNL     1      42.634 132.068  17.424  1.00  0.00    -0.870 OA
ATOM     17  F   UNL     1      45.222 131.141  22.243  1.00  0.00    -0.207 F 
ATOM     18  F   UNL     1      41.382 132.592  19.827  1.00  0.00    -0.208 F 
ENDBRANCH   4  10
TORSDOF 2
ENDMDL
MODEL 5
REMARK VINA RESULT:      -8.9      1.091      1.234
REMARK SMILES C=Cc1ccc(-c2cc(F)cc(F)c2[O-])[nH+]c1
REMARK SMILES IDX 3 1 4 2 5 3 6 4 16 5 17 6 2 8 1 9 7 10 8 11 14 12 9 13 12 14
REMARK SMILES IDX 11 15 15 16 10 17 13 18
REMARK H PARENT 16 7
ROOT
ATOM      1  C   UNL     1      45.502 131.032  15.219  1.00  0.00     0.038 A 
ATOM      2  C   UNL     1      46.233 130.603  16.341  1.00  0.00     0.021 A 
ATOM      3  C   UNL     1      45.720 130.793  17.624  1.00  0.00     0.080 A 
ATOM      4  C   UNL     1      44.469 131.404  17.791  1.00  0.00     0.210 A 
ATOM      5  N   UNL     1      43.771 131.809  16.690  1.00  0.00    -0.211 N 
ATOM      6  C   UNL     1      44.253 131.633  15.430  1.00  0.00     0.314 A 
ATOM      7  H   UNL     1      42.849 132.289  16.803  1.00  0.00     0.453 HD
ENDROOT
BRANCH   1   8
ATOM      8  C   UNL     1      45.983 130.854  13.825  1.00  0.00     0.006 C 
ATOM      9  C   UNL     1      47.245 130.576  13.495  1.00  0.00     0.009 C 
ENDBRANCH   1   8
BRANCH   4  10
ATOM     10  C   UNL     1      43.915 131.610  19.151  1.00  0.00     0.044 A 
ATOM     11  C   UNL     1      44.621 131.142  20.273  1.00  0.00     0.053 A 
ATOM     12  C   UNL     1      42.683 132.270  19.341  1.00  0.00    -0.058 A 
ATOM     13  C   UNL     1      44.116 131.341  21.561  1.00  0.00     0.126 A 
ATOM     14  C   UNL     1      42.186 132.469  20.637  1.00  0.00     0.119 A 
ATOM     15  C   UNL     1      42.902 132.006  21.742  1.00  0.00     0.077 A 
ATOM     16  O   UNL     1      41.936 132.711  18.254  1.00  0.00    -0.870 OA
ATOM     17  F   UNL     1      44.809 130.892  22.637  1.00  0.00    -0.207 F 
ATOM     18  F   UNL     1      41.003 133.105  20.820  1.00  0.00    -0.208 F 
ENDBRANCH   4  10
TORSDOF 2
ENDMDL
MODEL 6
REMARK VINA RESULT:      -8.5      1.539      2.634
REMARK SMILES C=Cc1ccc(-c2cc(F)cc(F)c2[O-])[nH+]c1
REMARK SMILES IDX 3 1 4 2 5 3 6 4 16 5 17 6 2 8 1 9 7 10 8 11 14 12 9 13 12 14
REMARK SMILES IDX 11 15 15 16 10 17 13 18
REMARK H PARENT 16 7
ROOT
ATOM      1  C   UNL     1      45.426 131.256  14.830  1.00  0.00     0.038 A 
ATOM      2  C   UNL     1      44.041 131.361  15.049  1.00  0.00     0.021 A 
ATOM      3  C   UNL     1      43.545 131.497  16.346  1.00  0.00     0.080 A 
ATOM      4  C   UNL     1      44.433 131.540  17.430  1.00  0.00     0.210 A 
ATOM      5  N   UNL     1      45.775 131.442  17.199  1.00  0.00    -0.211 N 
ATOM      6  C   UNL     1      46.279 131.308  15.942  1.00  0.00     0.314 A 
ATOM      7  H   UNL     1      46.445 131.445  18.001  1.00  0.00     0.453 HD
ENDROOT
BRANCH   1   8
ATOM      8  C   UNL     1      46.023 131.118  13.478  1.00  0.00     0.006 C 
ATOM      9  C   UNL     1      47.319 130.902  13.247  1.00  0.00     0.009 C 
ENDBRANCH   1   8
BRANCH   4  10
ATOM     10  C   UNL     1      43.917 131.685  18.812  1.00  0.00     0.044 A 
ATOM     11  C   UNL     1      42.736 132.412  19.046  1.00  0.00     0.053 A 
ATOM     12  C   UNL     1      44.593 131.105  19.905  1.00  0.00    -0.058 A 
ATOM     13  C   UNL     1      42.231 132.546  20.343  1.00  0.00     0.126 A 
ATOM     14  C   UNL     1      44.078 131.240  21.202  1.00  0.00     0.119 A 
ATOM     15  C   UNL     1      42.900 131.959  21.418  1.00  0.00     0.077 A 
ATOM     16  O   UNL     1      45.785 130.413  19.718  1.00  0.00    -0.870 OA
ATOM     17  F   UNL     1      41.088 133.243  20.555  1.00  0.00    -0.207 F 
ATOM     18  F   UNL     1      44.727 130.681  22.253  1.00  0.00    -0.208 F 
ENDBRANCH   4  10
TORSDOF 2
ENDMDL
MODEL 7
REMARK VINA RESULT:      -8.5      2.811      5.914
REMARK SMILES C=Cc1ccc(-c2cc(F)cc(F)c2[O-])[nH+]c1
REMARK SMILES IDX 3 1 4 2 5 3 6 4 16 5 17 6 2 8 1 9 7 10 8 11 14 12 9 13 12 14
REMARK SMILES IDX 11 15 15 16 10 17 13 18
REMARK H PARENT 16 7
ROOT
ATOM      1  C   UNL     1      44.410 131.337  21.281  1.00  0.00     0.038 A 
ATOM      2  C   UNL     1      45.545 130.646  20.821  1.00  0.00     0.021 A 
ATOM      3  C   UNL     1      45.775 130.510  19.452  1.00  0.00     0.080 A 
ATOM      4  C   UNL     1      44.876 131.074  18.536  1.00  0.00     0.210 A 
ATOM      5  N   UNL     1      43.782 131.746  18.999  1.00  0.00    -0.211 N 
ATOM      6  C   UNL     1      43.540 131.890  20.330  1.00  0.00     0.314 A 
ATOM      7  H   UNL     1      43.091 132.148  18.326  1.00  0.00     0.453 HD
ENDROOT
BRANCH   1   8
ATOM      8  C   UNL     1      44.109 131.528  22.722  1.00  0.00     0.006 C 
ATOM      9  C   UNL     1      42.878 131.647  23.223  1.00  0.00     0.009 C 
ENDBRANCH   1   8
BRANCH   4  10
ATOM     10  C   UNL     1      45.110 130.935  17.078  1.00  0.00     0.044 A 
ATOM     11  C   UNL     1      46.320 130.389  16.613  1.00  0.00     0.053 A 
ATOM     12  C   UNL     1      44.137 131.344  16.143  1.00  0.00    -0.058 A 
ATOM     13  C   UNL     1      46.550 130.241  15.242  1.00  0.00     0.126 A 
ATOM     14  C   UNL     1      44.374 131.188  14.770  1.00  0.00     0.119 A 
ATOM     15  C   UNL     1      45.576 130.638  14.323  1.00  0.00     0.077 A 
ATOM     16  O   UNL     1      42.946 131.926  16.564  1.00  0.00    -0.870 OA
ATOM     17  F   UNL     1      47.716 129.707  14.805  1.00  0.00    -0.207 F 
ATOM     18  F   UNL     1      43.438 131.580  13.870  1.00  0.00    -0.208 F 
ENDBRANCH   4  10
TORSDOF 2
ENDMDL
MODEL 8
REMARK VINA RESULT:      -8.5      1.529      2.564
REMARK SMILES C=Cc1ccc(-c2cc(F)cc(F)c2[O-])[nH+]c1
REMARK SMILES IDX 3 1 4 2 5 3 6 4 16 5 17 6 2 8 1 9 7 10 8 11 14 12 9 13 12 14
REMARK SMILES IDX 11 15 15 16 10 17 13 18
REMARK H PARENT 16 7
ROOT
ATOM      1  C   UNL     1      45.601 130.959  15.250  1.00  0.00     0.038 A 
ATOM      2  C   UNL     1      46.265 130.438  16.375  1.00  0.00     0.021 A 
ATOM      3  C   UNL     1      45.742 130.639  17.652  1.00  0.00     0.080 A 
ATOM      4  C   UNL     1      44.546 131.354  17.811  1.00  0.00     0.210 A 
ATOM      5  N   UNL     1      43.912 131.848  16.708  1.00  0.00    -0.211 N 
ATOM      6  C   UNL     1      44.405 131.663  15.453  1.00  0.00     0.314 A 
ATOM      7  H   UNL     1      43.035 132.405  16.815  1.00  0.00     0.453 HD
ENDROOT
BRANCH   1   8
ATOM      8  C   UNL     1      46.095 130.774  13.862  1.00  0.00     0.006 C 
ATOM      9  C   UNL     1      47.298 131.162  13.436  1.00  0.00     0.009 C 
ENDBRANCH   1   8
BRANCH   4  10
ATOM     10  C   UNL     1      43.982 131.574  19.164  1.00  0.00     0.044 A 
ATOM     11  C   UNL     1      42.803 132.325  19.317  1.00  0.00     0.053 A 
ATOM     12  C   UNL     1      44.612 131.044  20.309  1.00  0.00    -0.058 A 
ATOM     13  C   UNL     1      42.253 132.530  20.586  1.00  0.00     0.126 A 
ATOM     14  C   UNL     1      44.052 131.251  21.577  1.00  0.00     0.119 A 
ATOM     15  C   UNL     1      42.876 131.991  21.714  1.00  0.00     0.077 A 
ATOM     16  O   UNL     1      45.802 130.332  20.201  1.00  0.00    -0.870 OA
ATOM     17  F   UNL     1      41.112 133.249  20.721  1.00  0.00    -0.207 F 
ATOM     18  F   UNL     1      44.656 130.740  22.679  1.00  0.00    -0.208 F 
ENDBRANCH   4  10
TORSDOF 2
ENDMDL
MODEL 9
REMARK VINA RESULT:      -8.0      2.927      5.990
REMARK SMILES C=Cc1ccc(-c2cc(F)cc(F)c2[O-])[nH+]c1
REMARK SMILES IDX 3 1 4 2 5 3 6 4 16 5 17 6 2 8 1 9 7 10 8 11 14 12 9 13 12 14
REMARK SMILES IDX 11 15 15 16 10 17 13 18
REMARK H PARENT 16 7
ROOT
ATOM      1  C   UNL     1      44.726 131.248  21.044  1.00  0.00     0.038 A 
ATOM      2  C   UNL     1      43.880 131.897  20.127  1.00  0.00     0.021 A 
ATOM      3  C   UNL     1      44.094 131.757  18.756  1.00  0.00     0.080 A 
ATOM      4  C   UNL     1      45.150 130.957  18.295  1.00  0.00     0.210 A 
ATOM      5  N   UNL     1      45.958 130.330  19.198  1.00  0.00    -0.211 N 
ATOM      6  C   UNL     1      45.766 130.454  20.540  1.00  0.00     0.314 A 
ATOM      7  H   UNL     1      46.764 129.754  18.867  1.00  0.00     0.453 HD
ENDROOT
BRANCH   1   8
ATOM      8  C   UNL     1      44.551 131.346  22.515  1.00  0.00     0.006 C 
ATOM      9  C   UNL     1      43.409 131.084  23.155  1.00  0.00     0.009 C 
ENDBRANCH   1   8
BRANCH   4  10
ATOM     10  C   UNL     1      45.386 130.802  16.839  1.00  0.00     0.044 A 
ATOM     11  C   UNL     1      46.590 130.235  16.383  1.00  0.00     0.053 A 
ATOM     12  C   UNL     1      44.422 131.216  15.897  1.00  0.00    -0.058 A 
ATOM     13  C   UNL     1      46.821 130.071  15.014  1.00  0.00     0.126 A 
ATOM     14  C   UNL     1      44.660 131.044  14.527  1.00  0.00     0.119 A 
ATOM     15  C   UNL     1      45.856 130.473  14.088  1.00  0.00     0.077 A 
ATOM     16  O   UNL     1      43.238 131.817  16.310  1.00  0.00    -0.870 OA
ATOM     17  F   UNL     1      47.982 129.518  14.585  1.00  0.00    -0.207 F 
ATOM     18  F   UNL     1      43.732 131.441  13.621  1.00  0.00    -0.208 F 
ENDBRANCH   4  10
TORSDOF 2
ENDMDL


