REMARK SMILES CC(=O)n1nc2cc(-c3c[nH+]c(F)cc3C)ccc2c1C
REMARK SMILES IDX 4 1 5 2 6 3 7 4 8 5 17 6 18 7 19 8 20 9 21 10 2 11 1 12 3 13
REMARK SMILES IDX 9 14 10 15 15 16 11 17 14 18 12 19 16 20 13 22
REMARK H PARENT 11 21
ROOT
ATOM      1  N   UNL     1       2.663   0.257  -2.346  1.00  0.00    -0.204 N 
ATOM      2  N   UNL     1       1.492   0.802  -2.030  1.00  0.00    -0.165 NA
ATOM      3  C   UNL     1       0.783  -0.140  -1.384  1.00  0.00     0.094 A 
ATOM      4  C   UNL     1      -0.503  -0.026  -0.867  1.00  0.00     0.040 A 
ATOM      5  C   UNL     1      -1.060  -1.151  -0.219  1.00  0.00    -0.010 A 
ATOM      6  C   UNL     1      -0.313  -2.355  -0.131  1.00  0.00     0.010 A 
ATOM      7  C   UNL     1       0.986  -2.436  -0.665  1.00  0.00     0.013 A 
ATOM      8  C   UNL     1       1.502  -1.299  -1.286  1.00  0.00     0.023 A 
ATOM      9  C   UNL     1       2.707  -1.032  -1.907  1.00  0.00     0.052 A 
ATOM     10  C   UNL     1       3.856  -1.982  -2.074  1.00  0.00     0.067 C 
ENDROOT
BRANCH   1  11
ATOM     11  C   UNL     1       3.688   0.980  -3.053  1.00  0.00     0.243 C 
ATOM     12  C   UNL     1       3.462   2.403  -3.459  1.00  0.00     0.117 C 
ATOM     13  O   UNL     1       4.785   0.429  -3.338  1.00  0.00    -0.273 OA
ENDBRANCH   1  11
BRANCH   5  14
ATOM     14  C   UNL     1      -2.430  -1.090   0.340  1.00  0.00     0.049 A 
ATOM     15  C   UNL     1      -3.397  -1.991  -0.134  1.00  0.00     0.317 A 
ATOM     16  C   UNL     1      -2.799  -0.158   1.339  1.00  0.00    -0.028 A 
ATOM     17  N   UNL     1      -4.672  -1.948   0.336  1.00  0.00    -0.186 N 
ATOM     18  C   UNL     1      -4.128  -0.131   1.786  1.00  0.00     0.118 A 
ATOM     19  C   UNL     1      -5.053  -1.040   1.272  1.00  0.00     0.358 A 
ATOM     20  C   UNL     1      -1.812   0.816   1.927  1.00  0.00     0.045 C 
ATOM     21  H   UNL     1      -5.375  -2.624  -0.037  1.00  0.00     0.456 HD
ATOM     22  F   UNL     1      -6.336  -1.019   1.713  1.00  0.00    -0.136 F 
ENDBRANCH   5  14
TORSDOF 2


