REMARK SMILES Cc1cc(N=C=O)c(N)c(-n2nc3ccccc3[nH+]2)c1
REMARK SMILES IDX 3 1 4 2 8 3 10 4 20 5 2 6 1 7 5 8 6 9 7 10 9 11 11 14 12 15
REMARK SMILES IDX 19 16 13 17 18 18 14 19 17 20 15 21 16 22
REMARK H PARENT 9 12 9 13 19 23
ROOT
ATOM      1  C   UNL     1       0.819   0.921   2.739  1.00  0.00     0.035 A 
ATOM      2  C   UNL     1       0.232  -0.347   2.815  1.00  0.00     0.102 A 
ATOM      3  C   UNL     1      -0.036  -1.067   1.619  1.00  0.00     0.091 A 
ATOM      4  C   UNL     1       0.235  -0.461   0.368  1.00  0.00     0.153 A 
ATOM      5  C   UNL     1       0.775   0.833   0.325  1.00  0.00     0.040 A 
ATOM      6  C   UNL     1       1.097   1.514   1.503  1.00  0.00    -0.046 A 
ATOM      7  C   UNL     1       1.666   2.901   1.441  1.00  0.00     0.044 C 
ENDROOT
BRANCH   2   8
ATOM      8  N   UNL     1      -0.094  -0.842   4.124  1.00  0.00    -0.166 NA
BRANCH   8   9
ATOM      9  C   UNL     1      -1.120  -1.548   4.386  1.00  0.00     0.240 C 
ATOM     10  O   UNL     1      -2.119  -2.233   4.642  1.00  0.00    -0.211 OA
ENDBRANCH   8   9
ENDBRANCH   2   8
BRANCH   3  11
ATOM     11  N   UNL     1      -0.566  -2.399   1.668  1.00  0.00    -0.395 N 
ATOM     12  H   UNL     1      -1.173  -2.768   0.904  1.00  0.00     0.156 HD
ATOM     13  H   UNL     1      -0.318  -3.050   2.445  1.00  0.00     0.156 HD
ENDBRANCH   3  11
BRANCH   4  14
ATOM     14  N   UNL     1       0.024  -1.165  -0.868  1.00  0.00    -0.011 N 
ATOM     15  N   UNL     1       0.390  -2.431  -1.072  1.00  0.00     0.054 NA
ATOM     16  N   UNL     1      -0.491  -0.608  -1.962  1.00  0.00    -0.161 N 
ATOM     17  C   UNL     1       0.071  -2.681  -2.355  1.00  0.00     0.249 A 
ATOM     18  C   UNL     1      -0.471  -1.559  -2.904  1.00  0.00     0.198 A 
ATOM     19  C   UNL     1       0.237  -3.854  -3.084  1.00  0.00     0.064 A 
ATOM     20  C   UNL     1      -0.896  -1.506  -4.227  1.00  0.00     0.058 A 
ATOM     21  C   UNL     1      -0.182  -3.844  -4.430  1.00  0.00     0.005 A 
ATOM     22  C   UNL     1      -0.746  -2.676  -4.999  1.00  0.00     0.005 A 
ATOM     23  H   UNL     1      -0.842   0.372  -2.050  1.00  0.00     0.340 HD
ENDBRANCH   4  14
TORSDOF 4


