REMARK SMILES COc1cccc(-c2cc3cc(F)ccc3[nH]2)[nH+]1
REMARK SMILES IDX 3 1 4 2 5 3 6 4 7 5 18 6 2 8 1 9 8 10 9 11 17 12 10 13 16 14
REMARK SMILES IDX 11 15 15 16 12 17 14 18 13 20
REMARK H PARENT 18 7 17 19
ROOT
ATOM      1  C   UNL     1      -2.382   2.436   1.044  1.00  0.00     0.366 A 
ATOM      2  C   UNL     1      -2.222   2.401   2.440  1.00  0.00     0.124 A 
ATOM      3  C   UNL     1      -1.575   1.316   3.029  1.00  0.00     0.018 A 
ATOM      4  C   UNL     1      -1.093   0.278   2.235  1.00  0.00     0.082 A 
ATOM      5  C   UNL     1      -1.263   0.331   0.843  1.00  0.00     0.230 A 
ATOM      6  N   UNL     1      -1.900   1.408   0.289  1.00  0.00    -0.171 N 
ATOM      7  H   UNL     1      -2.049   1.453  -0.744  1.00  0.00     0.458 HD
ENDROOT
BRANCH   1   8
ATOM      8  O   UNL     1      -3.028   3.500   0.396  1.00  0.00    -0.448 OA
ATOM      9  C   UNL     1      -3.578   4.634   1.059  1.00  0.00     0.285 C 
ENDBRANCH   1   8
BRANCH   5  10
ATOM     10  C   UNL     1      -0.751  -0.764  -0.018  1.00  0.00     0.112 A 
ATOM     11  C   UNL     1      -0.462  -0.652  -1.381  1.00  0.00     0.043 A 
ATOM     12  N   UNL     1      -0.500  -2.024   0.420  1.00  0.00    -0.350 N 
ATOM     13  C   UNL     1      -0.021  -1.901  -1.759  1.00  0.00     0.003 A 
ATOM     14  C   UNL     1      -0.057  -2.704  -0.650  1.00  0.00     0.046 A 
ATOM     15  C   UNL     1       0.406  -2.374  -2.998  1.00  0.00     0.049 A 
ATOM     16  C   UNL     1       0.328  -4.043  -0.704  1.00  0.00     0.030 A 
ATOM     17  C   UNL     1       0.803  -3.722  -3.083  1.00  0.00     0.123 A 
ATOM     18  C   UNL     1       0.763  -4.553  -1.941  1.00  0.00     0.041 A 
ATOM     19  H   UNL     1      -0.640  -2.408   1.380  1.00  0.00     0.167 HD
ATOM     20  F   UNL     1       1.225  -4.226  -4.269  1.00  0.00    -0.207 F 
ENDBRANCH   5  10
TORSDOF 2


