REMARK SMILES CC(=O)Oc1ccc(Nc2ccc3cc[nH]c3c2)c(F)c1
REMARK SMILES IDX 5 1 6 2 7 3 8 4 19 5 20 6 21 7 4 8 2 9 1 10 3 11 9 12 10 14
REMARK SMILES IDX 11 15 18 16 12 17 17 18 13 19 16 20 14 21 15 22
REMARK H PARENT 9 13 16 23
ROOT
ATOM      1  C   UNL     1       3.315  -0.324   0.432  1.00  0.00     0.133 A 
ATOM      2  C   UNL     1       2.341   0.588  -0.014  1.00  0.00     0.049 A 
ATOM      3  C   UNL     1       0.992   0.382   0.286  1.00  0.00     0.033 A 
ATOM      4  C   UNL     1       0.590  -0.751   1.015  1.00  0.00     0.075 A 
ATOM      5  C   UNL     1       1.563  -1.658   1.462  1.00  0.00     0.150 A 
ATOM      6  F   UNL     1       1.203  -2.754   2.176  1.00  0.00    -0.205 F 
ATOM      7  C   UNL     1       2.913  -1.450   1.158  1.00  0.00     0.088 A 
ENDROOT
BRANCH   1   8
ATOM      8  O   UNL     1       4.679  -0.167   0.144  1.00  0.00    -0.427 OA
BRANCH   8   9
ATOM      9  C   UNL     1       5.329   1.057  -0.062  1.00  0.00     0.308 C 
ATOM     10  C   UNL     1       6.705   1.063  -0.635  1.00  0.00     0.139 C 
ATOM     11  O   UNL     1       4.811   2.141   0.321  1.00  0.00    -0.252 OA
ENDBRANCH   8   9
ENDBRANCH   1   8
BRANCH   4  12
ATOM     12  N   UNL     1      -0.792  -0.961   1.357  1.00  0.00    -0.353 N 
ATOM     13  H   UNL     1      -1.005  -1.411   2.277  1.00  0.00     0.167 HD
BRANCH  12  14
ATOM     14  C   UNL     1      -1.900  -0.584   0.522  1.00  0.00     0.041 A 
ATOM     15  C   UNL     1      -1.791  -0.597  -0.895  1.00  0.00     0.027 A 
ATOM     16  C   UNL     1      -3.134  -0.255   1.123  1.00  0.00     0.052 A 
ATOM     17  C   UNL     1      -2.889  -0.252  -1.703  1.00  0.00     0.012 A 
ATOM     18  C   UNL     1      -4.202   0.083   0.293  1.00  0.00     0.047 A 
ATOM     19  C   UNL     1      -4.081   0.086  -1.070  1.00  0.00    -0.001 A 
ATOM     20  N   UNL     1      -5.444   0.432   0.662  1.00  0.00    -0.361 N 
ATOM     21  C   UNL     1      -5.301   0.455  -1.592  1.00  0.00     0.028 A 
ATOM     22  C   UNL     1      -6.121   0.662  -0.487  1.00  0.00     0.083 A 
ATOM     23  H   UNL     1      -5.816   0.511   1.635  1.00  0.00     0.166 HD
ENDBRANCH  12  14
ENDBRANCH   4  12
TORSDOF 4


