REMARK SMILES C#C[C@@H]1CNC(=[NH2+])[C@@H](Nc2cc(C)c3c(n[nH+]n3C)c2O)C1
REMARK SMILES IDX 9 1 8 3 3 4 4 5 22 6 5 7 6 8 2 10 1 11 7 12 10 15 11 16
REMARK SMILES IDX 20 17 12 18 15 19 14 20 16 21 18 22 17 23 13 24 19 25 21 27
REMARK H PARENT 9 2 5 9 7 13 7 14 17 26 21 28
ROOT
ATOM      1  N   UNL     1       0.172  -0.374   2.042  1.00  0.00    -0.368 N 
ATOM      2  H   UNL     1       0.075  -1.265   2.579  1.00  0.00     0.161 HD
ENDROOT
BRANCH   1   3
ATOM      3  C   UNL     1       1.403   0.401   2.259  1.00  0.00     0.195 C 
ATOM      4  C   UNL     1       2.132   1.297  -0.042  1.00  0.00     0.108 C 
ATOM      5  C   UNL     1       2.244   2.714   0.528  1.00  0.00     0.250 C 
ATOM      6  C   UNL     1       2.378   0.262   1.068  1.00  0.00     0.058 C 
ATOM      7  N   UNL     1       1.337   2.890   1.659  1.00  0.00    -0.276 N 
ATOM      8  C   UNL     1       1.090   1.840   2.608  1.00  0.00     0.263 C 
ATOM      9  H   UNL     1       0.984   3.854   1.857  1.00  0.00     0.304 HD
BRANCH   4  10
ATOM     10  C   UNL     1       3.108   1.114  -1.127  1.00  0.00    -0.099 C 
ATOM     11  C   UNL     1       3.906   0.962  -2.017  1.00  0.00     0.004 C 
ENDBRANCH   4  10
BRANCH   8  12
ATOM     12  N   UNL     1       0.520   2.117   3.741  1.00  0.00    -0.289 N 
ATOM     13  H   UNL     1       0.268   3.100   3.989  1.00  0.00     0.301 HD
ATOM     14  H   UNL     1       0.300   1.365   4.432  1.00  0.00     0.301 HD
ENDBRANCH   8  12
ENDBRANCH   1   3
BRANCH   1  15
ATOM     15  C   UNL     1      -0.706  -0.186   0.921  1.00  0.00     0.080 A 
ATOM     16  C   UNL     1      -1.411   1.034   0.751  1.00  0.00     0.035 A 
ATOM     17  C   UNL     1      -0.883  -1.234  -0.005  1.00  0.00     0.173 A 
ATOM     18  C   UNL     1      -2.261   1.242  -0.359  1.00  0.00    -0.017 A 
ATOM     19  C   UNL     1      -1.734  -1.010  -1.085  1.00  0.00     0.206 A 
ATOM     20  C   UNL     1      -2.396   0.174  -1.266  1.00  0.00     0.140 A 
ATOM     21  N   UNL     1      -2.037  -1.850  -2.091  1.00  0.00     0.029 NA
ATOM     22  N   UNL     1      -3.116   0.046  -2.403  1.00  0.00    -0.132 N 
ATOM     23  N   UNL     1      -2.876  -1.175  -2.870  1.00  0.00    -0.016 N 
ATOM     24  C   UNL     1      -2.984   2.549  -0.514  1.00  0.00     0.047 C 
ATOM     25  C   UNL     1      -3.984   1.014  -3.067  1.00  0.00     0.226 C 
ATOM     26  H   UNL     1      -3.289  -1.565  -3.746  1.00  0.00     0.526 HD
BRANCH  17  27
ATOM     27  O   UNL     1      -0.213  -2.447   0.153  1.00  0.00    -0.504 OA
ATOM     28  H   UNL     1      -0.326  -3.207  -0.507  1.00  0.00     0.293 HD
ENDBRANCH  17  27
ENDBRANCH   1  15
TORSDOF 5


