REMARK SMILES CCC[C@@H](N)/C=C(\O)N1CC[C@@H](C)[C@@H](c2cc3cc(F)ccc3[nH]2)[C@H]1F
REMARK SMILES IDX 6 1 7 2 8 3 9 5 10 6 25 7 11 8 14 9 12 10 26 11 13 12 15 13
REMARK SMILES IDX 16 14 24 15 17 16 23 17 18 18 22 19 19 20 21 21 20 23 4 24
REMARK SMILES IDX 5 25 3 28 2 29 1 30
REMARK H PARENT 8 4 24 22 5 26 5 27
ROOT
ATOM      1  C   UNL     1       0.863  -1.516   0.138  1.00  0.00     0.057 C 
ENDROOT
BRANCH   1   2
ATOM      2  C   UNL     1       1.311  -0.841  -0.929  1.00  0.00     0.186 C 
BRANCH   2   3
ATOM      3  O   UNL     1       1.527  -1.512  -2.133  1.00  0.00    -0.495 OA
ATOM      4  H   UNL     1       1.890  -1.032  -2.947  1.00  0.00     0.295 HD
ENDBRANCH   2   3
BRANCH   2   5
ATOM      5  N   UNL     1       1.550   0.576  -0.845  1.00  0.00    -0.313 N 
ATOM      6  C   UNL     1       1.084   1.426  -1.948  1.00  0.00     0.123 C 
ATOM      7  C   UNL     1       2.640   1.091   0.001  1.00  0.00     0.274 C 
ATOM      8  C   UNL     1       0.720   2.827  -1.444  1.00  0.00     0.026 C 
ATOM      9  C   UNL     1       2.302   2.494   0.544  1.00  0.00     0.094 C 
ATOM     10  C   UNL     1       1.863   3.435  -0.610  1.00  0.00     0.001 C 
ATOM     11  F   UNL     1       2.917   0.232   1.055  1.00  0.00    -0.223 F 
ATOM     12  C   UNL     1       1.488   4.837  -0.108  1.00  0.00     0.008 C 
BRANCH   9  13
ATOM     13  C   UNL     1       1.310   2.443   1.691  1.00  0.00     0.024 A 
ATOM     14  C   UNL     1       0.076   1.787   1.699  1.00  0.00     0.032 A 
ATOM     15  N   UNL     1       1.516   3.084   2.867  1.00  0.00    -0.358 N 
ATOM     16  C   UNL     1      -0.461   2.049   2.939  1.00  0.00     0.003 A 
ATOM     17  C   UNL     1       0.432   2.834   3.618  1.00  0.00     0.046 A 
ATOM     18  C   UNL     1      -1.670   1.651   3.504  1.00  0.00     0.049 A 
ATOM     19  C   UNL     1       0.178   3.279   4.914  1.00  0.00     0.029 A 
ATOM     20  C   UNL     1      -1.956   2.083   4.813  1.00  0.00     0.123 A 
ATOM     21  C   UNL     1      -1.035   2.894   5.515  1.00  0.00     0.041 A 
ATOM     22  H   UNL     1       2.345   3.660   3.135  1.00  0.00     0.166 HD
ATOM     23  F   UNL     1      -3.121   1.719   5.404  1.00  0.00    -0.207 F 
ENDBRANCH   9  13
ENDBRANCH   2   5
ENDBRANCH   1   2
BRANCH   1  24
ATOM     24  C   UNL     1       0.603  -3.002   0.101  1.00  0.00     0.079 C 
BRANCH  24  25
ATOM     25  N   UNL     1      -0.556  -3.266  -0.755  1.00  0.00    -0.324 NA
ATOM     26  H   UNL     1      -0.672  -4.301  -0.855  1.00  0.00     0.119 HD
ATOM     27  H   UNL     1      -1.419  -2.895  -0.295  1.00  0.00     0.119 HD
ENDBRANCH  24  25
BRANCH  24  28
ATOM     28  C   UNL     1       0.369  -3.575   1.520  1.00  0.00     0.023 C 
BRANCH  28  29
ATOM     29  C   UNL     1       1.593  -3.468   2.450  1.00  0.00    -0.002 C 
ATOM     30  C   UNL     1       2.743  -4.382   2.029  1.00  0.00     0.004 C 
ENDBRANCH  28  29
ENDBRANCH  24  28
ENDBRANCH   1  24
TORSDOF 8


