MODEL 1
REMARK VINA RESULT:      -7.2      0.000      0.000
REMARK SMILES Cc1ccc(Nc2cc(F)c(C)cc2N=C=S)c(F)n1
REMARK SMILES IDX 7 1 8 2 9 3 10 4 11 5 12 6 13 7 14 8 6 9 5 11 3 12 2 13 4 14
REMARK SMILES IDX 20 15 18 16 1 17 19 18 15 19 16 20 17 21
REMARK H PARENT 6 10
ROOT
ATOM      1  C   UNL     1      44.445 131.027  18.865  1.00  0.00     0.068 A 
ATOM      2  C   UNL     1      43.484 131.655  18.052  1.00  0.00     0.067 A 
ATOM      3  C   UNL     1      42.412 132.344  18.619  1.00  0.00     0.128 A 
ATOM      4  F   UNL     1      41.505 132.945  17.807  1.00  0.00    -0.207 F 
ATOM      5  C   UNL     1      42.280 132.419  20.013  1.00  0.00    -0.013 A 
ATOM      6  C   UNL     1      41.142 133.187  20.624  1.00  0.00     0.047 C 
ATOM      7  C   UNL     1      43.251 131.825  20.831  1.00  0.00     0.037 A 
ATOM      8  C   UNL     1      44.338 131.125  20.266  1.00  0.00     0.098 A 
ENDROOT
BRANCH   1   9
ATOM      9  N   UNL     1      45.563 130.340  18.274  1.00  0.00    -0.350 N 
ATOM     10  H   UNL     1      46.148 129.729  18.889  1.00  0.00     0.167 HD
BRANCH   9  11
ATOM     11  C   UNL     1      45.989 130.517  16.912  1.00  0.00     0.095 A 
ATOM     12  C   UNL     1      46.751 129.554  14.822  1.00  0.00     0.026 A 
ATOM     13  C   UNL     1      46.774 130.835  14.257  1.00  0.00     0.041 A 
ATOM     14  C   UNL     1      46.352 129.399  16.151  1.00  0.00     0.033 A 
ATOM     15  N   UNL     1      46.381 131.905  14.998  1.00  0.00    -0.223 NA
ATOM     16  C   UNL     1      45.991 131.782  16.296  1.00  0.00     0.236 A 
ATOM     17  C   UNL     1      47.175 131.024  12.829  1.00  0.00     0.067 C 
ATOM     18  F   UNL     1      45.570 132.883  16.965  1.00  0.00    -0.183 F 
ENDBRANCH   9  11
ENDBRANCH   1   9
BRANCH   8  19
ATOM     19  N   UNL     1      45.336 130.493  21.088  1.00  0.00    -0.193 NA
BRANCH  19  20
ATOM     20  C   UNL     1      45.093 129.553  21.912  1.00  0.00     0.064 C 
ATOM     21  S   UNL     1      44.784 128.363  22.953  1.00  0.00    -0.006 S 
ENDBRANCH  19  20
ENDBRANCH   8  19
TORSDOF 4
ENDMDL
MODEL 2
REMARK VINA RESULT:      -6.8      1.571      1.615
REMARK SMILES Cc1ccc(Nc2cc(F)c(C)cc2N=C=S)c(F)n1
REMARK SMILES IDX 7 1 8 2 9 3 10 4 11 5 12 6 13 7 14 8 6 9 5 11 3 12 2 13 4 14
REMARK SMILES IDX 20 15 18 16 1 17 19 18 15 19 16 20 17 21
REMARK H PARENT 6 10
ROOT
ATOM      1  C   UNL     1      44.722 131.087  18.669  1.00  0.00     0.068 A 
ATOM      2  C   UNL     1      43.519 131.299  17.973  1.00  0.00     0.067 A 
ATOM      3  C   UNL     1      42.470 132.005  18.562  1.00  0.00     0.128 A 
ATOM      4  F   UNL     1      41.323 132.198  17.861  1.00  0.00    -0.207 F 
ATOM      5  C   UNL     1      42.604 132.514  19.862  1.00  0.00    -0.013 A 
ATOM      6  C   UNL     1      41.486 133.299  20.486  1.00  0.00     0.047 C 
ATOM      7  C   UNL     1      43.813 132.336  20.550  1.00  0.00     0.037 A 
ATOM      8  C   UNL     1      44.879 131.623  19.962  1.00  0.00     0.098 A 
ENDROOT
BRANCH   1   9
ATOM      9  N   UNL     1      45.811 130.382  18.045  1.00  0.00    -0.350 N 
ATOM     10  H   UNL     1      46.402 129.759  18.641  1.00  0.00     0.167 HD
BRANCH   9  11
ATOM     11  C   UNL     1      46.200 130.554  16.672  1.00  0.00     0.095 A 
ATOM     12  C   UNL     1      46.981 129.594  14.587  1.00  0.00     0.026 A 
ATOM     13  C   UNL     1      46.917 130.861  13.996  1.00  0.00     0.041 A 
ATOM     14  C   UNL     1      46.615 129.444  15.926  1.00  0.00     0.033 A 
ATOM     15  N   UNL     1      46.476 131.922  14.723  1.00  0.00    -0.223 NA
ATOM     16  C   UNL     1      46.117 131.804  16.030  1.00  0.00     0.236 A 
ATOM     17  C   UNL     1      47.281 131.043  12.557  1.00  0.00     0.067 C 
ATOM     18  F   UNL     1      45.643 132.893  16.685  1.00  0.00    -0.183 F 
ENDBRANCH   9  11
ENDBRANCH   1   9
BRANCH   8  19
ATOM     19  N   UNL     1      46.120 131.415  20.658  1.00  0.00    -0.193 NA
BRANCH  19  20
ATOM     20  C   UNL     1      46.795 132.345  21.210  1.00  0.00     0.064 C 
ATOM     21  S   UNL     1      47.647 133.519  21.909  1.00  0.00    -0.006 S 
ENDBRANCH  19  20
ENDBRANCH   8  19
TORSDOF 4
ENDMDL
MODEL 3
REMARK VINA RESULT:      -6.3      1.219      1.501
REMARK SMILES Cc1ccc(Nc2cc(F)c(C)cc2N=C=S)c(F)n1
REMARK SMILES IDX 7 1 8 2 9 3 10 4 11 5 12 6 13 7 14 8 6 9 5 11 3 12 2 13 4 14
REMARK SMILES IDX 20 15 18 16 1 17 19 18 15 19 16 20 17 21
REMARK H PARENT 6 10
ROOT
ATOM      1  C   UNL     1      44.298 131.122  18.846  1.00  0.00     0.068 A 
ATOM      2  C   UNL     1      43.312 131.770  18.081  1.00  0.00     0.067 A 
ATOM      3  C   UNL     1      42.271 132.463  18.699  1.00  0.00     0.128 A 
ATOM      4  F   UNL     1      41.338 133.083  17.932  1.00  0.00    -0.207 F 
ATOM      5  C   UNL     1      42.196 132.523  20.098  1.00  0.00    -0.013 A 
ATOM      6  C   UNL     1      41.093 133.295  20.764  1.00  0.00     0.047 C 
ATOM      7  C   UNL     1      43.194 131.909  20.869  1.00  0.00     0.037 A 
ATOM      8  C   UNL     1      44.250 131.205  20.252  1.00  0.00     0.098 A 
ENDROOT
BRANCH   1   9
ATOM      9  N   UNL     1      45.384 130.432  18.203  1.00  0.00    -0.350 N 
ATOM     10  H   UNL     1      45.998 129.821  18.789  1.00  0.00     0.167 HD
BRANCH   9  11
ATOM     11  C   UNL     1      45.742 130.604  16.821  1.00  0.00     0.095 A 
ATOM     12  C   UNL     1      46.507 132.043  15.026  1.00  0.00     0.026 A 
ATOM     13  C   UNL     1      46.480 130.947  14.155  1.00  0.00     0.041 A 
ATOM     14  C   UNL     1      46.141 131.865  16.362  1.00  0.00     0.033 A 
ATOM     15  N   UNL     1      46.125 129.721  14.626  1.00  0.00    -0.223 NA
ATOM     16  C   UNL     1      45.762 129.522  15.921  1.00  0.00     0.236 A 
ATOM     17  C   UNL     1      46.888 131.107  12.726  1.00  0.00     0.067 C 
ATOM     18  F   UNL     1      45.463 128.265  16.336  1.00  0.00    -0.183 F 
ENDBRANCH   9  11
ENDBRANCH   1   9
BRANCH   8  19
ATOM     19  N   UNL     1      45.273 130.553  21.025  1.00  0.00    -0.193 NA
BRANCH  19  20
ATOM     20  C   UNL     1      45.055 129.598  21.840  1.00  0.00     0.064 C 
ATOM     21  S   UNL     1      44.780 128.390  22.869  1.00  0.00    -0.006 S 
ENDBRANCH  19  20
ENDBRANCH   8  19
TORSDOF 4
ENDMDL
MODEL 4
REMARK VINA RESULT:      -6.2      2.434      3.558
REMARK SMILES Cc1ccc(Nc2cc(F)c(C)cc2N=C=S)c(F)n1
REMARK SMILES IDX 7 1 8 2 9 3 10 4 11 5 12 6 13 7 14 8 6 9 5 11 3 12 2 13 4 14
REMARK SMILES IDX 20 15 18 16 1 17 19 18 15 19 16 20 17 21
REMARK H PARENT 6 10
ROOT
ATOM      1  C   UNL     1      44.350 130.703  21.651  1.00  0.00     0.068 A 
ATOM      2  C   UNL     1      43.341 131.538  22.165  1.00  0.00     0.067 A 
ATOM      3  C   UNL     1      42.434 131.059  23.110  1.00  0.00     0.128 A 
ATOM      4  F   UNL     1      41.475 131.892  23.591  1.00  0.00    -0.207 F 
ATOM      5  C   UNL     1      42.518 129.735  23.563  1.00  0.00    -0.013 A 
ATOM      6  C   UNL     1      41.561 129.228  24.603  1.00  0.00     0.047 C 
ATOM      7  C   UNL     1      43.542 128.906  23.081  1.00  0.00     0.037 A 
ATOM      8  C   UNL     1      44.463 129.381  22.124  1.00  0.00     0.098 A 
ENDROOT
BRANCH   1   9
ATOM      9  N   UNL     1      45.299 131.211  20.696  1.00  0.00    -0.350 N 
ATOM     10  H   UNL     1      46.157 131.687  21.057  1.00  0.00     0.167 HD
BRANCH   9  11
ATOM     11  C   UNL     1      45.098 131.191  19.273  1.00  0.00     0.095 A 
ATOM     12  C   UNL     1      45.790 130.432  17.077  1.00  0.00     0.026 A 
ATOM     13  C   UNL     1      44.700 131.106  16.515  1.00  0.00     0.041 A 
ATOM     14  C   UNL     1      45.983 130.473  18.459  1.00  0.00     0.033 A 
ATOM     15  N   UNL     1      43.829 131.768  17.323  1.00  0.00    -0.223 NA
ATOM     16  C   UNL     1      43.996 131.826  18.672  1.00  0.00     0.236 A 
ATOM     17  C   UNL     1      44.458 131.059  15.041  1.00  0.00     0.067 C 
ATOM     18  F   UNL     1      43.066 132.466  19.424  1.00  0.00    -0.183 F 
ENDBRANCH   9  11
ENDBRANCH   1   9
BRANCH   8  19
ATOM     19  N   UNL     1      45.510 128.542  21.605  1.00  0.00    -0.193 NA
BRANCH  19  20
ATOM     20  C   UNL     1      45.718 127.342  21.982  1.00  0.00     0.064 C 
ATOM     21  S   UNL     1      45.981 125.826  22.456  1.00  0.00    -0.006 S 
ENDBRANCH  19  20
ENDBRANCH   8  19
TORSDOF 4
ENDMDL
MODEL 5
REMARK VINA RESULT:      -5.8      2.357      3.244
REMARK SMILES Cc1ccc(Nc2cc(F)c(C)cc2N=C=S)c(F)n1
REMARK SMILES IDX 7 1 8 2 9 3 10 4 11 5 12 6 13 7 14 8 6 9 5 11 3 12 2 13 4 14
REMARK SMILES IDX 20 15 18 16 1 17 19 18 15 19 16 20 17 21
REMARK H PARENT 6 10
ROOT
ATOM      1  C   UNL     1      44.945 130.445  20.814  1.00  0.00     0.068 A 
ATOM      2  C   UNL     1      44.100 131.518  21.150  1.00  0.00     0.067 A 
ATOM      3  C   UNL     1      43.319 131.476  22.305  1.00  0.00     0.128 A 
ATOM      4  F   UNL     1      42.519 132.531  22.604  1.00  0.00    -0.207 F 
ATOM      5  C   UNL     1      43.369 130.358  23.150  1.00  0.00    -0.013 A 
ATOM      6  C   UNL     1      42.551 130.326  24.409  1.00  0.00     0.047 C 
ATOM      7  C   UNL     1      44.233 129.298  22.841  1.00  0.00     0.037 A 
ATOM      8  C   UNL     1      45.026 129.332  21.674  1.00  0.00     0.098 A 
ENDROOT
BRANCH   1   9
ATOM      9  N   UNL     1      45.769 130.506  19.636  1.00  0.00    -0.350 N 
ATOM     10  H   UNL     1      46.805 130.437  19.753  1.00  0.00     0.167 HD
BRANCH   9  11
ATOM     11  C   UNL     1      45.264 130.752  18.312  1.00  0.00     0.095 A 
ATOM     12  C   UNL     1      43.616 131.786  16.866  1.00  0.00     0.026 A 
ATOM     13  C   UNL     1      44.294 131.278  15.752  1.00  0.00     0.041 A 
ATOM     14  C   UNL     1      44.108 131.525  18.146  1.00  0.00     0.033 A 
ATOM     15  N   UNL     1      45.436 130.561  15.929  1.00  0.00    -0.223 NA
ATOM     16  C   UNL     1      45.935 130.290  17.166  1.00  0.00     0.236 A 
ATOM     17  C   UNL     1      43.800 131.563  14.371  1.00  0.00     0.067 C 
ATOM     18  F   UNL     1      47.103 129.607  17.270  1.00  0.00    -0.183 F 
ENDBRANCH   9  11
ENDBRANCH   1   9
BRANCH   8  19
ATOM     19  N   UNL     1      45.907 128.247  21.331  1.00  0.00    -0.193 NA
BRANCH  19  20
ATOM     20  C   UNL     1      45.921 127.122  21.928  1.00  0.00     0.064 C 
ATOM     21  S   UNL     1      45.940 125.700  22.684  1.00  0.00    -0.006 S 
ENDBRANCH  19  20
ENDBRANCH   8  19
TORSDOF 4
ENDMDL
MODEL 6
REMARK VINA RESULT:      -5.7      4.526      7.142
REMARK SMILES Cc1ccc(Nc2cc(F)c(C)cc2N=C=S)c(F)n1
REMARK SMILES IDX 7 1 8 2 9 3 10 4 11 5 12 6 13 7 14 8 6 9 5 11 3 12 2 13 4 14
REMARK SMILES IDX 20 15 18 16 1 17 19 18 15 19 16 20 17 21
REMARK H PARENT 6 10
ROOT
ATOM      1  C   UNL     1      44.927 127.601  23.126  1.00  0.00     0.068 A 
ATOM      2  C   UNL     1      45.981 126.967  22.445  1.00  0.00     0.067 A 
ATOM      3  C   UNL     1      45.946 125.594  22.199  1.00  0.00     0.128 A 
ATOM      4  F   UNL     1      46.976 125.012  21.533  1.00  0.00    -0.207 F 
ATOM      5  C   UNL     1      44.853 124.828  22.630  1.00  0.00    -0.013 A 
ATOM      6  C   UNL     1      44.801 123.355  22.339  1.00  0.00     0.047 C 
ATOM      7  C   UNL     1      43.782 125.458  23.280  1.00  0.00     0.037 A 
ATOM      8  C   UNL     1      43.810 126.845  23.534  1.00  0.00     0.098 A 
ENDROOT
BRANCH   1   9
ATOM      9  N   UNL     1      44.956 129.022  23.353  1.00  0.00    -0.350 N 
ATOM     10  H   UNL     1      45.431 129.375  24.215  1.00  0.00     0.167 HD
BRANCH   9  11
ATOM     11  C   UNL     1      44.288 129.985  22.519  1.00  0.00     0.095 A 
ATOM     12  C   UNL     1      42.560 131.662  22.239  1.00  0.00     0.026 A 
ATOM     13  C   UNL     1      43.009 131.886  20.932  1.00  0.00     0.041 A 
ATOM     14  C   UNL     1      43.207 130.712  23.032  1.00  0.00     0.033 A 
ATOM     15  N   UNL     1      44.084 131.197  20.462  1.00  0.00    -0.223 NA
ATOM     16  C   UNL     1      44.730 130.265  21.213  1.00  0.00     0.236 A 
ATOM     17  C   UNL     1      42.348 132.913  20.071  1.00  0.00     0.067 C 
ATOM     18  F   UNL     1      45.822 129.647  20.699  1.00  0.00    -0.183 F 
ENDBRANCH   9  11
ENDBRANCH   1   9
BRANCH   8  19
ATOM     19  N   UNL     1      42.729 127.508  24.214  1.00  0.00    -0.193 NA
BRANCH  19  20
ATOM     20  C   UNL     1      41.566 127.009  24.365  1.00  0.00     0.064 C 
ATOM     21  S   UNL     1      40.096 126.379  24.553  1.00  0.00    -0.006 S 
ENDBRANCH  19  20
ENDBRANCH   8  19
TORSDOF 4
ENDMDL
MODEL 7
REMARK VINA RESULT:      -5.6      2.831      6.075
REMARK SMILES Cc1ccc(Nc2cc(F)c(C)cc2N=C=S)c(F)n1
REMARK SMILES IDX 7 1 8 2 9 3 10 4 11 5 12 6 13 7 14 8 6 9 5 11 3 12 2 13 4 14
REMARK SMILES IDX 20 15 18 16 1 17 19 18 15 19 16 20 17 21
REMARK H PARENT 6 10
ROOT
ATOM      1  C   UNL     1      45.635 130.581  18.860  1.00  0.00     0.068 A 
ATOM      2  C   UNL     1      46.134 129.774  17.822  1.00  0.00     0.067 A 
ATOM      3  C   UNL     1      45.689 129.944  16.510  1.00  0.00     0.128 A 
ATOM      4  F   UNL     1      46.195 129.153  15.530  1.00  0.00    -0.207 F 
ATOM      5  C   UNL     1      44.735 130.927  16.211  1.00  0.00    -0.013 A 
ATOM      6  C   UNL     1      44.279 131.131  14.794  1.00  0.00     0.047 C 
ATOM      7  C   UNL     1      44.258 131.759  17.234  1.00  0.00     0.037 A 
ATOM      8  C   UNL     1      44.701 131.594  18.563  1.00  0.00     0.098 A 
ENDROOT
BRANCH   1   9
ATOM      9  N   UNL     1      46.118 130.419  20.206  1.00  0.00    -0.350 N 
ATOM     10  H   UNL     1      47.015 130.887  20.469  1.00  0.00     0.167 HD
BRANCH   9  11
ATOM     11  C   UNL     1      45.496 129.572  21.188  1.00  0.00     0.095 A 
ATOM     12  C   UNL     1      45.182 127.368  22.145  1.00  0.00     0.026 A 
ATOM     13  C   UNL     1      44.334 127.922  23.110  1.00  0.00     0.041 A 
ATOM     14  C   UNL     1      45.766 128.199  21.187  1.00  0.00     0.033 A 
ATOM     15  N   UNL     1      44.112 129.264  23.120  1.00  0.00    -0.223 NA
ATOM     16  C   UNL     1      44.666 130.095  22.196  1.00  0.00     0.236 A 
ATOM     17  C   UNL     1      43.715 127.057  24.160  1.00  0.00     0.067 C 
ATOM     18  F   UNL     1      44.439 131.429  22.289  1.00  0.00    -0.183 F 
ENDBRANCH   9  11
ENDBRANCH   1   9
BRANCH   8  19
ATOM     19  N   UNL     1      44.211 132.425  19.629  1.00  0.00    -0.193 NA
BRANCH  19  20
ATOM     20  C   UNL     1      42.977 132.652  19.850  1.00  0.00     0.064 C 
ATOM     21  S   UNL     1      41.416 132.936  20.128  1.00  0.00    -0.006 S 
ENDBRANCH  19  20
ENDBRANCH   8  19
TORSDOF 4
ENDMDL
MODEL 8
REMARK VINA RESULT:      -5.6      2.989      5.935
REMARK SMILES Cc1ccc(Nc2cc(F)c(C)cc2N=C=S)c(F)n1
REMARK SMILES IDX 7 1 8 2 9 3 10 4 11 5 12 6 13 7 14 8 6 9 5 11 3 12 2 13 4 14
REMARK SMILES IDX 20 15 18 16 1 17 19 18 15 19 16 20 17 21
REMARK H PARENT 6 10
ROOT
ATOM      1  C   UNL     1      45.342 130.816  17.458  1.00  0.00     0.068 A 
ATOM      2  C   UNL     1      44.089 131.439  17.594  1.00  0.00     0.067 A 
ATOM      3  C   UNL     1      43.329 131.763  16.470  1.00  0.00     0.128 A 
ATOM      4  F   UNL     1      42.120 132.358  16.635  1.00  0.00    -0.207 F 
ATOM      5  C   UNL     1      43.808 131.468  15.186  1.00  0.00    -0.013 A 
ATOM      6  C   UNL     1      42.977 131.790  13.976  1.00  0.00     0.047 C 
ATOM      7  C   UNL     1      45.042 130.817  15.042  1.00  0.00     0.037 A 
ATOM      8  C   UNL     1      45.818 130.487  16.173  1.00  0.00     0.098 A 
ENDROOT
BRANCH   1   9
ATOM      9  N   UNL     1      46.110 130.460  18.623  1.00  0.00    -0.350 N 
ATOM     10  H   UNL     1      47.089 130.122  18.484  1.00  0.00     0.167 HD
BRANCH   9  11
ATOM     11  C   UNL     1      45.584 130.446  19.961  1.00  0.00     0.095 A 
ATOM     12  C   UNL     1      44.980 129.206  21.954  1.00  0.00     0.026 A 
ATOM     13  C   UNL     1      44.607 130.406  22.571  1.00  0.00     0.041 A 
ATOM     14  C   UNL     1      45.474 129.232  20.648  1.00  0.00     0.033 A 
ATOM     15  N   UNL     1      44.755 131.581  21.902  1.00  0.00    -0.223 NA
ATOM     16  C   UNL     1      45.230 131.633  20.629  1.00  0.00     0.236 A 
ATOM     17  C   UNL     1      44.097 130.407  23.976  1.00  0.00     0.067 C 
ATOM     18  F   UNL     1      45.395 132.842  20.036  1.00  0.00    -0.183 F 
ENDBRANCH   9  11
ENDBRANCH   1   9
BRANCH   8  19
ATOM     19  N   UNL     1      47.093 129.834  16.047  1.00  0.00    -0.193 NA
BRANCH  19  20
ATOM     20  C   UNL     1      47.698 129.655  14.940  1.00  0.00     0.064 C 
ATOM     21  S   UNL     1      48.462 129.430  13.540  1.00  0.00    -0.006 S 
ENDBRANCH  19  20
ENDBRANCH   8  19
TORSDOF 4
ENDMDL
MODEL 9
REMARK VINA RESULT:      -5.6      3.522      6.706
REMARK SMILES Cc1ccc(Nc2cc(F)c(C)cc2N=C=S)c(F)n1
REMARK SMILES IDX 7 1 8 2 9 3 10 4 11 5 12 6 13 7 14 8 6 9 5 11 3 12 2 13 4 14
REMARK SMILES IDX 20 15 18 16 1 17 19 18 15 19 16 20 17 21
REMARK H PARENT 6 10
ROOT
ATOM      1  C   UNL     1      44.680 130.359  21.277  1.00  0.00     0.068 A 
ATOM      2  C   UNL     1      45.643 130.023  20.310  1.00  0.00     0.067 A 
ATOM      3  C   UNL     1      45.596 130.582  19.033  1.00  0.00     0.128 A 
ATOM      4  F   UNL     1      46.546 130.243  18.124  1.00  0.00    -0.207 F 
ATOM      5  C   UNL     1      44.582 131.491  18.698  1.00  0.00    -0.013 A 
ATOM      6  C   UNL     1      44.549 132.117  17.333  1.00  0.00     0.047 C 
ATOM      7  C   UNL     1      43.637 131.857  19.667  1.00  0.00     0.037 A 
ATOM      8  C   UNL     1      43.676 131.296  20.960  1.00  0.00     0.098 A 
ENDROOT
BRANCH   1   9
ATOM      9  N   UNL     1      44.749 129.799  22.601  1.00  0.00    -0.350 N 
ATOM     10  H   UNL     1      45.154 130.387  23.366  1.00  0.00     0.167 HD
BRANCH   9  11
ATOM     11  C   UNL     1      44.388 128.445  22.923  1.00  0.00     0.095 A 
ATOM     12  C   UNL     1      45.004 126.107  23.106  1.00  0.00     0.026 A 
ATOM     13  C   UNL     1      43.720 125.821  23.584  1.00  0.00     0.041 A 
ATOM     14  C   UNL     1      45.336 127.424  22.781  1.00  0.00     0.033 A 
ATOM     15  N   UNL     1      42.823 126.829  23.751  1.00  0.00    -0.223 NA
ATOM     16  C   UNL     1      43.120 128.120  23.439  1.00  0.00     0.236 A 
ATOM     17  C   UNL     1      43.347 124.423  23.960  1.00  0.00     0.067 C 
ATOM     18  F   UNL     1      42.195 129.084  23.673  1.00  0.00    -0.183 F 
ENDBRANCH   9  11
ENDBRANCH   1   9
BRANCH   8  19
ATOM     19  N   UNL     1      42.706 131.645  21.963  1.00  0.00    -0.193 NA
BRANCH  19  20
ATOM     20  C   UNL     1      43.002 132.038  23.138  1.00  0.00     0.064 C 
ATOM     21  S   UNL     1      43.376 132.534  24.624  1.00  0.00    -0.006 S 
ENDBRANCH  19  20
ENDBRANCH   8  19
TORSDOF 4
ENDMDL


