REMARK SMILES O/C(=N\c1cc2cc(-c3[nH+]c[nH+]cc3F)[nH]c2cc1F)c1cc(F)c[nH]1
REMARK SMILES IDX 3 1 2 2 1 3 21 5 22 6 26 7 23 8 25 9 24 11 4 12 19 13 5 14
REMARK SMILES IDX 18 15 6 16 17 17 7 18 16 19 8 20 20 21 9 23 14 24 10 25
REMARK SMILES IDX 13 26 11 27 12 28 15 29
REMARK H PARENT 1 4 26 10 16 22 10 30 12 31
ROOT
ATOM      1  N   UNL     1       2.939   0.293  -0.135  1.00  0.00    -0.209 NA
ENDROOT
BRANCH   1   2
ATOM      2  C   UNL     1       3.919  -0.495   0.195  1.00  0.00     0.235 C 
BRANCH   2   3
ATOM      3  O   UNL     1       3.678  -1.625   0.982  1.00  0.00    -0.492 OA
ATOM      4  H   UNL     1       4.411  -2.267   1.252  1.00  0.00     0.295 HD
ENDBRANCH   2   3
BRANCH   2   5
ATOM      5  C   UNL     1       5.277  -0.196  -0.306  1.00  0.00     0.104 A 
ATOM      6  C   UNL     1       6.425  -0.932  -0.055  1.00  0.00     0.072 A 
ATOM      7  N   UNL     1       5.569   0.865  -1.089  1.00  0.00    -0.355 N 
ATOM      8  C   UNL     1       7.439  -0.277  -0.720  1.00  0.00     0.141 A 
ATOM      9  C   UNL     1       6.889   0.820  -1.345  1.00  0.00     0.122 A 
ATOM     10  H   UNL     1       4.904   1.592  -1.436  1.00  0.00     0.166 HD
ATOM     11  F   UNL     1       8.742  -0.645  -0.753  1.00  0.00    -0.205 F 
ENDBRANCH   2   5
ENDBRANCH   1   2
BRANCH   1  12
ATOM     12  C   UNL     1       1.581   0.162   0.311  1.00  0.00     0.104 A 
ATOM     13  C   UNL     1       1.261  -0.022   1.686  1.00  0.00     0.151 A 
ATOM     14  C   UNL     1       0.545   0.298  -0.635  1.00  0.00     0.042 A 
ATOM     15  C   UNL     1      -0.081  -0.119   2.099  1.00  0.00     0.068 A 
ATOM     16  C   UNL     1      -0.770   0.194  -0.190  1.00  0.00     0.003 A 
ATOM     17  C   UNL     1      -1.073  -0.010   1.128  1.00  0.00     0.049 A 
ATOM     18  C   UNL     1      -1.958   0.275  -0.882  1.00  0.00     0.043 A 
ATOM     19  N   UNL     1      -2.402  -0.059   1.312  1.00  0.00    -0.349 N 
ATOM     20  C   UNL     1      -2.953   0.109   0.084  1.00  0.00     0.116 A 
ATOM     21  F   UNL     1       2.239  -0.051   2.627  1.00  0.00    -0.205 F 
ATOM     22  H   UNL     1      -2.900  -0.211   2.218  1.00  0.00     0.167 HD
BRANCH  20  23
ATOM     23  C   UNL     1      -4.415   0.143  -0.160  1.00  0.00     0.274 A 
ATOM     24  C   UNL     1      -4.961  -0.296  -1.379  1.00  0.00     0.260 A 
ATOM     25  N   UNL     1      -5.255   0.600   0.815  1.00  0.00    -0.151 N 
ATOM     26  C   UNL     1      -6.343  -0.241  -1.552  1.00  0.00     0.358 A 
ATOM     27  C   UNL     1      -6.600   0.645   0.621  1.00  0.00     0.629 A 
ATOM     28  N   UNL     1      -7.137   0.228  -0.555  1.00  0.00    -0.159 N 
ATOM     29  F   UNL     1      -4.186  -0.808  -2.367  1.00  0.00    -0.193 F 
ATOM     30  H   UNL     1      -4.875   0.945   1.724  1.00  0.00     0.460 HD
ATOM     31  H   UNL     1      -8.171   0.266  -0.693  1.00  0.00     0.459 HD
ENDBRANCH  20  23
ENDBRANCH   1  12
TORSDOF 5


