MODEL 1
REMARK VINA RESULT:      -6.8      0.000      0.000
REMARK SMILES C[C@@H](CO)[N-]C(=O)C[N+]1=C(O)c2cc(-c3ccc4[nH]ccc4c3)cnc2C1
REMARK SMILES IDX 5 1 2 2 1 3 3 4 4 5 6 7 7 8 8 9 9 10 27 11 10 12 26 13 12 14
REMARK SMILES IDX 25 15 13 16 24 17 14 18 11 19 15 21 16 22 23 23 17 24 22 25
REMARK SMILES IDX 18 26 21 27 19 28 20 29
REMARK H PARENT 4 6 11 20 19 30
ROOT
ATOM      1  N   UNL     1      43.260 127.765  23.416  1.00  0.00    -0.644 NA
ENDROOT
BRANCH   1   2
ATOM      2  C   UNL     1      42.209 127.067  24.152  1.00  0.00    -0.084 C 
ATOM      3  C   UNL     1      40.976 127.967  24.227  1.00  0.00    -0.011 C 
BRANCH   2   4
ATOM      4  C   UNL     1      41.864 125.744  23.453  1.00  0.00     0.140 C 
BRANCH   4   5
ATOM      5  O   UNL     1      40.573 125.804  22.915  1.00  0.00    -0.398 OA
ATOM      6  H   UNL     1      40.679 125.726  21.932  1.00  0.00     0.210 HD
ENDBRANCH   4   5
ENDBRANCH   2   4
ENDBRANCH   1   2
BRANCH   1   7
ATOM      7  C   UNL     1      44.224 128.630  24.026  1.00  0.00     0.117 C 
ATOM      8  O   UNL     1      45.227 128.155  24.621  1.00  0.00    -0.313 OA
BRANCH   7   9
ATOM      9  C   UNL     1      44.042 130.112  23.934  1.00  0.00     0.410 C 
BRANCH   9  10
ATOM     10  N   UNL     1      44.050 130.532  22.533  1.00  0.00    -0.186 N 
ATOM     11  C   UNL     1      43.107 131.503  21.959  1.00  0.00     0.412 C 
ATOM     12  C   UNL     1      44.869 130.090  21.624  1.00  0.00     0.370 C 
ATOM     13  C   UNL     1      43.534 131.537  20.532  1.00  0.00     0.122 A 
ATOM     14  C   UNL     1      44.588 130.693  20.338  1.00  0.00     0.115 A 
ATOM     15  N   UNL     1      43.002 132.261  19.516  1.00  0.00    -0.253 NA
ATOM     16  C   UNL     1      45.165 130.535  19.083  1.00  0.00     0.031 A 
ATOM     17  C   UNL     1      43.531 132.146  18.260  1.00  0.00     0.120 A 
ATOM     18  C   UNL     1      44.627 131.279  18.010  1.00  0.00     0.001 A 
BRANCH  12  19
ATOM     19  O   UNL     1      45.870 129.155  21.879  1.00  0.00    -0.460 OA
ATOM     20  H   UNL     1      45.930 128.684  22.773  1.00  0.00     0.300 HD
ENDBRANCH  12  19
BRANCH  18  21
ATOM     21  C   UNL     1      45.198 131.153  16.644  1.00  0.00    -0.016 A 
ATOM     22  C   UNL     1      44.594 131.829  15.548  1.00  0.00     0.011 A 
ATOM     23  C   UNL     1      46.349 130.361  16.421  1.00  0.00     0.019 A 
ATOM     24  C   UNL     1      45.126 131.719  14.251  1.00  0.00     0.027 A 
ATOM     25  C   UNL     1      46.848 130.275  15.123  1.00  0.00    -0.000 A 
ATOM     26  C   UNL     1      46.259 130.930  14.076  1.00  0.00     0.045 A 
ATOM     27  C   UNL     1      47.936 129.594  14.624  1.00  0.00     0.028 A 
ATOM     28  N   UNL     1      46.922 130.694  12.932  1.00  0.00    -0.361 N 
ATOM     29  C   UNL     1      47.949 129.877  13.262  1.00  0.00     0.083 A 
ATOM     30  H   UNL     1      46.696 131.064  11.982  1.00  0.00     0.166 HD
ENDBRANCH  18  21
ENDBRANCH   9  10
ENDBRANCH   7   9
ENDBRANCH   1   7
TORSDOF 8
ENDMDL
MODEL 2
REMARK VINA RESULT:      -6.8      1.705      2.369
REMARK SMILES C[C@@H](CO)[N-]C(=O)C[N+]1=C(O)c2cc(-c3ccc4[nH]ccc4c3)cnc2C1
REMARK SMILES IDX 5 1 2 2 1 3 3 4 4 5 6 7 7 8 8 9 9 10 27 11 10 12 26 13 12 14
REMARK SMILES IDX 25 15 13 16 24 17 14 18 11 19 15 21 16 22 23 23 17 24 22 25
REMARK SMILES IDX 18 26 21 27 19 28 20 29
REMARK H PARENT 4 6 11 20 19 30
ROOT
ATOM      1  N   UNL     1      42.341 129.812  23.474  1.00  0.00    -0.644 NA
ENDROOT
BRANCH   1   2
ATOM      2  C   UNL     1      42.561 128.873  24.570  1.00  0.00    -0.084 C 
ATOM      3  C   UNL     1      41.532 127.747  24.470  1.00  0.00    -0.011 C 
BRANCH   2   4
ATOM      4  C   UNL     1      43.985 128.303  24.502  1.00  0.00     0.140 C 
BRANCH   4   5
ATOM      5  O   UNL     1      44.848 129.227  23.900  1.00  0.00    -0.398 OA
ATOM      6  H   UNL     1      45.714 129.148  24.376  1.00  0.00     0.210 HD
ENDBRANCH   4   5
ENDBRANCH   2   4
ENDBRANCH   1   2
BRANCH   1   7
ATOM      7  C   UNL     1      42.273 131.233  23.638  1.00  0.00     0.117 C 
ATOM      8  O   UNL     1      41.276 131.767  24.192  1.00  0.00    -0.313 OA
BRANCH   7   9
ATOM      9  C   UNL     1      43.410 132.082  23.165  1.00  0.00     0.410 C 
BRANCH   9  10
ATOM     10  N   UNL     1      43.576 131.935  21.719  1.00  0.00    -0.186 N 
ATOM     11  C   UNL     1      42.541 132.276  20.732  1.00  0.00     0.412 C 
ATOM     12  C   UNL     1      44.640 131.472  21.131  1.00  0.00     0.370 C 
ATOM     13  C   UNL     1      43.208 131.914  19.451  1.00  0.00     0.122 A 
ATOM     14  C   UNL     1      44.463 131.437  19.695  1.00  0.00     0.115 A 
ATOM     15  N   UNL     1      42.711 132.005  18.192  1.00  0.00    -0.253 NA
ATOM     16  C   UNL     1      45.290 131.018  18.659  1.00  0.00     0.031 A 
ATOM     17  C   UNL     1      43.482 131.608  17.135  1.00  0.00     0.120 A 
ATOM     18  C   UNL     1      44.793 131.104  17.340  1.00  0.00     0.001 A 
BRANCH  12  19
ATOM     19  O   UNL     1      45.782 131.064  21.817  1.00  0.00    -0.460 OA
ATOM     20  H   UNL     1      46.496 131.730  22.086  1.00  0.00     0.300 HD
ENDBRANCH  12  19
BRANCH  18  21
ATOM     21  C   UNL     1      45.627 130.670  16.189  1.00  0.00    -0.016 A 
ATOM     22  C   UNL     1      45.849 129.287  15.943  1.00  0.00     0.011 A 
ATOM     23  C   UNL     1      46.206 131.631  15.326  1.00  0.00     0.019 A 
ATOM     24  C   UNL     1      46.636 128.866  14.856  1.00  0.00     0.027 A 
ATOM     25  C   UNL     1      46.978 131.176  14.259  1.00  0.00    -0.000 A 
ATOM     26  C   UNL     1      47.186 129.843  14.032  1.00  0.00     0.045 A 
ATOM     27  C   UNL     1      47.647 131.871  13.276  1.00  0.00     0.028 A 
ATOM     28  N   UNL     1      47.958 129.658  12.949  1.00  0.00    -0.361 N 
ATOM     29  C   UNL     1      48.243 130.896  12.483  1.00  0.00     0.083 A 
ATOM     30  H   UNL     1      48.275 128.748  12.546  1.00  0.00     0.166 HD
ENDBRANCH  18  21
ENDBRANCH   9  10
ENDBRANCH   7   9
ENDBRANCH   1   7
TORSDOF 8
ENDMDL
MODEL 3
REMARK VINA RESULT:      -6.4      1.510      1.777
REMARK SMILES C[C@@H](CO)[N-]C(=O)C[N+]1=C(O)c2cc(-c3ccc4[nH]ccc4c3)cnc2C1
REMARK SMILES IDX 5 1 2 2 1 3 3 4 4 5 6 7 7 8 8 9 9 10 27 11 10 12 26 13 12 14
REMARK SMILES IDX 25 15 13 16 24 17 14 18 11 19 15 21 16 22 23 23 17 24 22 25
REMARK SMILES IDX 18 26 21 27 19 28 20 29
REMARK H PARENT 4 6 11 20 19 30
ROOT
ATOM      1  N   UNL     1      42.352 129.625  23.427  1.00  0.00    -0.644 NA
ENDROOT
BRANCH   1   2
ATOM      2  C   UNL     1      42.246 128.468  24.312  1.00  0.00    -0.084 C 
ATOM      3  C   UNL     1      41.083 127.593  23.843  1.00  0.00    -0.011 C 
BRANCH   2   4
ATOM      4  C   UNL     1      43.556 127.669  24.298  1.00  0.00     0.140 C 
BRANCH   4   5
ATOM      5  O   UNL     1      44.010 127.505  22.984  1.00  0.00    -0.398 OA
ATOM      6  H   UNL     1      44.752 128.152  22.865  1.00  0.00     0.210 HD
ENDBRANCH   4   5
ENDBRANCH   2   4
ENDBRANCH   1   2
BRANCH   1   7
ATOM      7  C   UNL     1      42.991 130.854  23.790  1.00  0.00     0.117 C 
ATOM      8  O   UNL     1      43.937 130.864  24.623  1.00  0.00    -0.313 OA
BRANCH   7   9
ATOM      9  C   UNL     1      42.541 132.131  23.155  1.00  0.00     0.410 C 
BRANCH   9  10
ATOM     10  N   UNL     1      42.779 132.085  21.713  1.00  0.00    -0.186 N 
ATOM     11  C   UNL     1      41.765 132.412  20.700  1.00  0.00     0.412 C 
ATOM     12  C   UNL     1      43.898 131.733  21.150  1.00  0.00     0.370 C 
ATOM     13  C   UNL     1      42.512 132.177  19.432  1.00  0.00     0.122 A 
ATOM     14  C   UNL     1      43.786 131.774  19.708  1.00  0.00     0.115 A 
ATOM     15  N   UNL     1      42.064 132.310  18.160  1.00  0.00    -0.253 NA
ATOM     16  C   UNL     1      44.685 131.478  18.690  1.00  0.00     0.031 A 
ATOM     17  C   UNL     1      42.906 132.033  17.118  1.00  0.00     0.120 A 
ATOM     18  C   UNL     1      44.240 131.609  17.355  1.00  0.00     0.001 A 
BRANCH  12  19
ATOM     19  O   UNL     1      45.036 131.364  21.864  1.00  0.00    -0.460 OA
ATOM     20  H   UNL     1      45.675 130.665  21.505  1.00  0.00     0.300 HD
ENDBRANCH  12  19
BRANCH  18  21
ATOM     21  C   UNL     1      45.151 131.306  16.222  1.00  0.00    -0.016 A 
ATOM     22  C   UNL     1      45.158 132.132  15.064  1.00  0.00     0.011 A 
ATOM     23  C   UNL     1      46.024 130.193  16.285  1.00  0.00     0.019 A 
ATOM     24  C   UNL     1      46.017 131.855  13.986  1.00  0.00     0.027 A 
ATOM     25  C   UNL     1      46.861 129.951  15.199  1.00  0.00    -0.000 A 
ATOM     26  C   UNL     1      46.859 130.751  14.090  1.00  0.00     0.045 A 
ATOM     27  C   UNL     1      47.797 128.962  14.992  1.00  0.00     0.028 A 
ATOM     28  N   UNL     1      47.750 130.316  13.185  1.00  0.00    -0.361 N 
ATOM     29  C   UNL     1      48.327 129.221  13.732  1.00  0.00     0.083 A 
ATOM     30  H   UNL     1      47.959 130.733  12.251  1.00  0.00     0.166 HD
ENDBRANCH  18  21
ENDBRANCH   9  10
ENDBRANCH   7   9
ENDBRANCH   1   7
TORSDOF 8
ENDMDL
MODEL 4
REMARK VINA RESULT:      -6.3      0.937      1.134
REMARK SMILES C[C@@H](CO)[N-]C(=O)C[N+]1=C(O)c2cc(-c3ccc4[nH]ccc4c3)cnc2C1
REMARK SMILES IDX 5 1 2 2 1 3 3 4 4 5 6 7 7 8 8 9 9 10 27 11 10 12 26 13 12 14
REMARK SMILES IDX 25 15 13 16 24 17 14 18 11 19 15 21 16 22 23 23 17 24 22 25
REMARK SMILES IDX 18 26 21 27 19 28 20 29
REMARK H PARENT 4 6 11 20 19 30
ROOT
ATOM      1  N   UNL     1      43.010 128.049  24.492  1.00  0.00    -0.644 NA
ENDROOT
BRANCH   1   2
ATOM      2  C   UNL     1      42.206 127.057  23.784  1.00  0.00    -0.084 C 
ATOM      3  C   UNL     1      42.628 125.661  24.243  1.00  0.00    -0.011 C 
BRANCH   2   4
ATOM      4  C   UNL     1      40.714 127.285  24.069  1.00  0.00     0.140 C 
BRANCH   4   5
ATOM      5  O   UNL     1      40.023 126.068  24.031  1.00  0.00    -0.398 OA
ATOM      6  H   UNL     1      39.525 126.006  24.886  1.00  0.00     0.210 HD
ENDBRANCH   4   5
ENDBRANCH   2   4
ENDBRANCH   1   2
BRANCH   1   7
ATOM      7  C   UNL     1      42.831 129.464  24.362  1.00  0.00     0.117 C 
ATOM      8  O   UNL     1      41.703 129.989  24.561  1.00  0.00    -0.313 OA
BRANCH   7   9
ATOM      9  C   UNL     1      44.003 130.323  24.006  1.00  0.00     0.410 C 
BRANCH   9  10
ATOM     10  N   UNL     1      43.955 130.672  22.587  1.00  0.00    -0.186 N 
ATOM     11  C   UNL     1      42.893 131.482  21.973  1.00  0.00     0.412 C 
ATOM     12  C   UNL     1      44.825 130.298  21.694  1.00  0.00     0.370 C 
ATOM     13  C   UNL     1      43.311 131.504  20.544  1.00  0.00     0.122 A 
ATOM     14  C   UNL     1      44.467 130.797  20.383  1.00  0.00     0.115 A 
ATOM     15  N   UNL     1      42.689 132.102  19.498  1.00  0.00    -0.253 NA
ATOM     16  C   UNL     1      45.059 130.655  19.134  1.00  0.00     0.031 A 
ATOM     17  C   UNL     1      43.227 131.997  18.246  1.00  0.00     0.120 A 
ATOM     18  C   UNL     1      44.428 131.270  18.029  1.00  0.00     0.001 A 
BRANCH  12  19
ATOM     19  O   UNL     1      45.940 129.516  21.986  1.00  0.00    -0.460 OA
ATOM     20  H   UNL     1      46.525 129.718  22.788  1.00  0.00     0.300 HD
ENDBRANCH  12  19
BRANCH  18  21
ATOM     21  C   UNL     1      45.009 131.155  16.667  1.00  0.00    -0.016 A 
ATOM     22  C   UNL     1      44.365 131.767  15.556  1.00  0.00     0.011 A 
ATOM     23  C   UNL     1      46.212 130.437  16.462  1.00  0.00     0.019 A 
ATOM     24  C   UNL     1      44.907 131.666  14.263  1.00  0.00     0.027 A 
ATOM     25  C   UNL     1      46.719 130.359  15.167  1.00  0.00    -0.000 A 
ATOM     26  C   UNL     1      46.090 130.951  14.106  1.00  0.00     0.045 A 
ATOM     27  C   UNL     1      47.852 129.742  14.684  1.00  0.00     0.028 A 
ATOM     28  N   UNL     1      46.771 130.737  12.969  1.00  0.00    -0.361 N 
ATOM     29  C   UNL     1      47.850 129.998  13.317  1.00  0.00     0.083 A 
ATOM     30  H   UNL     1      46.523 131.071  12.011  1.00  0.00     0.166 HD
ENDBRANCH  18  21
ENDBRANCH   9  10
ENDBRANCH   7   9
ENDBRANCH   1   7
TORSDOF 8
ENDMDL
MODEL 5
REMARK VINA RESULT:      -6.1      1.496      1.770
REMARK SMILES C[C@@H](CO)[N-]C(=O)C[N+]1=C(O)c2cc(-c3ccc4[nH]ccc4c3)cnc2C1
REMARK SMILES IDX 5 1 2 2 1 3 3 4 4 5 6 7 7 8 8 9 9 10 27 11 10 12 26 13 12 14
REMARK SMILES IDX 25 15 13 16 24 17 14 18 11 19 15 21 16 22 23 23 17 24 22 25
REMARK SMILES IDX 18 26 21 27 19 28 20 29
REMARK H PARENT 4 6 11 20 19 30
ROOT
ATOM      1  N   UNL     1      44.206 126.569  22.990  1.00  0.00    -0.644 NA
ENDROOT
BRANCH   1   2
ATOM      2  C   UNL     1      44.061 125.126  23.157  1.00  0.00    -0.084 C 
ATOM      3  C   UNL     1      45.397 124.454  22.839  1.00  0.00    -0.011 C 
BRANCH   2   4
ATOM      4  C   UNL     1      43.626 124.799  24.592  1.00  0.00     0.140 C 
BRANCH   4   5
ATOM      5  O   UNL     1      42.355 124.213  24.592  1.00  0.00    -0.398 OA
ATOM      6  H   UNL     1      41.837 124.676  23.884  1.00  0.00     0.210 HD
ENDBRANCH   4   5
ENDBRANCH   2   4
ENDBRANCH   1   2
BRANCH   1   7
ATOM      7  C   UNL     1      43.659 127.537  23.891  1.00  0.00     0.117 C 
ATOM      8  O   UNL     1      42.605 127.290  24.536  1.00  0.00    -0.313 OA
BRANCH   7   9
ATOM      9  C   UNL     1      44.360 128.845  24.079  1.00  0.00     0.410 C 
BRANCH   9  10
ATOM     10  N   UNL     1      44.470 129.543  22.799  1.00  0.00    -0.186 N 
ATOM     11  C   UNL     1      43.797 130.813  22.493  1.00  0.00     0.412 C 
ATOM     12  C   UNL     1      45.153 129.123  21.774  1.00  0.00     0.370 C 
ATOM     13  C   UNL     1      44.217 131.051  21.083  1.00  0.00     0.122 A 
ATOM     14  C   UNL     1      45.029 130.039  20.660  1.00  0.00     0.115 A 
ATOM     15  N   UNL     1      43.880 132.083  20.271  1.00  0.00    -0.253 NA
ATOM     16  C   UNL     1      45.547 130.021  19.370  1.00  0.00     0.031 A 
ATOM     17  C   UNL     1      44.362 132.118  18.992  1.00  0.00     0.120 A 
ATOM     18  C   UNL     1      45.209 131.087  18.507  1.00  0.00     0.001 A 
BRANCH  12  19
ATOM     19  O   UNL     1      45.891 127.941  21.772  1.00  0.00    -0.460 OA
ATOM     20  H   UNL     1      46.875 127.940  22.014  1.00  0.00     0.300 HD
ENDBRANCH  12  19
BRANCH  18  21
ATOM     21  C   UNL     1      45.729 131.126  17.116  1.00  0.00    -0.016 A 
ATOM     22  C   UNL     1      45.497 132.262  16.293  1.00  0.00     0.011 A 
ATOM     23  C   UNL     1      46.462 130.032  16.597  1.00  0.00     0.019 A 
ATOM     24  C   UNL     1      45.985 132.310  14.975  1.00  0.00     0.027 A 
ATOM     25  C   UNL     1      46.931 130.115  15.288  1.00  0.00    -0.000 A 
ATOM     26  C   UNL     1      46.701 131.214  14.505  1.00  0.00     0.045 A 
ATOM     27  C   UNL     1      47.662 129.220  14.539  1.00  0.00     0.028 A 
ATOM     28  N   UNL     1      47.253 131.057  13.290  1.00  0.00    -0.361 N 
ATOM     29  C   UNL     1      47.842 129.839  13.306  1.00  0.00     0.083 A 
ATOM     30  H   UNL     1      47.233 131.734  12.495  1.00  0.00     0.166 HD
ENDBRANCH  18  21
ENDBRANCH   9  10
ENDBRANCH   7   9
ENDBRANCH   1   7
TORSDOF 8
ENDMDL
MODEL 6
REMARK VINA RESULT:      -6.0      1.803      2.090
REMARK SMILES C[C@@H](CO)[N-]C(=O)C[N+]1=C(O)c2cc(-c3ccc4[nH]ccc4c3)cnc2C1
REMARK SMILES IDX 5 1 2 2 1 3 3 4 4 5 6 7 7 8 8 9 9 10 27 11 10 12 26 13 12 14
REMARK SMILES IDX 25 15 13 16 24 17 14 18 11 19 15 21 16 22 23 23 17 24 22 25
REMARK SMILES IDX 18 26 21 27 19 28 20 29
REMARK H PARENT 4 6 11 20 19 30
ROOT
ATOM      1  N   UNL     1      43.670 125.816  23.237  1.00  0.00    -0.644 NA
ENDROOT
BRANCH   1   2
ATOM      2  C   UNL     1      42.891 124.744  23.851  1.00  0.00    -0.084 C 
ATOM      3  C   UNL     1      42.098 124.023  22.760  1.00  0.00    -0.011 C 
BRANCH   2   4
ATOM      4  C   UNL     1      43.821 123.760  24.573  1.00  0.00     0.140 C 
BRANCH   4   5
ATOM      5  O   UNL     1      44.483 122.948  23.644  1.00  0.00    -0.398 OA
ATOM      6  H   UNL     1      45.149 123.528  23.195  1.00  0.00     0.210 HD
ENDBRANCH   4   5
ENDBRANCH   2   4
ENDBRANCH   1   2
BRANCH   1   7
ATOM      7  C   UNL     1      44.797 126.442  23.859  1.00  0.00     0.117 C 
ATOM      8  O   UNL     1      45.860 125.796  24.060  1.00  0.00    -0.313 OA
BRANCH   7   9
ATOM      9  C   UNL     1      44.712 127.883  24.253  1.00  0.00     0.410 C 
BRANCH   9  10
ATOM     10  N   UNL     1      44.743 128.730  23.062  1.00  0.00    -0.186 N 
ATOM     11  C   UNL     1      44.045 130.019  22.950  1.00  0.00     0.412 C 
ATOM     12  C   UNL     1      45.368 128.446  21.957  1.00  0.00     0.370 C 
ATOM     13  C   UNL     1      44.381 130.430  21.558  1.00  0.00     0.122 A 
ATOM     14  C   UNL     1      45.174 129.487  20.971  1.00  0.00     0.115 A 
ATOM     15  N   UNL     1      43.992 131.547  20.897  1.00  0.00    -0.253 NA
ATOM     16  C   UNL     1      45.616 129.631  19.661  1.00  0.00     0.031 A 
ATOM     17  C   UNL     1      44.399 131.742  19.606  1.00  0.00     0.120 A 
ATOM     18  C   UNL     1      45.223 130.788  18.953  1.00  0.00     0.001 A 
BRANCH  12  19
ATOM     19  O   UNL     1      46.113 127.283  21.771  1.00  0.00    -0.460 OA
ATOM     20  H   UNL     1      46.839 127.234  21.068  1.00  0.00     0.300 HD
ENDBRANCH  12  19
BRANCH  18  21
ATOM     21  C   UNL     1      45.661 131.000  17.549  1.00  0.00    -0.016 A 
ATOM     22  C   UNL     1      45.471 132.261  16.920  1.00  0.00     0.011 A 
ATOM     23  C   UNL     1      46.273 129.949  16.826  1.00  0.00     0.019 A 
ATOM     24  C   UNL     1      45.884 132.474  15.592  1.00  0.00     0.027 A 
ATOM     25  C   UNL     1      46.669 130.196  15.514  1.00  0.00    -0.000 A 
ATOM     26  C   UNL     1      46.481 131.413  14.918  1.00  0.00     0.045 A 
ATOM     27  C   UNL     1      47.282 129.376  14.592  1.00  0.00     0.028 A 
ATOM     28  N   UNL     1      46.946 131.404  13.658  1.00  0.00    -0.361 N 
ATOM     29  C   UNL     1      47.437 130.160  13.454  1.00  0.00     0.083 A 
ATOM     30  H   UNL     1      46.933 132.193  12.973  1.00  0.00     0.166 HD
ENDBRANCH  18  21
ENDBRANCH   9  10
ENDBRANCH   7   9
ENDBRANCH   1   7
TORSDOF 8
ENDMDL
MODEL 7
REMARK VINA RESULT:      -6.0      1.227      1.471
REMARK SMILES C[C@@H](CO)[N-]C(=O)C[N+]1=C(O)c2cc(-c3ccc4[nH]ccc4c3)cnc2C1
REMARK SMILES IDX 5 1 2 2 1 3 3 4 4 5 6 7 7 8 8 9 9 10 27 11 10 12 26 13 12 14
REMARK SMILES IDX 25 15 13 16 24 17 14 18 11 19 15 21 16 22 23 23 17 24 22 25
REMARK SMILES IDX 18 26 21 27 19 28 20 29
REMARK H PARENT 4 6 11 20 19 30
ROOT
ATOM      1  N   UNL     1      43.820 128.020  24.288  1.00  0.00    -0.644 NA
ENDROOT
BRANCH   1   2
ATOM      2  C   UNL     1      44.082 126.914  23.371  1.00  0.00    -0.084 C 
ATOM      3  C   UNL     1      45.427 127.151  22.683  1.00  0.00    -0.011 C 
BRANCH   2   4
ATOM      4  C   UNL     1      44.100 125.584  24.137  1.00  0.00     0.140 C 
BRANCH   4   5
ATOM      5  O   UNL     1      42.867 124.934  24.006  1.00  0.00    -0.398 OA
ATOM      6  H   UNL     1      43.036 123.978  24.208  1.00  0.00     0.210 HD
ENDBRANCH   4   5
ENDBRANCH   2   4
ENDBRANCH   1   2
BRANCH   1   7
ATOM      7  C   UNL     1      43.233 129.265  23.893  1.00  0.00     0.117 C 
ATOM      8  O   UNL     1      41.985 129.372  23.758  1.00  0.00    -0.313 OA
BRANCH   7   9
ATOM      9  C   UNL     1      44.115 130.451  23.659  1.00  0.00     0.410 C 
BRANCH   9  10
ATOM     10  N   UNL     1      44.138 130.784  22.235  1.00  0.00    -0.186 N 
ATOM     11  C   UNL     1      43.144 131.641  21.573  1.00  0.00     0.412 C 
ATOM     12  C   UNL     1      45.019 130.353  21.380  1.00  0.00     0.370 C 
ATOM     13  C   UNL     1      43.616 131.622  20.160  1.00  0.00     0.122 A 
ATOM     14  C   UNL     1      44.738 130.853  20.051  1.00  0.00     0.115 A 
ATOM     15  N   UNL     1      43.066 132.239  19.085  1.00  0.00    -0.253 NA
ATOM     16  C   UNL     1      45.367 130.664  18.826  1.00  0.00     0.031 A 
ATOM     17  C   UNL     1      43.644 132.089  17.855  1.00  0.00     0.120 A 
ATOM     18  C   UNL     1      44.812 131.298  17.692  1.00  0.00     0.001 A 
BRANCH  12  19
ATOM     19  O   UNL     1      46.080 129.516  21.723  1.00  0.00    -0.460 OA
ATOM     20  H   UNL     1      46.498 128.897  21.040  1.00  0.00     0.300 HD
ENDBRANCH  12  19
BRANCH  18  21
ATOM     21  C   UNL     1      45.436 131.134  16.355  1.00  0.00    -0.016 A 
ATOM     22  C   UNL     1      44.999 131.925  15.256  1.00  0.00     0.011 A 
ATOM     23  C   UNL     1      46.474 130.191  16.161  1.00  0.00     0.019 A 
ATOM     24  C   UNL     1      45.584 131.780  13.985  1.00  0.00     0.027 A 
ATOM     25  C   UNL     1      47.030 130.076  14.889  1.00  0.00    -0.000 A 
ATOM     26  C   UNL     1      46.601 130.842  13.839  1.00  0.00     0.045 A 
ATOM     27  C   UNL     1      48.037 129.261  14.421  1.00  0.00     0.028 A 
ATOM     28  N   UNL     1      47.290 130.549  12.724  1.00  0.00    -0.361 N 
ATOM     29  C   UNL     1      48.169 129.583  13.074  1.00  0.00     0.083 A 
ATOM     30  H   UNL     1      47.173 130.978  11.778  1.00  0.00     0.166 HD
ENDBRANCH  18  21
ENDBRANCH   9  10
ENDBRANCH   7   9
ENDBRANCH   1   7
TORSDOF 8
ENDMDL
MODEL 8
REMARK VINA RESULT:      -5.0      2.608      3.224
REMARK SMILES C[C@@H](CO)[N-]C(=O)C[N+]1=C(O)c2cc(-c3ccc4[nH]ccc4c3)cnc2C1
REMARK SMILES IDX 5 1 2 2 1 3 3 4 4 5 6 7 7 8 8 9 9 10 27 11 10 12 26 13 12 14
REMARK SMILES IDX 25 15 13 16 24 17 14 18 11 19 15 21 16 22 23 23 17 24 22 25
REMARK SMILES IDX 18 26 21 27 19 28 20 29
REMARK H PARENT 4 6 11 20 19 30
ROOT
ATOM      1  N   UNL     1      45.337 124.644  24.193  1.00  0.00    -0.644 NA
ENDROOT
BRANCH   1   2
ATOM      2  C   UNL     1      46.280 124.320  23.127  1.00  0.00    -0.084 C 
ATOM      3  C   UNL     1      47.698 124.339  23.698  1.00  0.00    -0.011 C 
BRANCH   2   4
ATOM      4  C   UNL     1      45.959 122.939  22.538  1.00  0.00     0.140 C 
BRANCH   4   5
ATOM      5  O   UNL     1      46.543 122.804  21.273  1.00  0.00    -0.398 OA
ATOM      6  H   UNL     1      45.971 122.170  20.770  1.00  0.00     0.210 HD
ENDBRANCH   4   5
ENDBRANCH   2   4
ENDBRANCH   1   2
BRANCH   1   7
ATOM      7  C   UNL     1      44.545 125.836  24.227  1.00  0.00     0.117 C 
ATOM      8  O   UNL     1      43.319 125.801  23.942  1.00  0.00    -0.313 OA
BRANCH   7   9
ATOM      9  C   UNL     1      45.183 127.130  24.625  1.00  0.00     0.410 C 
BRANCH   9  10
ATOM     10  N   UNL     1      45.113 128.084  23.519  1.00  0.00    -0.186 N 
ATOM     11  C   UNL     1      44.572 129.446  23.639  1.00  0.00     0.412 C 
ATOM     12  C   UNL     1      45.496 127.845  22.299  1.00  0.00     0.370 C 
ATOM     13  C   UNL     1      44.711 129.954  22.245  1.00  0.00     0.122 A 
ATOM     14  C   UNL     1      45.266 128.994  21.450  1.00  0.00     0.115 A 
ATOM     15  N   UNL     1      44.356 131.168  21.757  1.00  0.00    -0.253 NA
ATOM     16  C   UNL     1      45.489 129.219  20.097  1.00  0.00     0.031 A 
ATOM     17  C   UNL     1      44.554 131.445  20.433  1.00  0.00     0.120 A 
ATOM     18  C   UNL     1      45.127 130.477  19.566  1.00  0.00     0.001 A 
BRANCH  12  19
ATOM     19  O   UNL     1      46.047 126.632  21.888  1.00  0.00    -0.460 OA
ATOM     20  H   UNL     1      46.549 126.556  21.013  1.00  0.00     0.300 HD
ENDBRANCH  12  19
BRANCH  18  21
ATOM     21  C   UNL     1      45.338 130.779  18.127  1.00  0.00    -0.016 A 
ATOM     22  C   UNL     1      44.625 131.840  17.503  1.00  0.00     0.011 A 
ATOM     23  C   UNL     1      46.253 130.015  17.364  1.00  0.00     0.019 A 
ATOM     24  C   UNL     1      44.819 132.136  16.142  1.00  0.00     0.027 A 
ATOM     25  C   UNL     1      46.419 130.337  16.019  1.00  0.00    -0.000 A 
ATOM     26  C   UNL     1      45.728 131.360  15.429  1.00  0.00     0.045 A 
ATOM     27  C   UNL     1      47.229 129.777  15.056  1.00  0.00     0.028 A 
ATOM     28  N   UNL     1      46.060 131.474  14.133  1.00  0.00    -0.361 N 
ATOM     29  C   UNL     1      46.979 130.509  13.900  1.00  0.00     0.083 A 
ATOM     30  H   UNL     1      45.689 132.166  13.443  1.00  0.00     0.166 HD
ENDBRANCH  18  21
ENDBRANCH   9  10
ENDBRANCH   7   9
ENDBRANCH   1   7
TORSDOF 8
ENDMDL
MODEL 9
REMARK VINA RESULT:      -5.0      1.438      1.787
REMARK SMILES C[C@@H](CO)[N-]C(=O)C[N+]1=C(O)c2cc(-c3ccc4[nH]ccc4c3)cnc2C1
REMARK SMILES IDX 5 1 2 2 1 3 3 4 4 5 6 7 7 8 8 9 9 10 27 11 10 12 26 13 12 14
REMARK SMILES IDX 25 15 13 16 24 17 14 18 11 19 15 21 16 22 23 23 17 24 22 25
REMARK SMILES IDX 18 26 21 27 19 28 20 29
REMARK H PARENT 4 6 11 20 19 30
ROOT
ATOM      1  N   UNL     1      42.248 129.243  22.722  1.00  0.00    -0.644 NA
ENDROOT
BRANCH   1   2
ATOM      2  C   UNL     1      41.687 128.354  23.736  1.00  0.00    -0.084 C 
ATOM      3  C   UNL     1      40.737 129.156  24.624  1.00  0.00    -0.011 C 
BRANCH   2   4
ATOM      4  C   UNL     1      40.941 127.192  23.066  1.00  0.00     0.140 C 
BRANCH   4   5
ATOM      5  O   UNL     1      39.627 127.122  23.543  1.00  0.00    -0.398 OA
ATOM      6  H   UNL     1      39.623 126.419  24.242  1.00  0.00     0.210 HD
ENDBRANCH   4   5
ENDBRANCH   2   4
ENDBRANCH   1   2
BRANCH   1   7
ATOM      7  C   UNL     1      43.138 130.327  23.011  1.00  0.00     0.117 C 
ATOM      8  O   UNL     1      44.149 130.149  23.742  1.00  0.00    -0.313 OA
BRANCH   7   9
ATOM      9  C   UNL     1      42.870 131.675  22.421  1.00  0.00     0.410 C 
BRANCH   9  10
ATOM     10  N   UNL     1      43.193 131.670  20.995  1.00  0.00    -0.186 N 
ATOM     11  C   UNL     1      42.219 131.950  19.929  1.00  0.00     0.412 C 
ATOM     12  C   UNL     1      44.363 131.402  20.493  1.00  0.00     0.370 C 
ATOM     13  C   UNL     1      43.051 131.787  18.704  1.00  0.00     0.122 A 
ATOM     14  C   UNL     1      44.332 131.463  19.047  1.00  0.00     0.115 A 
ATOM     15  N   UNL     1      42.670 131.913  17.409  1.00  0.00    -0.253 NA
ATOM     16  C   UNL     1      45.305 131.243  18.080  1.00  0.00     0.031 A 
ATOM     17  C   UNL     1      43.586 131.711  16.415  1.00  0.00     0.120 A 
ATOM     18  C   UNL     1      44.930 131.370  16.724  1.00  0.00     0.001 A 
BRANCH  12  19
ATOM     19  O   UNL     1      45.480 131.095  21.267  1.00  0.00    -0.460 OA
ATOM     20  H   UNL     1      46.218 130.503  20.908  1.00  0.00     0.300 HD
ENDBRANCH  12  19
BRANCH  18  21
ATOM     21  C   UNL     1      45.923 131.147  15.642  1.00  0.00    -0.016 A 
ATOM     22  C   UNL     1      46.255 132.199  14.743  1.00  0.00     0.011 A 
ATOM     23  C   UNL     1      46.548 129.886  15.495  1.00  0.00     0.019 A 
ATOM     24  C   UNL     1      47.195 132.000  13.716  1.00  0.00     0.027 A 
ATOM     25  C   UNL     1      47.474 129.727  14.467  1.00  0.00    -0.000 A 
ATOM     26  C   UNL     1      47.786 130.745  13.608  1.00  0.00     0.045 A 
ATOM     27  C   UNL     1      48.225 128.632  14.099  1.00  0.00     0.028 A 
ATOM     28  N   UNL     1      48.702 130.348  12.709  1.00  0.00    -0.361 N 
ATOM     29  C   UNL     1      48.974 129.056  13.005  1.00  0.00     0.083 A 
ATOM     30  H   UNL     1      49.120 130.916  11.939  1.00  0.00     0.166 HD
ENDBRANCH  18  21
ENDBRANCH   9  10
ENDBRANCH   7   9
ENDBRANCH   1   7
TORSDOF 8
ENDMDL


