REMARK SMILES C=Cc1cccc(-c2ccc3ccnc(O)c3c2)c1
REMARK SMILES IDX 8 1 9 2 10 3 11 4 12 5 13 6 14 7 15 8 17 9 18 10 7 11 3 12
REMARK SMILES IDX 4 13 19 14 5 15 6 16 2 17 1 18 16 19
REMARK H PARENT 16 20
ROOT
ATOM      1  C   UNL     1      -0.515  -0.330   0.069  1.00  0.00    -0.018 A 
ATOM      2  C   UNL     1      -0.625  -1.306   1.075  1.00  0.00     0.009 A 
ATOM      3  C   UNL     1       0.208  -1.273   2.195  1.00  0.00     0.009 A 
ATOM      4  C   UNL     1       1.168  -0.261   2.331  1.00  0.00    -0.011 A 
ATOM      5  C   UNL     1       2.007  -0.220   3.451  1.00  0.00     0.029 A 
ATOM      6  C   UNL     1       2.953   0.800   3.562  1.00  0.00     0.116 A 
ATOM      7  N   UNL     1       3.057   1.744   2.591  1.00  0.00    -0.222 NA
ATOM      8  C   UNL     1       2.260   1.738   1.488  1.00  0.00     0.218 A 
ATOM      9  C   UNL     1       1.291   0.729   1.329  1.00  0.00     0.044 A 
ATOM     10  C   UNL     1       0.448   0.687   0.205  1.00  0.00     0.023 A 
ENDROOT
BRANCH   1  11
ATOM     11  C   UNL     1      -1.403  -0.372  -1.120  1.00  0.00    -0.018 A 
ATOM     12  C   UNL     1      -1.725  -0.137  -3.536  1.00  0.00    -0.026 A 
ATOM     13  C   UNL     1      -3.087  -0.457  -3.370  1.00  0.00     0.008 A 
ATOM     14  C   UNL     1      -0.891  -0.109  -2.405  1.00  0.00     0.016 A 
ATOM     15  C   UNL     1      -3.600  -0.720  -2.099  1.00  0.00     0.001 A 
ATOM     16  C   UNL     1      -2.768  -0.676  -0.980  1.00  0.00     0.009 A 
BRANCH  12  17
ATOM     17  C   UNL     1      -1.125   0.138  -4.865  1.00  0.00     0.000 C 
ATOM     18  C   UNL     1      -1.826   0.457  -5.954  1.00  0.00     0.009 C 
ENDBRANCH  12  17
ENDBRANCH   1  11
BRANCH   8  19
ATOM     19  O   UNL     1       2.415   2.733   0.526  1.00  0.00    -0.493 OA
ATOM     20  H   UNL     1       3.112   3.461   0.637  1.00  0.00     0.295 HD
ENDBRANCH   8  19
TORSDOF 3


