REMARK SMILES COCCN/C(S)=[N+]1\CC[C@H](C)[C@@H](F)[C@@H]1c1ccc(C(C)=O)cc1
REMARK SMILES IDX 6 1 5 2 7 4 8 6 9 7 15 8 10 9 13 10 11 11 14 12 12 13 16 14
REMARK SMILES IDX 17 15 24 16 18 17 23 18 19 19 20 20 22 21 21 22 4 23 3 24
REMARK SMILES IDX 2 25 1 26
REMARK H PARENT 5 3 7 5
ROOT
ATOM      1  C   UNL     1       1.705  -0.716   0.774  1.00  0.00     0.303 C 
ATOM      2  N   UNL     1       2.450  -1.649  -0.034  1.00  0.00    -0.267 N 
ATOM      3  H   UNL     1       2.769  -2.560   0.364  1.00  0.00     0.305 HD
ENDROOT
BRANCH   1   4
ATOM      4  S   UNL     1       2.113   1.038   0.581  1.00  0.00    -0.056 SA
ATOM      5  H   UNL     1       3.080   0.976   1.602  1.00  0.00     0.116 HD
ENDBRANCH   1   4
BRANCH   1   6
ATOM      6  N   UNL     1       0.757  -1.130   1.603  1.00  0.00    -0.247 N 
ATOM      7  C   UNL     1       0.569  -2.593   1.769  1.00  0.00     0.238 C 
ATOM      8  C   UNL     1      -0.080  -0.124   2.328  1.00  0.00     0.241 C 
ATOM      9  C   UNL     1      -0.561  -2.992   2.712  1.00  0.00     0.052 C 
ATOM     10  C   UNL     1      -1.004  -0.688   3.444  1.00  0.00     0.219 C 
ATOM     11  C   UNL     1      -0.580  -2.072   3.927  1.00  0.00     0.029 C 
ATOM     12  F   UNL     1      -1.016   0.194   4.515  1.00  0.00    -0.242 F 
ATOM     13  C   UNL     1      -1.547  -2.608   4.991  1.00  0.00     0.011 C 
BRANCH   8  14
ATOM     14  C   UNL     1      -0.930   0.669   1.348  1.00  0.00    -0.001 A 
ATOM     15  C   UNL     1      -1.105   2.050   1.520  1.00  0.00     0.009 A 
ATOM     16  C   UNL     1      -1.590   0.025   0.288  1.00  0.00     0.009 A 
ATOM     17  C   UNL     1      -1.890   2.782   0.626  1.00  0.00     0.012 A 
ATOM     18  C   UNL     1      -2.373   0.756  -0.610  1.00  0.00     0.012 A 
ATOM     19  C   UNL     1      -2.529   2.147  -0.456  1.00  0.00     0.017 A 
BRANCH  19  20
ATOM     20  C   UNL     1      -3.353   2.942  -1.405  1.00  0.00     0.159 C 
ATOM     21  O   UNL     1      -3.499   4.182  -1.222  1.00  0.00    -0.295 OA
ATOM     22  C   UNL     1      -4.026   2.314  -2.589  1.00  0.00     0.093 C 
ENDBRANCH  19  20
ENDBRANCH   8  14
ENDBRANCH   1   6
BRANCH   2  23
ATOM     23  C   UNL     1       2.753  -1.385  -1.440  1.00  0.00     0.262 C 
BRANCH  23  24
ATOM     24  C   UNL     1       1.466  -1.292  -2.259  1.00  0.00     0.205 C 
BRANCH  24  25
ATOM     25  O   UNL     1       1.793  -1.087  -3.616  1.00  0.00    -0.381 OA
ATOM     26  C   UNL     1       0.606  -0.979  -4.370  1.00  0.00     0.195 C 
ENDBRANCH  24  25
ENDBRANCH  23  24
ENDBRANCH   2  23
TORSDOF 7


