REMARK SMILES C=Cc1cccc(-c2ccc3cc[nH]c(=O)c3c2)c1
REMARK SMILES IDX 3 1 4 2 5 3 6 4 7 5 19 6 2 7 1 8 8 9 9 10 18 11 10 12 17 13
REMARK SMILES IDX 11 14 15 15 12 16 14 17 13 18 16 19
REMARK H PARENT 14 20
ROOT
ATOM      1  C   UNL     1       3.292  -0.996   2.100  1.00  0.00    -0.026 A 
ATOM      2  C   UNL     1       4.387  -0.120   2.234  1.00  0.00     0.008 A 
ATOM      3  C   UNL     1       4.401   1.101   1.557  1.00  0.00     0.001 A 
ATOM      4  C   UNL     1       3.327   1.469   0.745  1.00  0.00     0.009 A 
ATOM      5  C   UNL     1       2.219   0.617   0.604  1.00  0.00    -0.018 A 
ATOM      6  C   UNL     1       2.210  -0.611   1.290  1.00  0.00     0.016 A 
ENDROOT
BRANCH   1   7
ATOM      7  C   UNL     1       3.220  -2.299   2.807  1.00  0.00     0.000 C 
ATOM      8  C   UNL     1       4.272  -2.927   3.334  1.00  0.00     0.009 C 
ENDBRANCH   1   7
BRANCH   5   9
ATOM      9  C   UNL     1       1.073   1.009  -0.257  1.00  0.00    -0.018 A 
ATOM     10  C   UNL     1       0.589   2.329  -0.238  1.00  0.00     0.009 A 
ATOM     11  C   UNL     1       0.459   0.066  -1.101  1.00  0.00     0.023 A 
ATOM     12  C   UNL     1      -0.489   2.703  -1.043  1.00  0.00     0.009 A 
ATOM     13  C   UNL     1      -0.628   0.433  -1.916  1.00  0.00     0.048 A 
ATOM     14  C   UNL     1      -1.103   1.764  -1.884  1.00  0.00    -0.011 A 
ATOM     15  C   UNL     1      -1.261  -0.492  -2.772  1.00  0.00     0.255 A 
ATOM     16  C   UNL     1      -2.183   2.134  -2.693  1.00  0.00     0.027 A 
ATOM     17  N   UNL     1      -2.310  -0.096  -3.547  1.00  0.00    -0.329 N 
ATOM     18  C   UNL     1      -2.776   1.182  -3.523  1.00  0.00     0.086 A 
ATOM     19  O   UNL     1      -0.866  -1.688  -2.830  1.00  0.00    -0.269 OA
ATOM     20  H   UNL     1      -2.774  -0.787  -4.179  1.00  0.00     0.169 HD
ENDBRANCH   5   9
TORSDOF 2


