MODEL 1
REMARK VINA RESULT:      -9.9      0.000      0.000
REMARK SMILES Cn1cc2ccc(-c3ccc4[nH]ccc4c3)cc2n1
REMARK SMILES IDX 1 1 2 2 3 3 4 4 5 5 6 6 7 7 17 8 18 9 19 10 8 11 9 12 16 13
REMARK SMILES IDX 10 14 15 15 11 16 14 17 12 18 13 19
REMARK H PARENT 12 20
ROOT
ATOM      1  C   UNL     1      48.459 129.475  13.350  1.00  0.00     0.173 C 
ATOM      2  N   UNL     1      47.343 129.965  14.147  1.00  0.00    -0.275 N 
ATOM      3  C   UNL     1      46.267 130.630  13.666  1.00  0.00     0.117 A 
ATOM      4  C   UNL     1      45.490 130.971  14.747  1.00  0.00     0.020 A 
ATOM      5  C   UNL     1      44.283 131.652  14.848  1.00  0.00     0.012 A 
ATOM      6  C   UNL     1      43.749 131.843  16.136  1.00  0.00     0.009 A 
ATOM      7  C   UNL     1      44.428 131.354  17.288  1.00  0.00    -0.016 A 
ATOM      8  C   UNL     1      45.658 130.667  17.132  1.00  0.00     0.039 A 
ATOM      9  C   UNL     1      46.153 130.496  15.843  1.00  0.00     0.093 A 
ATOM     10  N   UNL     1      47.294 129.886  15.473  1.00  0.00    -0.173 NA
ENDROOT
BRANCH   7  11
ATOM     11  C   UNL     1      43.853 131.561  18.642  1.00  0.00    -0.018 A 
ATOM     12  C   UNL     1      42.577 132.171  18.795  1.00  0.00     0.011 A 
ATOM     13  C   UNL     1      44.570 131.153  19.792  1.00  0.00     0.019 A 
ATOM     14  C   UNL     1      42.024 132.372  20.071  1.00  0.00     0.027 A 
ATOM     15  C   UNL     1      43.989 131.369  21.040  1.00  0.00    -0.000 A 
ATOM     16  C   UNL     1      42.762 131.957  21.176  1.00  0.00     0.045 A 
ATOM     17  C   UNL     1      44.453 131.084  22.305  1.00  0.00     0.028 A 
ATOM     18  N   UNL     1      42.422 132.057  22.471  1.00  0.00    -0.361 N 
ATOM     19  C   UNL     1      43.452 131.525  23.166  1.00  0.00     0.083 A 
ATOM     20  H   UNL     1      41.544 132.463  22.864  1.00  0.00     0.166 HD
ENDBRANCH   7  11
TORSDOF 1
ENDMDL
MODEL 2
REMARK VINA RESULT:      -9.6      1.083      6.947
REMARK SMILES Cn1cc2ccc(-c3ccc4[nH]ccc4c3)cc2n1
REMARK SMILES IDX 1 1 2 2 3 3 4 4 5 5 6 6 7 7 17 8 18 9 19 10 8 11 9 12 16 13
REMARK SMILES IDX 10 14 15 15 11 16 14 17 12 18 13 19
REMARK H PARENT 12 20
ROOT
ATOM      1  C   UNL     1      43.967 131.592  23.858  1.00  0.00     0.173 C 
ATOM      2  N   UNL     1      43.856 131.641  22.407  1.00  0.00    -0.275 N 
ATOM      3  C   UNL     1      42.719 131.883  21.714  1.00  0.00     0.117 A 
ATOM      4  C   UNL     1      43.031 131.772  20.380  1.00  0.00     0.020 A 
ATOM      5  C   UNL     1      42.266 131.916  19.229  1.00  0.00     0.012 A 
ATOM      6  C   UNL     1      42.907 131.724  17.992  1.00  0.00     0.009 A 
ATOM      7  C   UNL     1      44.290 131.390  17.930  1.00  0.00    -0.016 A 
ATOM      8  C   UNL     1      45.026 131.251  19.133  1.00  0.00     0.039 A 
ATOM      9  C   UNL     1      44.359 131.452  20.337  1.00  0.00     0.093 A 
ATOM     10  N   UNL     1      44.861 131.365  21.582  1.00  0.00    -0.173 NA
ENDROOT
BRANCH   7  11
ATOM     11  C   UNL     1      44.955 131.190  16.617  1.00  0.00    -0.018 A 
ATOM     12  C   UNL     1      44.399 131.756  15.436  1.00  0.00     0.011 A 
ATOM     13  C   UNL     1      46.148 130.435  16.530  1.00  0.00     0.019 A 
ATOM     14  C   UNL     1      45.020 131.572  14.189  1.00  0.00     0.027 A 
ATOM     15  C   UNL     1      46.735 130.275  15.276  1.00  0.00    -0.000 A 
ATOM     16  C   UNL     1      46.191 130.822  14.147  1.00  0.00     0.045 A 
ATOM     17  C   UNL     1      47.874 129.598  14.900  1.00  0.00     0.028 A 
ATOM     18  N   UNL     1      46.935 130.527  13.068  1.00  0.00    -0.361 N 
ATOM     19  C   UNL     1      47.965 129.778  13.523  1.00  0.00     0.083 A 
ATOM     20  H   UNL     1      46.757 130.813  12.080  1.00  0.00     0.166 HD
ENDBRANCH   7  11
TORSDOF 1
ENDMDL
MODEL 3
REMARK VINA RESULT:      -9.1      1.300      7.242
REMARK SMILES Cn1cc2ccc(-c3ccc4[nH]ccc4c3)cc2n1
REMARK SMILES IDX 1 1 2 2 3 3 4 4 5 5 6 6 7 7 17 8 18 9 19 10 8 11 9 12 16 13
REMARK SMILES IDX 10 14 15 15 11 16 14 17 12 18 13 19
REMARK H PARENT 12 20
ROOT
ATOM      1  C   UNL     1      41.814 132.100  23.428  1.00  0.00     0.173 C 
ATOM      2  N   UNL     1      42.746 131.672  22.395  1.00  0.00    -0.275 N 
ATOM      3  C   UNL     1      43.828 130.883  22.591  1.00  0.00     0.117 A 
ATOM      4  C   UNL     1      44.473 130.779  21.382  1.00  0.00     0.020 A 
ATOM      5  C   UNL     1      45.623 130.102  20.995  1.00  0.00     0.012 A 
ATOM      6  C   UNL     1      46.023 130.212  19.650  1.00  0.00     0.009 A 
ATOM      7  C   UNL     1      45.272 130.993  18.726  1.00  0.00    -0.016 A 
ATOM      8  C   UNL     1      44.107 131.667  19.171  1.00  0.00     0.039 A 
ATOM      9  C   UNL     1      43.742 131.532  20.507  1.00  0.00     0.093 A 
ATOM     10  N   UNL     1      42.687 132.086  21.132  1.00  0.00    -0.173 NA
ENDROOT
BRANCH   7  11
ATOM     11  C   UNL     1      45.704 131.100  17.310  1.00  0.00    -0.018 A 
ATOM     12  C   UNL     1      45.383 132.256  16.546  1.00  0.00     0.011 A 
ATOM     13  C   UNL     1      46.441 130.052  16.707  1.00  0.00     0.019 A 
ATOM     14  C   UNL     1      45.787 132.367  15.204  1.00  0.00     0.027 A 
ATOM     15  C   UNL     1      46.823 130.199  15.376  1.00  0.00    -0.000 A 
ATOM     16  C   UNL     1      46.508 131.314  14.650  1.00  0.00     0.045 A 
ATOM     17  C   UNL     1      47.529 129.353  14.548  1.00  0.00     0.028 A 
ATOM     18  N   UNL     1      46.983 131.218  13.397  1.00  0.00    -0.361 N 
ATOM     19  C   UNL     1      47.608 130.021  13.330  1.00  0.00     0.083 A 
ATOM     20  H   UNL     1      46.890 131.920  12.631  1.00  0.00     0.166 HD
ENDBRANCH   7  11
TORSDOF 1
ENDMDL
MODEL 4
REMARK VINA RESULT:      -9.0      1.227      7.105
REMARK SMILES Cn1cc2ccc(-c3ccc4[nH]ccc4c3)cc2n1
REMARK SMILES IDX 1 1 2 2 3 3 4 4 5 5 6 6 7 7 17 8 18 9 19 10 8 11 9 12 16 13
REMARK SMILES IDX 10 14 15 15 11 16 14 17 12 18 13 19
REMARK H PARENT 12 20
ROOT
ATOM      1  C   UNL     1      43.480 131.744  23.654  1.00  0.00     0.173 C 
ATOM      2  N   UNL     1      43.571 131.720  22.201  1.00  0.00    -0.275 N 
ATOM      3  C   UNL     1      42.601 132.124  21.347  1.00  0.00     0.117 A 
ATOM      4  C   UNL     1      43.056 131.873  20.075  1.00  0.00     0.020 A 
ATOM      5  C   UNL     1      42.489 132.083  18.824  1.00  0.00     0.012 A 
ATOM      6  C   UNL     1      43.237 131.697  17.696  1.00  0.00     0.009 A 
ATOM      7  C   UNL     1      44.526 131.110  17.841  1.00  0.00    -0.016 A 
ATOM      8  C   UNL     1      45.060 130.914  19.139  1.00  0.00     0.039 A 
ATOM      9  C   UNL     1      44.292 131.310  20.230  1.00  0.00     0.093 A 
ATOM     10  N   UNL     1      44.603 131.211  21.535  1.00  0.00    -0.173 NA
ENDROOT
BRANCH   7  11
ATOM     11  C   UNL     1      45.305 130.707  16.643  1.00  0.00    -0.018 A 
ATOM     12  C   UNL     1      45.421 129.335  16.288  1.00  0.00     0.011 A 
ATOM     13  C   UNL     1      45.940 131.687  15.842  1.00  0.00     0.019 A 
ATOM     14  C   UNL     1      46.157 128.943  15.156  1.00  0.00     0.027 A 
ATOM     15  C   UNL     1      46.660 131.260  14.728  1.00  0.00    -0.000 A 
ATOM     16  C   UNL     1      46.766 129.937  14.397  1.00  0.00     0.045 A 
ATOM     17  C   UNL     1      47.370 131.978  13.791  1.00  0.00     0.028 A 
ATOM     18  N   UNL     1      47.509 129.781  13.289  1.00  0.00    -0.361 N 
ATOM     19  C   UNL     1      47.881 131.026  12.915  1.00  0.00     0.083 A 
ATOM     20  H   UNL     1      47.753 128.884  12.813  1.00  0.00     0.166 HD
ENDBRANCH   7  11
TORSDOF 1
ENDMDL
MODEL 5
REMARK VINA RESULT:      -8.7      0.875      1.632
REMARK SMILES Cn1cc2ccc(-c3ccc4[nH]ccc4c3)cc2n1
REMARK SMILES IDX 1 1 2 2 3 3 4 4 5 5 6 6 7 7 17 8 18 9 19 10 8 11 9 12 16 13
REMARK SMILES IDX 10 14 15 15 11 16 14 17 12 18 13 19
REMARK H PARENT 12 20
ROOT
ATOM      1  C   UNL     1      48.627 129.470  12.775  1.00  0.00     0.173 C 
ATOM      2  N   UNL     1      47.662 129.925  13.765  1.00  0.00    -0.275 N 
ATOM      3  C   UNL     1      46.625 130.762  13.524  1.00  0.00     0.117 A 
ATOM      4  C   UNL     1      46.007 130.992  14.729  1.00  0.00     0.020 A 
ATOM      5  C   UNL     1      44.903 131.761  15.078  1.00  0.00     0.012 A 
ATOM      6  C   UNL     1      44.528 131.785  16.434  1.00  0.00     0.009 A 
ATOM      7  C   UNL     1      45.262 131.049  17.408  1.00  0.00    -0.016 A 
ATOM      8  C   UNL     1      46.382 130.283  17.002  1.00  0.00     0.039 A 
ATOM      9  C   UNL     1      46.720 130.281  15.652  1.00  0.00     0.093 A 
ATOM     10  N   UNL     1      47.740 129.633  15.060  1.00  0.00    -0.173 NA
ENDROOT
BRANCH   7  11
ATOM     11  C   UNL     1      44.855 131.084  18.836  1.00  0.00    -0.018 A 
ATOM     12  C   UNL     1      45.634 130.415  19.821  1.00  0.00     0.011 A 
ATOM     13  C   UNL     1      43.689 131.782  19.230  1.00  0.00     0.019 A 
ATOM     14  C   UNL     1      45.258 130.441  21.175  1.00  0.00     0.027 A 
ATOM     15  C   UNL     1      43.349 131.785  20.581  1.00  0.00    -0.000 A 
ATOM     16  C   UNL     1      44.104 131.138  21.520  1.00  0.00     0.045 A 
ATOM     17  C   UNL     1      42.286 132.367  21.236  1.00  0.00     0.028 A 
ATOM     18  N   UNL     1      43.572 131.285  22.744  1.00  0.00    -0.361 N 
ATOM     19  C   UNL     1      42.460 132.035  22.576  1.00  0.00     0.083 A 
ATOM     20  H   UNL     1      43.937 130.899  23.642  1.00  0.00     0.166 HD
ENDBRANCH   7  11
TORSDOF 1
ENDMDL
MODEL 6
REMARK VINA RESULT:      -8.2      1.883      7.000
REMARK SMILES Cn1cc2ccc(-c3ccc4[nH]ccc4c3)cc2n1
REMARK SMILES IDX 1 1 2 2 3 3 4 4 5 5 6 6 7 7 17 8 18 9 19 10 8 11 9 12 16 13
REMARK SMILES IDX 10 14 15 15 11 16 14 17 12 18 13 19
REMARK H PARENT 12 20
ROOT
ATOM      1  C   UNL     1      44.741 128.458  24.097  1.00  0.00     0.173 C 
ATOM      2  N   UNL     1      44.776 129.237  22.868  1.00  0.00    -0.275 N 
ATOM      3  C   UNL     1      44.069 130.368  22.634  1.00  0.00     0.117 A 
ATOM      4  C   UNL     1      44.333 130.745  21.339  1.00  0.00     0.020 A 
ATOM      5  C   UNL     1      43.890 131.816  20.573  1.00  0.00     0.012 A 
ATOM      6  C   UNL     1      44.358 131.908  19.249  1.00  0.00     0.009 A 
ATOM      7  C   UNL     1      45.250 130.932  18.720  1.00  0.00    -0.016 A 
ATOM      8  C   UNL     1      45.671 129.857  19.542  1.00  0.00     0.039 A 
ATOM      9  C   UNL     1      45.189 129.802  20.846  1.00  0.00     0.093 A 
ATOM     10  N   UNL     1      45.454 128.873  21.783  1.00  0.00    -0.173 NA
ENDROOT
BRANCH   7  11
ATOM     11  C   UNL     1      45.737 131.041  17.322  1.00  0.00    -0.018 A 
ATOM     12  C   UNL     1      45.471 132.210  16.556  1.00  0.00     0.011 A 
ATOM     13  C   UNL     1      46.471 129.981  16.737  1.00  0.00     0.019 A 
ATOM     14  C   UNL     1      45.926 132.323  15.231  1.00  0.00     0.027 A 
ATOM     15  C   UNL     1      46.906 130.130  15.422  1.00  0.00    -0.000 A 
ATOM     16  C   UNL     1      46.643 131.258  14.695  1.00  0.00     0.045 A 
ATOM     17  C   UNL     1      47.622 129.275  14.614  1.00  0.00     0.028 A 
ATOM     18  N   UNL     1      47.162 131.161  13.460  1.00  0.00    -0.361 N 
ATOM     19  C   UNL     1      47.762 129.950  13.405  1.00  0.00     0.083 A 
ATOM     20  H   UNL     1      47.113 131.871  12.697  1.00  0.00     0.166 HD
ENDBRANCH   7  11
TORSDOF 1
ENDMDL
MODEL 7
REMARK VINA RESULT:      -7.8      1.119      1.974
REMARK SMILES Cn1cc2ccc(-c3ccc4[nH]ccc4c3)cc2n1
REMARK SMILES IDX 1 1 2 2 3 3 4 4 5 5 6 6 7 7 17 8 18 9 19 10 8 11 9 12 16 13
REMARK SMILES IDX 10 14 15 15 11 16 14 17 12 18 13 19
REMARK H PARENT 12 20
ROOT
ATOM      1  C   UNL     1      47.306 130.617  13.258  1.00  0.00     0.173 C 
ATOM      2  N   UNL     1      46.439 130.769  14.417  1.00  0.00    -0.275 N 
ATOM      3  C   UNL     1      45.186 131.282  14.400  1.00  0.00     0.117 A 
ATOM      4  C   UNL     1      44.746 131.313  15.701  1.00  0.00     0.020 A 
ATOM      5  C   UNL     1      43.551 131.733  16.271  1.00  0.00     0.012 A 
ATOM      6  C   UNL     1      43.425 131.634  17.669  1.00  0.00     0.009 A 
ATOM      7  C   UNL     1      44.490 131.123  18.464  1.00  0.00    -0.016 A 
ATOM      8  C   UNL     1      45.691 130.709  17.835  1.00  0.00     0.039 A 
ATOM      9  C   UNL     1      45.777 130.820  16.451  1.00  0.00     0.093 A 
ATOM     10  N   UNL     1      46.817 130.494  15.662  1.00  0.00    -0.173 NA
ENDROOT
BRANCH   7  11
ATOM     11  C   UNL     1      44.344 131.023  19.938  1.00  0.00    -0.018 A 
ATOM     12  C   UNL     1      45.212 130.186  20.692  1.00  0.00     0.011 A 
ATOM     13  C   UNL     1      43.338 131.761  20.607  1.00  0.00     0.019 A 
ATOM     14  C   UNL     1      45.082 130.083  22.088  1.00  0.00     0.027 A 
ATOM     15  C   UNL     1      43.240 131.634  21.991  1.00  0.00    -0.000 A 
ATOM     16  C   UNL     1      44.080 130.825  22.706  1.00  0.00     0.045 A 
ATOM     17  C   UNL     1      42.370 132.218  22.885  1.00  0.00     0.028 A 
ATOM     18  N   UNL     1      43.785 130.869  24.015  1.00  0.00    -0.361 N 
ATOM     19  C   UNL     1      42.741 131.720  24.131  1.00  0.00     0.083 A 
ATOM     20  H   UNL     1      44.262 130.354  24.788  1.00  0.00     0.166 HD
ENDBRANCH   7  11
TORSDOF 1
ENDMDL
MODEL 8
REMARK VINA RESULT:      -7.5      1.435      7.267
REMARK SMILES Cn1cc2ccc(-c3ccc4[nH]ccc4c3)cc2n1
REMARK SMILES IDX 1 1 2 2 3 3 4 4 5 5 6 6 7 7 17 8 18 9 19 10 8 11 9 12 16 13
REMARK SMILES IDX 10 14 15 15 11 16 14 17 12 18 13 19
REMARK H PARENT 12 20
ROOT
ATOM      1  C   UNL     1      40.627 133.487  21.487  1.00  0.00     0.173 C 
ATOM      2  N   UNL     1      41.738 132.804  20.840  1.00  0.00    -0.275 N 
ATOM      3  C   UNL     1      42.808 132.270  21.474  1.00  0.00     0.117 A 
ATOM      4  C   UNL     1      43.651 131.787  20.502  1.00  0.00     0.020 A 
ATOM      5  C   UNL     1      44.880 131.143  20.570  1.00  0.00     0.012 A 
ATOM      6  C   UNL     1      45.494 130.780  19.357  1.00  0.00     0.009 A 
ATOM      7  C   UNL     1      44.872 131.068  18.109  1.00  0.00    -0.016 A 
ATOM      8  C   UNL     1      43.619 131.729  18.092  1.00  0.00     0.039 A 
ATOM      9  C   UNL     1      43.042 132.071  19.312  1.00  0.00     0.093 A 
ATOM     10  N   UNL     1      41.872 132.701  19.521  1.00  0.00    -0.173 NA
ENDROOT
BRANCH   7  11
ATOM     11  C   UNL     1      45.530 130.679  16.836  1.00  0.00    -0.018 A 
ATOM     12  C   UNL     1      45.555 129.317  16.427  1.00  0.00     0.011 A 
ATOM     13  C   UNL     1      46.139 131.660  16.018  1.00  0.00     0.019 A 
ATOM     14  C   UNL     1      46.176 128.937  15.224  1.00  0.00     0.027 A 
ATOM     15  C   UNL     1      46.745 131.246  14.834  1.00  0.00    -0.000 A 
ATOM     16  C   UNL     1      46.764 129.933  14.450  1.00  0.00     0.045 A 
ATOM     17  C   UNL     1      47.406 131.968  13.865  1.00  0.00     0.028 A 
ATOM     18  N   UNL     1      47.405 129.787  13.279  1.00  0.00    -0.361 N 
ATOM     19  C   UNL     1      47.800 131.029  12.917  1.00  0.00     0.083 A 
ATOM     20  H   UNL     1      47.568 128.900  12.754  1.00  0.00     0.166 HD
ENDBRANCH   7  11
TORSDOF 1
ENDMDL
MODEL 9
REMARK VINA RESULT:      -7.4      1.171      1.525
REMARK SMILES Cn1cc2ccc(-c3ccc4[nH]ccc4c3)cc2n1
REMARK SMILES IDX 1 1 2 2 3 3 4 4 5 5 6 6 7 7 17 8 18 9 19 10 8 11 9 12 16 13
REMARK SMILES IDX 10 14 15 15 11 16 14 17 12 18 13 19
REMARK H PARENT 12 20
ROOT
ATOM      1  C   UNL     1      48.219 131.525  12.184  1.00  0.00     0.173 C 
ATOM      2  N   UNL     1      47.496 131.144  13.388  1.00  0.00    -0.275 N 
ATOM      3  C   UNL     1      47.222 129.876  13.773  1.00  0.00     0.117 A 
ATOM      4  C   UNL     1      46.468 129.957  14.918  1.00  0.00     0.020 A 
ATOM      5  C   UNL     1      45.912 128.983  15.739  1.00  0.00     0.012 A 
ATOM      6  C   UNL     1      45.173 129.416  16.856  1.00  0.00     0.009 A 
ATOM      7  C   UNL     1      45.003 130.804  17.126  1.00  0.00    -0.016 A 
ATOM      8  C   UNL     1      45.587 131.758  16.256  1.00  0.00     0.039 A 
ATOM      9  C   UNL     1      46.313 131.293  15.164  1.00  0.00     0.093 A 
ATOM     10  N   UNL     1      46.938 132.019  14.220  1.00  0.00    -0.173 NA
ENDROOT
BRANCH   7  11
ATOM     11  C   UNL     1      44.221 131.248  18.308  1.00  0.00    -0.018 A 
ATOM     12  C   UNL     1      42.948 131.858  18.140  1.00  0.00     0.011 A 
ATOM     13  C   UNL     1      44.737 131.066  19.613  1.00  0.00     0.019 A 
ATOM     14  C   UNL     1      42.200 132.282  19.251  1.00  0.00     0.027 A 
ATOM     15  C   UNL     1      43.967 131.500  20.690  1.00  0.00    -0.000 A 
ATOM     16  C   UNL     1      42.744 132.086  20.517  1.00  0.00     0.045 A 
ATOM     17  C   UNL     1      44.216 131.457  22.044  1.00  0.00     0.028 A 
ATOM     18  N   UNL     1      42.201 132.417  21.700  1.00  0.00    -0.361 N 
ATOM     19  C   UNL     1      43.097 132.034  22.638  1.00  0.00     0.083 A 
ATOM     20  H   UNL     1      41.278 132.876  21.866  1.00  0.00     0.166 HD
ENDBRANCH   7  11
TORSDOF 1
ENDMDL


