MODEL 1
REMARK VINA RESULT:      -7.0      0.000      0.000
REMARK SMILES Cc1ccc(-c2ccc([O-])cc2)c2cn(C(=O)NC3(C(F)(F)F)CC3)nc12
REMARK SMILES IDX 16 1 17 2 18 3 15 5 2 6 3 7 27 8 4 9 26 10 13 11 5 12 14 13
REMARK SMILES IDX 1 14 6 15 7 16 12 17 8 18 11 19 9 20 10 21 19 22 24 23 25 24
REMARK SMILES IDX 20 25 21 26 22 27 23 28
REMARK H PARENT 18 4
ROOT
ATOM      1  C   UNL     1      44.944 131.116  18.854  1.00  0.00     0.342 C 
ATOM      2  O   UNL     1      44.482 132.252  18.560  1.00  0.00    -0.246 OA
ATOM      3  N   UNL     1      45.548 130.307  17.831  1.00  0.00    -0.322 N 
ATOM      4  H   UNL     1      46.052 129.429  18.086  1.00  0.00     0.166 HD
ENDROOT
BRANCH   1   5
ATOM      5  N   UNL     1      44.863 130.656  20.212  1.00  0.00    -0.189 N 
ATOM      6  C   UNL     1      44.175 131.070  23.629  1.00  0.00    -0.023 A 
ATOM      7  C   UNL     1      44.197 130.071  24.625  1.00  0.00     0.006 A 
ATOM      8  C   UNL     1      44.514 130.685  22.329  1.00  0.00     0.096 A 
ATOM      9  C   UNL     1      44.575 128.747  24.311  1.00  0.00     0.010 A 
ATOM     10  N   UNL     1      44.503 131.445  21.219  1.00  0.00    -0.164 NA
ATOM     11  C   UNL     1      44.884 129.401  22.024  1.00  0.00     0.029 A 
ATOM     12  C   UNL     1      44.935 128.388  22.992  1.00  0.00    -0.007 A 
ATOM     13  C   UNL     1      45.093 129.399  20.661  1.00  0.00     0.129 A 
ATOM     14  C   UNL     1      43.728 132.467  23.940  1.00  0.00     0.047 C 
BRANCH  12  15
ATOM     15  C   UNL     1      45.337 127.001  22.666  1.00  0.00    -0.018 A 
ATOM     16  C   UNL     1      46.690 126.677  22.458  1.00  0.00     0.008 A 
ATOM     17  C   UNL     1      44.370 125.983  22.585  1.00  0.00     0.008 A 
ATOM     18  C   UNL     1      47.064 125.364  22.158  1.00  0.00    -0.008 A 
ATOM     19  C   UNL     1      44.748 124.671  22.284  1.00  0.00    -0.008 A 
ATOM     20  C   UNL     1      46.095 124.361  22.070  1.00  0.00    -0.109 A 
ATOM     21  O   UNL     1      46.469 123.057  21.771  1.00  0.00    -0.872 OA
ENDBRANCH  12  15
ENDBRANCH   1   5
BRANCH   3  22
ATOM     22  C   UNL     1      45.617 130.742  16.437  1.00  0.00     0.137 C 
ATOM     23  C   UNL     1      44.406 131.549  15.990  1.00  0.00     0.041 C 
ATOM     24  C   UNL     1      45.745 132.242  16.225  1.00  0.00     0.041 C 
BRANCH  22  25
ATOM     25  C   UNL     1      46.234 129.769  15.421  1.00  0.00     0.411 C 
ATOM     26  F   UNL     1      46.179 130.333  14.160  1.00  0.00    -0.168 F 
ATOM     27  F   UNL     1      45.516 128.589  15.416  1.00  0.00    -0.168 F 
ATOM     28  F   UNL     1      47.555 129.482  15.723  1.00  0.00    -0.168 F 
ENDBRANCH  22  25
ENDBRANCH   3  22
TORSDOF 4
ENDMDL
MODEL 2
REMARK VINA RESULT:      -6.6      3.723      6.932
REMARK SMILES Cc1ccc(-c2ccc([O-])cc2)c2cn(C(=O)NC3(C(F)(F)F)CC3)nc12
REMARK SMILES IDX 16 1 17 2 18 3 15 5 2 6 3 7 27 8 4 9 26 10 13 11 5 12 14 13
REMARK SMILES IDX 1 14 6 15 7 16 12 17 8 18 11 19 9 20 10 21 19 22 24 23 25 24
REMARK SMILES IDX 20 25 21 26 22 27 23 28
REMARK H PARENT 18 4
ROOT
ATOM      1  C   UNL     1      45.552 127.368  23.094  1.00  0.00     0.342 C 
ATOM      2  O   UNL     1      45.732 127.184  24.328  1.00  0.00    -0.246 OA
ATOM      3  N   UNL     1      46.016 126.387  22.152  1.00  0.00    -0.322 N 
ATOM      4  H   UNL     1      45.754 126.463  21.145  1.00  0.00     0.166 HD
ENDROOT
BRANCH   1   5
ATOM      5  N   UNL     1      44.877 128.557  22.654  1.00  0.00    -0.189 N 
ATOM      6  C   UNL     1      42.859 131.386  23.152  1.00  0.00    -0.023 A 
ATOM      7  C   UNL     1      42.577 132.401  22.214  1.00  0.00     0.006 A 
ATOM      8  C   UNL     1      43.669 130.329  22.727  1.00  0.00     0.096 A 
ATOM      9  C   UNL     1      43.076 132.325  20.896  1.00  0.00     0.010 A 
ATOM     10  N   UNL     1      44.116 129.292  23.458  1.00  0.00    -0.164 NA
ATOM     11  C   UNL     1      44.152 130.253  21.447  1.00  0.00     0.029 A 
ATOM     12  C   UNL     1      43.876 131.234  20.484  1.00  0.00    -0.007 A 
ATOM     13  C   UNL     1      44.933 129.117  21.422  1.00  0.00     0.129 A 
ATOM     14  C   UNL     1      42.376 131.481  24.568  1.00  0.00     0.047 C 
BRANCH  12  15
ATOM     15  C   UNL     1      44.394 131.152  19.100  1.00  0.00    -0.018 A 
ATOM     16  C   UNL     1      43.686 131.737  18.034  1.00  0.00     0.008 A 
ATOM     17  C   UNL     1      45.617 130.509  18.837  1.00  0.00     0.008 A 
ATOM     18  C   UNL     1      44.184 131.664  16.730  1.00  0.00    -0.008 A 
ATOM     19  C   UNL     1      46.111 130.438  17.531  1.00  0.00    -0.008 A 
ATOM     20  C   UNL     1      45.395 131.013  16.477  1.00  0.00    -0.109 A 
ATOM     21  O   UNL     1      45.888 130.941  15.180  1.00  0.00    -0.872 OA
ENDBRANCH  12  15
ENDBRANCH   1   5
BRANCH   3  22
ATOM     22  C   UNL     1      46.729 125.183  22.574  1.00  0.00     0.137 C 
ATOM     23  C   UNL     1      48.092 125.019  21.915  1.00  0.00     0.041 C 
ATOM     24  C   UNL     1      47.994 125.422  23.385  1.00  0.00     0.041 C 
BRANCH  22  25
ATOM     25  C   UNL     1      45.899 123.912  22.808  1.00  0.00     0.411 C 
ATOM     26  F   UNL     1      45.955 123.117  21.678  1.00  0.00    -0.168 F 
ATOM     27  F   UNL     1      44.583 124.258  23.047  1.00  0.00    -0.168 F 
ATOM     28  F   UNL     1      46.368 123.184  23.889  1.00  0.00    -0.168 F 
ENDBRANCH  22  25
ENDBRANCH   3  22
TORSDOF 4
ENDMDL
MODEL 3
REMARK VINA RESULT:      -6.5      0.974      1.117
REMARK SMILES Cc1ccc(-c2ccc([O-])cc2)c2cn(C(=O)NC3(C(F)(F)F)CC3)nc12
REMARK SMILES IDX 16 1 17 2 18 3 15 5 2 6 3 7 27 8 4 9 26 10 13 11 5 12 14 13
REMARK SMILES IDX 1 14 6 15 7 16 12 17 8 18 11 19 9 20 10 21 19 22 24 23 25 24
REMARK SMILES IDX 20 25 21 26 22 27 23 28
REMARK H PARENT 18 4
ROOT
ATOM      1  C   UNL     1      44.937 131.256  19.138  1.00  0.00     0.342 C 
ATOM      2  O   UNL     1      45.056 132.491  18.915  1.00  0.00    -0.246 OA
ATOM      3  N   UNL     1      45.107 130.318  18.062  1.00  0.00    -0.322 N 
ATOM      4  H   UNL     1      45.146 129.294  18.260  1.00  0.00     0.166 HD
ENDROOT
BRANCH   1   5
ATOM      5  N   UNL     1      44.641 130.810  20.470  1.00  0.00    -0.189 N 
ATOM      6  C   UNL     1      43.015 131.053  23.572  1.00  0.00    -0.023 A 
ATOM      7  C   UNL     1      43.055 130.115  24.625  1.00  0.00     0.006 A 
ATOM      8  C   UNL     1      43.768 130.765  22.430  1.00  0.00     0.096 A 
ATOM      9  C   UNL     1      43.848 128.952  24.526  1.00  0.00     0.010 A 
ATOM     10  N   UNL     1      43.833 131.475  21.289  1.00  0.00    -0.164 NA
ATOM     11  C   UNL     1      44.540 129.637  22.334  1.00  0.00     0.029 A 
ATOM     12  C   UNL     1      44.618 128.694  23.369  1.00  0.00    -0.007 A 
ATOM     13  C   UNL     1      45.084 129.677  21.067  1.00  0.00     0.129 A 
ATOM     14  C   UNL     1      42.138 132.267  23.645  1.00  0.00     0.047 C 
BRANCH  12  15
ATOM     15  C   UNL     1      45.455 127.477  23.269  1.00  0.00    -0.018 A 
ATOM     16  C   UNL     1      46.001 126.886  24.423  1.00  0.00     0.008 A 
ATOM     17  C   UNL     1      45.692 126.880  22.018  1.00  0.00     0.008 A 
ATOM     18  C   UNL     1      46.783 125.732  24.323  1.00  0.00    -0.008 A 
ATOM     19  C   UNL     1      46.476 125.726  21.922  1.00  0.00    -0.008 A 
ATOM     20  C   UNL     1      47.023 125.152  23.074  1.00  0.00    -0.109 A 
ATOM     21  O   UNL     1      47.801 124.006  22.977  1.00  0.00    -0.872 OA
ENDBRANCH  12  15
ENDBRANCH   1   5
BRANCH   3  22
ATOM     22  C   UNL     1      45.382 130.750  16.692  1.00  0.00     0.137 C 
ATOM     23  C   UNL     1      44.216 131.479  16.038  1.00  0.00     0.041 C 
ATOM     24  C   UNL     1      45.453 132.255  16.483  1.00  0.00     0.041 C 
BRANCH  22  25
ATOM     25  C   UNL     1      46.218 129.813  15.808  1.00  0.00     0.411 C 
ATOM     26  F   UNL     1      46.453 130.425  14.591  1.00  0.00    -0.168 F 
ATOM     27  F   UNL     1      45.522 128.639  15.592  1.00  0.00    -0.168 F 
ATOM     28  F   UNL     1      47.434 129.505  16.394  1.00  0.00    -0.168 F 
ENDBRANCH  22  25
ENDBRANCH   3  22
TORSDOF 4
ENDMDL
MODEL 4
REMARK VINA RESULT:      -6.4      3.389      6.808
REMARK SMILES Cc1ccc(-c2ccc([O-])cc2)c2cn(C(=O)NC3(C(F)(F)F)CC3)nc12
REMARK SMILES IDX 16 1 17 2 18 3 15 5 2 6 3 7 27 8 4 9 26 10 13 11 5 12 14 13
REMARK SMILES IDX 1 14 6 15 7 16 12 17 8 18 11 19 9 20 10 21 19 22 24 23 25 24
REMARK SMILES IDX 20 25 21 26 22 27 23 28
REMARK H PARENT 18 4
ROOT
ATOM      1  C   UNL     1      45.893 126.970  22.720  1.00  0.00     0.342 C 
ATOM      2  O   UNL     1      45.392 126.210  23.593  1.00  0.00    -0.246 OA
ATOM      3  N   UNL     1      47.114 126.593  22.064  1.00  0.00    -0.322 N 
ATOM      4  H   UNL     1      47.463 127.144  21.249  1.00  0.00     0.166 HD
ENDROOT
BRANCH   1   5
ATOM      5  N   UNL     1      45.224 128.198  22.395  1.00  0.00    -0.189 N 
ATOM      6  C   UNL     1      43.303 131.030  23.180  1.00  0.00    -0.023 A 
ATOM      7  C   UNL     1      42.996 132.108  22.325  1.00  0.00     0.006 A 
ATOM      8  C   UNL     1      44.064 129.986  22.645  1.00  0.00     0.096 A 
ATOM      9  C   UNL     1      43.422 132.108  20.979  1.00  0.00     0.010 A 
ATOM     10  N   UNL     1      44.524 128.895  23.284  1.00  0.00    -0.164 NA
ATOM     11  C   UNL     1      44.476 129.983  21.338  1.00  0.00     0.029 A 
ATOM     12  C   UNL     1      44.172 131.029  20.456  1.00  0.00    -0.007 A 
ATOM     13  C   UNL     1      45.227 128.835  21.198  1.00  0.00     0.129 A 
ATOM     14  C   UNL     1      42.899 131.043  24.624  1.00  0.00     0.047 C 
BRANCH  12  15
ATOM     15  C   UNL     1      44.614 131.026  19.043  1.00  0.00    -0.018 A 
ATOM     16  C   UNL     1      43.895 131.740  18.066  1.00  0.00     0.008 A 
ATOM     17  C   UNL     1      45.775 130.329  18.664  1.00  0.00     0.008 A 
ATOM     18  C   UNL     1      44.321 131.740  16.735  1.00  0.00    -0.008 A 
ATOM     19  C   UNL     1      46.198 130.332  17.331  1.00  0.00    -0.008 A 
ATOM     20  C   UNL     1      45.471 131.035  16.366  1.00  0.00    -0.109 A 
ATOM     21  O   UNL     1      45.892 131.037  15.042  1.00  0.00    -0.872 OA
ENDBRANCH  12  15
ENDBRANCH   1   5
BRANCH   3  22
ATOM     22  C   UNL     1      47.827 125.361  22.399  1.00  0.00     0.137 C 
ATOM     23  C   UNL     1      49.322 125.559  22.605  1.00  0.00     0.041 C 
ATOM     24  C   UNL     1      48.410 125.304  23.803  1.00  0.00     0.041 C 
BRANCH  22  25
ATOM     25  C   UNL     1      47.372 124.068  21.705  1.00  0.00     0.411 C 
ATOM     26  F   UNL     1      47.982 122.987  22.312  1.00  0.00    -0.168 F 
ATOM     27  F   UNL     1      47.743 124.103  20.375  1.00  0.00    -0.168 F 
ATOM     28  F   UNL     1      45.999 123.903  21.778  1.00  0.00    -0.168 F 
ENDBRANCH  22  25
ENDBRANCH   3  22
TORSDOF 4
ENDMDL
MODEL 5
REMARK VINA RESULT:      -6.3      1.125      1.862
REMARK SMILES Cc1ccc(-c2ccc([O-])cc2)c2cn(C(=O)NC3(C(F)(F)F)CC3)nc12
REMARK SMILES IDX 16 1 17 2 18 3 15 5 2 6 3 7 27 8 4 9 26 10 13 11 5 12 14 13
REMARK SMILES IDX 1 14 6 15 7 16 12 17 8 18 11 19 9 20 10 21 19 22 24 23 25 24
REMARK SMILES IDX 20 25 21 26 22 27 23 28
REMARK H PARENT 18 4
ROOT
ATOM      1  C   UNL     1      44.822 130.735  18.731  1.00  0.00     0.342 C 
ATOM      2  O   UNL     1      43.925 131.489  18.264  1.00  0.00    -0.246 OA
ATOM      3  N   UNL     1      45.860 130.243  17.868  1.00  0.00    -0.322 N 
ATOM      4  H   UNL     1      46.678 129.734  18.269  1.00  0.00     0.166 HD
ENDROOT
BRANCH   1   5
ATOM      5  N   UNL     1      44.790 130.389  20.124  1.00  0.00    -0.189 N 
ATOM      6  C   UNL     1      44.223 131.083  23.518  1.00  0.00    -0.023 A 
ATOM      7  C   UNL     1      44.282 130.169  24.591  1.00  0.00     0.006 A 
ATOM      8  C   UNL     1      44.516 130.592  22.243  1.00  0.00     0.096 A 
ATOM      9  C   UNL     1      44.651 128.823  24.374  1.00  0.00     0.010 A 
ATOM     10  N   UNL     1      44.465 131.258  21.075  1.00  0.00    -0.164 NA
ATOM     11  C   UNL     1      44.877 129.287  22.032  1.00  0.00     0.029 A 
ATOM     12  C   UNL     1      44.964 128.357  23.077  1.00  0.00    -0.007 A 
ATOM     13  C   UNL     1      45.038 129.172  20.667  1.00  0.00     0.129 A 
ATOM     14  C   UNL     1      43.784 132.501  23.729  1.00  0.00     0.047 C 
BRANCH  12  15
ATOM     15  C   UNL     1      45.357 126.947  22.852  1.00  0.00    -0.018 A 
ATOM     16  C   UNL     1      44.390 125.925  22.851  1.00  0.00     0.008 A 
ATOM     17  C   UNL     1      46.702 126.616  22.609  1.00  0.00     0.008 A 
ATOM     18  C   UNL     1      44.766 124.597  22.630  1.00  0.00    -0.008 A 
ATOM     19  C   UNL     1      47.074 125.286  22.389  1.00  0.00    -0.008 A 
ATOM     20  C   UNL     1      46.107 124.276  22.400  1.00  0.00    -0.109 A 
ATOM     21  O   UNL     1      46.478 122.956  22.181  1.00  0.00    -0.872 OA
ENDBRANCH  12  15
ENDBRANCH   1   5
BRANCH   3  22
ATOM     22  C   UNL     1      45.897 130.560  16.441  1.00  0.00     0.137 C 
ATOM     23  C   UNL     1      46.974 129.803  15.676  1.00  0.00     0.041 C 
ATOM     24  C   UNL     1      45.504 129.424  15.508  1.00  0.00     0.041 C 
BRANCH  22  25
ATOM     25  C   UNL     1      45.628 132.015  16.031  1.00  0.00     0.411 C 
ATOM     26  F   UNL     1      46.583 132.414  15.115  1.00  0.00    -0.168 F 
ATOM     27  F   UNL     1      45.705 132.831  17.143  1.00  0.00    -0.168 F 
ATOM     28  F   UNL     1      44.374 132.163  15.459  1.00  0.00    -0.168 F 
ENDBRANCH  22  25
ENDBRANCH   3  22
TORSDOF 4
ENDMDL
MODEL 6
REMARK VINA RESULT:      -6.2      0.777      1.325
REMARK SMILES Cc1ccc(-c2ccc([O-])cc2)c2cn(C(=O)NC3(C(F)(F)F)CC3)nc12
REMARK SMILES IDX 16 1 17 2 18 3 15 5 2 6 3 7 27 8 4 9 26 10 13 11 5 12 14 13
REMARK SMILES IDX 1 14 6 15 7 16 12 17 8 18 11 19 9 20 10 21 19 22 24 23 25 24
REMARK SMILES IDX 20 25 21 26 22 27 23 28
REMARK H PARENT 18 4
ROOT
ATOM      1  C   UNL     1      45.556 130.798  19.248  1.00  0.00     0.342 C 
ATOM      2  O   UNL     1      46.390 131.742  19.198  1.00  0.00    -0.246 OA
ATOM      3  N   UNL     1      45.015 130.260  18.031  1.00  0.00    -0.322 N 
ATOM      4  H   UNL     1      44.432 129.395  18.054  1.00  0.00     0.166 HD
ENDROOT
BRANCH   1   5
ATOM      5  N   UNL     1      45.168 130.275  20.528  1.00  0.00    -0.189 N 
ATOM      6  C   UNL     1      43.669 130.515  23.693  1.00  0.00    -0.023 A 
ATOM      7  C   UNL     1      43.485 129.471  24.625  1.00  0.00     0.006 A 
ATOM      8  C   UNL     1      44.322 130.198  22.499  1.00  0.00     0.096 A 
ATOM      9  C   UNL     1      43.970 128.172  24.359  1.00  0.00     0.010 A 
ATOM     10  N   UNL     1      44.552 131.008  21.449  1.00  0.00    -0.164 NA
ATOM     11  C   UNL     1      44.795 128.938  22.241  1.00  0.00     0.029 A 
ATOM     12  C   UNL     1      44.646 127.883  23.152  1.00  0.00    -0.007 A 
ATOM     13  C   UNL     1      45.325 129.003  20.969  1.00  0.00     0.129 A 
ATOM     14  C   UNL     1      43.115 131.885  23.942  1.00  0.00     0.047 C 
BRANCH  12  15
ATOM     15  C   UNL     1      45.160 126.522  22.877  1.00  0.00    -0.018 A 
ATOM     16  C   UNL     1      44.273 125.452  22.658  1.00  0.00     0.008 A 
ATOM     17  C   UNL     1      46.545 126.287  22.806  1.00  0.00     0.008 A 
ATOM     18  C   UNL     1      44.764 124.170  22.391  1.00  0.00    -0.008 A 
ATOM     19  C   UNL     1      47.032 125.004  22.539  1.00  0.00    -0.008 A 
ATOM     20  C   UNL     1      46.143 123.945  22.333  1.00  0.00    -0.109 A 
ATOM     21  O   UNL     1      46.628 122.671  22.068  1.00  0.00    -0.872 OA
ENDBRANCH  12  15
ENDBRANCH   1   5
BRANCH   3  22
ATOM     22  C   UNL     1      45.374 130.795  16.718  1.00  0.00     0.137 C 
ATOM     23  C   UNL     1      44.194 131.379  15.954  1.00  0.00     0.041 C 
ATOM     24  C   UNL     1      45.242 132.303  16.569  1.00  0.00     0.041 C 
BRANCH  22  25
ATOM     25  C   UNL     1      46.436 130.035  15.910  1.00  0.00     0.411 C 
ATOM     26  F   UNL     1      45.820 129.045  15.168  1.00  0.00    -0.168 F 
ATOM     27  F   UNL     1      47.343 129.450  16.772  1.00  0.00    -0.168 F 
ATOM     28  F   UNL     1      47.122 130.875  15.048  1.00  0.00    -0.168 F 
ENDBRANCH  22  25
ENDBRANCH   3  22
TORSDOF 4
ENDMDL
MODEL 7
REMARK VINA RESULT:      -6.1      1.214      1.365
REMARK SMILES Cc1ccc(-c2ccc([O-])cc2)c2cn(C(=O)NC3(C(F)(F)F)CC3)nc12
REMARK SMILES IDX 16 1 17 2 18 3 15 5 2 6 3 7 27 8 4 9 26 10 13 11 5 12 14 13
REMARK SMILES IDX 1 14 6 15 7 16 12 17 8 18 11 19 9 20 10 21 19 22 24 23 25 24
REMARK SMILES IDX 20 25 21 26 22 27 23 28
REMARK H PARENT 18 4
ROOT
ATOM      1  C   UNL     1      45.516 130.785  19.380  1.00  0.00     0.342 C 
ATOM      2  O   UNL     1      46.552 131.500  19.306  1.00  0.00    -0.246 OA
ATOM      3  N   UNL     1      44.824 130.405  18.180  1.00  0.00    -0.322 N 
ATOM      4  H   UNL     1      44.050 129.707  18.219  1.00  0.00     0.166 HD
ENDROOT
BRANCH   1   5
ATOM      5  N   UNL     1      45.051 130.359  20.670  1.00  0.00    -0.189 N 
ATOM      6  C   UNL     1      43.113 130.697  23.578  1.00  0.00    -0.023 A 
ATOM      7  C   UNL     1      42.985 129.760  24.624  1.00  0.00     0.006 A 
ATOM      8  C   UNL     1      43.968 130.366  22.523  1.00  0.00     0.096 A 
ATOM      9  C   UNL     1      43.718 128.553  24.607  1.00  0.00     0.010 A 
ATOM     10  N   UNL     1      44.198 131.070  21.400  1.00  0.00    -0.164 NA
ATOM     11  C   UNL     1      44.682 129.196  22.507  1.00  0.00     0.029 A 
ATOM     12  C   UNL     1      44.593 128.251  23.539  1.00  0.00    -0.007 A 
ATOM     13  C   UNL     1      45.362 129.203  21.307  1.00  0.00     0.129 A 
ATOM     14  C   UNL     1      42.303 131.959  23.561  1.00  0.00     0.047 C 
BRANCH  12  15
ATOM     15  C   UNL     1      45.366 126.988  23.525  1.00  0.00    -0.018 A 
ATOM     16  C   UNL     1      45.305 126.123  22.417  1.00  0.00     0.008 A 
ATOM     17  C   UNL     1      46.192 126.651  24.612  1.00  0.00     0.008 A 
ATOM     18  C   UNL     1      46.043 124.936  22.406  1.00  0.00    -0.008 A 
ATOM     19  C   UNL     1      46.929 125.462  24.597  1.00  0.00    -0.008 A 
ATOM     20  C   UNL     1      46.854 124.604  23.495  1.00  0.00    -0.109 A 
ATOM     21  O   UNL     1      47.586 123.423  23.483  1.00  0.00    -0.872 OA
ENDBRANCH  12  15
ENDBRANCH   1   5
BRANCH   3  22
ATOM     22  C   UNL     1      45.262 130.851  16.858  1.00  0.00     0.137 C 
ATOM     23  C   UNL     1      44.152 131.478  16.027  1.00  0.00     0.041 C 
ATOM     24  C   UNL     1      45.243 132.356  16.635  1.00  0.00     0.041 C 
BRANCH  22  25
ATOM     25  C   UNL     1      46.292 129.981  16.122  1.00  0.00     0.411 C 
ATOM     26  F   UNL     1      46.982 130.762  15.214  1.00  0.00    -0.168 F 
ATOM     27  F   UNL     1      45.641 128.971  15.441  1.00  0.00    -0.168 F 
ATOM     28  F   UNL     1      47.201 129.410  16.999  1.00  0.00    -0.168 F 
ENDBRANCH  22  25
ENDBRANCH   3  22
TORSDOF 4
ENDMDL
MODEL 8
REMARK VINA RESULT:      -6.0      1.881      2.741
REMARK SMILES Cc1ccc(-c2ccc([O-])cc2)c2cn(C(=O)NC3(C(F)(F)F)CC3)nc12
REMARK SMILES IDX 16 1 17 2 18 3 15 5 2 6 3 7 27 8 4 9 26 10 13 11 5 12 14 13
REMARK SMILES IDX 1 14 6 15 7 16 12 17 8 18 11 19 9 20 10 21 19 22 24 23 25 24
REMARK SMILES IDX 20 25 21 26 22 27 23 28
REMARK H PARENT 18 4
ROOT
ATOM      1  C   UNL     1      44.502 130.990  17.466  1.00  0.00     0.342 C 
ATOM      2  O   UNL     1      43.685 131.297  16.556  1.00  0.00    -0.246 OA
ATOM      3  N   UNL     1      45.831 130.568  17.117  1.00  0.00    -0.322 N 
ATOM      4  H   UNL     1      46.553 130.443  17.860  1.00  0.00     0.166 HD
ENDROOT
BRANCH   1   5
ATOM      5  N   UNL     1      44.087 131.074  18.838  1.00  0.00    -0.189 N 
ATOM      6  C   UNL     1      42.227 132.457  21.474  1.00  0.00    -0.023 A 
ATOM      7  C   UNL     1      42.155 131.981  22.800  1.00  0.00     0.006 A 
ATOM      8  C   UNL     1      43.060 131.764  20.591  1.00  0.00     0.096 A 
ATOM      9  C   UNL     1      42.919 130.867  23.211  1.00  0.00     0.010 A 
ATOM     10  N   UNL     1      43.237 131.996  19.277  1.00  0.00    -0.164 NA
ATOM     11  C   UNL     1      43.803 130.684  20.989  1.00  0.00     0.029 A 
ATOM     12  C   UNL     1      43.770 130.197  22.303  1.00  0.00    -0.007 A 
ATOM     13  C   UNL     1      44.447 130.248  19.850  1.00  0.00     0.129 A 
ATOM     14  C   UNL     1      41.383 133.608  21.014  1.00  0.00     0.047 C 
BRANCH  12  15
ATOM     15  C   UNL     1      44.575 129.032  22.736  1.00  0.00    -0.018 A 
ATOM     16  C   UNL     1      44.704 128.718  24.101  1.00  0.00     0.008 A 
ATOM     17  C   UNL     1      45.201 128.209  21.783  1.00  0.00     0.008 A 
ATOM     18  C   UNL     1      45.459 127.613  24.504  1.00  0.00    -0.008 A 
ATOM     19  C   UNL     1      45.956 127.105  22.190  1.00  0.00    -0.008 A 
ATOM     20  C   UNL     1      46.086 126.806  23.550  1.00  0.00    -0.109 A 
ATOM     21  O   UNL     1      46.837 125.708  23.952  1.00  0.00    -0.872 OA
ENDBRANCH  12  15
ENDBRANCH   1   5
BRANCH   3  22
ATOM     22  C   UNL     1      46.267 130.448  15.726  1.00  0.00     0.137 C 
ATOM     23  C   UNL     1      47.420 129.472  15.531  1.00  0.00     0.041 C 
ATOM     24  C   UNL     1      46.012 129.097  15.076  1.00  0.00     0.041 C 
BRANCH  22  25
ATOM     25  C   UNL     1      46.266 131.723  14.871  1.00  0.00     0.411 C 
ATOM     26  F   UNL     1      45.116 131.755  14.103  1.00  0.00    -0.168 F 
ATOM     27  F   UNL     1      47.364 131.718  14.032  1.00  0.00    -0.168 F 
ATOM     28  F   UNL     1      46.311 132.865  15.653  1.00  0.00    -0.168 F 
ENDBRANCH  22  25
ENDBRANCH   3  22
TORSDOF 4
ENDMDL
MODEL 9
REMARK VINA RESULT:      -6.0      3.463      6.835
REMARK SMILES Cc1ccc(-c2ccc([O-])cc2)c2cn(C(=O)NC3(C(F)(F)F)CC3)nc12
REMARK SMILES IDX 16 1 17 2 18 3 15 5 2 6 3 7 27 8 4 9 26 10 13 11 5 12 14 13
REMARK SMILES IDX 1 14 6 15 7 16 12 17 8 18 11 19 9 20 10 21 19 22 24 23 25 24
REMARK SMILES IDX 20 25 21 26 22 27 23 28
REMARK H PARENT 18 4
ROOT
ATOM      1  C   UNL     1      45.857 126.901  22.889  1.00  0.00     0.342 C 
ATOM      2  O   UNL     1      46.448 126.815  24.000  1.00  0.00    -0.246 OA
ATOM      3  N   UNL     1      45.837 125.769  22.004  1.00  0.00    -0.322 N 
ATOM      4  H   UNL     1      45.240 125.784  21.148  1.00  0.00     0.166 HD
ENDROOT
BRANCH   1   5
ATOM      5  N   UNL     1      45.208 128.132  22.534  1.00  0.00    -0.189 N 
ATOM      6  C   UNL     1      43.210 130.936  23.218  1.00  0.00    -0.023 A 
ATOM      7  C   UNL     1      42.963 132.029  22.361  1.00  0.00     0.006 A 
ATOM      8  C   UNL     1      44.018 129.907  22.726  1.00  0.00     0.096 A 
ATOM      9  C   UNL     1      43.495 132.057  21.054  1.00  0.00     0.010 A 
ATOM     10  N   UNL     1      44.434 128.807  23.378  1.00  0.00    -0.164 NA
ATOM     11  C   UNL     1      44.533 129.932  21.456  1.00  0.00     0.029 A 
ATOM     12  C   UNL     1      44.292 130.994  20.573  1.00  0.00    -0.007 A 
ATOM     13  C   UNL     1      45.301 128.791  21.355  1.00  0.00     0.129 A 
ATOM     14  C   UNL     1      42.692 130.918  24.625  1.00  0.00     0.047 C 
BRANCH  12  15
ATOM     15  C   UNL     1      44.845 131.021  19.199  1.00  0.00    -0.018 A 
ATOM     16  C   UNL     1      45.770 130.048  18.779  1.00  0.00     0.008 A 
ATOM     17  C   UNL     1      44.429 132.008  18.287  1.00  0.00     0.008 A 
ATOM     18  C   UNL     1      46.282 130.074  17.479  1.00  0.00    -0.008 A 
ATOM     19  C   UNL     1      44.944 132.031  16.987  1.00  0.00    -0.008 A 
ATOM     20  C   UNL     1      45.871 131.065  16.582  1.00  0.00    -0.109 A 
ATOM     21  O   UNL     1      46.381 131.090  15.291  1.00  0.00    -0.872 OA
ENDBRANCH  12  15
ENDBRANCH   1   5
BRANCH   3  22
ATOM     22  C   UNL     1      46.515 124.516  22.331  1.00  0.00     0.137 C 
ATOM     23  C   UNL     1      45.910 123.789  23.524  1.00  0.00     0.041 C 
ATOM     24  C   UNL     1      45.697 123.253  22.111  1.00  0.00     0.041 C 
BRANCH  22  25
ATOM     25  C   UNL     1      48.043 124.476  22.177  1.00  0.00     0.411 C 
ATOM     26  F   UNL     1      48.367 123.759  21.040  1.00  0.00    -0.168 F 
ATOM     27  F   UNL     1      48.602 123.851  23.275  1.00  0.00    -0.168 F 
ATOM     28  F   UNL     1      48.581 125.748  22.070  1.00  0.00    -0.168 F 
ENDBRANCH  22  25
ENDBRANCH   3  22
TORSDOF 4
ENDMDL


