REMARK SMILES C[C@H]1CC[C@H](c2ccc3ncccc3c2)[C@@H](F)N1C(=O)Oc1ccc([N+](=O)[O-])cc1
REMARK SMILES IDX 21 1 19 2 20 3 18 4 2 5 3 6 4 7 16 8 5 9 1 10 17 11 6 12
REMARK SMILES IDX 7 13 15 14 8 15 14 16 9 17 13 18 10 19 12 20 11 21 22 22
REMARK SMILES IDX 23 23 30 24 24 25 29 26 25 27 26 28 27 29 28 30
REMARK H PARENT
ROOT
ATOM      1  O   UNL     1      -1.889  -0.471   1.673  1.00  0.00    -0.410 OA
ENDROOT
BRANCH   1   2
ATOM      2  C   UNL     1      -1.652   0.900   1.497  1.00  0.00     0.417 C 
ATOM      3  O   UNL     1      -2.615   1.678   1.249  1.00  0.00    -0.224 OA
BRANCH   2   4
ATOM      4  N   UNL     1      -0.315   1.425   1.645  1.00  0.00    -0.274 N 
ATOM      5  C   UNL     1      -0.088   2.882   1.570  1.00  0.00     0.088 C 
ATOM      6  C   UNL     1       1.266   3.201   0.910  1.00  0.00     0.026 C 
ATOM      7  C   UNL     1       2.412   2.381   1.506  1.00  0.00     0.015 C 
ATOM      8  C   UNL     1       0.763   0.526   2.099  1.00  0.00     0.275 C 
ATOM      9  C   UNL     1       2.127   0.872   1.458  1.00  0.00     0.075 C 
ATOM     10  C   UNL     1      -0.224   3.522   2.958  1.00  0.00     0.031 C 
ATOM     11  F   UNL     1       0.865   0.602   3.478  1.00  0.00    -0.223 F 
BRANCH   9  12
ATOM     12  C   UNL     1       2.313   0.306   0.053  1.00  0.00    -0.039 A 
ATOM     13  C   UNL     1       3.590  -0.145  -0.333  1.00  0.00     0.006 A 
ATOM     14  C   UNL     1       1.267   0.269  -0.894  1.00  0.00     0.014 A 
ATOM     15  C   UNL     1       3.817  -0.648  -1.617  1.00  0.00     0.029 A 
ATOM     16  C   UNL     1       1.490  -0.238  -2.182  1.00  0.00     0.000 A 
ATOM     17  C   UNL     1       2.773  -0.701  -2.543  1.00  0.00     0.070 A 
ATOM     18  C   UNL     1       0.458  -0.295  -3.129  1.00  0.00     0.012 A 
ATOM     19  N   UNL     1       2.992  -1.192  -3.793  1.00  0.00    -0.256 NA
ATOM     20  C   UNL     1       0.714  -0.805  -4.403  1.00  0.00     0.021 A 
ATOM     21  C   UNL     1       1.998  -1.253  -4.720  1.00  0.00     0.112 A 
ENDBRANCH   9  12
ENDBRANCH   2   4
ENDBRANCH   1   2
BRANCH   1  22
ATOM     22  C   UNL     1      -3.010  -1.164   1.193  1.00  0.00     0.133 A 
ATOM     23  C   UNL     1      -3.696  -0.768   0.032  1.00  0.00     0.054 A 
ATOM     24  C   UNL     1      -3.425  -2.314   1.873  1.00  0.00     0.054 A 
ATOM     25  C   UNL     1      -4.800  -1.498  -0.419  1.00  0.00     0.089 A 
ATOM     26  C   UNL     1      -4.529  -3.045   1.425  1.00  0.00     0.089 A 
ATOM     27  C   UNL     1      -5.231  -2.642   0.274  1.00  0.00     0.269 A 
BRANCH  27  28
ATOM     28  N   UNL     1      -6.368  -3.392  -0.193  1.00  0.00     0.062 N 
ATOM     29  O   UNL     1      -6.752  -4.412   0.415  1.00  0.00    -0.258 OA
ATOM     30  O   UNL     1      -7.054  -2.994  -1.318  1.00  0.00    -0.258 OA
ENDBRANCH  27  28
ENDBRANCH   1  22
TORSDOF 5


