REMARK SMILES Cc1ccc(-c2ccc([O-])cc2)c2c[nH][nH+]c12
REMARK SMILES IDX 1 1 2 2 3 3 4 4 5 5 13 6 14 7 15 8 16 9 17 10 6 13 7 14
REMARK SMILES IDX 12 15 8 16 11 17 9 18 10 19
REMARK H PARENT 15 11 16 12
ROOT
ATOM      1  C   UNL     1       2.137   1.692   2.878  1.00  0.00     0.052 C 
ATOM      2  C   UNL     1       1.691   0.557   2.004  1.00  0.00     0.024 A 
ATOM      3  C   UNL     1       2.517  -0.564   1.777  1.00  0.00     0.011 A 
ATOM      4  C   UNL     1       2.090  -1.617   0.938  1.00  0.00     0.010 A 
ATOM      5  C   UNL     1       0.825  -1.578   0.308  1.00  0.00    -0.003 A 
ATOM      6  C   UNL     1       0.033  -0.447   0.548  1.00  0.00     0.078 A 
ATOM      7  C   UNL     1      -1.202  -0.051   0.066  1.00  0.00     0.163 A 
ATOM      8  N   UNL     1      -1.485   1.159   0.600  1.00  0.00    -0.174 N 
ATOM      9  N   UNL     1      -0.487   1.542   1.385  1.00  0.00    -0.126 N 
ATOM     10  C   UNL     1       0.449   0.577   1.361  1.00  0.00     0.239 A 
ATOM     11  H   UNL     1      -2.345   1.723   0.421  1.00  0.00     0.238 HD
ATOM     12  H   UNL     1      -0.453   2.447   1.905  1.00  0.00     0.488 HD
ENDROOT
BRANCH   5  13
ATOM     13  C   UNL     1       0.378  -2.688  -0.564  1.00  0.00    -0.018 A 
ATOM     14  C   UNL     1      -0.898  -3.257  -0.402  1.00  0.00     0.008 A 
ATOM     15  C   UNL     1       1.237  -3.205  -1.550  1.00  0.00     0.008 A 
ATOM     16  C   UNL     1      -1.311  -4.311  -1.222  1.00  0.00    -0.008 A 
ATOM     17  C   UNL     1       0.820  -4.259  -2.369  1.00  0.00    -0.008 A 
ATOM     18  C   UNL     1      -0.454  -4.812  -2.206  1.00  0.00    -0.109 A 
ATOM     19  O   UNL     1      -0.866  -5.859  -3.020  1.00  0.00    -0.872 OA
ENDBRANCH   5  13
TORSDOF 1


