MODEL 1
REMARK VINA RESULT:      -6.5      0.000      0.000
REMARK SMILES NC(=O)c1ccc(-c2cc(F)cc(F)c2OCc2n[n-]c3c2CCC3)cc1
REMARK SMILES IDX 8 1 9 2 10 3 11 4 12 5 13 6 14 7 15 8 7 9 4 10 5 11 27 12
REMARK SMILES IDX 6 13 26 14 2 15 1 16 3 19 16 20 17 21 18 22 19 23 22 24
REMARK SMILES IDX 20 25 21 26 23 27 25 28 24 29
REMARK H PARENT 1 17 1 18
ROOT
ATOM      1  C   UNL     1      43.834 130.733  21.807  1.00  0.00     0.030 A 
ATOM      2  C   UNL     1      43.073 131.787  22.341  1.00  0.00     0.052 A 
ATOM      3  C   UNL     1      42.515 131.682  23.614  1.00  0.00     0.127 A 
ATOM      4  F   UNL     1      41.788 132.708  24.123  1.00  0.00    -0.207 F 
ATOM      5  C   UNL     1      42.705 130.524  24.367  1.00  0.00     0.082 A 
ATOM      6  C   UNL     1      43.449 129.458  23.851  1.00  0.00     0.168 A 
ATOM      7  F   UNL     1      43.605 128.354  24.621  1.00  0.00    -0.203 F 
ATOM      8  C   UNL     1      44.016 129.550  22.559  1.00  0.00     0.163 A 
ENDROOT
BRANCH   1   9
ATOM      9  C   UNL     1      44.408 130.863  20.448  1.00  0.00    -0.014 A 
ATOM     10  C   UNL     1      45.466 131.055  17.836  1.00  0.00     0.039 A 
ATOM     11  C   UNL     1      44.205 131.599  18.139  1.00  0.00     0.014 A 
ATOM     12  C   UNL     1      46.190 130.413  18.857  1.00  0.00     0.014 A 
ATOM     13  C   UNL     1      43.685 131.508  19.433  1.00  0.00     0.010 A 
ATOM     14  C   UNL     1      45.669 130.324  20.149  1.00  0.00     0.010 A 
BRANCH  10  15
ATOM     15  C   UNL     1      46.025 131.125  16.464  1.00  0.00     0.248 C 
ATOM     16  N   UNL     1      46.743 130.030  15.891  1.00  0.00    -0.366 N 
ATOM     17  H   UNL     1      46.777 129.094  16.351  1.00  0.00     0.159 HD
ATOM     18  H   UNL     1      47.175 130.128  14.946  1.00  0.00     0.159 HD
ATOM     19  O   UNL     1      45.856 132.168  15.775  1.00  0.00    -0.270 OA
ENDBRANCH  10  15
ENDBRANCH   1   9
BRANCH   8  20
ATOM     20  O   UNL     1      44.747 128.504  21.971  1.00  0.00    -0.484 OA
BRANCH  20  21
ATOM     21  C   UNL     1      45.665 127.640  22.630  1.00  0.00     0.284 C 
BRANCH  21  22
ATOM     22  C   UNL     1      45.318 126.220  22.315  1.00  0.00     0.058 A 
ATOM     23  N   UNL     1      46.235 125.248  22.103  1.00  0.00    -0.369 NA
ATOM     24  C   UNL     1      44.085 125.623  22.455  1.00  0.00    -0.042 A 
ATOM     25  N   UNL     1      45.618 124.070  22.133  1.00  0.00    -0.578 NA
ATOM     26  C   UNL     1      44.309 124.315  22.317  1.00  0.00    -0.141 A 
ATOM     27  C   UNL     1      42.881 125.931  23.250  1.00  0.00     0.036 C 
ATOM     28  C   UNL     1      43.287 123.476  22.970  1.00  0.00     0.013 C 
ATOM     29  C   UNL     1      42.254 124.527  23.456  1.00  0.00     0.008 C 
ENDBRANCH  21  22
ENDBRANCH  20  21
ENDBRANCH   8  20
TORSDOF 5
ENDMDL
MODEL 2
REMARK VINA RESULT:      -6.2      1.703      2.359
REMARK SMILES NC(=O)c1ccc(-c2cc(F)cc(F)c2OCc2n[n-]c3c2CCC3)cc1
REMARK SMILES IDX 8 1 9 2 10 3 11 4 12 5 13 6 14 7 15 8 7 9 4 10 5 11 27 12
REMARK SMILES IDX 6 13 26 14 2 15 1 16 3 19 16 20 17 21 18 22 19 23 22 24
REMARK SMILES IDX 20 25 21 26 23 27 25 28 24 29
REMARK H PARENT 1 17 1 18
ROOT
ATOM      1  C   UNL     1      43.487 131.696  19.778  1.00  0.00     0.030 A 
ATOM      2  C   UNL     1      42.410 132.598  19.750  1.00  0.00     0.052 A 
ATOM      3  C   UNL     1      41.721 132.912  20.921  1.00  0.00     0.127 A 
ATOM      4  F   UNL     1      40.688 133.789  20.884  1.00  0.00    -0.207 F 
ATOM      5  C   UNL     1      42.095 132.326  22.129  1.00  0.00     0.082 A 
ATOM      6  C   UNL     1      43.156 131.418  22.178  1.00  0.00     0.168 A 
ATOM      7  F   UNL     1      43.480 130.875  23.377  1.00  0.00    -0.203 F 
ATOM      8  C   UNL     1      43.860 131.087  20.997  1.00  0.00     0.163 A 
ENDROOT
BRANCH   1   9
ATOM      9  C   UNL     1      44.199 131.370  18.519  1.00  0.00    -0.014 A 
ATOM     10  C   UNL     1      45.513 130.693  16.113  1.00  0.00     0.039 A 
ATOM     11  C   UNL     1      44.309 131.420  16.090  1.00  0.00     0.014 A 
ATOM     12  C   UNL     1      46.050 130.308  17.355  1.00  0.00     0.014 A 
ATOM     13  C   UNL     1      43.662 131.759  17.283  1.00  0.00     0.010 A 
ATOM     14  C   UNL     1      45.403 130.649  18.545  1.00  0.00     0.010 A 
BRANCH  10  15
ATOM     15  C   UNL     1      46.202 130.308  14.857  1.00  0.00     0.248 C 
ATOM     16  N   UNL     1      46.174 131.147  13.700  1.00  0.00    -0.366 N 
ATOM     17  H   UNL     1      45.798 132.119  13.735  1.00  0.00     0.159 HD
ATOM     18  H   UNL     1      46.618 130.825  12.812  1.00  0.00     0.159 HD
ATOM     19  O   UNL     1      46.841 129.222  14.805  1.00  0.00    -0.270 OA
ENDBRANCH  10  15
ENDBRANCH   1   9
BRANCH   8  20
ATOM     20  O   UNL     1      44.915 130.158  20.973  1.00  0.00    -0.484 OA
BRANCH  20  21
ATOM     21  C   UNL     1      45.509 129.526  22.100  1.00  0.00     0.284 C 
BRANCH  21  22
ATOM     22  C   UNL     1      45.034 128.110  22.178  1.00  0.00     0.058 A 
ATOM     23  N   UNL     1      45.780 127.043  21.813  1.00  0.00    -0.369 NA
ATOM     24  C   UNL     1      43.928 127.649  22.856  1.00  0.00    -0.042 A 
ATOM     25  N   UNL     1      45.191 125.939  22.264  1.00  0.00    -0.578 NA
ATOM     26  C   UNL     1      44.051 126.320  22.869  1.00  0.00    -0.141 A 
ATOM     27  C   UNL     1      43.116 128.173  23.971  1.00  0.00     0.036 C 
ATOM     28  C   UNL     1      43.327 125.677  23.981  1.00  0.00     0.013 C 
ATOM     29  C   UNL     1      42.577 126.874  24.625  1.00  0.00     0.008 C 
ENDBRANCH  21  22
ENDBRANCH  20  21
ENDBRANCH   8  20
TORSDOF 5
ENDMDL
MODEL 3
REMARK VINA RESULT:      -6.2      1.812      2.494
REMARK SMILES NC(=O)c1ccc(-c2cc(F)cc(F)c2OCc2n[n-]c3c2CCC3)cc1
REMARK SMILES IDX 8 1 9 2 10 3 11 4 12 5 13 6 14 7 15 8 7 9 4 10 5 11 27 12
REMARK SMILES IDX 6 13 26 14 2 15 1 16 3 19 16 20 17 21 18 22 19 23 22 24
REMARK SMILES IDX 20 25 21 26 23 27 25 28 24 29
REMARK H PARENT 1 17 1 18
ROOT
ATOM      1  C   UNL     1      43.192 131.815  20.201  1.00  0.00     0.030 A 
ATOM      2  C   UNL     1      42.208 132.814  20.103  1.00  0.00     0.052 A 
ATOM      3  C   UNL     1      41.447 133.169  21.218  1.00  0.00     0.127 A 
ATOM      4  F   UNL     1      40.506 134.139  21.114  1.00  0.00    -0.207 F 
ATOM      5  C   UNL     1      41.656 132.528  22.438  1.00  0.00     0.082 A 
ATOM      6  C   UNL     1      42.621 131.523  22.555  1.00  0.00     0.168 A 
ATOM      7  F   UNL     1      42.785 130.930  23.762  1.00  0.00    -0.203 F 
ATOM      8  C   UNL     1      43.396 131.151  21.432  1.00  0.00     0.163 A 
ENDROOT
BRANCH   1   9
ATOM      9  C   UNL     1      43.981 131.449  19.002  1.00  0.00    -0.014 A 
ATOM     10  C   UNL     1      45.449 130.689  16.712  1.00  0.00     0.039 A 
ATOM     11  C   UNL     1      44.176 131.274  16.584  1.00  0.00     0.014 A 
ATOM     12  C   UNL     1      45.977 130.488  18.001  1.00  0.00     0.014 A 
ATOM     13  C   UNL     1      43.453 131.654  17.718  1.00  0.00     0.010 A 
ATOM     14  C   UNL     1      45.253 130.870  19.132  1.00  0.00     0.010 A 
BRANCH  10  15
ATOM     15  C   UNL     1      46.223 130.261  15.521  1.00  0.00     0.248 C 
ATOM     16  N   UNL     1      46.244 128.897  15.093  1.00  0.00    -0.366 N 
ATOM     17  H   UNL     1      45.610 128.181  15.507  1.00  0.00     0.159 HD
ATOM     18  H   UNL     1      46.843 128.615  14.286  1.00  0.00     0.159 HD
ATOM     19  O   UNL     1      46.867 131.117  14.857  1.00  0.00    -0.270 OA
ENDBRANCH  10  15
ENDBRANCH   1   9
BRANCH   8  20
ATOM     20  O   UNL     1      44.359 130.129  21.475  1.00  0.00    -0.484 OA
BRANCH  20  21
ATOM     21  C   UNL     1      45.052 129.669  22.629  1.00  0.00     0.284 C 
BRANCH  21  22
ATOM     22  C   UNL     1      44.492 128.346  23.045  1.00  0.00     0.058 A 
ATOM     23  N   UNL     1      43.176 128.117  23.260  1.00  0.00    -0.369 NA
ATOM     24  C   UNL     1      45.138 127.131  23.012  1.00  0.00    -0.042 A 
ATOM     25  N   UNL     1      42.980 126.804  23.334  1.00  0.00    -0.578 NA
ATOM     26  C   UNL     1      44.185 126.219  23.212  1.00  0.00    -0.141 A 
ATOM     27  C   UNL     1      46.303 126.608  22.272  1.00  0.00     0.036 C 
ATOM     28  C   UNL     1      44.525 124.890  22.669  1.00  0.00     0.013 C 
ATOM     29  C   UNL     1      45.985 125.093  22.184  1.00  0.00     0.008 C 
ENDBRANCH  21  22
ENDBRANCH  20  21
ENDBRANCH   8  20
TORSDOF 5
ENDMDL
MODEL 4
REMARK VINA RESULT:      -5.8      1.897      2.764
REMARK SMILES NC(=O)c1ccc(-c2cc(F)cc(F)c2OCc2n[n-]c3c2CCC3)cc1
REMARK SMILES IDX 8 1 9 2 10 3 11 4 12 5 13 6 14 7 15 8 7 9 4 10 5 11 27 12
REMARK SMILES IDX 6 13 26 14 2 15 1 16 3 19 16 20 17 21 18 22 19 23 22 24
REMARK SMILES IDX 20 25 21 26 23 27 25 28 24 29
REMARK H PARENT 1 17 1 18
ROOT
ATOM      1  C   UNL     1      43.179 131.794  20.012  1.00  0.00     0.030 A 
ATOM      2  C   UNL     1      42.215 132.815  19.961  1.00  0.00     0.052 A 
ATOM      3  C   UNL     1      41.492 133.163  21.102  1.00  0.00     0.127 A 
ATOM      4  F   UNL     1      40.569 134.154  21.043  1.00  0.00    -0.207 F 
ATOM      5  C   UNL     1      41.720 132.494  22.303  1.00  0.00     0.082 A 
ATOM      6  C   UNL     1      42.667 131.467  22.374  1.00  0.00     0.168 A 
ATOM      7  F   UNL     1      42.851 130.847  23.565  1.00  0.00    -0.203 F 
ATOM      8  C   UNL     1      43.403 131.102  21.223  1.00  0.00     0.163 A 
ENDROOT
BRANCH   1   9
ATOM      9  C   UNL     1      43.927 131.435  18.784  1.00  0.00    -0.014 A 
ATOM     10  C   UNL     1      45.386 130.812  16.447  1.00  0.00     0.039 A 
ATOM     11  C   UNL     1      45.954 130.616  17.719  1.00  0.00     0.014 A 
ATOM     12  C   UNL     1      44.079 131.325  16.361  1.00  0.00     0.014 A 
ATOM     13  C   UNL     1      45.229 130.920  18.875  1.00  0.00     0.010 A 
ATOM     14  C   UNL     1      43.356 131.627  17.517  1.00  0.00     0.010 A 
BRANCH  10  15
ATOM     15  C   UNL     1      46.147 130.514  15.210  1.00  0.00     0.248 C 
ATOM     16  N   UNL     1      45.751 131.041  13.942  1.00  0.00    -0.366 N 
ATOM     17  H   UNL     1      45.006 131.766  13.856  1.00  0.00     0.159 HD
ATOM     18  H   UNL     1      46.271 130.767  13.079  1.00  0.00     0.159 HD
ATOM     19  O   UNL     1      47.177 129.790  15.273  1.00  0.00    -0.270 OA
ENDBRANCH  10  15
ENDBRANCH   1   9
BRANCH   8  20
ATOM     20  O   UNL     1      44.345 130.059  21.220  1.00  0.00    -0.484 OA
BRANCH  20  21
ATOM     21  C   UNL     1      45.151 129.646  22.317  1.00  0.00     0.284 C 
BRANCH  21  22
ATOM     22  C   UNL     1      44.629 128.351  22.852  1.00  0.00     0.058 A 
ATOM     23  N   UNL     1      43.324 128.115  23.118  1.00  0.00    -0.369 NA
ATOM     24  C   UNL     1      45.300 127.149  22.901  1.00  0.00    -0.042 A 
ATOM     25  N   UNL     1      43.158 126.809  23.302  1.00  0.00    -0.578 NA
ATOM     26  C   UNL     1      44.371 126.239  23.198  1.00  0.00    -0.141 A 
ATOM     27  C   UNL     1      46.458 126.591  22.176  1.00  0.00     0.036 C 
ATOM     28  C   UNL     1      44.726 124.877  22.755  1.00  0.00     0.013 C 
ATOM     29  C   UNL     1      46.170 125.068  22.219  1.00  0.00     0.008 C 
ENDBRANCH  21  22
ENDBRANCH  20  21
ENDBRANCH   8  20
TORSDOF 5
ENDMDL
MODEL 5
REMARK VINA RESULT:      -5.7      4.421      6.961
REMARK SMILES NC(=O)c1ccc(-c2cc(F)cc(F)c2OCc2n[n-]c3c2CCC3)cc1
REMARK SMILES IDX 8 1 9 2 10 3 11 4 12 5 13 6 14 7 15 8 7 9 4 10 5 11 27 12
REMARK SMILES IDX 6 13 26 14 2 15 1 16 3 19 16 20 17 21 18 22 19 23 22 24
REMARK SMILES IDX 20 25 21 26 23 27 25 28 24 29
REMARK H PARENT 1 17 1 18
ROOT
ATOM      1  C   UNL     1      44.400 131.403  21.217  1.00  0.00     0.030 A 
ATOM      2  C   UNL     1      43.239 130.817  21.751  1.00  0.00     0.052 A 
ATOM      3  C   UNL     1      42.944 130.942  23.108  1.00  0.00     0.127 A 
ATOM      4  F   UNL     1      41.818 130.379  23.611  1.00  0.00    -0.207 F 
ATOM      5  C   UNL     1      43.806 131.647  23.948  1.00  0.00     0.082 A 
ATOM      6  C   UNL     1      44.972 132.227  23.440  1.00  0.00     0.168 A 
ATOM      7  F   UNL     1      45.776 132.901  24.297  1.00  0.00    -0.203 F 
ATOM      8  C   UNL     1      45.285 132.104  22.067  1.00  0.00     0.163 A 
ENDROOT
BRANCH   1   9
ATOM      9  C   UNL     1      44.697 131.249  19.774  1.00  0.00    -0.014 A 
ATOM     10  C   UNL     1      45.313 131.006  17.028  1.00  0.00     0.039 A 
ATOM     11  C   UNL     1      46.096 130.352  17.997  1.00  0.00     0.014 A 
ATOM     12  C   UNL     1      44.220 131.783  17.451  1.00  0.00     0.014 A 
ATOM     13  C   UNL     1      45.786 130.469  19.356  1.00  0.00     0.010 A 
ATOM     14  C   UNL     1      43.912 131.898  18.808  1.00  0.00     0.010 A 
BRANCH  10  15
ATOM     15  C   UNL     1      45.638 130.908  15.584  1.00  0.00     0.248 C 
ATOM     16  N   UNL     1      46.061 132.049  14.834  1.00  0.00    -0.366 N 
ATOM     17  H   UNL     1      46.298 132.954  15.296  1.00  0.00     0.159 HD
ATOM     18  H   UNL     1      46.227 131.965  13.807  1.00  0.00     0.159 HD
ATOM     19  O   UNL     1      45.554 129.794  15.001  1.00  0.00    -0.270 OA
ENDBRANCH  10  15
ENDBRANCH   1   9
BRANCH   8  20
ATOM     20  O   UNL     1      46.456 132.637  21.501  1.00  0.00    -0.484 OA
BRANCH  20  21
ATOM     21  C   UNL     1      46.726 134.012  21.256  1.00  0.00     0.284 C 
BRANCH  21  22
ATOM     22  C   UNL     1      47.919 134.429  22.055  1.00  0.00     0.058 A 
ATOM     23  N   UNL     1      48.634 133.589  22.838  1.00  0.00    -0.369 NA
ATOM     24  C   UNL     1      48.628 135.603  21.925  1.00  0.00    -0.042 A 
ATOM     25  N   UNL     1      49.772 134.190  23.175  1.00  0.00    -0.578 NA
ATOM     26  C   UNL     1      49.741 135.423  22.639  1.00  0.00    -0.141 A 
ATOM     27  C   UNL     1      48.779 136.595  20.843  1.00  0.00     0.036 C 
ATOM     28  C   UNL     1      50.860 136.277  22.199  1.00  0.00     0.013 C 
ATOM     29  C   UNL     1      50.194 137.167  21.117  1.00  0.00     0.008 C 
ENDBRANCH  21  22
ENDBRANCH  20  21
ENDBRANCH   8  20
TORSDOF 5
ENDMDL
MODEL 6
REMARK VINA RESULT:      -5.6      3.894      7.456
REMARK SMILES NC(=O)c1ccc(-c2cc(F)cc(F)c2OCc2n[n-]c3c2CCC3)cc1
REMARK SMILES IDX 8 1 9 2 10 3 11 4 12 5 13 6 14 7 15 8 7 9 4 10 5 11 27 12
REMARK SMILES IDX 6 13 26 14 2 15 1 16 3 19 16 20 17 21 18 22 19 23 22 24
REMARK SMILES IDX 20 25 21 26 23 27 25 28 24 29
REMARK H PARENT 1 17 1 18
ROOT
ATOM      1  C   UNL     1      40.804 124.593  23.754  1.00  0.00     0.030 A 
ATOM      2  C   UNL     1      39.942 123.514  24.018  1.00  0.00     0.052 A 
ATOM      3  C   UNL     1      38.614 123.742  24.377  1.00  0.00     0.127 A 
ATOM      4  F   UNL     1      37.789 122.694  24.622  1.00  0.00    -0.207 F 
ATOM      5  C   UNL     1      38.132 125.046  24.480  1.00  0.00     0.082 A 
ATOM      6  C   UNL     1      38.975 126.134  24.233  1.00  0.00     0.168 A 
ATOM      7  F   UNL     1      38.459 127.382  24.348  1.00  0.00    -0.203 F 
ATOM      8  C   UNL     1      40.325 125.917  23.874  1.00  0.00     0.163 A 
ENDROOT
BRANCH   1   9
ATOM      9  C   UNL     1      42.214 124.327  23.385  1.00  0.00    -0.014 A 
ATOM     10  C   UNL     1      44.903 123.881  22.647  1.00  0.00     0.039 A 
ATOM     11  C   UNL     1      44.590 124.684  23.758  1.00  0.00     0.014 A 
ATOM     12  C   UNL     1      43.853 123.305  21.909  1.00  0.00     0.014 A 
ATOM     13  C   UNL     1      43.259 124.899  24.126  1.00  0.00     0.010 A 
ATOM     14  C   UNL     1      42.524 123.521  22.279  1.00  0.00     0.010 A 
BRANCH  10  15
ATOM     15  C   UNL     1      46.309 123.658  22.231  1.00  0.00     0.248 C 
ATOM     16  N   UNL     1      46.681 122.540  21.421  1.00  0.00    -0.366 N 
ATOM     17  H   UNL     1      45.969 121.925  20.972  1.00  0.00     0.159 HD
ATOM     18  H   UNL     1      47.686 122.375  21.192  1.00  0.00     0.159 HD
ATOM     19  O   UNL     1      47.201 124.475  22.585  1.00  0.00    -0.270 OA
ENDBRANCH  10  15
ENDBRANCH   1   9
BRANCH   8  20
ATOM     20  O   UNL     1      41.231 126.967  23.644  1.00  0.00    -0.484 OA
BRANCH  20  21
ATOM     21  C   UNL     1      41.768 127.849  24.622  1.00  0.00     0.284 C 
BRANCH  21  22
ATOM     22  C   UNL     1      42.047 129.174  23.989  1.00  0.00     0.058 A 
ATOM     23  N   UNL     1      41.615 130.355  24.489  1.00  0.00    -0.369 NA
ATOM     24  C   UNL     1      42.972 129.438  23.003  1.00  0.00    -0.042 A 
ATOM     25  N   UNL     1      42.259 131.339  23.867  1.00  0.00    -0.578 NA
ATOM     26  C   UNL     1      43.056 130.769  22.946  1.00  0.00    -0.141 A 
ATOM     27  C   UNL     1      44.189 128.752  22.528  1.00  0.00     0.036 C 
ATOM     28  C   UNL     1      44.339 131.249  22.399  1.00  0.00     0.013 C 
ATOM     29  C   UNL     1      45.034 129.928  21.973  1.00  0.00     0.008 C 
ENDBRANCH  21  22
ENDBRANCH  20  21
ENDBRANCH   8  20
TORSDOF 5
ENDMDL
MODEL 7
REMARK VINA RESULT:      -5.5      2.772      4.293
REMARK SMILES NC(=O)c1ccc(-c2cc(F)cc(F)c2OCc2n[n-]c3c2CCC3)cc1
REMARK SMILES IDX 8 1 9 2 10 3 11 4 12 5 13 6 14 7 15 8 7 9 4 10 5 11 27 12
REMARK SMILES IDX 6 13 26 14 2 15 1 16 3 19 16 20 17 21 18 22 19 23 22 24
REMARK SMILES IDX 20 25 21 26 23 27 25 28 24 29
REMARK H PARENT 1 17 1 18
ROOT
ATOM      1  C   UNL     1      43.911 131.665  17.889  1.00  0.00     0.030 A 
ATOM      2  C   UNL     1      42.573 131.896  17.529  1.00  0.00     0.052 A 
ATOM      3  C   UNL     1      41.635 132.266  18.493  1.00  0.00     0.127 A 
ATOM      4  F   UNL     1      40.348 132.495  18.133  1.00  0.00    -0.207 F 
ATOM      5  C   UNL     1      42.021 132.404  19.826  1.00  0.00     0.082 A 
ATOM      6  C   UNL     1      43.345 132.167  20.208  1.00  0.00     0.168 A 
ATOM      7  F   UNL     1      43.670 132.314  21.515  1.00  0.00    -0.203 F 
ATOM      8  C   UNL     1      44.304 131.787  19.241  1.00  0.00     0.163 A 
ENDROOT
BRANCH   1   9
ATOM      9  C   UNL     1      44.888 131.262  16.850  1.00  0.00    -0.014 A 
ATOM     10  C   UNL     1      46.697 130.499  14.820  1.00  0.00     0.039 A 
ATOM     11  C   UNL     1      46.384 131.854  15.026  1.00  0.00     0.014 A 
ATOM     12  C   UNL     1      46.092 129.530  15.642  1.00  0.00     0.014 A 
ATOM     13  C   UNL     1      45.492 132.231  16.035  1.00  0.00     0.010 A 
ATOM     14  C   UNL     1      45.202 129.909  16.649  1.00  0.00     0.010 A 
BRANCH  10  15
ATOM     15  C   UNL     1      47.626 130.079  13.743  1.00  0.00     0.248 C 
ATOM     16  N   UNL     1      47.878 130.910  12.607  1.00  0.00    -0.366 N 
ATOM     17  H   UNL     1      47.538 131.895  12.559  1.00  0.00     0.159 HD
ATOM     18  H   UNL     1      48.491 130.565  11.835  1.00  0.00     0.159 HD
ATOM     19  O   UNL     1      48.222 128.972  13.830  1.00  0.00    -0.270 OA
ENDBRANCH  10  15
ENDBRANCH   1   9
BRANCH   8  20
ATOM     20  O   UNL     1      45.642 131.504  19.565  1.00  0.00    -0.484 OA
BRANCH  20  21
ATOM     21  C   UNL     1      46.147 131.169  20.852  1.00  0.00     0.284 C 
BRANCH  21  22
ATOM     22  C   UNL     1      45.491 129.912  21.326  1.00  0.00     0.058 A 
ATOM     23  N   UNL     1      45.870 128.671  20.942  1.00  0.00    -0.369 NA
ATOM     24  C   UNL     1      44.624 129.785  22.389  1.00  0.00    -0.042 A 
ATOM     25  N   UNL     1      45.291 127.783  21.745  1.00  0.00    -0.578 NA
ATOM     26  C   UNL     1      44.513 128.472  22.599  1.00  0.00    -0.141 A 
ATOM     27  C   UNL     1      44.349 130.596  23.591  1.00  0.00     0.036 C 
ATOM     28  C   UNL     1      44.117 128.133  23.978  1.00  0.00     0.013 C 
ATOM     29  C   UNL     1      43.852 129.529  24.601  1.00  0.00     0.008 C 
ENDBRANCH  21  22
ENDBRANCH  20  21
ENDBRANCH   8  20
TORSDOF 5
ENDMDL
MODEL 8
REMARK VINA RESULT:      -5.3      4.425      6.865
REMARK SMILES NC(=O)c1ccc(-c2cc(F)cc(F)c2OCc2n[n-]c3c2CCC3)cc1
REMARK SMILES IDX 8 1 9 2 10 3 11 4 12 5 13 6 14 7 15 8 7 9 4 10 5 11 27 12
REMARK SMILES IDX 6 13 26 14 2 15 1 16 3 19 16 20 17 21 18 22 19 23 22 24
REMARK SMILES IDX 20 25 21 26 23 27 25 28 24 29
REMARK H PARENT 1 17 1 18
ROOT
ATOM      1  C   UNL     1      44.376 131.503  21.335  1.00  0.00     0.030 A 
ATOM      2  C   UNL     1      43.167 130.996  21.841  1.00  0.00     0.052 A 
ATOM      3  C   UNL     1      42.840 131.158  23.187  1.00  0.00     0.127 A 
ATOM      4  F   UNL     1      41.668 130.672  23.663  1.00  0.00    -0.207 F 
ATOM      5  C   UNL     1      43.718 131.822  24.043  1.00  0.00     0.082 A 
ATOM      6  C   UNL     1      44.931 132.324  23.564  1.00  0.00     0.168 A 
ATOM      7  F   UNL     1      45.750 132.961  24.436  1.00  0.00    -0.203 F 
ATOM      8  C   UNL     1      45.276 132.162  22.202  1.00  0.00     0.163 A 
ENDROOT
BRANCH   1   9
ATOM      9  C   UNL     1      44.706 131.310  19.904  1.00  0.00    -0.014 A 
ATOM     10  C   UNL     1      45.286 130.892  17.172  1.00  0.00     0.039 A 
ATOM     11  C   UNL     1      44.210 131.712  17.557  1.00  0.00     0.014 A 
ATOM     12  C   UNL     1      46.067 130.283  18.171  1.00  0.00     0.014 A 
ATOM     13  C   UNL     1      43.928 131.922  18.910  1.00  0.00     0.010 A 
ATOM     14  C   UNL     1      45.783 130.495  19.522  1.00  0.00     0.010 A 
BRANCH  10  15
ATOM     15  C   UNL     1      45.589 130.642  15.741  1.00  0.00     0.248 C 
ATOM     16  N   UNL     1      44.591 130.159  14.839  1.00  0.00    -0.366 N 
ATOM     17  H   UNL     1      43.585 130.102  15.109  1.00  0.00     0.159 HD
ATOM     18  H   UNL     1      44.846 129.937  13.851  1.00  0.00     0.159 HD
ATOM     19  O   UNL     1      46.747 130.872  15.300  1.00  0.00    -0.270 OA
ENDBRANCH  10  15
ENDBRANCH   1   9
BRANCH   8  20
ATOM     20  O   UNL     1      46.494 132.615  21.665  1.00  0.00    -0.484 OA
BRANCH  20  21
ATOM     21  C   UNL     1      46.830 133.962  21.353  1.00  0.00     0.284 C 
BRANCH  21  22
ATOM     22  C   UNL     1      48.006 134.379  22.177  1.00  0.00     0.058 A 
ATOM     23  N   UNL     1      48.659 133.558  23.031  1.00  0.00    -0.369 NA
ATOM     24  C   UNL     1      48.763 135.518  22.015  1.00  0.00    -0.042 A 
ATOM     25  N   UNL     1      49.804 134.135  23.383  1.00  0.00    -0.578 NA
ATOM     26  C   UNL     1      49.840 135.338  22.782  1.00  0.00    -0.141 A 
ATOM     27  C   UNL     1      48.993 136.445  20.891  1.00  0.00     0.036 C 
ATOM     28  C   UNL     1      51.007 136.126  22.344  1.00  0.00     0.013 C 
ATOM     29  C   UNL     1      50.417 136.981  21.192  1.00  0.00     0.008 C 
ENDBRANCH  21  22
ENDBRANCH  20  21
ENDBRANCH   8  20
TORSDOF 5
ENDMDL
MODEL 9
REMARK VINA RESULT:      -5.3      2.515      3.619
REMARK SMILES NC(=O)c1ccc(-c2cc(F)cc(F)c2OCc2n[n-]c3c2CCC3)cc1
REMARK SMILES IDX 8 1 9 2 10 3 11 4 12 5 13 6 14 7 15 8 7 9 4 10 5 11 27 12
REMARK SMILES IDX 6 13 26 14 2 15 1 16 3 19 16 20 17 21 18 22 19 23 22 24
REMARK SMILES IDX 20 25 21 26 23 27 25 28 24 29
REMARK H PARENT 1 17 1 18
ROOT
ATOM      1  C   UNL     1      44.043 131.625  18.501  1.00  0.00     0.030 A 
ATOM      2  C   UNL     1      42.791 132.185  18.194  1.00  0.00     0.052 A 
ATOM      3  C   UNL     1      41.907 132.541  19.213  1.00  0.00     0.127 A 
ATOM      4  F   UNL     1      40.705 133.088  18.906  1.00  0.00    -0.207 F 
ATOM      5  C   UNL     1      42.259 132.336  20.546  1.00  0.00     0.082 A 
ATOM      6  C   UNL     1      43.494 131.769  20.873  1.00  0.00     0.168 A 
ATOM      7  F   UNL     1      43.789 131.590  22.184  1.00  0.00    -0.203 F 
ATOM      8  C   UNL     1      44.398 131.400  19.850  1.00  0.00     0.163 A 
ENDROOT
BRANCH   1   9
ATOM      9  C   UNL     1      44.961 131.245  17.402  1.00  0.00    -0.014 A 
ATOM     10  C   UNL     1      46.657 130.513  15.266  1.00  0.00     0.039 A 
ATOM     11  C   UNL     1      46.172 131.829  15.375  1.00  0.00     0.014 A 
ATOM     12  C   UNL     1      46.282 129.569  16.238  1.00  0.00     0.014 A 
ATOM     13  C   UNL     1      45.337 132.191  16.437  1.00  0.00     0.010 A 
ATOM     14  C   UNL     1      45.449 129.933  17.298  1.00  0.00     0.010 A 
BRANCH  10  15
ATOM     15  C   UNL     1      47.528 130.107  14.136  1.00  0.00     0.248 C 
ATOM     16  N   UNL     1      48.118 128.806  14.077  1.00  0.00    -0.366 N 
ATOM     17  H   UNL     1      47.847 128.048  14.741  1.00  0.00     0.159 HD
ATOM     18  H   UNL     1      48.774 128.566  13.301  1.00  0.00     0.159 HD
ATOM     19  O   UNL     1      47.748 130.917  13.196  1.00  0.00    -0.270 OA
ENDBRANCH  10  15
ENDBRANCH   1   9
BRANCH   8  20
ATOM     20  O   UNL     1      45.640 130.797  20.112  1.00  0.00    -0.484 OA
BRANCH  20  21
ATOM     21  C   UNL     1      45.891 129.403  20.249  1.00  0.00     0.284 C 
BRANCH  21  22
ATOM     22  C   UNL     1      45.515 128.969  21.630  1.00  0.00     0.058 A 
ATOM     23  N   UNL     1      44.630 129.627  22.413  1.00  0.00    -0.369 NA
ATOM     24  C   UNL     1      45.771 127.745  22.206  1.00  0.00    -0.042 A 
ATOM     25  N   UNL     1      44.309 128.845  23.440  1.00  0.00    -0.578 NA
ATOM     26  C   UNL     1      45.032 127.718  23.318  1.00  0.00    -0.141 A 
ATOM     27  C   UNL     1      46.077 126.404  21.673  1.00  0.00     0.036 C 
ATOM     28  C   UNL     1      44.712 126.351  23.771  1.00  0.00     0.013 C 
ATOM     29  C   UNL     1      45.526 125.474  22.785  1.00  0.00     0.008 C 
ENDBRANCH  21  22
ENDBRANCH  20  21
ENDBRANCH   8  20
TORSDOF 5
ENDMDL


