MODEL 1
REMARK VINA RESULT:      -6.3      0.000      0.000
REMARK SMILES [NH-]C(=O)c1ccc(-c2cc(F)cc(F)c2OCc2n[nH]c3c2CCC3)cc1
REMARK SMILES IDX 8 1 9 2 10 3 11 4 12 5 13 6 14 7 15 8 7 9 4 10 5 11 27 12
REMARK SMILES IDX 6 13 26 14 2 15 3 16 1 17 16 19 17 20 18 21 19 22 22 23
REMARK SMILES IDX 20 24 21 25 23 26 25 27 24 28
REMARK H PARENT 1 18 20 29
ROOT
ATOM      1  C   UNL     1      43.385 131.670  19.995  1.00  0.00     0.030 A 
ATOM      2  C   UNL     1      42.374 132.645  19.955  1.00  0.00     0.052 A 
ATOM      3  C   UNL     1      41.677 132.987  21.114  1.00  0.00     0.127 A 
ATOM      4  F   UNL     1      40.698 133.924  21.063  1.00  0.00    -0.207 F 
ATOM      5  C   UNL     1      41.983 132.365  22.323  1.00  0.00     0.082 A 
ATOM      6  C   UNL     1      42.993 131.400  22.387  1.00  0.00     0.168 A 
ATOM      7  F   UNL     1      43.250 130.820  23.584  1.00  0.00    -0.203 F 
ATOM      8  C   UNL     1      43.713 131.049  21.221  1.00  0.00     0.163 A 
ENDROOT
BRANCH   1   9
ATOM      9  C   UNL     1      44.122 131.332  18.754  1.00  0.00    -0.014 A 
ATOM     10  C   UNL     1      45.549 130.752  16.387  1.00  0.00    -0.001 A 
ATOM     11  C   UNL     1      44.270 131.333  16.327  1.00  0.00     0.011 A 
ATOM     12  C   UNL     1      46.102 130.456  17.646  1.00  0.00     0.011 A 
ATOM     13  C   UNL     1      43.562 131.616  17.498  1.00  0.00     0.009 A 
ATOM     14  C   UNL     1      45.394 130.741  18.817  1.00  0.00     0.009 A 
BRANCH  10  15
ATOM     15  C   UNL     1      46.306 130.460  15.147  1.00  0.00     0.080 C 
ATOM     16  O   UNL     1      47.325 129.719  15.182  1.00  0.00    -0.315 OA
BRANCH  15  17
ATOM     17  N   UNL     1      45.891 131.013  13.899  1.00  0.00    -0.664 NA
ATOM     18  H   UNL     1      45.444 131.955  13.851  1.00  0.00    -0.121 HD
ENDBRANCH  15  17
ENDBRANCH  10  15
ENDBRANCH   1   9
BRANCH   8  19
ATOM     19  O   UNL     1      44.761 130.114  21.226  1.00  0.00    -0.483 OA
BRANCH  19  20
ATOM     20  C   UNL     1      45.278 129.435  22.366  1.00  0.00     0.288 C 
BRANCH  20  21
ATOM     21  C   UNL     1      44.602 128.109  22.496  1.00  0.00     0.103 A 
ATOM     22  N   UNL     1      43.479 127.908  23.224  1.00  0.00    -0.177 NA
ATOM     23  C   UNL     1      45.149 126.877  22.190  1.00  0.00    -0.000 A 
ATOM     24  N   UNL     1      43.320 126.599  23.372  1.00  0.00    -0.282 N 
ATOM     25  C   UNL     1      44.326 125.975  22.739  1.00  0.00     0.039 A 
ATOM     26  C   UNL     1      46.543 126.399  22.078  1.00  0.00     0.040 C 
ATOM     27  C   UNL     1      45.003 124.713  23.097  1.00  0.00     0.056 C 
ATOM     28  C   UNL     1      46.424 124.917  22.512  1.00  0.00     0.011 C 
ATOM     29  H   UNL     1      42.612 126.159  24.001  1.00  0.00     0.190 HD
ENDBRANCH  20  21
ENDBRANCH  19  20
ENDBRANCH   8  19
TORSDOF 6
ENDMDL
MODEL 2
REMARK VINA RESULT:      -6.2      4.444      5.800
REMARK SMILES [NH-]C(=O)c1ccc(-c2cc(F)cc(F)c2OCc2n[nH]c3c2CCC3)cc1
REMARK SMILES IDX 8 1 9 2 10 3 11 4 12 5 13 6 14 7 15 8 7 9 4 10 5 11 27 12
REMARK SMILES IDX 6 13 26 14 2 15 3 16 1 17 16 19 17 20 18 21 19 22 22 23
REMARK SMILES IDX 20 24 21 25 23 26 25 27 24 28
REMARK H PARENT 1 18 20 29
ROOT
ATOM      1  C   UNL     1      44.198 131.376  21.492  1.00  0.00     0.030 A 
ATOM      2  C   UNL     1      43.168 130.596  22.041  1.00  0.00     0.052 A 
ATOM      3  C   UNL     1      42.911 130.628  23.412  1.00  0.00     0.127 A 
ATOM      4  F   UNL     1      41.918 129.864  23.932  1.00  0.00    -0.207 F 
ATOM      5  C   UNL     1      43.675 131.441  24.247  1.00  0.00     0.082 A 
ATOM      6  C   UNL     1      44.697 132.235  23.719  1.00  0.00     0.168 A 
ATOM      7  F   UNL     1      45.416 133.005  24.573  1.00  0.00    -0.203 F 
ATOM      8  C   UNL     1      44.964 132.217  22.330  1.00  0.00     0.163 A 
ENDROOT
BRANCH   1   9
ATOM      9  C   UNL     1      44.444 131.337  20.031  1.00  0.00    -0.014 A 
ATOM     10  C   UNL     1      44.887 131.201  17.245  1.00  0.00    -0.001 A 
ATOM     11  C   UNL     1      45.820 130.656  18.145  1.00  0.00     0.011 A 
ATOM     12  C   UNL     1      43.734 131.824  17.756  1.00  0.00     0.011 A 
ATOM     13  C   UNL     1      45.603 130.727  19.523  1.00  0.00     0.009 A 
ATOM     14  C   UNL     1      43.517 131.894  19.135  1.00  0.00     0.009 A 
BRANCH  10  15
ATOM     15  C   UNL     1      45.110 131.117  15.782  1.00  0.00     0.080 C 
ATOM     16  O   UNL     1      44.732 130.102  15.137  1.00  0.00    -0.315 OA
BRANCH  15  17
ATOM     17  N   UNL     1      45.753 132.184  15.086  1.00  0.00    -0.664 NA
ATOM     18  H   UNL     1      46.767 132.387  15.233  1.00  0.00    -0.121 HD
ENDBRANCH  15  17
ENDBRANCH  10  15
ENDBRANCH   1   9
BRANCH   8  19
ATOM     19  O   UNL     1      45.953 133.017  21.735  1.00  0.00    -0.483 OA
BRANCH  19  20
ATOM     20  C   UNL     1      47.357 132.785  21.769  1.00  0.00     0.288 C 
BRANCH  20  21
ATOM     21  C   UNL     1      48.059 134.062  22.094  1.00  0.00     0.103 A 
ATOM     22  N   UNL     1      48.053 135.148  21.285  1.00  0.00    -0.177 NA
ATOM     23  C   UNL     1      49.042 134.238  23.050  1.00  0.00    -0.000 A 
ATOM     24  N   UNL     1      48.994 135.979  21.713  1.00  0.00    -0.282 N 
ATOM     25  C   UNL     1      49.587 135.433  22.787  1.00  0.00     0.039 A 
ATOM     26  C   UNL     1      49.979 133.304  23.707  1.00  0.00     0.040 C 
ATOM     27  C   UNL     1      50.994 135.537  23.222  1.00  0.00     0.056 C 
ATOM     28  C   UNL     1      51.211 134.204  23.980  1.00  0.00     0.011 C 
ATOM     29  H   UNL     1      49.302 136.835  21.201  1.00  0.00     0.190 HD
ENDBRANCH  20  21
ENDBRANCH  19  20
ENDBRANCH   8  19
TORSDOF 6
ENDMDL
MODEL 3
REMARK VINA RESULT:      -6.0      4.613      6.184
REMARK SMILES [NH-]C(=O)c1ccc(-c2cc(F)cc(F)c2OCc2n[nH]c3c2CCC3)cc1
REMARK SMILES IDX 8 1 9 2 10 3 11 4 12 5 13 6 14 7 15 8 7 9 4 10 5 11 27 12
REMARK SMILES IDX 6 13 26 14 2 15 3 16 1 17 16 19 17 20 18 21 19 22 22 23
REMARK SMILES IDX 20 24 21 25 23 26 25 27 24 28
REMARK H PARENT 1 18 20 29
ROOT
ATOM      1  C   UNL     1      44.423 131.649  21.584  1.00  0.00     0.030 A 
ATOM      2  C   UNL     1      43.183 131.214  22.080  1.00  0.00     0.052 A 
ATOM      3  C   UNL     1      42.824 131.466  23.405  1.00  0.00     0.127 A 
ATOM      4  F   UNL     1      41.628 131.036  23.876  1.00  0.00    -0.207 F 
ATOM      5  C   UNL     1      43.696 132.157  24.245  1.00  0.00     0.082 A 
ATOM      6  C   UNL     1      44.930 132.608  23.768  1.00  0.00     0.168 A 
ATOM      7  F   UNL     1      45.745 133.271  24.625  1.00  0.00    -0.203 F 
ATOM      8  C   UNL     1      45.303 132.366  22.425  1.00  0.00     0.163 A 
ENDROOT
BRANCH   1   9
ATOM      9  C   UNL     1      44.776 131.382  20.169  1.00  0.00    -0.014 A 
ATOM     10  C   UNL     1      45.489 130.928  17.474  1.00  0.00    -0.001 A 
ATOM     11  C   UNL     1      44.453 131.823  17.800  1.00  0.00     0.011 A 
ATOM     12  C   UNL     1      46.156 130.256  18.513  1.00  0.00     0.011 A 
ATOM     13  C   UNL     1      44.099 132.045  19.133  1.00  0.00     0.009 A 
ATOM     14  C   UNL     1      45.801 130.478  19.847  1.00  0.00     0.009 A 
BRANCH  10  15
ATOM     15  C   UNL     1      45.874 130.700  16.062  1.00  0.00     0.080 C 
ATOM     16  O   UNL     1      45.285 131.317  15.133  1.00  0.00    -0.315 OA
BRANCH  15  17
ATOM     17  N   UNL     1      46.915 129.782  15.735  1.00  0.00    -0.664 NA
ATOM     18  H   UNL     1      47.800 130.110  15.288  1.00  0.00    -0.121 HD
ENDBRANCH  15  17
ENDBRANCH  10  15
ENDBRANCH   1   9
BRANCH   8  19
ATOM     19  O   UNL     1      46.512 132.824  21.876  1.00  0.00    -0.483 OA
BRANCH  19  20
ATOM     20  C   UNL     1      46.854 134.179  21.605  1.00  0.00     0.288 C 
BRANCH  20  21
ATOM     21  C   UNL     1      48.223 134.455  22.132  1.00  0.00     0.103 A 
ATOM     22  N   UNL     1      48.639 134.088  23.368  1.00  0.00    -0.177 NA
ATOM     23  C   UNL     1      49.134 135.360  21.618  1.00  0.00    -0.000 A 
ATOM     24  N   UNL     1      49.769 134.734  23.624  1.00  0.00    -0.282 N 
ATOM     25  C   UNL     1      50.074 135.497  22.561  1.00  0.00     0.039 A 
ATOM     26  C   UNL     1      48.984 136.559  20.768  1.00  0.00     0.040 C 
ATOM     27  C   UNL     1      50.743 136.812  22.527  1.00  0.00     0.056 C 
ATOM     28  C   UNL     1      50.154 137.455  21.246  1.00  0.00     0.011 C 
ATOM     29  H   UNL     1      50.244 134.746  24.554  1.00  0.00     0.190 HD
ENDBRANCH  20  21
ENDBRANCH  19  20
ENDBRANCH   8  19
TORSDOF 6
ENDMDL
MODEL 4
REMARK VINA RESULT:      -6.0      1.248      1.949
REMARK SMILES [NH-]C(=O)c1ccc(-c2cc(F)cc(F)c2OCc2n[nH]c3c2CCC3)cc1
REMARK SMILES IDX 8 1 9 2 10 3 11 4 12 5 13 6 14 7 15 8 7 9 4 10 5 11 27 12
REMARK SMILES IDX 6 13 26 14 2 15 3 16 1 17 16 19 17 20 18 21 19 22 22 23
REMARK SMILES IDX 20 24 21 25 23 26 25 27 24 28
REMARK H PARENT 1 18 20 29
ROOT
ATOM      1  C   UNL     1      42.978 131.896  20.454  1.00  0.00     0.030 A 
ATOM      2  C   UNL     1      41.992 132.894  20.394  1.00  0.00     0.052 A 
ATOM      3  C   UNL     1      41.213 133.186  21.514  1.00  0.00     0.127 A 
ATOM      4  F   UNL     1      40.259 134.147  21.442  1.00  0.00    -0.207 F 
ATOM      5  C   UNL     1      41.414 132.490  22.705  1.00  0.00     0.082 A 
ATOM      6  C   UNL     1      42.398 131.501  22.789  1.00  0.00     0.168 A 
ATOM      7  F   UNL     1      42.551 130.849  23.967  1.00  0.00    -0.203 F 
ATOM      8  C   UNL     1      43.199 131.200  21.663  1.00  0.00     0.163 A 
ENDROOT
BRANCH   1   9
ATOM      9  C   UNL     1      43.803 131.612  19.255  1.00  0.00    -0.014 A 
ATOM     10  C   UNL     1      45.358 131.008  16.976  1.00  0.00    -0.001 A 
ATOM     11  C   UNL     1      45.882 130.824  18.269  1.00  0.00     0.011 A 
ATOM     12  C   UNL     1      44.051 131.507  16.838  1.00  0.00     0.011 A 
ATOM     13  C   UNL     1      45.114 131.127  19.396  1.00  0.00     0.009 A 
ATOM     14  C   UNL     1      43.283 131.809  17.967  1.00  0.00     0.009 A 
BRANCH  10  15
ATOM     15  C   UNL     1      46.167 130.677  15.779  1.00  0.00     0.080 C 
ATOM     16  O   UNL     1      46.635 129.516  15.628  1.00  0.00    -0.315 OA
BRANCH  15  17
ATOM     17  N   UNL     1      46.424 131.666  14.784  1.00  0.00    -0.664 NA
ATOM     18  H   UNL     1      46.544 132.670  15.043  1.00  0.00    -0.121 HD
ENDBRANCH  15  17
ENDBRANCH  10  15
ENDBRANCH   1   9
BRANCH   8  19
ATOM     19  O   UNL     1      44.227 130.243  21.695  1.00  0.00    -0.483 OA
BRANCH  19  20
ATOM     20  C   UNL     1      44.877 129.744  22.859  1.00  0.00     0.288 C 
BRANCH  20  21
ATOM     21  C   UNL     1      44.778 128.254  22.875  1.00  0.00     0.103 A 
ATOM     22  N   UNL     1      45.451 127.448  22.020  1.00  0.00    -0.177 NA
ATOM     23  C   UNL     1      43.800 127.503  23.501  1.00  0.00    -0.000 A 
ATOM     24  N   UNL     1      44.921 126.234  22.103  1.00  0.00    -0.282 N 
ATOM     25  C   UNL     1      43.927 126.266  23.006  1.00  0.00     0.039 A 
ATOM     26  C   UNL     1      42.423 127.816  23.938  1.00  0.00     0.040 C 
ATOM     27  C   UNL     1      42.663 125.503  23.019  1.00  0.00     0.056 C 
ATOM     28  C   UNL     1      41.707 126.451  23.785  1.00  0.00     0.011 C 
ATOM     29  H   UNL     1      45.153 125.444  21.461  1.00  0.00     0.190 HD
ENDBRANCH  20  21
ENDBRANCH  19  20
ENDBRANCH   8  19
TORSDOF 6
ENDMDL
MODEL 5
REMARK VINA RESULT:      -6.0      4.505      6.191
REMARK SMILES [NH-]C(=O)c1ccc(-c2cc(F)cc(F)c2OCc2n[nH]c3c2CCC3)cc1
REMARK SMILES IDX 8 1 9 2 10 3 11 4 12 5 13 6 14 7 15 8 7 9 4 10 5 11 27 12
REMARK SMILES IDX 6 13 26 14 2 15 3 16 1 17 16 19 17 20 18 21 19 22 22 23
REMARK SMILES IDX 20 24 21 25 23 26 25 27 24 28
REMARK H PARENT 1 18 20 29
ROOT
ATOM      1  C   UNL     1      44.475 131.496  21.261  1.00  0.00     0.030 A 
ATOM      2  C   UNL     1      43.295 130.918  21.756  1.00  0.00     0.052 A 
ATOM      3  C   UNL     1      42.938 131.075  23.096  1.00  0.00     0.127 A 
ATOM      4  F   UNL     1      41.800 130.507  23.564  1.00  0.00    -0.207 F 
ATOM      5  C   UNL     1      43.753 131.812  23.953  1.00  0.00     0.082 A 
ATOM      6  C   UNL     1      44.926 132.406  23.478  1.00  0.00     0.168 A 
ATOM      7  F   UNL     1      45.687 133.109  24.352  1.00  0.00    -0.203 F 
ATOM      8  C   UNL     1      45.295 132.261  22.121  1.00  0.00     0.163 A 
ENDROOT
BRANCH   1   9
ATOM      9  C   UNL     1      44.827 131.328  19.831  1.00  0.00    -0.014 A 
ATOM     10  C   UNL     1      45.456 130.954  17.104  1.00  0.00    -0.001 A 
ATOM     11  C   UNL     1      46.153 130.249  18.102  1.00  0.00     0.011 A 
ATOM     12  C   UNL     1      44.448 131.856  17.487  1.00  0.00     0.011 A 
ATOM     13  C   UNL     1      45.844 130.437  19.451  1.00  0.00     0.009 A 
ATOM     14  C   UNL     1      44.138 132.043  18.838  1.00  0.00     0.009 A 
BRANCH  10  15
ATOM     15  C   UNL     1      45.776 130.748  15.671  1.00  0.00     0.080 C 
ATOM     16  O   UNL     1      45.951 129.585  15.218  1.00  0.00    -0.315 OA
BRANCH  15  17
ATOM     17  N   UNL     1      45.887 131.862  14.787  1.00  0.00    -0.664 NA
ATOM     18  H   UNL     1      46.818 132.173  14.429  1.00  0.00    -0.121 HD
ENDBRANCH  15  17
ENDBRANCH  10  15
ENDBRANCH   1   9
BRANCH   8  19
ATOM     19  O   UNL     1      46.442 132.861  21.576  1.00  0.00    -0.483 OA
BRANCH  19  20
ATOM     20  C   UNL     1      46.721 134.256  21.529  1.00  0.00     0.288 C 
BRANCH  20  21
ATOM     21  C   UNL     1      48.113 134.496  22.014  1.00  0.00     0.103 A 
ATOM     22  N   UNL     1      48.565 134.088  23.223  1.00  0.00    -0.177 NA
ATOM     23  C   UNL     1      49.019 135.400  21.492  1.00  0.00    -0.000 A 
ATOM     24  N   UNL     1      49.715 134.708  23.457  1.00  0.00    -0.282 N 
ATOM     25  C   UNL     1      49.994 135.496  22.405  1.00  0.00     0.039 A 
ATOM     26  C   UNL     1      48.860 136.625  20.682  1.00  0.00     0.040 C 
ATOM     27  C   UNL     1      50.685 136.800  22.383  1.00  0.00     0.056 C 
ATOM     28  C   UNL     1      50.061 137.488  21.142  1.00  0.00     0.011 C 
ATOM     29  H   UNL     1      50.222 134.686  24.370  1.00  0.00     0.190 HD
ENDBRANCH  20  21
ENDBRANCH  19  20
ENDBRANCH   8  19
TORSDOF 6
ENDMDL
MODEL 6
REMARK VINA RESULT:      -5.9      2.141      6.449
REMARK SMILES [NH-]C(=O)c1ccc(-c2cc(F)cc(F)c2OCc2n[nH]c3c2CCC3)cc1
REMARK SMILES IDX 8 1 9 2 10 3 11 4 12 5 13 6 14 7 15 8 7 9 4 10 5 11 27 12
REMARK SMILES IDX 6 13 26 14 2 15 3 16 1 17 16 19 17 20 18 21 19 22 22 23
REMARK SMILES IDX 20 24 21 25 23 26 25 27 24 28
REMARK H PARENT 1 18 20 29
ROOT
ATOM      1  C   UNL     1      43.827 129.969  22.490  1.00  0.00     0.030 A 
ATOM      2  C   UNL     1      43.087 130.433  23.589  1.00  0.00     0.052 A 
ATOM      3  C   UNL     1      42.468 131.683  23.548  1.00  0.00     0.127 A 
ATOM      4  F   UNL     1      41.762 132.124  24.619  1.00  0.00    -0.207 F 
ATOM      5  C   UNL     1      42.579 132.480  22.410  1.00  0.00     0.082 A 
ATOM      6  C   UNL     1      43.301 132.032  21.300  1.00  0.00     0.168 A 
ATOM      7  F   UNL     1      43.384 132.845  20.219  1.00  0.00    -0.203 F 
ATOM      8  C   UNL     1      43.927 130.763  21.326  1.00  0.00     0.163 A 
ENDROOT
BRANCH   1   9
ATOM      9  C   UNL     1      44.463 128.631  22.550  1.00  0.00    -0.014 A 
ATOM     10  C   UNL     1      45.631 126.061  22.621  1.00  0.00    -0.001 A 
ATOM     11  C   UNL     1      44.505 126.357  23.411  1.00  0.00     0.011 A 
ATOM     12  C   UNL     1      46.171 127.069  21.803  1.00  0.00     0.011 A 
ATOM     13  C   UNL     1      43.930 127.630  23.379  1.00  0.00     0.009 A 
ATOM     14  C   UNL     1      45.594 128.342  21.770  1.00  0.00     0.009 A 
BRANCH  10  15
ATOM     15  C   UNL     1      46.236 124.708  22.646  1.00  0.00     0.080 C 
ATOM     16  O   UNL     1      47.354 124.501  22.100  1.00  0.00    -0.315 OA
BRANCH  15  17
ATOM     17  N   UNL     1      45.564 123.626  23.288  1.00  0.00    -0.664 NA
ATOM     18  H   UNL     1      45.668 122.647  22.940  1.00  0.00    -0.121 HD
ENDBRANCH  15  17
ENDBRANCH  10  15
ENDBRANCH   1   9
BRANCH   8  19
ATOM     19  O   UNL     1      44.636 130.242  20.231  1.00  0.00    -0.483 OA
BRANCH  19  20
ATOM     20  C   UNL     1      45.639 130.918  19.479  1.00  0.00     0.288 C 
BRANCH  20  21
ATOM     21  C   UNL     1      45.086 131.287  18.142  1.00  0.00     0.103 A 
ATOM     22  N   UNL     1      43.826 131.745  17.952  1.00  0.00    -0.177 NA
ATOM     23  C   UNL     1      45.611 130.936  16.912  1.00  0.00    -0.000 A 
ATOM     24  N   UNL     1      43.565 131.689  16.653  1.00  0.00    -0.282 N 
ATOM     25  C   UNL     1      44.648 131.207  16.022  1.00  0.00     0.039 A 
ATOM     26  C   UNL     1      46.511 129.847  16.480  1.00  0.00     0.040 C 
ATOM     27  C   UNL     1      44.716 130.359  14.816  1.00  0.00     0.056 C 
ATOM     28  C   UNL     1      46.037 129.578  15.030  1.00  0.00     0.011 C 
ATOM     29  H   UNL     1      42.623 131.855  16.233  1.00  0.00     0.190 HD
ENDBRANCH  20  21
ENDBRANCH  19  20
ENDBRANCH   8  19
TORSDOF 6
ENDMDL
MODEL 7
REMARK VINA RESULT:      -5.9      4.411      5.690
REMARK SMILES [NH-]C(=O)c1ccc(-c2cc(F)cc(F)c2OCc2n[nH]c3c2CCC3)cc1
REMARK SMILES IDX 8 1 9 2 10 3 11 4 12 5 13 6 14 7 15 8 7 9 4 10 5 11 27 12
REMARK SMILES IDX 6 13 26 14 2 15 3 16 1 17 16 19 17 20 18 21 19 22 22 23
REMARK SMILES IDX 20 24 21 25 23 26 25 27 24 28
REMARK H PARENT 1 18 20 29
ROOT
ATOM      1  C   UNL     1      44.226 131.345  21.396  1.00  0.00     0.030 A 
ATOM      2  C   UNL     1      43.189 130.580  21.954  1.00  0.00     0.052 A 
ATOM      3  C   UNL     1      42.917 130.647  23.322  1.00  0.00     0.127 A 
ATOM      4  F   UNL     1      41.919 129.898  23.851  1.00  0.00    -0.207 F 
ATOM      5  C   UNL     1      43.674 131.481  24.143  1.00  0.00     0.082 A 
ATOM      6  C   UNL     1      44.702 132.260  23.606  1.00  0.00     0.168 A 
ATOM      7  F   UNL     1      45.412 133.051  24.447  1.00  0.00    -0.203 F 
ATOM      8  C   UNL     1      44.983 132.207  22.221  1.00  0.00     0.163 A 
ENDROOT
BRANCH   1   9
ATOM      9  C   UNL     1      44.487 131.268  19.939  1.00  0.00    -0.014 A 
ATOM     10  C   UNL     1      45.015 131.181  17.166  1.00  0.00    -0.001 A 
ATOM     11  C   UNL     1      43.895 131.875  17.660  1.00  0.00     0.011 A 
ATOM     12  C   UNL     1      45.860 130.522  18.076  1.00  0.00     0.011 A 
ATOM     13  C   UNL     1      43.633 131.916  19.032  1.00  0.00     0.009 A 
ATOM     14  C   UNL     1      45.597 130.563  19.449  1.00  0.00     0.009 A 
BRANCH  10  15
ATOM     15  C   UNL     1      45.301 131.146  15.713  1.00  0.00     0.080 C 
ATOM     16  O   UNL     1      46.483 130.990  15.301  1.00  0.00    -0.315 OA
BRANCH  15  17
ATOM     17  N   UNL     1      44.246 131.286  14.763  1.00  0.00    -0.664 NA
ATOM     18  H   UNL     1      43.933 130.475  14.185  1.00  0.00    -0.121 HD
ENDBRANCH  15  17
ENDBRANCH  10  15
ENDBRANCH   1   9
BRANCH   8  19
ATOM     19  O   UNL     1      45.980 132.991  21.615  1.00  0.00    -0.483 OA
BRANCH  19  20
ATOM     20  C   UNL     1      47.384 132.767  21.684  1.00  0.00     0.288 C 
BRANCH  20  21
ATOM     21  C   UNL     1      48.067 134.042  22.057  1.00  0.00     0.103 A 
ATOM     22  N   UNL     1      48.064 135.149  21.278  1.00  0.00    -0.177 NA
ATOM     23  C   UNL     1      49.030 134.200  23.035  1.00  0.00    -0.000 A 
ATOM     24  N   UNL     1      48.988 135.978  21.747  1.00  0.00    -0.282 N 
ATOM     25  C   UNL     1      49.568 135.407  22.816  1.00  0.00     0.039 A 
ATOM     26  C   UNL     1      49.965 133.257  23.683  1.00  0.00     0.040 C 
ATOM     27  C   UNL     1      50.965 135.513  23.278  1.00  0.00     0.056 C 
ATOM     28  C   UNL     1      51.182 134.161  24.003  1.00  0.00     0.011 C 
ATOM     29  H   UNL     1      49.297 136.850  21.264  1.00  0.00     0.190 HD
ENDBRANCH  20  21
ENDBRANCH  19  20
ENDBRANCH   8  19
TORSDOF 6
ENDMDL
MODEL 8
REMARK VINA RESULT:      -5.6      0.935      1.388
REMARK SMILES [NH-]C(=O)c1ccc(-c2cc(F)cc(F)c2OCc2n[nH]c3c2CCC3)cc1
REMARK SMILES IDX 8 1 9 2 10 3 11 4 12 5 13 6 14 7 15 8 7 9 4 10 5 11 27 12
REMARK SMILES IDX 6 13 26 14 2 15 3 16 1 17 16 19 17 20 18 21 19 22 22 23
REMARK SMILES IDX 20 24 21 25 23 26 25 27 24 28
REMARK H PARENT 1 18 20 29
ROOT
ATOM      1  C   UNL     1      43.665 131.623  19.915  1.00  0.00     0.030 A 
ATOM      2  C   UNL     1      42.539 132.461  19.864  1.00  0.00     0.052 A 
ATOM      3  C   UNL     1      41.821 132.751  21.025  1.00  0.00     0.127 A 
ATOM      4  F   UNL     1      40.731 133.555  20.963  1.00  0.00    -0.207 F 
ATOM      5  C   UNL     1      42.222 132.213  22.247  1.00  0.00     0.082 A 
ATOM      6  C   UNL     1      43.347 131.386  22.321  1.00  0.00     0.168 A 
ATOM      7  F   UNL     1      43.693 130.884  23.531  1.00  0.00    -0.203 F 
ATOM      8  C   UNL     1      44.088 131.090  21.153  1.00  0.00     0.163 A 
ENDROOT
BRANCH   1   9
ATOM      9  C   UNL     1      44.421 131.340  18.671  1.00  0.00    -0.014 A 
ATOM     10  C   UNL     1      45.827 130.743  16.296  1.00  0.00    -0.001 A 
ATOM     11  C   UNL     1      46.265 130.237  17.533  1.00  0.00     0.011 A 
ATOM     12  C   UNL     1      44.683 131.560  16.263  1.00  0.00     0.011 A 
ATOM     13  C   UNL     1      45.571 130.536  18.709  1.00  0.00     0.009 A 
ATOM     14  C   UNL     1      43.988 131.857  17.439  1.00  0.00     0.009 A 
BRANCH  10  15
ATOM     15  C   UNL     1      46.556 130.419  15.047  1.00  0.00     0.080 C 
ATOM     16  O   UNL     1      46.896 129.231  14.798  1.00  0.00    -0.315 OA
BRANCH  15  17
ATOM     17  N   UNL     1      46.879 131.445  14.110  1.00  0.00    -0.664 NA
ATOM     18  H   UNL     1      47.698 132.075  14.265  1.00  0.00    -0.121 HD
ENDBRANCH  15  17
ENDBRANCH  10  15
ENDBRANCH   1   9
BRANCH   8  19
ATOM     19  O   UNL     1      45.246 130.295  21.167  1.00  0.00    -0.483 OA
BRANCH  19  20
ATOM     20  C   UNL     1      45.292 128.873  21.123  1.00  0.00     0.288 C 
BRANCH  20  21
ATOM     21  C   UNL     1      44.949 128.328  22.470  1.00  0.00     0.103 A 
ATOM     22  N   UNL     1      45.198 128.983  23.629  1.00  0.00    -0.177 NA
ATOM     23  C   UNL     1      44.643 127.014  22.770  1.00  0.00    -0.000 A 
ATOM     24  N   UNL     1      45.053 128.117  24.624  1.00  0.00    -0.282 N 
ATOM     25  C   UNL     1      44.709 126.927  24.104  1.00  0.00     0.039 A 
ATOM     26  C   UNL     1      44.937 125.736  22.089  1.00  0.00     0.040 C 
ATOM     27  C   UNL     1      45.053 125.573  24.582  1.00  0.00     0.056 C 
ATOM     28  C   UNL     1      45.039 124.743  23.273  1.00  0.00     0.011 C 
ATOM     29  H   UNL     1      45.312 128.310  25.617  1.00  0.00     0.190 HD
ENDBRANCH  20  21
ENDBRANCH  19  20
ENDBRANCH   8  19
TORSDOF 6
ENDMDL
MODEL 9
REMARK VINA RESULT:      -5.5      1.723      2.276
REMARK SMILES [NH-]C(=O)c1ccc(-c2cc(F)cc(F)c2OCc2n[nH]c3c2CCC3)cc1
REMARK SMILES IDX 8 1 9 2 10 3 11 4 12 5 13 6 14 7 15 8 7 9 4 10 5 11 27 12
REMARK SMILES IDX 6 13 26 14 2 15 3 16 1 17 16 19 17 20 18 21 19 22 22 23
REMARK SMILES IDX 20 24 21 25 23 26 25 27 24 28
REMARK H PARENT 1 18 20 29
ROOT
ATOM      1  C   UNL     1      43.905 131.623  18.163  1.00  0.00     0.030 A 
ATOM      2  C   UNL     1      42.607 132.052  17.842  1.00  0.00     0.052 A 
ATOM      3  C   UNL     1      41.722 132.442  18.849  1.00  0.00     0.127 A 
ATOM      4  F   UNL     1      40.469 132.847  18.528  1.00  0.00    -0.207 F 
ATOM      5  C   UNL     1      42.125 132.413  20.183  1.00  0.00     0.082 A 
ATOM      6  C   UNL     1      43.417 132.001  20.523  1.00  0.00     0.168 A 
ATOM      7  F   UNL     1      43.760 131.985  21.834  1.00  0.00    -0.203 F 
ATOM      8  C   UNL     1      44.326 131.609  19.512  1.00  0.00     0.163 A 
ENDROOT
BRANCH   1   9
ATOM      9  C   UNL     1      44.832 131.226  17.077  1.00  0.00    -0.014 A 
ATOM     10  C   UNL     1      46.650 130.480  15.048  1.00  0.00    -0.001 A 
ATOM     11  C   UNL     1      46.370 131.837  15.294  1.00  0.00     0.011 A 
ATOM     12  C   UNL     1      46.001 129.502  15.822  1.00  0.00     0.011 A 
ATOM     13  C   UNL     1      45.468 132.205  16.296  1.00  0.00     0.009 A 
ATOM     14  C   UNL     1      45.099 129.871  16.824  1.00  0.00     0.009 A 
BRANCH  10  15
ATOM     15  C   UNL     1      47.614 130.087  13.994  1.00  0.00     0.080 C 
ATOM     16  O   UNL     1      47.881 130.877  13.048  1.00  0.00    -0.315 OA
BRANCH  15  17
ATOM     17  N   UNL     1      48.253 128.812  14.036  1.00  0.00    -0.664 NA
ATOM     18  H   UNL     1      47.747 127.969  14.386  1.00  0.00    -0.121 HD
ENDBRANCH  15  17
ENDBRANCH  10  15
ENDBRANCH   1   9
BRANCH   8  19
ATOM     19  O   UNL     1      45.647 131.219  19.786  1.00  0.00    -0.483 OA
BRANCH  19  20
ATOM     20  C   UNL     1      46.070 129.935  20.234  1.00  0.00     0.288 C 
BRANCH  20  21
ATOM     21  C   UNL     1      45.319 129.576  21.474  1.00  0.00     0.103 A 
ATOM     22  N   UNL     1      45.018 130.463  22.451  1.00  0.00    -0.177 NA
ATOM     23  C   UNL     1      45.105 128.300  21.963  1.00  0.00    -0.000 A 
ATOM     24  N   UNL     1      44.626 129.776  23.517  1.00  0.00    -0.282 N 
ATOM     25  C   UNL     1      44.671 128.467  23.218  1.00  0.00     0.039 A 
ATOM     26  C   UNL     1      45.808 127.017  21.757  1.00  0.00     0.040 C 
ATOM     27  C   UNL     1      44.990 127.327  24.099  1.00  0.00     0.056 C 
ATOM     28  C   UNL     1      45.588 126.295  23.110  1.00  0.00     0.011 C 
ATOM     29  H   UNL     1      44.460 130.194  24.459  1.00  0.00     0.190 HD
ENDBRANCH  20  21
ENDBRANCH  19  20
ENDBRANCH   8  19
TORSDOF 6
ENDMDL


