MODEL 1
REMARK VINA RESULT:      -9.6      0.000      0.000
REMARK SMILES Cc1ccc(CCC(C#N)=C2CCC2)c(C)c1
REMARK SMILES IDX 7 1 6 2 5 3 2 4 3 5 17 6 4 7 15 8 1 9 16 10 8 11 9 12 10 13
REMARK SMILES IDX 11 14 12 15 14 16 13 17
REMARK H PARENT
ROOT
ATOM      1  C   UNL     1      45.536 131.511  16.481  1.00  0.00     0.052 C 
ENDROOT
BRANCH   1   2
ATOM      2  C   UNL     1      44.143 131.659  17.115  1.00  0.00     0.041 C 
BRANCH   2   3
ATOM      3  C   UNL     1      44.180 131.492  18.620  1.00  0.00    -0.045 A 
ATOM      4  C   UNL     1      44.379 131.190  21.419  1.00  0.00    -0.051 A 
ATOM      5  C   UNL     1      45.448 130.828  20.591  1.00  0.00     0.004 A 
ATOM      6  C   UNL     1      43.216 131.726  20.848  1.00  0.00     0.007 A 
ATOM      7  C   UNL     1      45.347 130.970  19.208  1.00  0.00     0.004 A 
ATOM      8  C   UNL     1      43.103 131.884  19.455  1.00  0.00    -0.048 A 
ATOM      9  C   UNL     1      44.503 131.071  22.909  1.00  0.00     0.044 C 
ATOM     10  C   UNL     1      41.815 132.426  18.887  1.00  0.00     0.044 C 
ENDBRANCH   2   3
ENDBRANCH   1   2
BRANCH   1  11
ATOM     11  C   UNL     1      45.470 131.181  15.013  1.00  0.00     0.029 C 
BRANCH  11  12
ATOM     12  C   UNL     1      44.233 131.366  14.297  1.00  0.00     0.095 C 
ATOM     13  N   UNL     1      43.238 131.513  13.724  1.00  0.00    -0.193 NA
ENDBRANCH  11  12
BRANCH  11  14
ATOM     14  C   UNL     1      46.529 130.695  14.365  1.00  0.00    -0.057 C 
ATOM     15  C   UNL     1      47.462 131.132  13.252  1.00  0.00     0.032 C 
ATOM     16  C   UNL     1      47.381 129.441  14.413  1.00  0.00     0.032 C 
ATOM     17  C   UNL     1      48.292 129.891  13.318  1.00  0.00     0.009 C 
ENDBRANCH  11  14
ENDBRANCH   1  11
TORSDOF 5
ENDMDL
MODEL 2
REMARK VINA RESULT:      -9.0      0.980      2.298
REMARK SMILES Cc1ccc(CCC(C#N)=C2CCC2)c(C)c1
REMARK SMILES IDX 7 1 6 2 5 3 2 4 3 5 17 6 4 7 15 8 1 9 16 10 8 11 9 12 10 13
REMARK SMILES IDX 11 14 12 15 14 16 13 17
REMARK H PARENT
ROOT
ATOM      1  C   UNL     1      45.246 129.728  16.367  1.00  0.00     0.052 C 
ENDROOT
BRANCH   1   2
ATOM      2  C   UNL     1      45.830 130.605  17.486  1.00  0.00     0.041 C 
BRANCH   2   3
ATOM      3  C   UNL     1      44.750 131.230  18.345  1.00  0.00    -0.045 A 
ATOM      4  C   UNL     1      42.649 132.355  19.855  1.00  0.00    -0.051 A 
ATOM      5  C   UNL     1      42.515 132.191  18.472  1.00  0.00     0.004 A 
ATOM      6  C   UNL     1      43.826 131.934  20.489  1.00  0.00     0.007 A 
ATOM      7  C   UNL     1      43.557 131.642  17.724  1.00  0.00     0.004 A 
ATOM      8  C   UNL     1      44.881 131.370  19.750  1.00  0.00    -0.048 A 
ATOM      9  C   UNL     1      41.514 132.912  20.663  1.00  0.00     0.044 C 
ATOM     10  C   UNL     1      46.143 130.971  20.472  1.00  0.00     0.044 C 
ENDBRANCH   2   3
ENDBRANCH   1   2
BRANCH   1  11
ATOM     11  C   UNL     1      45.392 130.358  15.006  1.00  0.00     0.029 C 
BRANCH  11  12
ATOM     12  C   UNL     1      44.285 131.085  14.436  1.00  0.00     0.095 C 
ATOM     13  N   UNL     1      43.396 131.669  13.981  1.00  0.00    -0.193 NA
ENDBRANCH  11  12
BRANCH  11  14
ATOM     14  C   UNL     1      46.519 130.235  14.305  1.00  0.00    -0.057 C 
ATOM     15  C   UNL     1      47.663 129.246  14.181  1.00  0.00     0.032 C 
ATOM     16  C   UNL     1      47.254 131.023  13.237  1.00  0.00     0.032 C 
ATOM     17  C   UNL     1      48.368 130.035  13.125  1.00  0.00     0.009 C 
ENDBRANCH  11  14
ENDBRANCH   1  11
TORSDOF 5
ENDMDL
MODEL 3
REMARK VINA RESULT:      -8.1      0.456      1.695
REMARK SMILES Cc1ccc(CCC(C#N)=C2CCC2)c(C)c1
REMARK SMILES IDX 7 1 6 2 5 3 2 4 3 5 17 6 4 7 15 8 1 9 16 10 8 11 9 12 10 13
REMARK SMILES IDX 11 14 12 15 14 16 13 17
REMARK H PARENT
ROOT
ATOM      1  C   UNL     1      45.215 131.804  16.399  1.00  0.00     0.052 C 
ENDROOT
BRANCH   1   2
ATOM      2  C   UNL     1      43.846 131.646  17.081  1.00  0.00     0.041 C 
BRANCH   2   3
ATOM      3  C   UNL     1      43.965 131.573  18.590  1.00  0.00    -0.045 A 
ATOM      4  C   UNL     1      44.056 131.444  21.407  1.00  0.00    -0.051 A 
ATOM      5  C   UNL     1      42.985 132.074  20.762  1.00  0.00     0.004 A 
ATOM      6  C   UNL     1      45.072 130.857  20.641  1.00  0.00     0.007 A 
ATOM      7  C   UNL     1      42.944 132.144  19.370  1.00  0.00     0.004 A 
ATOM      8  C   UNL     1      45.040 130.911  19.236  1.00  0.00    -0.048 A 
ATOM      9  C   UNL     1      44.081 131.338  22.903  1.00  0.00     0.044 C 
ATOM     10  C   UNL     1      46.178 130.300  18.458  1.00  0.00     0.044 C 
ENDBRANCH   2   3
ENDBRANCH   1   2
BRANCH   1  11
ATOM     11  C   UNL     1      45.200 131.348  14.964  1.00  0.00     0.029 C 
BRANCH  11  12
ATOM     12  C   UNL     1      43.986 131.457  14.195  1.00  0.00     0.095 C 
ATOM     13  N   UNL     1      43.011 131.548  13.578  1.00  0.00    -0.193 NA
ENDBRANCH  11  12
BRANCH  11  14
ATOM     14  C   UNL     1      46.284 130.821  14.394  1.00  0.00    -0.057 C 
ATOM     15  C   UNL     1      47.321 131.226  13.363  1.00  0.00     0.032 C 
ATOM     16  C   UNL     1      47.073 129.528  14.492  1.00  0.00     0.032 C 
ATOM     17  C   UNL     1      48.087 129.947  13.478  1.00  0.00     0.009 C 
ENDBRANCH  11  14
ENDBRANCH   1  11
TORSDOF 5
ENDMDL
MODEL 4
REMARK VINA RESULT:      -8.0      1.672      6.558
REMARK SMILES Cc1ccc(CCC(C#N)=C2CCC2)c(C)c1
REMARK SMILES IDX 7 1 6 2 5 3 2 4 3 5 17 6 4 7 15 8 1 9 16 10 8 11 9 12 10 13
REMARK SMILES IDX 11 14 12 15 14 16 13 17
REMARK H PARENT
ROOT
ATOM      1  C   UNL     1      44.728 131.539  18.598  1.00  0.00     0.052 C 
ENDROOT
BRANCH   1   2
ATOM      2  C   UNL     1      44.085 131.269  17.228  1.00  0.00     0.041 C 
BRANCH   2   3
ATOM      3  C   UNL     1      45.113 130.906  16.176  1.00  0.00    -0.045 A 
ATOM      4  C   UNL     1      47.073 130.137  14.297  1.00  0.00    -0.051 A 
ATOM      5  C   UNL     1      47.272 129.903  15.662  1.00  0.00     0.004 A 
ATOM      6  C   UNL     1      45.880 130.735  13.868  1.00  0.00     0.007 A 
ATOM      7  C   UNL     1      46.307 130.290  16.592  1.00  0.00     0.004 A 
ATOM      8  C   UNL     1      44.893 131.123  14.792  1.00  0.00    -0.048 A 
ATOM      9  C   UNL     1      48.095 129.687  13.296  1.00  0.00     0.044 C 
ATOM     10  C   UNL     1      43.646 131.801  14.283  1.00  0.00     0.044 C 
ENDBRANCH   2   3
ENDBRANCH   1   2
BRANCH   1  11
ATOM     11  C   UNL     1      43.709 131.657  19.701  1.00  0.00     0.029 C 
BRANCH  11  12
ATOM     12  C   UNL     1      42.454 132.316  19.442  1.00  0.00     0.095 C 
ATOM     13  N   UNL     1      41.446 132.848  19.237  1.00  0.00    -0.193 NA
ENDBRANCH  11  12
BRANCH  11  14
ATOM     14  C   UNL     1      43.955 131.182  20.923  1.00  0.00    -0.057 C 
ATOM     15  C   UNL     1      44.946 130.244  21.585  1.00  0.00     0.032 C 
ATOM     16  C   UNL     1      43.374 131.346  22.315  1.00  0.00     0.032 C 
ATOM     17  C   UNL     1      44.363 130.423  22.950  1.00  0.00     0.009 C 
ENDBRANCH  11  14
ENDBRANCH   1  11
TORSDOF 5
ENDMDL
MODEL 5
REMARK VINA RESULT:      -7.9      0.810      1.988
REMARK SMILES Cc1ccc(CCC(C#N)=C2CCC2)c(C)c1
REMARK SMILES IDX 7 1 6 2 5 3 2 4 3 5 17 6 4 7 15 8 1 9 16 10 8 11 9 12 10 13
REMARK SMILES IDX 11 14 12 15 14 16 13 17
REMARK H PARENT
ROOT
ATOM      1  C   UNL     1      45.451 130.704  16.838  1.00  0.00     0.052 C 
ENDROOT
BRANCH   1   2
ATOM      2  C   UNL     1      45.086 132.010  17.562  1.00  0.00     0.041 C 
BRANCH   2   3
ATOM      3  C   UNL     1      44.482 131.757  18.928  1.00  0.00    -0.045 A 
ATOM      4  C   UNL     1      43.243 131.263  21.415  1.00  0.00    -0.051 A 
ATOM      5  C   UNL     1      42.490 131.722  20.328  1.00  0.00     0.004 A 
ATOM      6  C   UNL     1      44.615 131.028  21.252  1.00  0.00     0.007 A 
ATOM      7  C   UNL     1      43.104 131.974  19.102  1.00  0.00     0.004 A 
ATOM      8  C   UNL     1      45.247 131.268  20.018  1.00  0.00    -0.048 A 
ATOM      9  C   UNL     1      42.576 130.959  22.723  1.00  0.00     0.044 C 
ATOM     10  C   UNL     1      46.733 131.039  19.905  1.00  0.00     0.044 C 
ENDBRANCH   2   3
ENDBRANCH   1   2
BRANCH   1  11
ATOM     11  C   UNL     1      45.424 130.848  15.339  1.00  0.00     0.029 C 
BRANCH  11  12
ATOM     12  C   UNL     1      44.232 131.336  14.692  1.00  0.00     0.095 C 
ATOM     13  N   UNL     1      43.276 131.730  14.173  1.00  0.00    -0.193 NA
ENDBRANCH  11  12
BRANCH  11  14
ATOM     14  C   UNL     1      46.476 130.510  14.593  1.00  0.00    -0.057 C 
ATOM     15  C   UNL     1      47.426 129.335  14.459  1.00  0.00     0.032 C 
ATOM     16  C   UNL     1      47.278 131.124  13.461  1.00  0.00     0.032 C 
ATOM     17  C   UNL     1      48.200 129.954  13.340  1.00  0.00     0.009 C 
ENDBRANCH  11  14
ENDBRANCH   1  11
TORSDOF 5
ENDMDL
MODEL 6
REMARK VINA RESULT:      -7.9      1.227      1.446
REMARK SMILES Cc1ccc(CCC(C#N)=C2CCC2)c(C)c1
REMARK SMILES IDX 7 1 6 2 5 3 2 4 3 5 17 6 4 7 15 8 1 9 16 10 8 11 9 12 10 13
REMARK SMILES IDX 11 14 12 15 14 16 13 17
REMARK H PARENT
ROOT
ATOM      1  C   UNL     1      45.638 131.710  16.013  1.00  0.00     0.052 C 
ENDROOT
BRANCH   1   2
ATOM      2  C   UNL     1      44.237 131.687  16.646  1.00  0.00     0.041 C 
BRANCH   2   3
ATOM      3  C   UNL     1      44.292 131.503  18.149  1.00  0.00    -0.045 A 
ATOM      4  C   UNL     1      44.524 131.176  20.942  1.00  0.00    -0.051 A 
ATOM      5  C   UNL     1      45.602 130.874  20.103  1.00  0.00     0.004 A 
ATOM      6  C   UNL     1      43.334 131.666  20.386  1.00  0.00     0.007 A 
ATOM      7  C   UNL     1      45.485 131.028  18.722  1.00  0.00     0.004 A 
ATOM      8  C   UNL     1      43.203 131.836  18.995  1.00  0.00    -0.048 A 
ATOM      9  C   UNL     1      44.664 131.045  22.429  1.00  0.00     0.044 C 
ATOM     10  C   UNL     1      41.889 132.326  18.443  1.00  0.00     0.044 C 
ENDBRANCH   2   3
ENDBRANCH   1   2
BRANCH   1  11
ATOM     11  C   UNL     1      45.943 130.453  15.242  1.00  0.00     0.029 C 
BRANCH  11  12
ATOM     12  C   UNL     1      45.193 129.252  15.512  1.00  0.00     0.095 C 
ATOM     13  N   UNL     1      44.590 128.289  15.727  1.00  0.00    -0.193 NA
ENDBRANCH  11  12
BRANCH  11  14
ATOM     14  C   UNL     1      46.913 130.422  14.327  1.00  0.00    -0.057 C 
ATOM     15  C   UNL     1      47.987 129.458  13.861  1.00  0.00     0.032 C 
ATOM     16  C   UNL     1      47.450 131.341  13.246  1.00  0.00     0.032 C 
ATOM     17  C   UNL     1      48.498 130.376  12.798  1.00  0.00     0.009 C 
ENDBRANCH  11  14
ENDBRANCH   1  11
TORSDOF 5
ENDMDL
MODEL 7
REMARK VINA RESULT:      -7.5      1.543      6.555
REMARK SMILES Cc1ccc(CCC(C#N)=C2CCC2)c(C)c1
REMARK SMILES IDX 7 1 6 2 5 3 2 4 3 5 17 6 4 7 15 8 1 9 16 10 8 11 9 12 10 13
REMARK SMILES IDX 11 14 12 15 14 16 13 17
REMARK H PARENT
ROOT
ATOM      1  C   UNL     1      45.102 131.319  18.372  1.00  0.00     0.052 C 
ENDROOT
BRANCH   1   2
ATOM      2  C   UNL     1      44.844 130.188  17.362  1.00  0.00     0.041 C 
BRANCH   2   3
ATOM      3  C   UNL     1      45.595 130.399  16.064  1.00  0.00    -0.045 A 
ATOM      4  C   UNL     1      47.061 130.682  13.669  1.00  0.00    -0.051 A 
ATOM      5  C   UNL     1      47.603 129.978  14.751  1.00  0.00     0.004 A 
ATOM      6  C   UNL     1      45.774 131.226  13.776  1.00  0.00     0.007 A 
ATOM      7  C   UNL     1      46.882 129.846  15.937  1.00  0.00     0.004 A 
ATOM      8  C   UNL     1      45.030 131.092  14.962  1.00  0.00    -0.048 A 
ATOM      9  C   UNL     1      47.823 130.793  12.383  1.00  0.00     0.044 C 
ATOM     10  C   UNL     1      43.666 131.730  15.042  1.00  0.00     0.044 C 
ENDBRANCH   2   3
ENDBRANCH   1   2
BRANCH   1  11
ATOM     11  C   UNL     1      43.934 131.547  19.294  1.00  0.00     0.029 C 
BRANCH  11  12
ATOM     12  C   UNL     1      42.691 132.043  18.759  1.00  0.00     0.095 C 
ATOM     13  N   UNL     1      41.694 132.442  18.328  1.00  0.00    -0.193 NA
ENDBRANCH  11  12
BRANCH  11  14
ATOM     14  C   UNL     1      44.034 131.321  20.605  1.00  0.00    -0.057 C 
ATOM     15  C   UNL     1      43.180 131.507  21.845  1.00  0.00     0.032 C 
ATOM     16  C   UNL     1      45.061 130.736  21.555  1.00  0.00     0.032 C 
ATOM     17  C   UNL     1      44.204 130.922  22.764  1.00  0.00     0.009 C 
ENDBRANCH  11  14
ENDBRANCH   1  11
TORSDOF 5
ENDMDL
MODEL 8
REMARK VINA RESULT:      -7.4      1.455      2.306
REMARK SMILES Cc1ccc(CCC(C#N)=C2CCC2)c(C)c1
REMARK SMILES IDX 7 1 6 2 5 3 2 4 3 5 17 6 4 7 15 8 1 9 16 10 8 11 9 12 10 13
REMARK SMILES IDX 11 14 12 15 14 16 13 17
REMARK H PARENT
ROOT
ATOM      1  C   UNL     1      45.672 130.649  18.451  1.00  0.00     0.052 C 
ENDROOT
BRANCH   1   2
ATOM      2  C   UNL     1      45.307 131.687  19.526  1.00  0.00     0.041 C 
BRANCH   2   3
ATOM      3  C   UNL     1      44.569 131.065  20.694  1.00  0.00    -0.045 A 
ATOM      4  C   UNL     1      43.310 129.879  22.923  1.00  0.00    -0.051 A 
ATOM      5  C   UNL     1      44.600 129.485  22.547  1.00  0.00     0.004 A 
ATOM      6  C   UNL     1      42.657 130.884  22.197  1.00  0.00     0.007 A 
ATOM      7  C   UNL     1      45.219 130.066  21.440  1.00  0.00     0.004 A 
ATOM      8  C   UNL     1      43.272 131.487  21.084  1.00  0.00    -0.048 A 
ATOM      9  C   UNL     1      42.660 129.279  24.134  1.00  0.00     0.044 C 
ATOM     10  C   UNL     1      42.512 132.534  20.311  1.00  0.00     0.044 C 
ENDBRANCH   2   3
ENDBRANCH   1   2
BRANCH   1  11
ATOM     11  C   UNL     1      45.169 131.033  17.085  1.00  0.00     0.029 C 
BRANCH  11  12
ATOM     12  C   UNL     1      43.829 131.541  16.936  1.00  0.00     0.095 C 
ATOM     13  N   UNL     1      42.752 131.947  16.815  1.00  0.00    -0.193 NA
ENDBRANCH  11  12
BRANCH  11  14
ATOM     14  C   UNL     1      45.934 130.889  16.002  1.00  0.00    -0.057 C 
ATOM     15  C   UNL     1      46.754 129.796  15.343  1.00  0.00     0.032 C 
ATOM     16  C   UNL     1      46.379 131.750  14.834  1.00  0.00     0.032 C 
ATOM     17  C   UNL     1      47.177 130.659  14.198  1.00  0.00     0.009 C 
ENDBRANCH  11  14
ENDBRANCH   1  11
TORSDOF 5
ENDMDL
MODEL 9
REMARK VINA RESULT:      -7.3      2.057      6.772
REMARK SMILES Cc1ccc(CCC(C#N)=C2CCC2)c(C)c1
REMARK SMILES IDX 7 1 6 2 5 3 2 4 3 5 17 6 4 7 15 8 1 9 16 10 8 11 9 12 10 13
REMARK SMILES IDX 11 14 12 15 14 16 13 17
REMARK H PARENT
ROOT
ATOM      1  C   UNL     1      44.171 131.964  17.792  1.00  0.00     0.052 C 
ENDROOT
BRANCH   1   2
ATOM      2  C   UNL     1      44.015 130.687  16.950  1.00  0.00     0.041 C 
BRANCH   2   3
ATOM      3  C   UNL     1      45.116 130.544  15.919  1.00  0.00    -0.045 A 
ATOM      4  C   UNL     1      47.211 130.174  14.065  1.00  0.00    -0.051 A 
ATOM      5  C   UNL     1      47.344 129.718  15.382  1.00  0.00     0.004 A 
ATOM      6  C   UNL     1      46.019 130.795  13.668  1.00  0.00     0.007 A 
ATOM      7  C   UNL     1      46.311 129.908  16.300  1.00  0.00     0.004 A 
ATOM      8  C   UNL     1      44.965 130.985  14.580  1.00  0.00    -0.048 A 
ATOM      9  C   UNL     1      48.307 129.936  13.070  1.00  0.00     0.044 C 
ATOM     10  C   UNL     1      43.720 131.697  14.114  1.00  0.00     0.044 C 
ENDBRANCH   2   3
ENDBRANCH   1   2
BRANCH   1  11
ATOM     11  C   UNL     1      44.184 131.682  19.271  1.00  0.00     0.029 C 
BRANCH  11  12
ATOM     12  C   UNL     1      45.276 130.936  19.844  1.00  0.00     0.095 C 
ATOM     13  N   UNL     1      46.151 130.335  20.304  1.00  0.00    -0.193 NA
ENDBRANCH  11  12
BRANCH  11  14
ATOM     14  C   UNL     1      43.190 132.089  20.061  1.00  0.00    -0.057 C 
ATOM     15  C   UNL     1      42.779 131.946  21.514  1.00  0.00     0.032 C 
ATOM     16  C   UNL     1      41.937 132.934  19.923  1.00  0.00     0.032 C 
ATOM     17  C   UNL     1      41.553 132.786  21.359  1.00  0.00     0.009 C 
ENDBRANCH  11  14
ENDBRANCH   1  11
TORSDOF 5
ENDMDL


