REMARK SMILES C[C@@](O)(CCl)C(=O)Nc1cc(F)c[n-]/c1=N\c1c[n-]c2nccc-2c1
REMARK SMILES IDX 6 1 7 2 8 3 2 5 1 6 3 7 4 9 5 10 9 11 10 12 15 13 11 14
REMARK SMILES IDX 14 15 13 16 12 17 16 18 17 19 18 20 25 21 19 22 24 23 20 24
REMARK SMILES IDX 23 25 21 26 22 27
REMARK H PARENT 8 4 3 8
ROOT
ATOM      1  C   UNL     1      -0.784   0.042   2.234  1.00  0.00     0.257 C 
ATOM      2  O   UNL     1      -0.863   1.189   1.712  1.00  0.00    -0.271 OA
ATOM      3  N   UNL     1       0.459  -0.397   2.806  1.00  0.00    -0.324 N 
ATOM      4  H   UNL     1       0.428  -1.115   3.564  1.00  0.00     0.170 HD
ENDROOT
BRANCH   1   5
ATOM      5  C   UNL     1      -2.027  -0.823   2.348  1.00  0.00     0.154 C 
ATOM      6  C   UNL     1      -2.759  -0.444   3.643  1.00  0.00     0.054 C 
BRANCH   5   7
ATOM      7  O   UNL     1      -1.678  -2.185   2.436  1.00  0.00    -0.379 OA
ATOM      8  H   UNL     1      -1.109  -2.412   1.654  1.00  0.00     0.212 HD
ENDBRANCH   5   7
BRANCH   5   9
ATOM      9  C   UNL     1      -2.982  -0.611   1.147  1.00  0.00     0.154 C 
ATOM     10  Cl  UNL     1      -2.198  -0.951  -0.424  1.00  0.00    -0.123 Cl
ENDBRANCH   5   9
ENDBRANCH   1   5
BRANCH   3  11
ATOM     11  C   UNL     1       1.720   0.227   2.514  1.00  0.00     0.043 A 
ATOM     12  C   UNL     1       2.601   0.513   3.566  1.00  0.00     0.064 A 
ATOM     13  C   UNL     1       2.122   0.519   1.192  1.00  0.00    -0.034 A 
ATOM     14  C   UNL     1       3.833   1.112   3.307  1.00  0.00     0.121 A 
ATOM     15  N   UNL     1       3.339   1.096   0.975  1.00  0.00    -0.438 NA
ATOM     16  C   UNL     1       4.186   1.406   1.991  1.00  0.00     0.018 A 
ATOM     17  F   UNL     1       4.680   1.405   4.325  1.00  0.00    -0.207 F 
BRANCH  13  18
ATOM     18  N   UNL     1       1.363   0.170   0.192  1.00  0.00    -0.435 NA
BRANCH  18  19
ATOM     19  C   UNL     1       1.594   0.421  -1.204  1.00  0.00    -0.045 A 
ATOM     20  C   UNL     1       2.140   1.656  -1.665  1.00  0.00    -0.019 A 
ATOM     21  C   UNL     1       1.179  -0.553  -2.135  1.00  0.00     0.011 A 
ATOM     22  N   UNL     1       2.315   1.903  -2.999  1.00  0.00    -0.442 NA
ATOM     23  C   UNL     1       1.373  -0.277  -3.478  1.00  0.00    -0.027 A 
ATOM     24  C   UNL     1       1.950   0.955  -3.891  1.00  0.00    -0.052 A 
ATOM     25  C   UNL     1       1.103  -0.971  -4.628  1.00  0.00     0.003 A 
ATOM     26  N   UNL     1       2.038   1.039  -5.228  1.00  0.00    -0.442 NA
ATOM     27  C   UNL     1       1.523  -0.140  -5.670  1.00  0.00    -0.022 A 
ENDBRANCH  18  19
ENDBRANCH  13  18
ENDBRANCH   3  11
TORSDOF 6


