REMARK SMILES O=c1[nH]ccc2cc(F)c(-c3c[nH]c4[nH+]ccc-4c3)c(F)c12
REMARK SMILES IDX 1 1 2 2 3 3 4 4 5 5 6 6 7 7 8 8 9 9 10 10 20 11 21 12 22 13
REMARK SMILES IDX 11 15 12 16 19 17 13 18 18 19 14 20 17 21 15 22 16 23
REMARK H PARENT 3 14 13 24 15 25
ROOT
ATOM      1  O   UNL     1      -0.443   2.853  -2.612  1.00  0.00    -0.269 OA
ATOM      2  C   UNL     1       0.794   3.009  -2.421  1.00  0.00     0.258 A 
ATOM      3  N   UNL     1       1.389   4.160  -2.845  1.00  0.00    -0.328 N 
ATOM      4  C   UNL     1       2.717   4.389  -2.667  1.00  0.00     0.086 A 
ATOM      5  C   UNL     1       3.518   3.438  -2.038  1.00  0.00     0.027 A 
ATOM      6  C   UNL     1       2.945   2.243  -1.588  1.00  0.00    -0.005 A 
ATOM      7  C   UNL     1       3.738   1.278  -0.955  1.00  0.00     0.049 A 
ATOM      8  C   UNL     1       3.174   0.084  -0.504  1.00  0.00     0.134 A 
ATOM      9  F   UNL     1       3.965  -0.817   0.132  1.00  0.00    -0.206 F 
ATOM     10  C   UNL     1       1.801  -0.166  -0.680  1.00  0.00     0.058 A 
ATOM     11  C   UNL     1       0.997   0.799  -1.317  1.00  0.00     0.147 A 
ATOM     12  F   UNL     1      -0.323   0.537  -1.512  1.00  0.00    -0.205 F 
ATOM     13  C   UNL     1       1.561   2.011  -1.776  1.00  0.00     0.084 A 
ATOM     14  H   UNL     1       0.814   4.892  -3.320  1.00  0.00     0.169 HD
ENDROOT
BRANCH  10  15
ATOM     15  C   UNL     1       1.208  -1.434  -0.197  1.00  0.00     0.028 A 
ATOM     16  C   UNL     1       1.774  -2.683  -0.588  1.00  0.00     0.206 A 
ATOM     17  C   UNL     1       0.079  -1.408   0.656  1.00  0.00     0.029 A 
ATOM     18  N   UNL     1       1.249  -3.871  -0.156  1.00  0.00    -0.246 N 
ATOM     19  C   UNL     1      -0.431  -2.624   1.076  1.00  0.00     0.068 A 
ATOM     20  C   UNL     1       0.169  -3.846   0.659  1.00  0.00     0.284 A 
ATOM     21  C   UNL     1      -1.485  -2.975   1.889  1.00  0.00     0.060 A 
ATOM     22  N   UNL     1      -0.477  -4.897   1.183  1.00  0.00    -0.247 N 
ATOM     23  C   UNL     1      -1.482  -4.373   1.929  1.00  0.00     0.198 A 
ATOM     24  H   UNL     1       1.673  -4.778  -0.452  1.00  0.00     0.312 HD
ATOM     25  H   UNL     1      -0.256  -5.908   1.047  1.00  0.00     0.311 HD
ENDBRANCH  10  15
TORSDOF 1


