REMARK SMILES CC(=O)c1ccc(-c2cc(N)c([O-])c(Nc3ccc(C)c(F)c3)c2)c(F)[nH+]1
REMARK SMILES IDX 8 1 9 2 10 3 12 4 13 5 14 6 24 7 7 8 4 9 5 10 27 11 6 12
REMARK SMILES IDX 25 13 26 15 2 16 1 17 3 18 11 19 15 22 16 24 17 25 23 26
REMARK SMILES IDX 18 27 21 28 19 29 22 30 20 31
REMARK H PARENT 27 14 11 20 11 21 15 23
ROOT
ATOM      1  C   UNL     1      -0.483  -1.118   1.314  1.00  0.00    -0.005 A 
ATOM      2  C   UNL     1       0.450  -1.764   2.141  1.00  0.00     0.034 A 
ATOM      3  C   UNL     1       1.714  -1.204   2.368  1.00  0.00     0.026 A 
ATOM      4  C   UNL     1       2.058   0.012   1.752  1.00  0.00    -0.061 A 
ATOM      5  O   UNL     1       3.293   0.597   2.014  1.00  0.00    -0.870 OA
ATOM      6  C   UNL     1       1.145   0.647   0.888  1.00  0.00     0.033 A 
ATOM      7  C   UNL     1      -0.126   0.090   0.694  1.00  0.00     0.034 A 
ENDROOT
BRANCH   1   8
ATOM      8  C   UNL     1      -1.821  -1.716   1.085  1.00  0.00     0.086 A 
ATOM      9  C   UNL     1      -4.347  -2.838   0.643  1.00  0.00     0.249 A 
ATOM     10  C   UNL     1      -3.197  -3.639   0.553  1.00  0.00     0.084 A 
ATOM     11  N   UNL     1      -4.210  -1.512   0.954  1.00  0.00    -0.176 N 
ATOM     12  C   UNL     1      -1.942  -3.077   0.776  1.00  0.00     0.025 A 
ATOM     13  C   UNL     1      -2.992  -0.944   1.173  1.00  0.00     0.366 A 
ATOM     14  H   UNL     1      -5.049  -0.897   1.036  1.00  0.00     0.457 HD
ATOM     15  F   UNL     1      -2.928   0.369   1.514  1.00  0.00    -0.136 F 
BRANCH   9  16
ATOM     16  C   UNL     1      -5.689  -3.436   0.406  1.00  0.00     0.223 C 
ATOM     17  C   UNL     1      -6.942  -2.618   0.484  1.00  0.00     0.100 C 
ATOM     18  O   UNL     1      -5.789  -4.663   0.131  1.00  0.00    -0.288 OA
ENDBRANCH   9  16
ENDBRANCH   1   8
BRANCH   3  19
ATOM     19  N   UNL     1       2.639  -1.869   3.236  1.00  0.00    -0.399 N 
ATOM     20  H   UNL     1       2.382  -2.770   3.698  1.00  0.00     0.156 HD
ATOM     21  H   UNL     1       3.588  -1.477   3.424  1.00  0.00     0.156 HD
ENDBRANCH   3  19
BRANCH   6  22
ATOM     22  N   UNL     1       1.469   1.889   0.242  1.00  0.00    -0.356 N 
ATOM     23  H   UNL     1       0.734   2.632   0.223  1.00  0.00     0.166 HD
BRANCH  22  24
ATOM     24  C   UNL     1       2.696   2.132  -0.468  1.00  0.00     0.041 A 
ATOM     25  C   UNL     1       3.459   1.077  -0.998  1.00  0.00     0.026 A 
ATOM     26  C   UNL     1       3.115   3.453  -0.687  1.00  0.00     0.065 A 
ATOM     27  C   UNL     1       4.637   1.340  -1.703  1.00  0.00     0.008 A 
ATOM     28  C   UNL     1       4.293   3.719  -1.391  1.00  0.00     0.128 A 
ATOM     29  C   UNL     1       5.071   2.661  -1.891  1.00  0.00    -0.015 A 
ATOM     30  F   UNL     1       4.673   5.006  -1.589  1.00  0.00    -0.207 F 
ATOM     31  C   UNL     1       6.321   2.944  -2.673  1.00  0.00     0.047 C 
ENDBRANCH  22  24
ENDBRANCH   6  22
TORSDOF 5


