REMARK SMILES Cc1ccc(-c2cc(N)c(NC3CC(=O)C3)c([NH2+]c3ccc(C)c(F)c3)c2)cc1
REMARK SMILES IDX 6 1 7 2 8 3 10 4 17 5 27 6 5 7 2 8 3 9 29 10 4 11 28 12 1 13
REMARK SMILES IDX 9 14 18 17 19 20 20 21 26 22 21 23 24 24 22 25 25 26 23 27
REMARK SMILES IDX 11 28 12 30 13 31 16 32 14 33 15 34
REMARK H PARENT 9 15 9 16 18 18 18 19 11 29
ROOT
ATOM      1  C   UNL     1      -0.102  -1.221  -2.002  1.00  0.00    -0.010 A 
ATOM      2  C   UNL     1      -1.351  -1.788  -1.719  1.00  0.00     0.037 A 
ATOM      3  C   UNL     1      -1.716  -2.107  -0.406  1.00  0.00     0.062 A 
ATOM      4  C   UNL     1      -0.844  -1.800   0.665  1.00  0.00     0.120 A 
ATOM      5  C   UNL     1       0.451  -1.294   0.381  1.00  0.00     0.160 A 
ATOM      6  C   UNL     1       0.798  -1.001  -0.951  1.00  0.00     0.079 A 
ENDROOT
BRANCH   1   7
ATOM      7  C   UNL     1       0.276  -0.882  -3.398  1.00  0.00    -0.018 A 
ATOM      8  C   UNL     1       0.984  -0.228  -6.048  1.00  0.00    -0.051 A 
ATOM      9  C   UNL     1       1.312   0.637  -4.994  1.00  0.00     0.004 A 
ATOM     10  C   UNL     1       0.324  -1.433  -5.769  1.00  0.00     0.004 A 
ATOM     11  C   UNL     1       0.956   0.317  -3.681  1.00  0.00     0.009 A 
ATOM     12  C   UNL     1      -0.033  -1.755  -4.456  1.00  0.00     0.009 A 
ATOM     13  C   UNL     1       1.402   0.098  -7.451  1.00  0.00     0.044 C 
ENDBRANCH   1   7
BRANCH   3  14
ATOM     14  N   UNL     1      -2.941  -2.816  -0.188  1.00  0.00    -0.397 N 
ATOM     15  H   UNL     1      -3.650  -2.899  -0.950  1.00  0.00     0.156 HD
ATOM     16  H   UNL     1      -3.069  -3.417   0.655  1.00  0.00     0.156 HD
ENDBRANCH   3  14
BRANCH   5  17
ATOM     17  N   UNL     1       1.422  -1.058   1.429  1.00  0.00    -0.280 N 
ATOM     18  H   UNL     1       2.384  -0.961   1.028  1.00  0.00     0.358 HD
ATOM     19  H   UNL     1       1.459  -1.890   2.061  1.00  0.00     0.358 HD
BRANCH  17  20
ATOM     20  C   UNL     1       1.121   0.149   2.162  1.00  0.00     0.137 A 
ATOM     21  C   UNL     1       1.094   1.396   1.510  1.00  0.00     0.068 A 
ATOM     22  C   UNL     1       0.926   0.106   3.553  1.00  0.00     0.107 A 
ATOM     23  C   UNL     1       0.824   2.565   2.226  1.00  0.00     0.012 A 
ATOM     24  C   UNL     1       0.665   1.276   4.272  1.00  0.00     0.132 A 
ATOM     25  C   UNL     1       0.591   2.512   3.608  1.00  0.00    -0.015 A 
ATOM     26  F   UNL     1       0.479   1.203   5.614  1.00  0.00    -0.206 F 
ATOM     27  C   UNL     1       0.323   3.771   4.381  1.00  0.00     0.047 C 
ENDBRANCH  17  20
ENDBRANCH   5  17
BRANCH   4  28
ATOM     28  N   UNL     1      -1.277  -1.949   2.031  1.00  0.00    -0.375 N 
ATOM     29  H   UNL     1      -0.637  -2.420   2.708  1.00  0.00     0.161 HD
BRANCH  28  30
ATOM     30  C   UNL     1      -2.523  -1.346   2.532  1.00  0.00     0.094 C 
ATOM     31  C   UNL     1      -2.607   0.137   2.306  1.00  0.00     0.100 C 
ATOM     32  C   UNL     1      -2.487  -1.034   4.002  1.00  0.00     0.100 C 
ATOM     33  C   UNL     1      -2.600   0.464   3.787  1.00  0.00     0.137 C 
ATOM     34  O   UNL     1      -2.662   1.465   4.482  1.00  0.00    -0.300 OA
ENDBRANCH  28  30
ENDBRANCH   4  28
TORSDOF 6


