MODEL 1
REMARK VINA RESULT:      -8.5      0.000      0.000
REMARK SMILES O=C(OCc1cc[nH]c1)c1cc(F)ccc1Nc1cc2ccccc2[n-]1
REMARK SMILES IDX 1 1 2 2 3 3 4 4 5 5 6 6 9 7 7 8 8 9 10 11 11 12 16 13 12 14
REMARK SMILES IDX 15 15 14 16 13 17 17 18 18 20 19 21 26 22 20 23 25 24 21 25
REMARK SMILES IDX 24 26 22 27 23 28
REMARK H PARENT 8 10 17 19
ROOT
ATOM      1  O   UNL     1      45.109 132.000  22.794  1.00  0.00    -0.246 OA
ATOM      2  C   UNL     1      44.602 131.176  21.984  1.00  0.00     0.338 C 
ENDROOT
BRANCH   2   3
ATOM      3  O   UNL     1      44.826 129.803  22.147  1.00  0.00    -0.457 OA
BRANCH   3   4
ATOM      4  C   UNL     1      44.077 128.983  23.041  1.00  0.00     0.270 C 
BRANCH   4   5
ATOM      5  C   UNL     1      44.506 127.553  22.926  1.00  0.00     0.007 A 
ATOM      6  C   UNL     1      45.412 127.035  22.020  1.00  0.00     0.026 A 
ATOM      7  C   UNL     1      44.032 126.495  23.673  1.00  0.00     0.089 A 
ATOM      8  C   UNL     1      45.460 125.677  22.264  1.00  0.00     0.082 A 
ATOM      9  N   UNL     1      44.623 125.357  23.268  1.00  0.00    -0.367 N 
ATOM     10  H   UNL     1      44.456 124.402  23.654  1.00  0.00     0.165 HD
ENDBRANCH   4   5
ENDBRANCH   3   4
ENDBRANCH   2   3
BRANCH   2  11
ATOM     11  C   UNL     1      43.728 131.664  20.891  1.00  0.00     0.066 A 
ATOM     12  C   UNL     1      42.566 132.390  21.215  1.00  0.00     0.055 A 
ATOM     13  C   UNL     1      44.001 131.385  19.527  1.00  0.00    -0.029 A 
ATOM     14  C   UNL     1      41.677 132.798  20.218  1.00  0.00     0.124 A 
ATOM     15  C   UNL     1      43.087 131.778  18.541  1.00  0.00     0.007 A 
ATOM     16  C   UNL     1      41.933 132.484  18.884  1.00  0.00     0.039 A 
ATOM     17  F   UNL     1      40.558 133.487  20.548  1.00  0.00    -0.207 F 
BRANCH  13  18
ATOM     18  N   UNL     1      45.207 130.725  19.115  1.00  0.00    -0.456 N 
ATOM     19  H   UNL     1      45.645 130.045  19.775  1.00  0.00     0.026 HD
BRANCH  18  20
ATOM     20  C   UNL     1      45.664 130.727  17.755  1.00  0.00    -0.060 A 
ATOM     21  C   UNL     1      45.572 131.803  16.873  1.00  0.00     0.007 A 
ATOM     22  N   UNL     1      46.222 129.636  17.177  1.00  0.00    -0.436 NA
ATOM     23  C   UNL     1      46.112 131.331  15.704  1.00  0.00    -0.023 A 
ATOM     24  C   UNL     1      46.488 130.031  15.920  1.00  0.00    -0.034 A 
ATOM     25  C   UNL     1      46.300 131.961  14.475  1.00  0.00     0.008 A 
ATOM     26  C   UNL     1      47.083 129.269  14.915  1.00  0.00     0.004 A 
ATOM     27  C   UNL     1      46.899 131.216  13.443  1.00  0.00     0.001 A 
ATOM     28  C   UNL     1      47.287 129.876  13.661  1.00  0.00     0.000 A 
ENDBRANCH  18  20
ENDBRANCH  13  18
ENDBRANCH   2  11
TORSDOF 6
ENDMDL
MODEL 2
REMARK VINA RESULT:      -8.1      1.729      7.041
REMARK SMILES O=C(OCc1cc[nH]c1)c1cc(F)ccc1Nc1cc2ccccc2[n-]1
REMARK SMILES IDX 1 1 2 2 3 3 4 4 5 5 6 6 9 7 7 8 8 9 10 11 11 12 16 13 12 14
REMARK SMILES IDX 15 15 14 16 13 17 17 18 18 20 19 21 26 22 20 23 25 24 21 25
REMARK SMILES IDX 24 26 22 27 23 28
REMARK H PARENT 8 10 17 19
ROOT
ATOM      1  O   UNL     1      46.068 130.663  19.257  1.00  0.00    -0.246 OA
ATOM      2  C   UNL     1      44.955 131.197  18.997  1.00  0.00     0.338 C 
ENDROOT
BRANCH   2   3
ATOM      3  O   UNL     1      44.589 131.444  17.667  1.00  0.00    -0.457 OA
BRANCH   3   4
ATOM      4  C   UNL     1      45.477 131.992  16.694  1.00  0.00     0.270 C 
BRANCH   4   5
ATOM      5  C   UNL     1      45.988 130.916  15.787  1.00  0.00     0.007 A 
ATOM      6  C   UNL     1      46.872 131.073  14.737  1.00  0.00     0.026 A 
ATOM      7  C   UNL     1      45.624 129.585  15.813  1.00  0.00     0.089 A 
ATOM      8  C   UNL     1      47.019 129.822  14.172  1.00  0.00     0.082 A 
ATOM      9  N   UNL     1      46.261 128.925  14.829  1.00  0.00    -0.367 N 
ATOM     10  H   UNL     1      46.176 127.908  14.611  1.00  0.00     0.165 HD
ENDBRANCH   4   5
ENDBRANCH   3   4
ENDBRANCH   2   3
BRANCH   2  11
ATOM     11  C   UNL     1      44.017 131.515  20.099  1.00  0.00     0.066 A 
ATOM     12  C   UNL     1      42.898 132.329  19.834  1.00  0.00     0.055 A 
ATOM     13  C   UNL     1      44.233 131.061  21.426  1.00  0.00    -0.029 A 
ATOM     14  C   UNL     1      42.037 132.715  20.862  1.00  0.00     0.124 A 
ATOM     15  C   UNL     1      43.373 131.478  22.451  1.00  0.00     0.007 A 
ATOM     16  C   UNL     1      42.279 132.298  22.171  1.00  0.00     0.039 A 
ATOM     17  F   UNL     1      40.971 133.508  20.592  1.00  0.00    -0.207 F 
BRANCH  13  18
ATOM     18  N   UNL     1      45.300 130.161  21.755  1.00  0.00    -0.456 N 
ATOM     19  H   UNL     1      46.266 130.551  21.833  1.00  0.00     0.026 HD
BRANCH  18  20
ATOM     20  C   UNL     1      45.069 128.841  22.265  1.00  0.00    -0.060 A 
ATOM     21  C   UNL     1      45.538 127.659  21.692  1.00  0.00     0.007 A 
ATOM     22  N   UNL     1      44.326 128.612  23.375  1.00  0.00    -0.436 NA
ATOM     23  C   UNL     1      45.054 126.669  22.508  1.00  0.00    -0.023 A 
ATOM     24  C   UNL     1      44.332 127.274  23.504  1.00  0.00    -0.034 A 
ATOM     25  C   UNL     1      45.208 125.286  22.443  1.00  0.00     0.008 A 
ATOM     26  C   UNL     1      43.712 126.530  24.508  1.00  0.00     0.004 A 
ATOM     27  C   UNL     1      44.594 124.511  23.443  1.00  0.00     0.001 A 
ATOM     28  C   UNL     1      43.848 125.130  24.471  1.00  0.00     0.000 A 
ENDBRANCH  18  20
ENDBRANCH  13  18
ENDBRANCH   2  11
TORSDOF 6
ENDMDL
MODEL 3
REMARK VINA RESULT:      -7.9      1.737      7.144
REMARK SMILES O=C(OCc1cc[nH]c1)c1cc(F)ccc1Nc1cc2ccccc2[n-]1
REMARK SMILES IDX 1 1 2 2 3 3 4 4 5 5 6 6 9 7 7 8 8 9 10 11 11 12 16 13 12 14
REMARK SMILES IDX 15 15 14 16 13 17 17 18 18 20 19 21 26 22 20 23 25 24 21 25
REMARK SMILES IDX 24 26 22 27 23 28
REMARK H PARENT 8 10 17 19
ROOT
ATOM      1  O   UNL     1      46.619 130.836  20.572  1.00  0.00    -0.246 OA
ATOM      2  C   UNL     1      45.553 130.892  19.900  1.00  0.00     0.338 C 
ENDROOT
BRANCH   2   3
ATOM      3  O   UNL     1      45.545 130.479  18.561  1.00  0.00    -0.457 OA
BRANCH   3   4
ATOM      4  C   UNL     1      44.971 131.244  17.504  1.00  0.00     0.270 C 
BRANCH   4   5
ATOM      5  C   UNL     1      45.775 131.090  16.250  1.00  0.00     0.007 A 
ATOM      6  C   UNL     1      46.464 129.963  15.845  1.00  0.00     0.026 A 
ATOM      7  C   UNL     1      46.008 132.067  15.304  1.00  0.00     0.089 A 
ATOM      8  C   UNL     1      47.081 130.300  14.657  1.00  0.00     0.082 A 
ATOM      9  N   UNL     1      46.799 131.575  14.334  1.00  0.00    -0.367 N 
ATOM     10  H   UNL     1      47.139 132.091  13.492  1.00  0.00     0.165 HD
ENDBRANCH   4   5
ENDBRANCH   3   4
ENDBRANCH   2   3
BRANCH   2  11
ATOM     11  C   UNL     1      44.300 131.349  20.547  1.00  0.00     0.066 A 
ATOM     12  C   UNL     1      43.371 132.091  19.792  1.00  0.00     0.055 A 
ATOM     13  C   UNL     1      44.026 131.100  21.916  1.00  0.00    -0.029 A 
ATOM     14  C   UNL     1      42.217 132.606  20.387  1.00  0.00     0.124 A 
ATOM     15  C   UNL     1      42.876 131.645  22.504  1.00  0.00     0.007 A 
ATOM     16  C   UNL     1      41.975 132.391  21.744  1.00  0.00     0.039 A 
ATOM     17  F   UNL     1      41.338 133.327  19.650  1.00  0.00    -0.207 F 
BRANCH  13  18
ATOM     18  N   UNL     1      44.882 130.281  22.724  1.00  0.00    -0.456 N 
ATOM     19  H   UNL     1      45.598 130.755  23.319  1.00  0.00     0.026 HD
BRANCH  18  20
ATOM     20  C   UNL     1      44.612 128.896  22.980  1.00  0.00    -0.060 A 
ATOM     21  C   UNL     1      43.810 128.406  24.011  1.00  0.00     0.007 A 
ATOM     22  N   UNL     1      45.152 127.902  22.235  1.00  0.00    -0.436 NA
ATOM     23  C   UNL     1      43.868 127.043  23.869  1.00  0.00    -0.023 A 
ATOM     24  C   UNL     1      44.681 126.776  22.798  1.00  0.00    -0.034 A 
ATOM     25  C   UNL     1      43.256 126.030  24.604  1.00  0.00     0.008 A 
ATOM     26  C   UNL     1      44.937 125.468  22.389  1.00  0.00     0.004 A 
ATOM     27  C   UNL     1      43.497 124.700  24.212  1.00  0.00     0.001 A 
ATOM     28  C   UNL     1      44.335 124.420  23.110  1.00  0.00     0.000 A 
ENDBRANCH  18  20
ENDBRANCH  13  18
ENDBRANCH   2  11
TORSDOF 6
ENDMDL
MODEL 4
REMARK VINA RESULT:      -7.8      0.851      1.158
REMARK SMILES O=C(OCc1cc[nH]c1)c1cc(F)ccc1Nc1cc2ccccc2[n-]1
REMARK SMILES IDX 1 1 2 2 3 3 4 4 5 5 6 6 9 7 7 8 8 9 10 11 11 12 16 13 12 14
REMARK SMILES IDX 15 15 14 16 13 17 17 18 18 20 19 21 26 22 20 23 25 24 21 25
REMARK SMILES IDX 24 26 22 27 23 28
REMARK H PARENT 8 10 17 19
ROOT
ATOM      1  O   UNL     1      46.050 131.994  21.604  1.00  0.00    -0.246 OA
ATOM      2  C   UNL     1      45.013 131.297  21.427  1.00  0.00     0.338 C 
ENDROOT
BRANCH   2   3
ATOM      3  O   UNL     1      44.747 130.210  22.270  1.00  0.00    -0.457 OA
BRANCH   3   4
ATOM      4  C   UNL     1      45.009 128.854  21.914  1.00  0.00     0.270 C 
BRANCH   4   5
ATOM      5  C   UNL     1      44.513 127.927  22.980  1.00  0.00     0.007 A 
ATOM      6  C   UNL     1      43.365 128.078  23.735  1.00  0.00     0.026 A 
ATOM      7  C   UNL     1      45.143 126.785  23.428  1.00  0.00     0.089 A 
ATOM      8  C   UNL     1      43.340 127.009  24.608  1.00  0.00     0.082 A 
ATOM      9  N   UNL     1      44.419 126.228  24.416  1.00  0.00    -0.367 N 
ATOM     10  H   UNL     1      44.656 125.358  24.941  1.00  0.00     0.165 HD
ENDBRANCH   4   5
ENDBRANCH   3   4
ENDBRANCH   2   3
BRANCH   2  11
ATOM     11  C   UNL     1      44.055 131.663  20.358  1.00  0.00     0.066 A 
ATOM     12  C   UNL     1      42.940 132.462  20.680  1.00  0.00     0.055 A 
ATOM     13  C   UNL     1      44.199 131.198  19.025  1.00  0.00    -0.029 A 
ATOM     14  C   UNL     1      41.975 132.762  19.718  1.00  0.00     0.124 A 
ATOM     15  C   UNL     1      43.208 131.487  18.077  1.00  0.00     0.007 A 
ATOM     16  C   UNL     1      42.104 132.267  18.420  1.00  0.00     0.039 A 
ATOM     17  F   UNL     1      40.903 133.524  20.048  1.00  0.00    -0.207 F 
BRANCH  13  18
ATOM     18  N   UNL     1      45.350 130.453  18.603  1.00  0.00    -0.456 N 
ATOM     19  H   UNL     1      45.687 129.679  19.217  1.00  0.00     0.026 HD
BRANCH  18  20
ATOM     20  C   UNL     1      45.868 130.519  17.267  1.00  0.00    -0.060 A 
ATOM     21  C   UNL     1      45.604 131.534  16.348  1.00  0.00     0.007 A 
ATOM     22  N   UNL     1      46.665 129.553  16.750  1.00  0.00    -0.436 NA
ATOM     23  C   UNL     1      46.289 131.158  15.220  1.00  0.00    -0.023 A 
ATOM     24  C   UNL     1      46.911 129.968  15.495  1.00  0.00    -0.034 A 
ATOM     25  C   UNL     1      46.408 131.786  13.982  1.00  0.00     0.008 A 
ATOM     26  C   UNL     1      47.699 129.323  14.543  1.00  0.00     0.004 A 
ATOM     27  C   UNL     1      47.199 131.159  13.003  1.00  0.00     0.001 A 
ATOM     28  C   UNL     1      47.841 129.931  13.281  1.00  0.00     0.000 A 
ENDBRANCH  18  20
ENDBRANCH  13  18
ENDBRANCH   2  11
TORSDOF 6
ENDMDL
MODEL 5
REMARK VINA RESULT:      -6.4      1.086      1.159
REMARK SMILES O=C(OCc1cc[nH]c1)c1cc(F)ccc1Nc1cc2ccccc2[n-]1
REMARK SMILES IDX 1 1 2 2 3 3 4 4 5 5 6 6 9 7 7 8 8 9 10 11 11 12 16 13 12 14
REMARK SMILES IDX 15 15 14 16 13 17 17 18 18 20 19 21 26 22 20 23 25 24 21 25
REMARK SMILES IDX 24 26 22 27 23 28
REMARK H PARENT 8 10 17 19
ROOT
ATOM      1  O   UNL     1      45.639 129.560  21.404  1.00  0.00    -0.246 OA
ATOM      2  C   UNL     1      44.569 130.084  21.820  1.00  0.00     0.338 C 
ENDROOT
BRANCH   2   3
ATOM      3  O   UNL     1      44.088 129.774  23.098  1.00  0.00    -0.457 OA
BRANCH   3   4
ATOM      4  C   UNL     1      44.809 128.985  24.042  1.00  0.00     0.270 C 
BRANCH   4   5
ATOM      5  C   UNL     1      44.466 127.537  23.885  1.00  0.00     0.007 A 
ATOM      6  C   UNL     1      45.085 126.470  24.507  1.00  0.00     0.026 A 
ATOM      7  C   UNL     1      43.501 127.012  23.050  1.00  0.00     0.089 A 
ATOM      8  C   UNL     1      44.460 125.335  24.031  1.00  0.00     0.082 A 
ATOM      9  N   UNL     1      43.500 125.671  23.150  1.00  0.00    -0.367 N 
ATOM     10  H   UNL     1      42.876 125.013  22.632  1.00  0.00     0.165 HD
ENDBRANCH   4   5
ENDBRANCH   3   4
ENDBRANCH   2   3
BRANCH   2  11
ATOM     11  C   UNL     1      43.854 131.065  20.971  1.00  0.00     0.066 A 
ATOM     12  C   UNL     1      42.747 131.755  21.505  1.00  0.00     0.055 A 
ATOM     13  C   UNL     1      44.220 131.302  19.621  1.00  0.00    -0.029 A 
ATOM     14  C   UNL     1      42.000 132.627  20.712  1.00  0.00     0.124 A 
ATOM     15  C   UNL     1      43.445 132.161  18.831  1.00  0.00     0.007 A 
ATOM     16  C   UNL     1      42.343 132.823  19.374  1.00  0.00     0.039 A 
ATOM     17  F   UNL     1      40.932 133.275  21.238  1.00  0.00    -0.207 F 
BRANCH  13  18
ATOM     18  N   UNL     1      45.384 130.702  19.035  1.00  0.00    -0.456 N 
ATOM     19  H   UNL     1      45.951 130.051  19.624  1.00  0.00     0.026 HD
BRANCH  18  20
ATOM     20  C   UNL     1      45.634 130.714  17.623  1.00  0.00    -0.060 A 
ATOM     21  C   UNL     1      44.826 131.326  16.665  1.00  0.00     0.007 A 
ATOM     22  N   UNL     1      46.700 130.087  17.070  1.00  0.00    -0.436 NA
ATOM     23  C   UNL     1      45.448 131.057  15.472  1.00  0.00    -0.023 A 
ATOM     24  C   UNL     1      46.565 130.312  15.751  1.00  0.00    -0.034 A 
ATOM     25  C   UNL     1      45.109 131.422  14.172  1.00  0.00     0.008 A 
ATOM     26  C   UNL     1      47.422 129.881  14.740  1.00  0.00     0.004 A 
ATOM     27  C   UNL     1      45.957 131.002  13.131  1.00  0.00     0.001 A 
ATOM     28  C   UNL     1      47.108 130.233  13.413  1.00  0.00     0.000 A 
ENDBRANCH  18  20
ENDBRANCH  13  18
ENDBRANCH   2  11
TORSDOF 6
ENDMDL
MODEL 6
REMARK VINA RESULT:      -6.4      2.569      4.161
REMARK SMILES O=C(OCc1cc[nH]c1)c1cc(F)ccc1Nc1cc2ccccc2[n-]1
REMARK SMILES IDX 1 1 2 2 3 3 4 4 5 5 6 6 9 7 7 8 8 9 10 11 11 12 16 13 12 14
REMARK SMILES IDX 15 15 14 16 13 17 17 18 18 20 19 21 26 22 20 23 25 24 21 25
REMARK SMILES IDX 24 26 22 27 23 28
REMARK H PARENT 8 10 17 19
ROOT
ATOM      1  O   UNL     1      45.089 130.206  21.996  1.00  0.00    -0.246 OA
ATOM      2  C   UNL     1      45.311 131.209  21.262  1.00  0.00     0.338 C 
ENDROOT
BRANCH   2   3
ATOM      3  O   UNL     1      46.494 131.942  21.416  1.00  0.00    -0.457 OA
BRANCH   3   4
ATOM      4  C   UNL     1      46.551 133.366  21.361  1.00  0.00     0.270 C 
BRANCH   4   5
ATOM      5  C   UNL     1      47.531 133.890  22.366  1.00  0.00     0.007 A 
ATOM      6  C   UNL     1      47.357 133.946  23.735  1.00  0.00     0.026 A 
ATOM      7  C   UNL     1      48.759 134.454  22.091  1.00  0.00     0.089 A 
ATOM      8  C   UNL     1      48.499 134.535  24.240  1.00  0.00     0.082 A 
ATOM      9  N   UNL     1      49.345 134.839  23.239  1.00  0.00    -0.367 N 
ATOM     10  H   UNL     1      50.278 135.297  23.334  1.00  0.00     0.165 HD
ENDBRANCH   4   5
ENDBRANCH   3   4
ENDBRANCH   2   3
BRANCH   2  11
ATOM     11  C   UNL     1      44.339 131.575  20.205  1.00  0.00     0.066 A 
ATOM     12  C   UNL     1      43.241 132.392  20.538  1.00  0.00     0.055 A 
ATOM     13  C   UNL     1      44.453 131.092  18.876  1.00  0.00    -0.029 A 
ATOM     14  C   UNL     1      42.262 132.693  19.589  1.00  0.00     0.124 A 
ATOM     15  C   UNL     1      43.449 131.382  17.943  1.00  0.00     0.007 A 
ATOM     16  C   UNL     1      42.361 132.181  18.295  1.00  0.00     0.039 A 
ATOM     17  F   UNL     1      41.206 133.473  19.928  1.00  0.00    -0.207 F 
BRANCH  13  18
ATOM     18  N   UNL     1      45.587 130.326  18.443  1.00  0.00    -0.456 N 
ATOM     19  H   UNL     1      45.898 129.528  19.040  1.00  0.00     0.026 HD
BRANCH  18  20
ATOM     20  C   UNL     1      46.115 130.411  17.112  1.00  0.00    -0.060 A 
ATOM     21  C   UNL     1      45.865 131.442  16.208  1.00  0.00     0.007 A 
ATOM     22  N   UNL     1      46.912 129.449  16.586  1.00  0.00    -0.436 NA
ATOM     23  C   UNL     1      46.556 131.080  15.079  1.00  0.00    -0.023 A 
ATOM     24  C   UNL     1      47.169 129.882  15.340  1.00  0.00    -0.034 A 
ATOM     25  C   UNL     1      46.689 131.728  13.853  1.00  0.00     0.008 A 
ATOM     26  C   UNL     1      47.962 129.249  14.384  1.00  0.00     0.004 A 
ATOM     27  C   UNL     1      47.484 131.111  12.870  1.00  0.00     0.001 A 
ATOM     28  C   UNL     1      48.117 129.876  13.134  1.00  0.00     0.000 A 
ENDBRANCH  18  20
ENDBRANCH  13  18
ENDBRANCH   2  11
TORSDOF 6
ENDMDL
MODEL 7
REMARK VINA RESULT:      -6.0      3.484      5.202
REMARK SMILES O=C(OCc1cc[nH]c1)c1cc(F)ccc1Nc1cc2ccccc2[n-]1
REMARK SMILES IDX 1 1 2 2 3 3 4 4 5 5 6 6 9 7 7 8 8 9 10 11 11 12 16 13 12 14
REMARK SMILES IDX 15 15 14 16 13 17 17 18 18 20 19 21 26 22 20 23 25 24 21 25
REMARK SMILES IDX 24 26 22 27 23 28
REMARK H PARENT 8 10 17 19
ROOT
ATOM      1  O   UNL     1      47.293 131.429  20.397  1.00  0.00    -0.246 OA
ATOM      2  C   UNL     1      46.476 132.221  20.943  1.00  0.00     0.338 C 
ENDROOT
BRANCH   2   3
ATOM      3  O   UNL     1      46.906 133.480  21.380  1.00  0.00    -0.457 OA
BRANCH   3   4
ATOM      4  C   UNL     1      47.513 133.709  22.650  1.00  0.00     0.270 C 
BRANCH   4   5
ATOM      5  C   UNL     1      48.690 134.624  22.511  1.00  0.00     0.007 A 
ATOM      6  C   UNL     1      49.833 134.621  23.287  1.00  0.00     0.026 A 
ATOM      7  C   UNL     1      48.815 135.663  21.612  1.00  0.00     0.089 A 
ATOM      8  C   UNL     1      50.615 135.657  22.817  1.00  0.00     0.082 A 
ATOM      9  N   UNL     1      49.993 136.283  21.802  1.00  0.00    -0.367 N 
ATOM     10  H   UNL     1      50.353 137.104  21.266  1.00  0.00     0.165 HD
ENDBRANCH   4   5
ENDBRANCH   3   4
ENDBRANCH   2   3
BRANCH   2  11
ATOM     11  C   UNL     1      45.052 131.832  21.073  1.00  0.00     0.066 A 
ATOM     12  C   UNL     1      44.606 131.256  22.278  1.00  0.00     0.055 A 
ATOM     13  C   UNL     1      44.130 131.981  20.004  1.00  0.00    -0.029 A 
ATOM     14  C   UNL     1      43.292 130.805  22.410  1.00  0.00     0.124 A 
ATOM     15  C   UNL     1      42.822 131.500  20.144  1.00  0.00     0.007 A 
ATOM     16  C   UNL     1      42.403 130.918  21.341  1.00  0.00     0.039 A 
ATOM     17  F   UNL     1      42.881 130.244  23.574  1.00  0.00    -0.207 F 
BRANCH  13  18
ATOM     18  N   UNL     1      44.490 132.636  18.779  1.00  0.00    -0.456 N 
ATOM     19  H   UNL     1      44.543 133.679  18.777  1.00  0.00     0.026 HD
BRANCH  18  20
ATOM     20  C   UNL     1      45.059 131.934  17.665  1.00  0.00    -0.060 A 
ATOM     21  C   UNL     1      45.225 130.552  17.580  1.00  0.00     0.007 A 
ATOM     22  N   UNL     1      45.528 132.576  16.568  1.00  0.00    -0.436 NA
ATOM     23  C   UNL     1      45.821 130.356  16.360  1.00  0.00    -0.023 A 
ATOM     24  C   UNL     1      45.989 131.588  15.782  1.00  0.00    -0.034 A 
ATOM     25  C   UNL     1      46.215 129.181  15.724  1.00  0.00     0.008 A 
ATOM     26  C   UNL     1      46.566 131.726  14.520  1.00  0.00     0.004 A 
ATOM     27  C   UNL     1      46.800 129.290  14.450  1.00  0.00     0.001 A 
ATOM     28  C   UNL     1      46.977 130.558  13.851  1.00  0.00     0.000 A 
ENDBRANCH  18  20
ENDBRANCH  13  18
ENDBRANCH   2  11
TORSDOF 6
ENDMDL
MODEL 8
REMARK VINA RESULT:      -5.9      1.844      6.978
REMARK SMILES O=C(OCc1cc[nH]c1)c1cc(F)ccc1Nc1cc2ccccc2[n-]1
REMARK SMILES IDX 1 1 2 2 3 3 4 4 5 5 6 6 9 7 7 8 8 9 10 11 11 12 16 13 12 14
REMARK SMILES IDX 15 15 14 16 13 17 17 18 18 20 19 21 26 22 20 23 25 24 21 25
REMARK SMILES IDX 24 26 22 27 23 28
REMARK H PARENT 8 10 17 19
ROOT
ATOM      1  O   UNL     1      45.554 132.571  18.722  1.00  0.00    -0.246 OA
ATOM      2  C   UNL     1      44.908 131.569  19.136  1.00  0.00     0.338 C 
ENDROOT
BRANCH   2   3
ATOM      3  O   UNL     1      45.161 130.301  18.596  1.00  0.00    -0.457 OA
BRANCH   3   4
ATOM      4  C   UNL     1      46.034 130.074  17.492  1.00  0.00     0.270 C 
BRANCH   4   5
ATOM      5  C   UNL     1      45.432 130.608  16.230  1.00  0.00     0.007 A 
ATOM      6  C   UNL     1      46.088 130.838  15.036  1.00  0.00     0.026 A 
ATOM      7  C   UNL     1      44.123 131.010  16.055  1.00  0.00     0.089 A 
ATOM      8  C   UNL     1      45.143 131.363  14.177  1.00  0.00     0.082 A 
ATOM      9  N   UNL     1      43.955 131.463  14.800  1.00  0.00    -0.367 N 
ATOM     10  H   UNL     1      43.069 131.833  14.390  1.00  0.00     0.165 HD
ENDBRANCH   4   5
ENDBRANCH   3   4
ENDBRANCH   2   3
BRANCH   2  11
ATOM     11  C   UNL     1      43.921 131.731  20.228  1.00  0.00     0.066 A 
ATOM     12  C   UNL     1      42.786 132.537  20.012  1.00  0.00     0.055 A 
ATOM     13  C   UNL     1      44.103 131.136  21.503  1.00  0.00    -0.029 A 
ATOM     14  C   UNL     1      41.874 132.778  21.041  1.00  0.00     0.124 A 
ATOM     15  C   UNL     1      43.193 131.408  22.533  1.00  0.00     0.007 A 
ATOM     16  C   UNL     1      42.083 132.222  22.303  1.00  0.00     0.039 A 
ATOM     17  F   UNL     1      40.793 133.564  20.819  1.00  0.00    -0.207 F 
BRANCH  13  18
ATOM     18  N   UNL     1      45.187 130.236  21.772  1.00  0.00    -0.456 N 
ATOM     19  H   UNL     1      46.156 130.625  21.788  1.00  0.00     0.026 HD
BRANCH  18  20
ATOM     20  C   UNL     1      44.987 128.919  22.304  1.00  0.00    -0.060 A 
ATOM     21  C   UNL     1      44.418 128.627  23.543  1.00  0.00     0.007 A 
ATOM     22  N   UNL     1      45.370 127.803  21.640  1.00  0.00    -0.436 NA
ATOM     23  C   UNL     1      44.457 127.258  23.621  1.00  0.00    -0.023 A 
ATOM     24  C   UNL     1      45.035 126.797  22.466  1.00  0.00    -0.034 A 
ATOM     25  C   UNL     1      44.017 126.396  24.623  1.00  0.00     0.008 A 
ATOM     26  C   UNL     1      45.211 125.434  22.237  1.00  0.00     0.004 A 
ATOM     27  C   UNL     1      44.183 125.015  24.418  1.00  0.00     0.001 A 
ATOM     28  C   UNL     1      44.779 124.535  23.230  1.00  0.00     0.000 A 
ENDBRANCH  18  20
ENDBRANCH  13  18
ENDBRANCH   2  11
TORSDOF 6
ENDMDL


