REMARK SMILES Cc1cc[nH+]c(F)c1-c1cc2cc(F)ccc2[nH]1
REMARK SMILES IDX 9 1 10 2 11 3 12 4 13 5 14 6 15 7 16 8 17 9 18 10 8 12 2 13
REMARK SMILES IDX 3 14 4 15 6 16 5 17 1 18 7 19
REMARK H PARENT 18 11 5 20
ROOT
ATOM      1  C   UNL     1       0.219   0.165   0.204  1.00  0.00     0.056 A 
ATOM      2  C   UNL     1       1.096  -0.377   1.144  1.00  0.00     0.037 A 
ATOM      3  C   UNL     1       1.226   0.596   2.111  1.00  0.00     0.003 A 
ATOM      4  C   UNL     1       1.977   0.613   3.285  1.00  0.00     0.049 A 
ATOM      5  C   UNL     1       1.916   1.769   4.086  1.00  0.00     0.123 A 
ATOM      6  F   UNL     1       2.629   1.829   5.237  1.00  0.00    -0.207 F 
ATOM      7  C   UNL     1       1.117   2.868   3.696  1.00  0.00     0.041 A 
ATOM      8  C   UNL     1       0.373   2.820   2.502  1.00  0.00     0.030 A 
ATOM      9  C   UNL     1       0.453   1.662   1.731  1.00  0.00     0.046 A 
ATOM     10  N   UNL     1      -0.164   1.414   0.564  1.00  0.00    -0.354 N 
ATOM     11  H   UNL     1      -0.812   2.051   0.049  1.00  0.00     0.167 HD
ENDROOT
BRANCH   1  12
ATOM     12  C   UNL     1      -0.210  -0.492  -1.051  1.00  0.00     0.105 A 
ATOM     13  C   UNL     1      -0.727  -1.811  -1.075  1.00  0.00    -0.026 A 
ATOM     14  C   UNL     1      -1.073  -2.385  -2.307  1.00  0.00     0.075 A 
ATOM     15  C   UNL     1      -0.941  -1.644  -3.480  1.00  0.00     0.309 A 
ATOM     16  C   UNL     1      -0.108   0.215  -2.264  1.00  0.00     0.367 A 
ATOM     17  N   UNL     1      -0.472  -0.370  -3.436  1.00  0.00    -0.186 N 
ATOM     18  C   UNL     1      -0.912  -2.623   0.179  1.00  0.00     0.045 C 
ATOM     19  F   UNL     1       0.387   1.480  -2.283  1.00  0.00    -0.135 F 
ATOM     20  H   UNL     1      -0.380   0.168  -4.326  1.00  0.00     0.456 HD
ENDBRANCH   1  12
TORSDOF 1


