REMARK SMILES N[NH2+]c1cccc2cc(-c3ccc([O-])cc3)c3c[nH][nH+]c3c12
REMARK SMILES IDX 3 1 4 2 5 3 6 4 7 5 8 6 9 7 17 8 18 9 19 10 20 11 21 12
REMARK SMILES IDX 22 13 2 16 1 19 10 22 11 23 16 24 12 25 15 26 13 27 14 28
REMARK H PARENT 19 14 20 15 2 17 2 18 1 20 1 21
ROOT
ATOM      1  C   UNL     1      -1.122   1.730   2.255  1.00  0.00     0.163 A 
ATOM      2  C   UNL     1      -1.496   1.316   3.548  1.00  0.00     0.070 A 
ATOM      3  C   UNL     1      -1.295   0.009   3.976  1.00  0.00     0.007 A 
ATOM      4  C   UNL     1      -0.730  -0.926   3.120  1.00  0.00     0.009 A 
ATOM      5  C   UNL     1      -0.306  -0.553   1.838  1.00  0.00    -0.005 A 
ATOM      6  C   UNL     1       0.247  -1.544   0.994  1.00  0.00     0.019 A 
ATOM      7  C   UNL     1       0.709  -1.230  -0.294  1.00  0.00    -0.002 A 
ATOM      8  C   UNL     1       0.643   0.109  -0.683  1.00  0.00     0.079 A 
ATOM      9  C   UNL     1       1.165   0.744  -1.792  1.00  0.00     0.163 A 
ATOM     10  N   UNL     1       0.972   2.066  -1.632  1.00  0.00    -0.174 N 
ATOM     11  N   UNL     1       0.358   2.291  -0.479  1.00  0.00    -0.125 N 
ATOM     12  C   UNL     1       0.120   1.101   0.122  1.00  0.00     0.250 A 
ATOM     13  C   UNL     1      -0.436   0.806   1.400  1.00  0.00     0.119 A 
ATOM     14  H   UNL     1       1.302   2.815  -2.280  1.00  0.00     0.238 HD
ATOM     15  H   UNL     1       0.214   3.254  -0.118  1.00  0.00     0.488 HD
ENDROOT
BRANCH   1  16
ATOM     16  N   UNL     1      -1.526   3.054   1.843  1.00  0.00    -0.239 N 
ATOM     17  H   UNL     1      -2.464   3.271   2.255  1.00  0.00     0.376 HD
ATOM     18  H   UNL     1      -1.649   3.139   0.812  1.00  0.00     0.376 HD
BRANCH  16  19
ATOM     19  N   UNL     1      -0.613   4.005   2.348  1.00  0.00    -0.178 NA
ATOM     20  H   UNL     1      -0.853   4.935   1.935  1.00  0.00     0.183 HD
ATOM     21  H   UNL     1       0.355   3.770   2.029  1.00  0.00     0.183 HD
ENDBRANCH  16  19
ENDBRANCH   1  16
BRANCH   7  22
ATOM     22  C   UNL     1       1.280  -2.280  -1.170  1.00  0.00    -0.018 A 
ATOM     23  C   UNL     1       2.235  -3.183  -0.669  1.00  0.00     0.008 A 
ATOM     24  C   UNL     1       0.858  -2.403  -2.506  1.00  0.00     0.008 A 
ATOM     25  C   UNL     1       2.767  -4.179  -1.493  1.00  0.00    -0.008 A 
ATOM     26  C   UNL     1       1.391  -3.401  -3.327  1.00  0.00    -0.008 A 
ATOM     27  C   UNL     1       2.346  -4.288  -2.822  1.00  0.00    -0.109 A 
ATOM     28  O   UNL     1       2.876  -5.279  -3.639  1.00  0.00    -0.872 OA
ENDBRANCH   7  22
TORSDOF 3


