MODEL 1
REMARK VINA RESULT:      -5.0      0.000      0.000
REMARK SMILES C#Cc1c[nH+]cc(Nc2cc(C=C)cc(-c3ccc4cc[nH]c(=O)c4c3)c2O)c1
REMARK SMILES IDX 8 1 7 3 3 4 4 5 29 6 5 7 6 8 2 10 1 11 9 12 10 13 27 14
REMARK SMILES IDX 11 15 15 16 14 17 28 18 12 20 13 21 16 22 17 23 26 24 18 25
REMARK SMILES IDX 25 26 19 27 23 28 20 29 22 30 21 31 24 32
REMARK H PARENT 8 2 5 9 28 19 22 33
ROOT
ATOM      1  N   UNL     1      44.852 130.297  22.239  1.00  0.00    -0.348 N 
ATOM      2  H   UNL     1      45.589 130.761  22.818  1.00  0.00     0.167 HD
ENDROOT
BRANCH   1   3
ATOM      3  C   UNL     1      44.242 129.096  22.745  1.00  0.00     0.105 A 
ATOM      4  C   UNL     1      42.369 127.891  23.715  1.00  0.00     0.090 A 
ATOM      5  C   UNL     1      43.145 126.728  23.717  1.00  0.00     0.323 A 
ATOM      6  C   UNL     1      42.922 129.080  23.231  1.00  0.00     0.056 A 
ATOM      7  N   UNL     1      44.422 126.758  23.255  1.00  0.00    -0.215 N 
ATOM      8  C   UNL     1      44.981 127.905  22.778  1.00  0.00     0.332 A 
ATOM      9  H   UNL     1      44.991 125.882  23.266  1.00  0.00     0.453 HD
BRANCH   4  10
ATOM     10  C   UNL     1      41.017 127.867  24.210  1.00  0.00    -0.064 C 
ATOM     11  C   UNL     1      39.885 127.846  24.624  1.00  0.00     0.010 C 
ENDBRANCH   4  10
ENDBRANCH   1   3
BRANCH   1  12
ATOM     12  C   UNL     1      44.377 131.006  21.085  1.00  0.00     0.082 A 
ATOM     13  C   UNL     1      43.243 131.815  21.212  1.00  0.00     0.038 A 
ATOM     14  C   UNL     1      45.035 130.909  19.840  1.00  0.00     0.146 A 
ATOM     15  C   UNL     1      42.708 132.487  20.104  1.00  0.00    -0.023 A 
ATOM     16  C   UNL     1      44.516 131.593  18.722  1.00  0.00     0.026 A 
ATOM     17  C   UNL     1      43.354 132.371  18.861  1.00  0.00     0.020 A 
BRANCH  14  18
ATOM     18  O   UNL     1      46.197 130.147  19.698  1.00  0.00    -0.505 OA
ATOM     19  H   UNL     1      47.126 130.542  19.767  1.00  0.00     0.293 HD
ENDBRANCH  14  18
BRANCH  15  20
ATOM     20  C   UNL     1      41.494 133.319  20.300  1.00  0.00     0.000 C 
ATOM     21  C   UNL     1      40.730 133.280  21.392  1.00  0.00     0.009 C 
ENDBRANCH  15  20
BRANCH  16  22
ATOM     22  C   UNL     1      45.183 131.515  17.401  1.00  0.00    -0.014 A 
ATOM     23  C   UNL     1      45.479 132.691  16.692  1.00  0.00     0.009 A 
ATOM     24  C   UNL     1      45.547 130.273  16.855  1.00  0.00     0.023 A 
ATOM     25  C   UNL     1      46.113 132.631  15.450  1.00  0.00     0.009 A 
ATOM     26  C   UNL     1      46.188 130.200  15.603  1.00  0.00     0.048 A 
ATOM     27  C   UNL     1      46.469 131.392  14.898  1.00  0.00    -0.011 A 
ATOM     28  C   UNL     1      46.559 128.967  15.029  1.00  0.00     0.255 A 
ATOM     29  C   UNL     1      47.106 131.325  13.654  1.00  0.00     0.027 A 
ATOM     30  N   UNL     1      47.178 128.941  13.815  1.00  0.00    -0.329 N 
ATOM     31  C   UNL     1      47.454 130.081  13.127  1.00  0.00     0.086 A 
ATOM     32  O   UNL     1      46.326 127.882  15.628  1.00  0.00    -0.269 OA
ATOM     33  H   UNL     1      47.451 128.024  13.395  1.00  0.00     0.169 HD
ENDBRANCH  16  22
ENDBRANCH   1  12
TORSDOF 6
ENDMDL
MODEL 2
REMARK VINA RESULT:      -4.5      1.167      1.846
REMARK SMILES C#Cc1c[nH+]cc(Nc2cc(C=C)cc(-c3ccc4cc[nH]c(=O)c4c3)c2O)c1
REMARK SMILES IDX 8 1 7 3 3 4 4 5 29 6 5 7 6 8 2 10 1 11 9 12 10 13 27 14
REMARK SMILES IDX 11 15 15 16 14 17 28 18 12 20 13 21 16 22 17 23 26 24 18 25
REMARK SMILES IDX 25 26 19 27 23 28 20 29 22 30 21 31 24 32
REMARK H PARENT 8 2 5 9 28 19 22 33
ROOT
ATOM      1  N   UNL     1      45.258 130.387  22.209  1.00  0.00    -0.348 N 
ATOM      2  H   UNL     1      45.997 130.954  22.683  1.00  0.00     0.167 HD
ENDROOT
BRANCH   1   3
ATOM      3  C   UNL     1      44.777 129.202  22.871  1.00  0.00     0.105 A 
ATOM      4  C   UNL     1      44.633 126.788  23.101  1.00  0.00     0.090 A 
ATOM      5  C   UNL     1      43.791 126.964  24.203  1.00  0.00     0.323 A 
ATOM      6  C   UNL     1      45.124 127.913  22.430  1.00  0.00     0.056 A 
ATOM      7  N   UNL     1      43.455 128.216  24.613  1.00  0.00    -0.215 N 
ATOM      8  C   UNL     1      43.923 129.324  23.975  1.00  0.00     0.332 A 
ATOM      9  H   UNL     1      42.822 128.331  25.436  1.00  0.00     0.453 HD
BRANCH   4  10
ATOM     10  C   UNL     1      44.987 125.465  22.658  1.00  0.00    -0.064 C 
ATOM     11  C   UNL     1      45.283 124.357  22.288  1.00  0.00     0.010 C 
ENDBRANCH   4  10
ENDBRANCH   1   3
BRANCH   1  12
ATOM     12  C   UNL     1      44.648 130.947  21.036  1.00  0.00     0.082 A 
ATOM     13  C   UNL     1      43.378 131.521  21.148  1.00  0.00     0.038 A 
ATOM     14  C   UNL     1      45.308 130.934  19.788  1.00  0.00     0.146 A 
ATOM     15  C   UNL     1      42.717 132.034  20.022  1.00  0.00    -0.023 A 
ATOM     16  C   UNL     1      44.660 131.461  18.653  1.00  0.00     0.026 A 
ATOM     17  C   UNL     1      43.369 132.001  18.777  1.00  0.00     0.020 A 
BRANCH  14  18
ATOM     18  O   UNL     1      46.596 130.410  19.661  1.00  0.00    -0.505 OA
ATOM     19  H   UNL     1      47.356 130.660  20.281  1.00  0.00     0.293 HD
ENDBRANCH  14  18
BRANCH  15  20
ATOM     20  C   UNL     1      41.364 132.618  20.202  1.00  0.00     0.000 C 
ATOM     21  C   UNL     1      41.135 133.905  20.465  1.00  0.00     0.009 C 
ENDBRANCH  15  20
BRANCH  16  22
ATOM     22  C   UNL     1      45.325 131.468  17.328  1.00  0.00    -0.014 A 
ATOM     23  C   UNL     1      45.505 132.677  16.638  1.00  0.00     0.009 A 
ATOM     24  C   UNL     1      45.801 130.274  16.761  1.00  0.00     0.023 A 
ATOM     25  C   UNL     1      46.136 132.697  15.393  1.00  0.00     0.009 A 
ATOM     26  C   UNL     1      46.439 130.282  15.506  1.00  0.00     0.048 A 
ATOM     27  C   UNL     1      46.603 131.507  14.819  1.00  0.00    -0.011 A 
ATOM     28  C   UNL     1      46.922 129.099  14.910  1.00  0.00     0.255 A 
ATOM     29  C   UNL     1      47.237 131.519  13.571  1.00  0.00     0.027 A 
ATOM     30  N   UNL     1      47.534 129.150  13.693  1.00  0.00    -0.329 N 
ATOM     31  C   UNL     1      47.697 130.322  13.023  1.00  0.00     0.086 A 
ATOM     32  O   UNL     1      46.794 127.987  15.492  1.00  0.00    -0.269 OA
ATOM     33  H   UNL     1      47.889 128.269  13.258  1.00  0.00     0.169 HD
ENDBRANCH  16  22
ENDBRANCH   1  12
TORSDOF 6
ENDMDL
MODEL 3
REMARK VINA RESULT:      -4.4      4.763      7.872
REMARK SMILES C#Cc1c[nH+]cc(Nc2cc(C=C)cc(-c3ccc4cc[nH]c(=O)c4c3)c2O)c1
REMARK SMILES IDX 8 1 7 3 3 4 4 5 29 6 5 7 6 8 2 10 1 11 9 12 10 13 27 14
REMARK SMILES IDX 11 15 15 16 14 17 28 18 12 20 13 21 16 22 17 23 26 24 18 25
REMARK SMILES IDX 25 26 19 27 23 28 20 29 22 30 21 31 24 32
REMARK H PARENT 8 2 5 9 28 19 22 33
ROOT
ATOM      1  N   UNL     1      45.552 130.194  19.531  1.00  0.00    -0.348 N 
ATOM      2  H   UNL     1      45.471 129.174  19.746  1.00  0.00     0.167 HD
ENDROOT
BRANCH   1   3
ATOM      3  C   UNL     1      45.434 130.615  18.159  1.00  0.00     0.105 A 
ATOM      4  C   UNL     1      46.124 130.543  15.831  1.00  0.00     0.090 A 
ATOM      5  C   UNL     1      45.145 131.495  15.533  1.00  0.00     0.323 A 
ATOM      6  C   UNL     1      46.272 130.105  17.151  1.00  0.00     0.056 A 
ATOM      7  N   UNL     1      44.349 131.988  16.519  1.00  0.00    -0.215 N 
ATOM      8  C   UNL     1      44.474 131.575  17.810  1.00  0.00     0.332 A 
ATOM      9  H   UNL     1      43.624 132.702  16.281  1.00  0.00     0.453 HD
BRANCH   4  10
ATOM     10  C   UNL     1      46.975 130.023  14.793  1.00  0.00    -0.064 C 
ATOM     11  C   UNL     1      47.687 129.586  13.924  1.00  0.00     0.010 C 
ENDBRANCH   4  10
ENDBRANCH   1   3
BRANCH   1  12
ATOM     12  C   UNL     1      45.575 131.102  20.643  1.00  0.00     0.082 A 
ATOM     13  C   UNL     1      44.471 131.144  21.500  1.00  0.00     0.038 A 
ATOM     14  C   UNL     1      46.687 131.936  20.887  1.00  0.00     0.146 A 
ATOM     15  C   UNL     1      44.422 132.050  22.569  1.00  0.00    -0.023 A 
ATOM     16  C   UNL     1      46.657 132.840  21.968  1.00  0.00     0.026 A 
ATOM     17  C   UNL     1      45.523 132.894  22.797  1.00  0.00     0.020 A 
BRANCH  14  18
ATOM     18  O   UNL     1      47.822 131.879  20.074  1.00  0.00    -0.505 OA
ATOM     19  H   UNL     1      48.075 132.617  19.429  1.00  0.00     0.293 HD
ENDBRANCH  14  18
BRANCH  15  20
ATOM     20  C   UNL     1      43.216 132.057  23.435  1.00  0.00     0.000 C 
ATOM     21  C   UNL     1      42.758 130.988  24.087  1.00  0.00     0.009 C 
ENDBRANCH  15  20
BRANCH  16  22
ATOM     22  C   UNL     1      47.808 133.728  22.255  1.00  0.00    -0.014 A 
ATOM     23  C   UNL     1      48.690 133.419  23.303  1.00  0.00     0.009 A 
ATOM     24  C   UNL     1      48.043 134.871  21.472  1.00  0.00     0.023 A 
ATOM     25  C   UNL     1      49.782 134.243  23.579  1.00  0.00     0.009 A 
ATOM     26  C   UNL     1      49.141 135.710  21.741  1.00  0.00     0.048 A 
ATOM     27  C   UNL     1      50.014 135.390  22.806  1.00  0.00    -0.011 A 
ATOM     28  C   UNL     1      49.399 136.865  20.975  1.00  0.00     0.255 A 
ATOM     29  C   UNL     1      51.107 136.221  23.076  1.00  0.00     0.027 A 
ATOM     30  N   UNL     1      50.473 137.651  21.269  1.00  0.00    -0.329 N 
ATOM     31  C   UNL     1      51.319 137.354  22.290  1.00  0.00     0.086 A 
ATOM     32  O   UNL     1      48.643 137.183  20.017  1.00  0.00    -0.269 OA
ATOM     33  H   UNL     1      50.658 138.506  20.697  1.00  0.00     0.169 HD
ENDBRANCH  16  22
ENDBRANCH   1  12
TORSDOF 6
ENDMDL
MODEL 4
REMARK VINA RESULT:      -4.2      1.793      2.518
REMARK SMILES C#Cc1c[nH+]cc(Nc2cc(C=C)cc(-c3ccc4cc[nH]c(=O)c4c3)c2O)c1
REMARK SMILES IDX 8 1 7 3 3 4 4 5 29 6 5 7 6 8 2 10 1 11 9 12 10 13 27 14
REMARK SMILES IDX 11 15 15 16 14 17 28 18 12 20 13 21 16 22 17 23 26 24 18 25
REMARK SMILES IDX 25 26 19 27 23 28 20 29 22 30 21 31 24 32
REMARK H PARENT 8 2 5 9 28 19 22 33
ROOT
ATOM      1  N   UNL     1      44.857 129.427  22.918  1.00  0.00    -0.348 N 
ATOM      2  H   UNL     1      45.615 129.799  23.535  1.00  0.00     0.167 HD
ENDROOT
BRANCH   1   3
ATOM      3  C   UNL     1      44.141 128.254  23.348  1.00  0.00     0.105 A 
ATOM      4  C   UNL     1      43.783 125.852  23.367  1.00  0.00     0.090 A 
ATOM      5  C   UNL     1      42.690 126.043  24.219  1.00  0.00     0.323 A 
ATOM      6  C   UNL     1      44.508 126.964  22.927  1.00  0.00     0.056 A 
ATOM      7  N   UNL     1      42.340 127.296  24.610  1.00  0.00    -0.215 N 
ATOM      8  C   UNL     1      43.032 128.392  24.194  1.00  0.00     0.332 A 
ATOM      9  H   UNL     1      41.519 127.423  25.244  1.00  0.00     0.453 HD
BRANCH   4  10
ATOM     10  C   UNL     1      44.155 124.527  22.944  1.00  0.00    -0.064 C 
ATOM     11  C   UNL     1      44.466 123.418  22.589  1.00  0.00     0.010 C 
ENDBRANCH   4  10
ENDBRANCH   1   3
BRANCH   1  12
ATOM     12  C   UNL     1      44.467 130.231  21.795  1.00  0.00     0.082 A 
ATOM     13  C   UNL     1      43.471 131.196  21.972  1.00  0.00     0.038 A 
ATOM     14  C   UNL     1      45.073 130.070  20.530  1.00  0.00     0.146 A 
ATOM     15  C   UNL     1      43.017 131.971  20.895  1.00  0.00    -0.023 A 
ATOM     16  C   UNL     1      44.636 130.854  19.443  1.00  0.00     0.026 A 
ATOM     17  C   UNL     1      43.608 131.794  19.632  1.00  0.00     0.020 A 
BRANCH  14  18
ATOM     18  O   UNL     1      46.103 129.146  20.338  1.00  0.00    -0.505 OA
ATOM     19  H   UNL     1      46.664 128.782  21.098  1.00  0.00     0.293 HD
ENDBRANCH  14  18
BRANCH  15  20
ATOM     20  C   UNL     1      41.947 132.970  21.144  1.00  0.00     0.000 C 
ATOM     21  C   UNL     1      40.933 133.202  20.310  1.00  0.00     0.009 C 
ENDBRANCH  15  20
BRANCH  16  22
ATOM     22  C   UNL     1      45.253 130.714  18.103  1.00  0.00    -0.014 A 
ATOM     23  C   UNL     1      46.491 130.066  17.963  1.00  0.00     0.009 A 
ATOM     24  C   UNL     1      44.601 131.204  16.960  1.00  0.00     0.023 A 
ATOM     25  C   UNL     1      47.080 129.921  16.706  1.00  0.00     0.009 A 
ATOM     26  C   UNL     1      45.184 131.065  15.686  1.00  0.00     0.048 A 
ATOM     27  C   UNL     1      46.436 130.418  15.564  1.00  0.00    -0.011 A 
ATOM     28  C   UNL     1      44.555 131.551  14.522  1.00  0.00     0.255 A 
ATOM     29  C   UNL     1      47.020 130.277  14.300  1.00  0.00     0.027 A 
ATOM     30  N   UNL     1      45.155 131.395  13.308  1.00  0.00    -0.329 N 
ATOM     31  C   UNL     1      46.358 130.776  13.178  1.00  0.00     0.086 A 
ATOM     32  O   UNL     1      43.438 132.132  14.591  1.00  0.00    -0.269 OA
ATOM     33  H   UNL     1      44.682 131.758  12.450  1.00  0.00     0.169 HD
ENDBRANCH  16  22
ENDBRANCH   1  12
TORSDOF 6
ENDMDL
MODEL 5
REMARK VINA RESULT:      -4.0      1.520      2.240
REMARK SMILES C#Cc1c[nH+]cc(Nc2cc(C=C)cc(-c3ccc4cc[nH]c(=O)c4c3)c2O)c1
REMARK SMILES IDX 8 1 7 3 3 4 4 5 29 6 5 7 6 8 2 10 1 11 9 12 10 13 27 14
REMARK SMILES IDX 11 15 15 16 14 17 28 18 12 20 13 21 16 22 17 23 26 24 18 25
REMARK SMILES IDX 25 26 19 27 23 28 20 29 22 30 21 31 24 32
REMARK H PARENT 8 2 5 9 28 19 22 33
ROOT
ATOM      1  N   UNL     1      45.523 129.259  21.896  1.00  0.00    -0.348 N 
ATOM      2  H   UNL     1      46.467 129.536  22.249  1.00  0.00     0.167 HD
ENDROOT
BRANCH   1   3
ATOM      3  C   UNL     1      44.873 128.125  22.498  1.00  0.00     0.105 A 
ATOM      4  C   UNL     1      44.578 125.731  22.787  1.00  0.00     0.090 A 
ATOM      5  C   UNL     1      43.553 125.989  23.702  1.00  0.00     0.323 A 
ATOM      6  C   UNL     1      45.237 126.804  22.180  1.00  0.00     0.056 A 
ATOM      7  N   UNL     1      43.203 127.270  23.993  1.00  0.00    -0.215 N 
ATOM      8  C   UNL     1      43.832 128.329  23.415  1.00  0.00     0.332 A 
ATOM      9  H   UNL     1      42.433 127.446  24.677  1.00  0.00     0.453 HD
BRANCH   4  10
ATOM     10  C   UNL     1      44.948 124.376  22.469  1.00  0.00    -0.064 C 
ATOM     11  C   UNL     1      45.259 123.243  22.203  1.00  0.00     0.010 C 
ENDBRANCH   4  10
ENDBRANCH   1   3
BRANCH   1  12
ATOM     12  C   UNL     1      44.874 130.154  20.979  1.00  0.00     0.082 A 
ATOM     13  C   UNL     1      43.888 131.017  21.465  1.00  0.00     0.038 A 
ATOM     14  C   UNL     1      45.220 130.181  19.610  1.00  0.00     0.146 A 
ATOM     15  C   UNL     1      43.188 131.873  20.602  1.00  0.00    -0.023 A 
ATOM     16  C   UNL     1      44.535 131.048  18.735  1.00  0.00     0.026 A 
ATOM     17  C   UNL     1      43.521 131.882  19.236  1.00  0.00     0.020 A 
BRANCH  14  18
ATOM     18  O   UNL     1      46.235 129.363  19.109  1.00  0.00    -0.505 OA
ATOM     19  H   UNL     1      46.944 129.695  18.467  1.00  0.00     0.293 HD
ENDBRANCH  14  18
BRANCH  15  20
ATOM     20  C   UNL     1      42.142 132.756  21.176  1.00  0.00     0.000 C 
ATOM     21  C   UNL     1      41.161 133.312  20.465  1.00  0.00     0.009 C 
ENDBRANCH  15  20
BRANCH  16  22
ATOM     22  C   UNL     1      44.875 131.104  17.294  1.00  0.00    -0.014 A 
ATOM     23  C   UNL     1      44.034 131.785  16.399  1.00  0.00     0.009 A 
ATOM     24  C   UNL     1      46.049 130.501  16.812  1.00  0.00     0.023 A 
ATOM     25  C   UNL     1      44.347 131.850  15.040  1.00  0.00     0.009 A 
ATOM     26  C   UNL     1      46.375 130.560  15.444  1.00  0.00     0.048 A 
ATOM     27  C   UNL     1      45.512 131.240  14.554  1.00  0.00    -0.011 A 
ATOM     28  C   UNL     1      47.543 129.960  14.931  1.00  0.00     0.255 A 
ATOM     29  C   UNL     1      45.833 131.303  13.193  1.00  0.00     0.027 A 
ATOM     30  N   UNL     1      47.822 130.041  13.599  1.00  0.00    -0.329 N 
ATOM     31  C   UNL     1      47.000 130.692  12.734  1.00  0.00     0.086 A 
ATOM     32  O   UNL     1      48.338 129.345  15.693  1.00  0.00    -0.269 OA
ATOM     33  H   UNL     1      48.690 129.594  13.226  1.00  0.00     0.169 HD
ENDBRANCH  16  22
ENDBRANCH   1  12
TORSDOF 6
ENDMDL
MODEL 6
REMARK VINA RESULT:      -3.8      1.231      1.997
REMARK SMILES C#Cc1c[nH+]cc(Nc2cc(C=C)cc(-c3ccc4cc[nH]c(=O)c4c3)c2O)c1
REMARK SMILES IDX 8 1 7 3 3 4 4 5 29 6 5 7 6 8 2 10 1 11 9 12 10 13 27 14
REMARK SMILES IDX 11 15 15 16 14 17 28 18 12 20 13 21 16 22 17 23 26 24 18 25
REMARK SMILES IDX 25 26 19 27 23 28 20 29 22 30 21 31 24 32
REMARK H PARENT 8 2 5 9 28 19 22 33
ROOT
ATOM      1  N   UNL     1      45.087 129.532  22.679  1.00  0.00    -0.348 N 
ATOM      2  H   UNL     1      45.949 129.867  23.167  1.00  0.00     0.167 HD
ENDROOT
BRANCH   1   3
ATOM      3  C   UNL     1      44.425 128.361  23.190  1.00  0.00     0.105 A 
ATOM      4  C   UNL     1      44.448 126.073  24.005  1.00  0.00     0.090 A 
ATOM      5  C   UNL     1      43.060 126.136  24.161  1.00  0.00     0.323 A 
ATOM      6  C   UNL     1      45.132 127.189  23.513  1.00  0.00     0.056 A 
ATOM      7  N   UNL     1      42.387 127.271  23.835  1.00  0.00    -0.215 N 
ATOM      8  C   UNL     1      43.033 128.370  23.356  1.00  0.00     0.332 A 
ATOM      9  H   UNL     1      41.350 127.302  23.954  1.00  0.00     0.453 HD
BRANCH   4  10
ATOM     10  C   UNL     1      45.165 124.871  24.342  1.00  0.00    -0.064 C 
ATOM     11  C   UNL     1      45.767 123.865  24.624  1.00  0.00     0.010 C 
ENDBRANCH   4  10
ENDBRANCH   1   3
BRANCH   1  12
ATOM     12  C   UNL     1      44.531 130.383  21.665  1.00  0.00     0.082 A 
ATOM     13  C   UNL     1      43.419 131.168  21.982  1.00  0.00     0.038 A 
ATOM     14  C   UNL     1      45.089 130.444  20.370  1.00  0.00     0.146 A 
ATOM     15  C   UNL     1      42.806 131.976  21.013  1.00  0.00    -0.023 A 
ATOM     16  C   UNL     1      44.491 131.264  19.392  1.00  0.00     0.026 A 
ATOM     17  C   UNL     1      43.352 132.019  19.719  1.00  0.00     0.020 A 
BRANCH  14  18
ATOM     18  O   UNL     1      46.229 129.706  20.042  1.00  0.00    -0.505 OA
ATOM     19  H   UNL     1      47.165 130.086  20.097  1.00  0.00     0.293 HD
ENDBRANCH  14  18
BRANCH  15  20
ATOM     20  C   UNL     1      41.619 132.776  21.408  1.00  0.00     0.000 C 
ATOM     21  C   UNL     1      41.036 133.684  20.624  1.00  0.00     0.009 C 
ENDBRANCH  15  20
BRANCH  16  22
ATOM     22  C   UNL     1      45.054 131.355  18.023  1.00  0.00    -0.014 A 
ATOM     23  C   UNL     1      45.253 132.611  17.427  1.00  0.00     0.009 A 
ATOM     24  C   UNL     1      45.413 130.194  17.319  1.00  0.00     0.023 A 
ATOM     25  C   UNL     1      45.788 132.709  16.141  1.00  0.00     0.009 A 
ATOM     26  C   UNL     1      45.954 130.281  16.022  1.00  0.00     0.048 A 
ATOM     27  C   UNL     1      46.139 131.552  15.432  1.00  0.00    -0.011 A 
ATOM     28  C   UNL     1      46.319 129.133  15.290  1.00  0.00     0.255 A 
ATOM     29  C   UNL     1      46.676 131.644  14.143  1.00  0.00     0.027 A 
ATOM     30  N   UNL     1      46.840 129.261  14.037  1.00  0.00    -0.329 N 
ATOM     31  C   UNL     1      47.021 130.478  13.458  1.00  0.00     0.086 A 
ATOM     32  O   UNL     1      46.170 127.982  15.784  1.00  0.00    -0.269 OA
ATOM     33  H   UNL     1      47.108 128.406  13.500  1.00  0.00     0.169 HD
ENDBRANCH  16  22
ENDBRANCH   1  12
TORSDOF 6
ENDMDL
MODEL 7
REMARK VINA RESULT:      -3.4      6.213      7.574
REMARK SMILES C#Cc1c[nH+]cc(Nc2cc(C=C)cc(-c3ccc4cc[nH]c(=O)c4c3)c2O)c1
REMARK SMILES IDX 8 1 7 3 3 4 4 5 29 6 5 7 6 8 2 10 1 11 9 12 10 13 27 14
REMARK SMILES IDX 11 15 15 16 14 17 28 18 12 20 13 21 16 22 17 23 26 24 18 25
REMARK SMILES IDX 25 26 19 27 23 28 20 29 22 30 21 31 24 32
REMARK H PARENT 8 2 5 9 28 19 22 33
ROOT
ATOM      1  N   UNL     1      42.929 124.226  23.755  1.00  0.00    -0.348 N 
ATOM      2  H   UNL     1      43.251 123.235  23.680  1.00  0.00     0.167 HD
ENDROOT
BRANCH   1   3
ATOM      3  C   UNL     1      41.529 124.474  23.982  1.00  0.00     0.105 A 
ATOM      4  C   UNL     1      39.652 125.972  24.350  1.00  0.00     0.090 A 
ATOM      5  C   UNL     1      38.808 124.861  24.430  1.00  0.00     0.323 A 
ATOM      6  C   UNL     1      41.019 125.776  24.129  1.00  0.00     0.056 A 
ATOM      7  N   UNL     1      39.315 123.606  24.297  1.00  0.00    -0.215 N 
ATOM      8  C   UNL     1      40.642 123.393  24.080  1.00  0.00     0.332 A 
ATOM      9  H   UNL     1      38.671 122.786  24.363  1.00  0.00     0.453 HD
BRANCH   4  10
ATOM     10  C   UNL     1      39.123 127.302  24.498  1.00  0.00    -0.064 C 
ATOM     11  C   UNL     1      38.680 128.417  24.621  1.00  0.00     0.010 C 
ENDBRANCH   4  10
ENDBRANCH   1   3
BRANCH   1  12
ATOM     12  C   UNL     1      43.939 125.244  23.823  1.00  0.00     0.082 A 
ATOM     13  C   UNL     1      43.563 126.541  24.189  1.00  0.00     0.038 A 
ATOM     14  C   UNL     1      45.291 124.957  23.539  1.00  0.00     0.146 A 
ATOM     15  C   UNL     1      44.502 127.582  24.219  1.00  0.00    -0.023 A 
ATOM     16  C   UNL     1      46.247 125.993  23.581  1.00  0.00     0.026 A 
ATOM     17  C   UNL     1      45.845 127.297  23.915  1.00  0.00     0.020 A 
BRANCH  14  18
ATOM     18  O   UNL     1      45.700 123.661  23.219  1.00  0.00    -0.505 OA
ATOM     19  H   UNL     1      46.441 123.464  22.558  1.00  0.00     0.293 HD
ENDBRANCH  14  18
BRANCH  15  20
ATOM     20  C   UNL     1      44.039 128.940  24.601  1.00  0.00     0.000 C 
ATOM     21  C   UNL     1      43.639 129.866  23.729  1.00  0.00     0.009 C 
ENDBRANCH  15  20
BRANCH  16  22
ATOM     22  C   UNL     1      47.676 125.726  23.292  1.00  0.00    -0.014 A 
ATOM     23  C   UNL     1      48.674 126.270  24.117  1.00  0.00     0.009 A 
ATOM     24  C   UNL     1      48.047 124.911  22.210  1.00  0.00     0.023 A 
ATOM     25  C   UNL     1      50.023 126.021  23.859  1.00  0.00     0.009 A 
ATOM     26  C   UNL     1      49.404 124.652  21.939  1.00  0.00     0.048 A 
ATOM     27  C   UNL     1      50.397 125.216  22.773  1.00  0.00    -0.011 A 
ATOM     28  C   UNL     1      49.805 123.842  20.858  1.00  0.00     0.255 A 
ATOM     29  C   UNL     1      51.747 124.961  22.509  1.00  0.00     0.027 A 
ATOM     30  N   UNL     1      51.131 123.616  20.631  1.00  0.00    -0.329 N 
ATOM     31  C   UNL     1      52.094 124.154  21.425  1.00  0.00     0.086 A 
ATOM     32  O   UNL     1      48.949 123.321  20.093  1.00  0.00    -0.269 OA
ATOM     33  H   UNL     1      51.420 123.015  19.827  1.00  0.00     0.169 HD
ENDBRANCH  16  22
ENDBRANCH   1  12
TORSDOF 6
ENDMDL
MODEL 8
REMARK VINA RESULT:      -2.7      2.132      2.964
REMARK SMILES C#Cc1c[nH+]cc(Nc2cc(C=C)cc(-c3ccc4cc[nH]c(=O)c4c3)c2O)c1
REMARK SMILES IDX 8 1 7 3 3 4 4 5 29 6 5 7 6 8 2 10 1 11 9 12 10 13 27 14
REMARK SMILES IDX 11 15 15 16 14 17 28 18 12 20 13 21 16 22 17 23 26 24 18 25
REMARK SMILES IDX 25 26 19 27 23 28 20 29 22 30 21 31 24 32
REMARK H PARENT 8 2 5 9 28 19 22 33
ROOT
ATOM      1  N   UNL     1      44.090 130.904  24.005  1.00  0.00    -0.348 N 
ATOM      2  H   UNL     1      43.798 131.492  24.819  1.00  0.00     0.167 HD
ENDROOT
BRANCH   1   3
ATOM      3  C   UNL     1      43.639 129.538  23.953  1.00  0.00     0.105 A 
ATOM      4  C   UNL     1      41.878 127.866  23.885  1.00  0.00     0.090 A 
ATOM      5  C   UNL     1      42.856 126.867  23.864  1.00  0.00     0.323 A 
ATOM      6  C   UNL     1      42.273 129.207  23.934  1.00  0.00     0.056 A 
ATOM      7  N   UNL     1      44.174 127.200  23.894  1.00  0.00    -0.215 N 
ATOM      8  C   UNL     1      44.580 128.498  23.940  1.00  0.00     0.332 A 
ATOM      9  H   UNL     1      44.893 126.442  23.881  1.00  0.00     0.453 HD
BRANCH   4  10
ATOM     10  C   UNL     1      40.481 127.519  23.861  1.00  0.00    -0.064 C 
ATOM     11  C   UNL     1      39.311 127.229  23.841  1.00  0.00     0.010 C 
ENDBRANCH   4  10
ENDBRANCH   1   3
BRANCH   1  12
ATOM     12  C   UNL     1      44.750 131.566  22.916  1.00  0.00     0.082 A 
ATOM     13  C   UNL     1      45.768 132.481  23.202  1.00  0.00     0.038 A 
ATOM     14  C   UNL     1      44.397 131.304  21.575  1.00  0.00     0.146 A 
ATOM     15  C   UNL     1      46.408 133.193  22.178  1.00  0.00    -0.023 A 
ATOM     16  C   UNL     1      45.044 132.002  20.534  1.00  0.00     0.026 A 
ATOM     17  C   UNL     1      46.039 132.944  20.844  1.00  0.00     0.020 A 
BRANCH  14  18
ATOM     18  O   UNL     1      43.417 130.360  21.260  1.00  0.00    -0.505 OA
ATOM     19  H   UNL     1      43.572 129.603  20.607  1.00  0.00     0.293 HD
ENDBRANCH  14  18
BRANCH  15  20
ATOM     20  C   UNL     1      47.471 134.161  22.546  1.00  0.00     0.000 C 
ATOM     21  C   UNL     1      48.680 133.811  22.989  1.00  0.00     0.009 C 
ENDBRANCH  15  20
BRANCH  16  22
ATOM     22  C   UNL     1      44.701 131.748  19.115  1.00  0.00    -0.014 A 
ATOM     23  C   UNL     1      43.452 132.149  18.612  1.00  0.00     0.009 A 
ATOM     24  C   UNL     1      45.622 131.128  18.256  1.00  0.00     0.023 A 
ATOM     25  C   UNL     1      43.119 131.922  17.275  1.00  0.00     0.009 A 
ATOM     26  C   UNL     1      45.298 130.893  16.906  1.00  0.00     0.048 A 
ATOM     27  C   UNL     1      44.033 131.294  16.417  1.00  0.00    -0.011 A 
ATOM     28  C   UNL     1      46.201 130.268  16.022  1.00  0.00     0.255 A 
ATOM     29  C   UNL     1      43.707 131.063  15.076  1.00  0.00     0.027 A 
ATOM     30  N   UNL     1      45.847 130.060  14.722  1.00  0.00    -0.329 N 
ATOM     31  C   UNL     1      44.634 130.440  14.241  1.00  0.00     0.086 A 
ATOM     32  O   UNL     1      47.339 129.898  16.421  1.00  0.00    -0.269 OA
ATOM     33  H   UNL     1      46.522 129.596  14.073  1.00  0.00     0.169 HD
ENDBRANCH  16  22
ENDBRANCH   1  12
TORSDOF 6
ENDMDL
MODEL 9
REMARK VINA RESULT:      -2.7      1.855      2.452
REMARK SMILES C#Cc1c[nH+]cc(Nc2cc(C=C)cc(-c3ccc4cc[nH]c(=O)c4c3)c2O)c1
REMARK SMILES IDX 8 1 7 3 3 4 4 5 29 6 5 7 6 8 2 10 1 11 9 12 10 13 27 14
REMARK SMILES IDX 11 15 15 16 14 17 28 18 12 20 13 21 16 22 17 23 26 24 18 25
REMARK SMILES IDX 25 26 19 27 23 28 20 29 22 30 21 31 24 32
REMARK H PARENT 8 2 5 9 28 19 22 33
ROOT
ATOM      1  N   UNL     1      44.037 129.527  23.848  1.00  0.00    -0.348 N 
ATOM      2  H   UNL     1      44.070 129.974  24.792  1.00  0.00     0.167 HD
ENDROOT
BRANCH   1   3
ATOM      3  C   UNL     1      44.132 128.093  23.767  1.00  0.00     0.105 A 
ATOM      4  C   UNL     1      43.181 125.869  23.983  1.00  0.00     0.090 A 
ATOM      5  C   UNL     1      44.410 125.327  23.596  1.00  0.00     0.323 A 
ATOM      6  C   UNL     1      43.044 127.257  24.073  1.00  0.00     0.056 A 
ATOM      7  N   UNL     1      45.458 126.146  23.313  1.00  0.00    -0.215 N 
ATOM      8  C   UNL     1      45.346 127.500  23.393  1.00  0.00     0.332 A 
ATOM      9  H   UNL     1      46.371 125.726  23.028  1.00  0.00     0.453 HD
BRANCH   4  10
ATOM     10  C   UNL     1      42.069 125.007  24.291  1.00  0.00    -0.064 C 
ATOM     11  C   UNL     1      41.138 124.286  24.549  1.00  0.00     0.010 C 
ENDBRANCH   4  10
ENDBRANCH   1   3
BRANCH   1  12
ATOM     12  C   UNL     1      43.701 130.366  22.733  1.00  0.00     0.082 A 
ATOM     13  C   UNL     1      42.706 131.335  22.895  1.00  0.00     0.038 A 
ATOM     14  C   UNL     1      44.360 130.237  21.491  1.00  0.00     0.146 A 
ATOM     15  C   UNL     1      42.304 132.144  21.823  1.00  0.00    -0.023 A 
ATOM     16  C   UNL     1      43.976 131.056  20.410  1.00  0.00     0.026 A 
ATOM     17  C   UNL     1      42.948 131.998  20.582  1.00  0.00     0.020 A 
BRANCH  14  18
ATOM     18  O   UNL     1      45.390 129.310  21.317  1.00  0.00    -0.505 OA
ATOM     19  H   UNL     1      46.049 129.075  22.049  1.00  0.00     0.293 HD
ENDBRANCH  14  18
BRANCH  15  20
ATOM     20  C   UNL     1      41.232 133.144  22.055  1.00  0.00     0.000 C 
ATOM     21  C   UNL     1      40.647 133.851  21.087  1.00  0.00     0.009 C 
ENDBRANCH  15  20
BRANCH  16  22
ATOM     22  C   UNL     1      44.649 130.948  19.093  1.00  0.00    -0.014 A 
ATOM     23  C   UNL     1      45.962 130.458  19.014  1.00  0.00     0.009 A 
ATOM     24  C   UNL     1      43.978 131.313  17.915  1.00  0.00     0.023 A 
ATOM     25  C   UNL     1      46.605 130.346  17.780  1.00  0.00     0.009 A 
ATOM     26  C   UNL     1      44.615 131.204  16.664  1.00  0.00     0.048 A 
ATOM     27  C   UNL     1      45.941 130.718  16.602  1.00  0.00    -0.011 A 
ATOM     28  C   UNL     1      43.968 131.567  15.466  1.00  0.00     0.255 A 
ATOM     29  C   UNL     1      46.579 130.608  15.361  1.00  0.00     0.027 A 
ATOM     30  N   UNL     1      44.622 131.446  14.275  1.00  0.00    -0.329 N 
ATOM     31  C   UNL     1      45.897 130.981  14.203  1.00  0.00     0.086 A 
ATOM     32  O   UNL     1      42.785 132.004  15.481  1.00  0.00    -0.269 OA
ATOM     33  H   UNL     1      44.135 131.717  13.391  1.00  0.00     0.169 HD
ENDBRANCH  16  22
ENDBRANCH   1  12
TORSDOF 6
ENDMDL


