REMARK SMILES C=Cc1cc(-c2ccc(C)c3[nH]ncc23)ccc1O
REMARK SMILES IDX 3 1 4 2 5 3 16 4 17 5 18 6 2 7 1 8 19 9 6 11 7 12 15 13 8 14
REMARK SMILES IDX 14 15 11 16 9 17 13 18 12 19 10 20
REMARK H PARENT 19 10 12 21
ROOT
ATOM      1  C   UNL     1       2.184   0.717   0.504  1.00  0.00     0.016 A 
ATOM      2  C   UNL     1       1.160  -0.133   0.039  1.00  0.00     0.020 A 
ATOM      3  C   UNL     1       0.109   0.367  -0.746  1.00  0.00    -0.017 A 
ATOM      4  C   UNL     1       0.100   1.726  -1.094  1.00  0.00     0.012 A 
ATOM      5  C   UNL     1       1.118   2.572  -0.655  1.00  0.00     0.047 A 
ATOM      6  C   UNL     1       2.160   2.078   0.140  1.00  0.00     0.122 A 
ENDROOT
BRANCH   1   7
ATOM      7  C   UNL     1       3.304   0.202   1.333  1.00  0.00     0.004 C 
ATOM      8  C   UNL     1       3.220  -0.888   2.097  1.00  0.00     0.009 C 
ENDBRANCH   1   7
BRANCH   6   9
ATOM      9  O   UNL     1       3.167   2.940   0.575  1.00  0.00    -0.507 OA
ATOM     10  H   UNL     1       3.169   3.923   0.328  1.00  0.00     0.293 HD
ENDBRANCH   6   9
BRANCH   3  11
ATOM     11  C   UNL     1      -0.964  -0.533  -1.231  1.00  0.00    -0.007 A 
ATOM     12  C   UNL     1      -1.363  -0.520  -2.587  1.00  0.00     0.010 A 
ATOM     13  C   UNL     1      -1.631  -1.428  -0.383  1.00  0.00     0.028 A 
ATOM     14  C   UNL     1      -2.378  -1.384  -3.053  1.00  0.00     0.006 A 
ATOM     15  C   UNL     1      -1.547  -1.671   0.975  1.00  0.00     0.144 A 
ATOM     16  C   UNL     1      -2.617  -2.263  -0.834  1.00  0.00     0.069 A 
ATOM     17  C   UNL     1      -3.023  -2.279  -2.172  1.00  0.00    -0.025 A 
ATOM     18  N   UNL     1      -2.451  -2.625   1.298  1.00  0.00    -0.183 NA
ATOM     19  N   UNL     1      -3.097  -2.982   0.194  1.00  0.00    -0.278 N 
ATOM     20  C   UNL     1      -4.115  -3.192  -2.646  1.00  0.00     0.046 C 
ATOM     21  H   UNL     1      -3.857  -3.697   0.162  1.00  0.00     0.190 HD
ENDBRANCH   3  11
TORSDOF 3


