REMARK SMILES CC(=O)c1ccc(/C(O)=N/[C@@H]2C=CCC2)c(F)c1OC(=O)C(C)(C)C
REMARK SMILES IDX 7 1 6 2 5 3 4 4 18 5 16 6 17 7 8 8 9 9 10 11 11 12 12 13
REMARK SMILES IDX 15 14 13 15 14 16 19 17 20 18 21 19 22 20 23 21 24 22 25 23
REMARK SMILES IDX 2 24 3 25 1 26
REMARK H PARENT 9 10
ROOT
ATOM      1  C   UNL     1       0.173   1.119   0.427  1.00  0.00     0.076 A 
ATOM      2  C   UNL     1       1.208   2.053   0.601  1.00  0.00     0.018 A 
ATOM      3  C   UNL     1       2.537   1.699   0.377  1.00  0.00     0.017 A 
ATOM      4  C   UNL     1       2.881   0.393  -0.015  1.00  0.00     0.063 A 
ATOM      5  C   UNL     1       1.852  -0.565  -0.164  1.00  0.00     0.178 A 
ATOM      6  C   UNL     1       0.507  -0.192   0.032  1.00  0.00     0.179 A 
ATOM      7  F   UNL     1      -0.471  -1.099  -0.223  1.00  0.00    -0.202 F 
ENDROOT
BRANCH   1   8
ATOM      8  C   UNL     1      -1.242   1.520   0.654  1.00  0.00     0.217 C 
BRANCH   8   9
ATOM      9  O   UNL     1      -2.246   0.545   0.626  1.00  0.00    -0.493 OA
ATOM     10  H   UNL     1      -3.226   0.749   0.771  1.00  0.00     0.295 HD
ENDBRANCH   8   9
BRANCH   8  11
ATOM     11  N   UNL     1      -1.526   2.772   0.879  1.00  0.00    -0.244 NA
BRANCH  11  12
ATOM     12  C   UNL     1      -2.858   3.321   1.129  1.00  0.00     0.132 C 
ATOM     13  C   UNL     1      -2.780   4.805   1.151  1.00  0.00    -0.005 C 
ATOM     14  C   UNL     1      -3.370   2.951   2.534  1.00  0.00     0.036 C 
ATOM     15  C   UNL     1      -3.130   5.314   2.319  1.00  0.00    -0.029 C 
ATOM     16  C   UNL     1      -3.506   4.268   3.304  1.00  0.00     0.029 C 
ENDBRANCH  11  12
ENDBRANCH   8  11
ENDBRANCH   1   8
BRANCH   5  17
ATOM     17  O   UNL     1       2.177  -1.878  -0.536  1.00  0.00    -0.422 OA
BRANCH  17  18
ATOM     18  C   UNL     1       1.658  -3.028   0.074  1.00  0.00     0.316 C 
ATOM     19  O   UNL     1       1.014  -2.935   1.157  1.00  0.00    -0.251 OA
BRANCH  18  20
ATOM     20  C   UNL     1       1.837  -4.379  -0.590  1.00  0.00     0.060 C 
ATOM     21  C   UNL     1       0.611  -4.657  -1.476  1.00  0.00     0.023 C 
ATOM     22  C   UNL     1       3.110  -4.378  -1.461  1.00  0.00     0.023 C 
ATOM     23  C   UNL     1       1.966  -5.488   0.475  1.00  0.00     0.023 C 
ENDBRANCH  18  20
ENDBRANCH  17  18
ENDBRANCH   5  17
BRANCH   4  24
ATOM     24  C   UNL     1       4.308   0.037  -0.258  1.00  0.00     0.163 C 
ATOM     25  O   UNL     1       4.600  -0.973  -0.954  1.00  0.00    -0.294 OA
ATOM     26  C   UNL     1       5.431   0.878   0.274  1.00  0.00     0.093 C 
ENDBRANCH   4  24
TORSDOF 8


