REMARK SMILES O=C(c1ccc(F)cc1)[C@H]1O[C@@H]1[C@H]1CC[C@H]2[NH2+]C=C[C@@]2(F)C1
REMARK SMILES IDX 10 1 11 2 12 3 2 4 1 5 3 6 4 7 9 8 5 9 8 10 6 11 7 12 13 13
REMARK SMILES IDX 14 14 22 15 15 16 20 17 16 18 19 19 17 20 18 21 21 22
REMARK H PARENT 17 23 17 24
ROOT
ATOM      1  C   UNL     1       1.210  -2.365  -0.333  1.00  0.00     0.219 C 
ATOM      2  O   UNL     1       0.255  -3.054   0.446  1.00  0.00    -0.361 OA
ATOM      3  C   UNL     1      -0.085  -1.745   0.051  1.00  0.00     0.159 C 
ENDROOT
BRANCH   1   4
ATOM      4  C   UNL     1       2.393  -1.966   0.499  1.00  0.00     0.194 C 
ATOM      5  O   UNL     1       2.860  -2.798   1.324  1.00  0.00    -0.291 OA
BRANCH   4   6
ATOM      6  C   UNL     1       3.021  -0.628   0.364  1.00  0.00     0.021 A 
ATOM      7  C   UNL     1       2.718   0.212  -0.724  1.00  0.00     0.015 A 
ATOM      8  C   UNL     1       3.933  -0.174   1.337  1.00  0.00     0.015 A 
ATOM      9  C   UNL     1       3.296   1.481  -0.824  1.00  0.00     0.040 A 
ATOM     10  C   UNL     1       4.512   1.094   1.230  1.00  0.00     0.040 A 
ATOM     11  C   UNL     1       4.191   1.923   0.153  1.00  0.00     0.123 A 
ATOM     12  F   UNL     1       4.748   3.155   0.056  1.00  0.00    -0.207 F 
ENDBRANCH   4   6
ENDBRANCH   1   4
BRANCH   3  13
ATOM     13  C   UNL     1      -1.204  -1.752  -1.009  1.00  0.00     0.025 C 
ATOM     14  C   UNL     1      -2.583  -2.026  -0.396  1.00  0.00     0.013 C 
ATOM     15  C   UNL     1      -1.240  -0.442  -1.806  1.00  0.00     0.058 C 
ATOM     16  C   UNL     1      -3.009  -0.911   0.557  1.00  0.00     0.069 C 
ATOM     17  C   UNL     1      -1.833   0.770  -1.053  1.00  0.00     0.186 C 
ATOM     18  C   UNL     1      -3.030   0.491  -0.110  1.00  0.00     0.229 C 
ATOM     19  C   UNL     1      -0.883   1.449  -0.136  1.00  0.00     0.079 C 
ATOM     20  N   UNL     1      -2.932   1.535   0.930  1.00  0.00    -0.315 N 
ATOM     21  C   UNL     1      -1.543   1.886   0.925  1.00  0.00     0.219 C 
ATOM     22  F   UNL     1      -2.227   1.706  -1.999  1.00  0.00    -0.232 F 
ATOM     23  H   UNL     1      -3.223   1.210   1.882  1.00  0.00     0.352 HD
ATOM     24  H   UNL     1      -3.493   2.376   0.655  1.00  0.00     0.352 HD
ENDBRANCH   3  13
TORSDOF 3


