REMARK SMILES C=C[C@@H]1CN[C@H](c2ccc3nc[nH+]n3c2)/[N+](=C(/O)C[C@H]2C[C@@H](C)C2)C1
REMARK SMILES IDX 17 1 18 2 16 4 25 5 6 6 3 7 5 8 4 9 7 11 8 12 15 13 9 14
REMARK SMILES IDX 14 15 10 16 13 17 11 18 12 19 2 21 1 22 19 23 20 24 24 25
REMARK SMILES IDX 21 26 22 27 23 28
REMARK H PARENT 18 3 5 10 13 20
ROOT
ATOM      1  C   UNL     1       0.303   0.584  -1.701  1.00  0.00     0.335 C 
ENDROOT
BRANCH   1   2
ATOM      2  O   UNL     1       0.385   0.872  -3.068  1.00  0.00    -0.463 OA
ATOM      3  H   UNL     1       1.033   1.560  -3.432  1.00  0.00     0.299 HD
ENDBRANCH   1   2
BRANCH   1   4
ATOM      4  N   UNL     1      -0.590  -0.294  -1.271  1.00  0.00    -0.181 N 
ATOM      5  C   UNL     1      -1.476  -0.909  -2.292  1.00  0.00     0.365 C 
ATOM      6  C   UNL     1      -0.820  -0.526   0.187  1.00  0.00     0.370 C 
ATOM      7  C   UNL     1      -2.188  -2.182  -1.816  1.00  0.00     0.091 C 
ATOM      8  N   UNL     1      -1.548  -1.777   0.470  1.00  0.00    -0.254 NA
ATOM      9  C   UNL     1      -2.700  -1.976  -0.401  1.00  0.00     0.102 C 
ATOM     10  H   UNL     1      -1.874  -1.784   1.465  1.00  0.00     0.129 HD
BRANCH   6  11
ATOM     11  C   UNL     1      -1.497   0.664   0.856  1.00  0.00     0.056 A 
ATOM     12  C   UNL     1      -2.458   1.464   0.184  1.00  0.00     0.020 A 
ATOM     13  C   UNL     1      -1.194   0.966   2.200  1.00  0.00     0.150 A 
ATOM     14  C   UNL     1      -3.076   2.544   0.835  1.00  0.00     0.080 A 
ATOM     15  N   UNL     1      -1.820   2.019   2.779  1.00  0.00    -0.151 N 
ATOM     16  C   UNL     1      -2.718   2.788   2.156  1.00  0.00     0.282 A 
ATOM     17  N   UNL     1      -1.680   2.472   4.007  1.00  0.00    -0.166 N 
ATOM     18  N   UNL     1      -3.192   3.766   2.954  1.00  0.00    -0.025 NA
ATOM     19  C   UNL     1      -2.513   3.531   4.109  1.00  0.00     0.472 A 
ATOM     20  H   UNL     1      -1.048   2.080   4.740  1.00  0.00     0.340 HD
ENDBRANCH   6  11
BRANCH   7  21
ATOM     21  C   UNL     1      -3.314  -2.555  -2.754  1.00  0.00    -0.024 C 
ATOM     22  C   UNL     1      -3.896  -3.757  -2.705  1.00  0.00     0.004 C 
ENDBRANCH   7  21
ENDBRANCH   1   4
BRANCH   1  23
ATOM     23  C   UNL     1       1.267   1.335  -0.797  1.00  0.00     0.156 C 
BRANCH  23  24
ATOM     24  C   UNL     1       2.725   0.919  -1.073  1.00  0.00     0.003 C 
ATOM     25  C   UNL     1       3.716   1.491  -0.057  1.00  0.00     0.007 C 
ATOM     26  C   UNL     1       3.082  -0.499  -0.623  1.00  0.00     0.007 C 
ATOM     27  C   UNL     1       4.055   0.074   0.405  1.00  0.00    -0.014 C 
ATOM     28  C   UNL     1       3.647  -0.210   1.854  1.00  0.00     0.007 C 
ENDBRANCH  23  24
ENDBRANCH   1  23
TORSDOF 6


