REMARK SMILES [O-]c1nccc2ccc(-c3cccc([C@H]4CO4)c3)cc12
REMARK SMILES IDX 1 1 2 2 3 3 4 4 5 5 6 6 7 7 8 8 9 9 19 10 20 11 10 12 11 13
REMARK SMILES IDX 18 14 12 15 14 16 13 17 15 18 16 19 17 20
REMARK H PARENT
ROOT
ATOM      1  O   UNL     1       0.848  -4.131  -2.449  1.00  0.00    -0.858 OA
ATOM      2  C   UNL     1       1.771  -3.174  -2.857  1.00  0.00    -0.005 A 
ATOM      3  N   UNL     1       2.645  -3.479  -3.852  1.00  0.00    -0.272 NA
ATOM      4  C   UNL     1       3.571  -2.589  -4.296  1.00  0.00     0.111 A 
ATOM      5  C   UNL     1       3.648  -1.315  -3.732  1.00  0.00     0.029 A 
ATOM      6  C   UNL     1       2.764  -0.964  -2.703  1.00  0.00    -0.016 A 
ATOM      7  C   UNL     1       2.821   0.307  -2.117  1.00  0.00     0.009 A 
ATOM      8  C   UNL     1       1.936   0.649  -1.092  1.00  0.00     0.009 A 
ATOM      9  C   UNL     1       0.978  -0.272  -0.634  1.00  0.00    -0.018 A 
ATOM     10  C   UNL     1       0.920  -1.549  -1.222  1.00  0.00     0.018 A 
ATOM     11  C   UNL     1       1.807  -1.902  -2.254  1.00  0.00    -0.007 A 
ENDROOT
BRANCH   9  12
ATOM     12  C   UNL     1       0.040   0.099   0.455  1.00  0.00    -0.018 A 
ATOM     13  C   UNL     1      -1.315  -0.274   0.389  1.00  0.00     0.009 A 
ATOM     14  C   UNL     1       0.492   0.827   1.571  1.00  0.00     0.015 A 
ATOM     15  C   UNL     1      -2.196   0.071   1.418  1.00  0.00     0.001 A 
ATOM     16  C   UNL     1      -0.395   1.190   2.596  1.00  0.00    -0.016 A 
ATOM     17  C   UNL     1      -1.738   0.795   2.521  1.00  0.00     0.006 A 
BRANCH  16  18
ATOM     18  C   UNL     1       0.108   1.935   3.797  1.00  0.00     0.174 C 
ATOM     19  C   UNL     1       0.624   3.301   3.547  1.00  0.00     0.198 C 
ATOM     20  O   UNL     1      -0.668   3.081   4.063  1.00  0.00    -0.368 OA
ENDBRANCH  16  18
ENDBRANCH   9  12
TORSDOF 2


