MODEL 1
REMARK VINA RESULT:      -9.6      0.000      0.000
REMARK SMILES O=Cc1cc(F)c(F)cc1Nc1cc2ccccc2[n-]1
REMARK SMILES IDX 3 1 4 2 5 3 6 4 7 5 8 6 9 7 10 8 2 9 1 10 11 11 12 13 13 14
REMARK SMILES IDX 20 15 14 16 19 17 15 18 18 19 16 20 17 21
REMARK H PARENT 11 12
ROOT
ATOM      1  C   UNL     1      43.106 131.841  19.497  1.00  0.00     0.020 A 
ATOM      2  C   UNL     1      43.273 131.525  20.856  1.00  0.00     0.054 A 
ATOM      3  C   UNL     1      44.471 130.974  21.317  1.00  0.00     0.159 A 
ATOM      4  F   UNL     1      44.619 130.683  22.633  1.00  0.00    -0.204 F 
ATOM      5  C   UNL     1      45.519 130.734  20.427  1.00  0.00     0.159 A 
ATOM      6  F   UNL     1      46.686 130.207  20.875  1.00  0.00    -0.204 F 
ATOM      7  C   UNL     1      45.364 131.028  19.071  1.00  0.00     0.046 A 
ATOM      8  C   UNL     1      44.159 131.558  18.590  1.00  0.00    -0.030 A 
ENDROOT
BRANCH   1   9
ATOM      9  C   UNL     1      41.842 132.495  19.088  1.00  0.00     0.260 C 
ATOM     10  O   UNL     1      41.234 133.297  19.845  1.00  0.00    -0.298 OA
ENDBRANCH   1   9
BRANCH   8  11
ATOM     11  N   UNL     1      44.029 131.788  17.180  1.00  0.00    -0.456 N 
ATOM     12  H   UNL     1      43.299 132.460  16.855  1.00  0.00     0.026 HD
BRANCH  11  13
ATOM     13  C   UNL     1      45.021 131.363  16.237  1.00  0.00    -0.060 A 
ATOM     14  C   UNL     1      45.592 132.166  15.251  1.00  0.00     0.007 A 
ATOM     15  N   UNL     1      45.500 130.095  16.208  1.00  0.00    -0.436 NA
ATOM     16  C   UNL     1      46.467 131.334  14.598  1.00  0.00    -0.023 A 
ATOM     17  C   UNL     1      46.386 130.103  15.196  1.00  0.00    -0.034 A 
ATOM     18  C   UNL     1      47.319 131.579  13.523  1.00  0.00     0.008 A 
ATOM     19  C   UNL     1      47.159 129.029  14.756  1.00  0.00     0.004 A 
ATOM     20  C   UNL     1      48.111 130.513  13.059  1.00  0.00     0.001 A 
ATOM     21  C   UNL     1      48.031 129.243  13.673  1.00  0.00     0.000 A 
ENDBRANCH  11  13
ENDBRANCH   8  11
TORSDOF 3
ENDMDL
MODEL 2
REMARK VINA RESULT:      -9.5      0.771      1.406
REMARK SMILES O=Cc1cc(F)c(F)cc1Nc1cc2ccccc2[n-]1
REMARK SMILES IDX 3 1 4 2 5 3 6 4 7 5 8 6 9 7 10 8 2 9 1 10 11 11 12 13 13 14
REMARK SMILES IDX 20 15 14 16 19 17 15 18 18 19 16 20 17 21
REMARK H PARENT 11 12
ROOT
ATOM      1  C   UNL     1      43.048 131.871  19.485  1.00  0.00     0.020 A 
ATOM      2  C   UNL     1      43.250 131.674  20.862  1.00  0.00     0.054 A 
ATOM      3  C   UNL     1      44.495 131.270  21.349  1.00  0.00     0.159 A 
ATOM      4  F   UNL     1      44.675 131.094  22.682  1.00  0.00    -0.204 F 
ATOM      5  C   UNL     1      45.557 131.061  20.468  1.00  0.00     0.159 A 
ATOM      6  F   UNL     1      46.769 130.679  20.941  1.00  0.00    -0.204 F 
ATOM      7  C   UNL     1      45.370 131.238  19.095  1.00  0.00     0.046 A 
ATOM      8  C   UNL     1      44.119 131.618  18.590  1.00  0.00    -0.030 A 
ENDROOT
BRANCH   1   9
ATOM      9  C   UNL     1      41.728 132.374  19.043  1.00  0.00     0.260 C 
ATOM     10  O   UNL     1      41.499 132.670  17.841  1.00  0.00    -0.298 OA
ENDBRANCH   1   9
BRANCH   8  11
ATOM     11  N   UNL     1      43.962 131.729  17.168  1.00  0.00    -0.456 N 
ATOM     12  H   UNL     1      43.205 132.347  16.802  1.00  0.00     0.026 HD
BRANCH  11  13
ATOM     13  C   UNL     1      44.957 131.264  16.246  1.00  0.00    -0.060 A 
ATOM     14  C   UNL     1      45.465 129.968  16.195  1.00  0.00     0.007 A 
ATOM     15  N   UNL     1      45.522 132.076  15.319  1.00  0.00    -0.436 NA
ATOM     16  C   UNL     1      46.383 130.002  15.175  1.00  0.00    -0.023 A 
ATOM     17  C   UNL     1      46.392 131.279  14.674  1.00  0.00    -0.034 A 
ATOM     18  C   UNL     1      47.206 129.002  14.662  1.00  0.00     0.008 A 
ATOM     19  C   UNL     1      47.230 131.640  13.619  1.00  0.00     0.004 A 
ATOM     20  C   UNL     1      48.062 129.339  13.597  1.00  0.00     0.001 A 
ATOM     21  C   UNL     1      48.074 130.652  13.078  1.00  0.00     0.000 A 
ENDBRANCH  11  13
ENDBRANCH   8  11
TORSDOF 3
ENDMDL
MODEL 3
REMARK VINA RESULT:      -8.8      2.492      3.015
REMARK SMILES O=Cc1cc(F)c(F)cc1Nc1cc2ccccc2[n-]1
REMARK SMILES IDX 3 1 4 2 5 3 6 4 7 5 8 6 9 7 10 8 2 9 1 10 11 11 12 13 13 14
REMARK SMILES IDX 20 15 14 16 19 17 15 18 18 19 16 20 17 21
REMARK H PARENT 11 12
ROOT
ATOM      1  C   UNL     1      43.883 131.423  20.974  1.00  0.00     0.020 A 
ATOM      2  C   UNL     1      42.757 132.169  21.363  1.00  0.00     0.054 A 
ATOM      3  C   UNL     1      41.898 132.714  20.406  1.00  0.00     0.159 A 
ATOM      4  F   UNL     1      40.810 133.422  20.799  1.00  0.00    -0.204 F 
ATOM      5  C   UNL     1      42.150 132.520  19.047  1.00  0.00     0.159 A 
ATOM      6  F   UNL     1      41.312 133.041  18.118  1.00  0.00    -0.204 F 
ATOM      7  C   UNL     1      43.273 131.795  18.643  1.00  0.00     0.046 A 
ATOM      8  C   UNL     1      44.158 131.263  19.591  1.00  0.00    -0.030 A 
ENDROOT
BRANCH   1   9
ATOM      9  C   UNL     1      44.708 130.808  22.038  1.00  0.00     0.260 C 
ATOM     10  O   UNL     1      44.969 129.576  22.046  1.00  0.00    -0.298 OA
ENDBRANCH   1   9
BRANCH   8  11
ATOM     11  N   UNL     1      45.328 130.578  19.125  1.00  0.00    -0.456 N 
ATOM     12  H   UNL     1      45.763 129.863  19.749  1.00  0.00     0.026 HD
BRANCH  11  13
ATOM     13  C   UNL     1      45.750 130.622  17.755  1.00  0.00    -0.060 A 
ATOM     14  C   UNL     1      45.578 131.703  16.893  1.00  0.00     0.007 A 
ATOM     15  N   UNL     1      46.364 129.575  17.151  1.00  0.00    -0.436 NA
ATOM     16  C   UNL     1      46.124 131.283  15.706  1.00  0.00    -0.023 A 
ATOM     17  C   UNL     1      46.585 130.005  15.896  1.00  0.00    -0.034 A 
ATOM     18  C   UNL     1      46.242 131.936  14.482  1.00  0.00     0.008 A 
ATOM     19  C   UNL     1      47.198 129.293  14.867  1.00  0.00     0.004 A 
ATOM     20  C   UNL     1      46.859 131.241  13.425  1.00  0.00     0.001 A 
ATOM     21  C   UNL     1      47.334 129.924  13.616  1.00  0.00     0.000 A 
ENDBRANCH  11  13
ENDBRANCH   8  11
TORSDOF 3
ENDMDL
MODEL 4
REMARK VINA RESULT:      -8.2      1.847      2.849
REMARK SMILES O=Cc1cc(F)c(F)cc1Nc1cc2ccccc2[n-]1
REMARK SMILES IDX 3 1 4 2 5 3 6 4 7 5 8 6 9 7 10 8 2 9 1 10 11 11 12 13 13 14
REMARK SMILES IDX 20 15 14 16 19 17 15 18 18 19 16 20 17 21
REMARK H PARENT 11 12
ROOT
ATOM      1  C   UNL     1      42.978 131.354  21.696  1.00  0.00     0.020 A 
ATOM      2  C   UNL     1      42.485 130.453  22.655  1.00  0.00     0.054 A 
ATOM      3  C   UNL     1      43.275 129.397  23.113  1.00  0.00     0.159 A 
ATOM      4  F   UNL     1      42.787 128.542  24.047  1.00  0.00    -0.204 F 
ATOM      5  C   UNL     1      44.570 129.226  22.621  1.00  0.00     0.159 A 
ATOM      6  F   UNL     1      45.341 128.206  23.073  1.00  0.00    -0.204 F 
ATOM      7  C   UNL     1      45.070 130.103  21.656  1.00  0.00     0.046 A 
ATOM      8  C   UNL     1      44.280 131.153  21.169  1.00  0.00    -0.030 A 
ENDROOT
BRANCH   1   9
ATOM      9  C   UNL     1      42.119 132.497  21.311  1.00  0.00     0.260 C 
ATOM     10  O   UNL     1      42.058 132.910  20.123  1.00  0.00    -0.298 OA
ENDBRANCH   1   9
BRANCH   8  11
ATOM     11  N   UNL     1      44.818 131.989  20.136  1.00  0.00    -0.456 N 
ATOM     12  H   UNL     1      45.289 132.878  20.415  1.00  0.00     0.026 HD
BRANCH  11  13
ATOM     13  C   UNL     1      44.989 131.533  18.787  1.00  0.00    -0.060 A 
ATOM     14  C   UNL     1      45.899 130.562  18.374  1.00  0.00     0.007 A 
ATOM     15  N   UNL     1      44.266 132.032  17.755  1.00  0.00    -0.436 NA
ATOM     16  C   UNL     1      45.707 130.469  17.019  1.00  0.00    -0.023 A 
ATOM     17  C   UNL     1      44.723 131.362  16.681  1.00  0.00    -0.034 A 
ATOM     18  C   UNL     1      46.331 129.664  16.068  1.00  0.00     0.008 A 
ATOM     19  C   UNL     1      44.295 131.510  15.363  1.00  0.00     0.004 A 
ATOM     20  C   UNL     1      45.919 129.792  14.729  1.00  0.00     0.001 A 
ATOM     21  C   UNL     1      44.905 130.712  14.377  1.00  0.00     0.000 A 
ENDBRANCH  11  13
ENDBRANCH   8  11
TORSDOF 3
ENDMDL
MODEL 5
REMARK VINA RESULT:      -8.2      2.427      3.278
REMARK SMILES O=Cc1cc(F)c(F)cc1Nc1cc2ccccc2[n-]1
REMARK SMILES IDX 3 1 4 2 5 3 6 4 7 5 8 6 9 7 10 8 2 9 1 10 11 11 12 13 13 14
REMARK SMILES IDX 20 15 14 16 19 17 15 18 18 19 16 20 17 21
REMARK H PARENT 11 12
ROOT
ATOM      1  C   UNL     1      43.831 131.424  21.190  1.00  0.00     0.020 A 
ATOM      2  C   UNL     1      42.684 132.139  21.574  1.00  0.00     0.054 A 
ATOM      3  C   UNL     1      41.849 132.716  20.615  1.00  0.00     0.159 A 
ATOM      4  F   UNL     1      40.741 133.395  21.003  1.00  0.00    -0.204 F 
ATOM      5  C   UNL     1      42.146 132.584  19.258  1.00  0.00     0.159 A 
ATOM      6  F   UNL     1      41.331 133.135  18.325  1.00  0.00    -0.204 F 
ATOM      7  C   UNL     1      43.290 131.889  18.859  1.00  0.00     0.046 A 
ATOM      8  C   UNL     1      44.151 131.327  19.811  1.00  0.00    -0.030 A 
ENDROOT
BRANCH   1   9
ATOM      9  C   UNL     1      44.631 130.772  22.252  1.00  0.00     0.260 C 
ATOM     10  O   UNL     1      44.097 130.307  23.293  1.00  0.00    -0.298 OA
ENDBRANCH   1   9
BRANCH   8  11
ATOM     11  N   UNL     1      45.344 130.675  19.353  1.00  0.00    -0.456 N 
ATOM     12  H   UNL     1      45.842 130.037  20.012  1.00  0.00     0.026 HD
BRANCH  11  13
ATOM     13  C   UNL     1      45.716 130.637  17.969  1.00  0.00    -0.060 A 
ATOM     14  C   UNL     1      46.196 129.516  17.294  1.00  0.00     0.007 A 
ATOM     15  N   UNL     1      45.647 131.728  17.168  1.00  0.00    -0.436 NA
ATOM     16  C   UNL     1      46.421 129.959  16.015  1.00  0.00    -0.023 A 
ATOM     17  C   UNL     1      46.082 131.287  15.974  1.00  0.00    -0.034 A 
ATOM     18  C   UNL     1      46.901 129.284  14.894  1.00  0.00     0.008 A 
ATOM     19  C   UNL     1      46.201 132.032  14.803  1.00  0.00     0.004 A 
ATOM     20  C   UNL     1      47.030 130.013  13.697  1.00  0.00     0.001 A 
ATOM     21  C   UNL     1      46.682 131.381  13.651  1.00  0.00     0.000 A 
ENDBRANCH  11  13
ENDBRANCH   8  11
TORSDOF 3
ENDMDL
MODEL 6
REMARK VINA RESULT:      -8.1      3.562      6.697
REMARK SMILES O=Cc1cc(F)c(F)cc1Nc1cc2ccccc2[n-]1
REMARK SMILES IDX 3 1 4 2 5 3 6 4 7 5 8 6 9 7 10 8 2 9 1 10 11 11 12 13 13 14
REMARK SMILES IDX 20 15 14 16 19 17 15 18 18 19 16 20 17 21
REMARK H PARENT 11 12
ROOT
ATOM      1  C   UNL     1      46.180 129.655  14.958  1.00  0.00     0.020 A 
ATOM      2  C   UNL     1      47.262 129.059  14.288  1.00  0.00     0.054 A 
ATOM      3  C   UNL     1      48.090 129.816  13.456  1.00  0.00     0.159 A 
ATOM      4  F   UNL     1      49.135 129.226  12.824  1.00  0.00    -0.204 F 
ATOM      5  C   UNL     1      47.850 131.180  13.284  1.00  0.00     0.159 A 
ATOM      6  F   UNL     1      48.659 131.917  12.484  1.00  0.00    -0.204 F 
ATOM      7  C   UNL     1      46.771 131.786  13.930  1.00  0.00     0.046 A 
ATOM      8  C   UNL     1      45.917 131.033  14.749  1.00  0.00    -0.030 A 
ENDROOT
BRANCH   1   9
ATOM      9  C   UNL     1      45.390 128.814  15.885  1.00  0.00     0.260 C 
ATOM     10  O   UNL     1      44.225 128.429  15.603  1.00  0.00    -0.298 OA
ENDBRANCH   1   9
BRANCH   8  11
ATOM     11  N   UNL     1      44.788 131.689  15.342  1.00  0.00    -0.456 N 
ATOM     12  H   UNL     1      44.016 132.008  14.715  1.00  0.00     0.026 HD
BRANCH  11  13
ATOM     13  C   UNL     1      44.544 131.674  16.755  1.00  0.00    -0.060 A 
ATOM     14  C   UNL     1      45.516 131.502  17.739  1.00  0.00     0.007 A 
ATOM     15  N   UNL     1      43.302 131.815  17.278  1.00  0.00    -0.436 NA
ATOM     16  C   UNL     1      44.818 131.549  18.919  1.00  0.00    -0.023 A 
ATOM     17  C   UNL     1      43.496 131.737  18.607  1.00  0.00    -0.034 A 
ATOM     18  C   UNL     1      45.257 131.436  20.237  1.00  0.00     0.008 A 
ATOM     19  C   UNL     1      42.520 131.826  19.599  1.00  0.00     0.004 A 
ATOM     20  C   UNL     1      44.293 131.523  21.258  1.00  0.00     0.001 A 
ATOM     21  C   UNL     1      42.930 131.717  20.941  1.00  0.00     0.000 A 
ENDBRANCH  11  13
ENDBRANCH   8  11
TORSDOF 3
ENDMDL
MODEL 7
REMARK VINA RESULT:      -8.1      3.052      6.851
REMARK SMILES O=Cc1cc(F)c(F)cc1Nc1cc2ccccc2[n-]1
REMARK SMILES IDX 3 1 4 2 5 3 6 4 7 5 8 6 9 7 10 8 2 9 1 10 11 11 12 13 13 14
REMARK SMILES IDX 20 15 14 16 19 17 15 18 18 19 16 20 17 21
REMARK H PARENT 11 12
ROOT
ATOM      1  C   UNL     1      43.288 131.798  18.123  1.00  0.00     0.020 A 
ATOM      2  C   UNL     1      43.386 131.532  16.746  1.00  0.00     0.054 A 
ATOM      3  C   UNL     1      44.557 130.998  16.205  1.00  0.00     0.159 A 
ATOM      4  F   UNL     1      44.631 130.738  14.876  1.00  0.00    -0.204 F 
ATOM      5  C   UNL     1      45.647 130.720  17.032  1.00  0.00     0.159 A 
ATOM      6  F   UNL     1      46.781 130.193  16.508  1.00  0.00    -0.204 F 
ATOM      7  C   UNL     1      45.573 130.993  18.399  1.00  0.00     0.046 A 
ATOM      8  C   UNL     1      44.412 131.552  18.952  1.00  0.00    -0.030 A 
ENDROOT
BRANCH   1   9
ATOM      9  C   UNL     1      41.993 132.290  18.644  1.00  0.00     0.260 C 
ATOM     10  O   UNL     1      41.920 132.991  19.688  1.00  0.00    -0.298 OA
ENDBRANCH   1   9
BRANCH   8  11
ATOM     11  N   UNL     1      44.407 131.869  20.351  1.00  0.00    -0.456 N 
ATOM     12  H   UNL     1      44.380 132.875  20.629  1.00  0.00     0.026 HD
BRANCH  11  13
ATOM     13  C   UNL     1      44.155 130.884  21.362  1.00  0.00    -0.060 A 
ATOM     14  C   UNL     1      45.025 129.856  21.721  1.00  0.00     0.007 A 
ATOM     15  N   UNL     1      43.002 130.854  22.074  1.00  0.00    -0.436 NA
ATOM     16  C   UNL     1      44.358 129.175  22.708  1.00  0.00    -0.023 A 
ATOM     17  C   UNL     1      43.151 129.798  22.895  1.00  0.00    -0.034 A 
ATOM     18  C   UNL     1      44.732 128.054  23.447  1.00  0.00     0.008 A 
ATOM     19  C   UNL     1      42.234 129.340  23.839  1.00  0.00     0.004 A 
ATOM     20  C   UNL     1      43.825 127.570  24.408  1.00  0.00     0.001 A 
ATOM     21  C   UNL     1      42.581 128.210  24.602  1.00  0.00     0.000 A 
ENDBRANCH  11  13
ENDBRANCH   8  11
TORSDOF 3
ENDMDL
MODEL 8
REMARK VINA RESULT:      -8.0      3.572      6.653
REMARK SMILES O=Cc1cc(F)c(F)cc1Nc1cc2ccccc2[n-]1
REMARK SMILES IDX 3 1 4 2 5 3 6 4 7 5 8 6 9 7 10 8 2 9 1 10 11 11 12 13 13 14
REMARK SMILES IDX 20 15 14 16 19 17 15 18 18 19 16 20 17 21
REMARK H PARENT 11 12
ROOT
ATOM      1  C   UNL     1      46.166 129.716  15.031  1.00  0.00     0.020 A 
ATOM      2  C   UNL     1      47.226 129.094  14.349  1.00  0.00     0.054 A 
ATOM      3  C   UNL     1      48.052 129.828  13.496  1.00  0.00     0.159 A 
ATOM      4  F   UNL     1      49.077 129.215  12.853  1.00  0.00    -0.204 F 
ATOM      5  C   UNL     1      47.833 131.195  13.314  1.00  0.00     0.159 A 
ATOM      6  F   UNL     1      48.640 131.910  12.492  1.00  0.00    -0.204 F 
ATOM      7  C   UNL     1      46.774 131.825  13.971  1.00  0.00     0.046 A 
ATOM      8  C   UNL     1      45.922 131.096  14.812  1.00  0.00    -0.030 A 
ENDROOT
BRANCH   1   9
ATOM      9  C   UNL     1      45.377 128.897  15.980  1.00  0.00     0.260 C 
ATOM     10  O   UNL     1      44.295 128.349  15.643  1.00  0.00    -0.298 OA
ENDBRANCH   1   9
BRANCH   8  11
ATOM     11  N   UNL     1      44.814 131.777  15.417  1.00  0.00    -0.456 N 
ATOM     12  H   UNL     1      44.067 132.155  14.794  1.00  0.00     0.026 HD
BRANCH  11  13
ATOM     13  C   UNL     1      44.548 131.713  16.824  1.00  0.00    -0.060 A 
ATOM     14  C   UNL     1      43.288 131.808  17.411  1.00  0.00     0.007 A 
ATOM     15  N   UNL     1      45.533 131.564  17.743  1.00  0.00    -0.436 NA
ATOM     16  C   UNL     1      43.530 131.704  18.758  1.00  0.00    -0.023 A 
ATOM     17  C   UNL     1      44.884 131.559  18.922  1.00  0.00    -0.034 A 
ATOM     18  C   UNL     1      42.654 131.730  19.841  1.00  0.00     0.008 A 
ATOM     19  C   UNL     1      45.454 131.429  20.187  1.00  0.00     0.004 A 
ATOM     20  C   UNL     1      43.202 131.600  21.130  1.00  0.00     0.001 A 
ATOM     21  C   UNL     1      44.596 131.451  21.303  1.00  0.00     0.000 A 
ENDBRANCH  11  13
ENDBRANCH   8  11
TORSDOF 3
ENDMDL
MODEL 9
REMARK VINA RESULT:      -7.7      1.733      2.416
REMARK SMILES O=Cc1cc(F)c(F)cc1Nc1cc2ccccc2[n-]1
REMARK SMILES IDX 3 1 4 2 5 3 6 4 7 5 8 6 9 7 10 8 2 9 1 10 11 11 12 13 13 14
REMARK SMILES IDX 20 15 14 16 19 17 15 18 18 19 16 20 17 21
REMARK H PARENT 11 12
ROOT
ATOM      1  C   UNL     1      43.064 131.563  21.148  1.00  0.00     0.020 A 
ATOM      2  C   UNL     1      42.341 130.776  22.061  1.00  0.00     0.054 A 
ATOM      3  C   UNL     1      42.977 129.775  22.798  1.00  0.00     0.159 A 
ATOM      4  F   UNL     1      42.266 129.032  23.683  1.00  0.00    -0.204 F 
ATOM      5  C   UNL     1      44.344 129.546  22.635  1.00  0.00     0.159 A 
ATOM      6  F   UNL     1      44.964 128.580  23.357  1.00  0.00    -0.204 F 
ATOM      7  C   UNL     1      45.074 130.308  21.720  1.00  0.00     0.046 A 
ATOM      8  C   UNL     1      44.445 131.300  20.955  1.00  0.00    -0.030 A 
ENDROOT
BRANCH   1   9
ATOM      9  C   UNL     1      42.347 132.658  20.457  1.00  0.00     0.260 C 
ATOM     10  O   UNL     1      41.691 132.460  19.400  1.00  0.00    -0.298 OA
ENDBRANCH   1   9
BRANCH   8  11
ATOM     11  N   UNL     1      45.226 132.014  19.987  1.00  0.00    -0.456 N 
ATOM     12  H   UNL     1      45.901 132.732  20.331  1.00  0.00     0.026 HD
BRANCH  11  13
ATOM     13  C   UNL     1      45.327 131.595  18.620  1.00  0.00    -0.060 A 
ATOM     14  C   UNL     1      44.719 132.225  17.537  1.00  0.00     0.007 A 
ATOM     15  N   UNL     1      46.036 130.501  18.247  1.00  0.00    -0.436 NA
ATOM     16  C   UNL     1      45.089 131.471  16.451  1.00  0.00    -0.023 A 
ATOM     17  C   UNL     1      45.876 130.447  16.912  1.00  0.00    -0.034 A 
ATOM     18  C   UNL     1      44.784 131.617  15.100  1.00  0.00     0.008 A 
ATOM     19  C   UNL     1      46.414 129.497  16.046  1.00  0.00     0.004 A 
ATOM     20  C   UNL     1      45.314 130.672  14.203  1.00  0.00     0.001 A 
ATOM     21  C   UNL     1      46.126 129.616  14.674  1.00  0.00     0.000 A 
ENDBRANCH  11  13
ENDBRANCH   8  11
TORSDOF 3
ENDMDL


