REMARK SMILES C=C[C@H](OCC)C(=O)Nc1cc(F)c[nH]/c1=N\c1cnc2[nH]ccc2c1
REMARK SMILES IDX 7 1 8 2 9 3 3 5 2 6 1 7 4 8 5 9 6 10 10 11 11 12 16 13 12 14
REMARK SMILES IDX 15 15 14 16 13 17 17 19 18 20 19 21 26 22 20 23 25 24 21 25
REMARK SMILES IDX 24 26 22 27 23 28
REMARK H PARENT 9 4 15 18 22 29
ROOT
ATOM      1  C   UNL     1      -0.201   2.779  -1.652  1.00  0.00     0.257 C 
ATOM      2  O   UNL     1       0.192   2.377  -2.781  1.00  0.00    -0.271 OA
ATOM      3  N   UNL     1      -0.703   1.842  -0.684  1.00  0.00    -0.320 N 
ATOM      4  H   UNL     1      -0.786   2.155   0.309  1.00  0.00     0.170 HD
ENDROOT
BRANCH   1   5
ATOM      5  C   UNL     1      -0.060   4.241  -1.309  1.00  0.00     0.229 C 
BRANCH   5   6
ATOM      6  C   UNL     1       1.332   4.513  -0.801  1.00  0.00     0.007 C 
ATOM      7  C   UNL     1       1.769   4.058   0.378  1.00  0.00     0.007 C 
ENDBRANCH   5   6
BRANCH   5   8
ATOM      8  O   UNL     1      -1.003   4.631  -0.324  1.00  0.00    -0.365 OA
BRANCH   8   9
ATOM      9  C   UNL     1      -2.250   4.928  -0.919  1.00  0.00     0.158 C 
ATOM     10  C   UNL     1      -3.280   5.165   0.175  1.00  0.00     0.035 C 
ENDBRANCH   8   9
ENDBRANCH   5   8
ENDBRANCH   1   5
BRANCH   3  11
ATOM     11  C   UNL     1      -1.019   0.472  -0.991  1.00  0.00     0.087 A 
ATOM     12  C   UNL     1      -1.648   0.137  -2.200  1.00  0.00     0.070 A 
ATOM     13  C   UNL     1      -0.742  -0.552  -0.060  1.00  0.00     0.154 A 
ATOM     14  C   UNL     1      -1.975  -1.189  -2.475  1.00  0.00     0.141 A 
ATOM     15  N   UNL     1      -1.101  -1.843  -0.351  1.00  0.00    -0.342 N 
ATOM     16  C   UNL     1      -1.694  -2.172  -1.530  1.00  0.00     0.123 A 
ATOM     17  F   UNL     1      -2.585  -1.515  -3.641  1.00  0.00    -0.205 F 
ATOM     18  H   UNL     1      -0.965  -2.613   0.340  1.00  0.00     0.168 HD
BRANCH  13  19
ATOM     19  N   UNL     1      -0.168  -0.238   1.070  1.00  0.00    -0.227 NA
BRANCH  19  20
ATOM     20  C   UNL     1       0.299  -1.132   2.091  1.00  0.00     0.085 A 
ATOM     21  C   UNL     1      -0.006  -0.854   3.445  1.00  0.00     0.142 A 
ATOM     22  C   UNL     1       1.155  -2.213   1.782  1.00  0.00     0.042 A 
ATOM     23  N   UNL     1       0.475  -1.651   4.447  1.00  0.00    -0.236 NA
ATOM     24  C   UNL     1       1.612  -2.991   2.839  1.00  0.00     0.021 A 
ATOM     25  C   UNL     1       1.267  -2.704   4.127  1.00  0.00     0.137 A 
ATOM     26  C   UNL     1       2.435  -4.094   2.874  1.00  0.00     0.030 A 
ATOM     27  N   UNL     1       1.824  -3.567   4.989  1.00  0.00    -0.346 N 
ATOM     28  C   UNL     1       2.542  -4.424   4.224  1.00  0.00     0.085 A 
ATOM     29  H   UNL     1       1.732  -3.575   6.029  1.00  0.00     0.167 HD
ENDBRANCH  19  20
ENDBRANCH  13  19
ENDBRANCH   3  11
TORSDOF 7


