REMARK SMILES C=Cc1cccc(-c2ccc3c(c2)[C@H](N)CC3)c1
REMARK SMILES IDX 8 1 9 2 10 3 11 4 12 5 13 6 14 7 16 8 17 9 7 10 3 11 4 12
REMARK SMILES IDX 18 13 5 14 6 15 2 16 1 17 15 18
REMARK H PARENT 15 19 15 20
ROOT
ATOM      1  C   UNL     1       0.974   0.554   0.804  1.00  0.00    -0.018 A 
ATOM      2  C   UNL     1       1.269  -0.059   2.045  1.00  0.00     0.009 A 
ATOM      3  C   UNL     1       1.493  -1.441   2.122  1.00  0.00     0.005 A 
ATOM      4  C   UNL     1       1.420  -2.201   0.955  1.00  0.00    -0.043 A 
ATOM      5  C   UNL     1       1.126  -1.622  -0.252  1.00  0.00    -0.027 A 
ATOM      6  C   UNL     1       0.904  -0.246  -0.357  1.00  0.00     0.014 A 
ATOM      7  C   UNL     1       1.095  -2.617  -1.357  1.00  0.00     0.081 C 
ATOM      8  C   UNL     1       1.557  -3.928  -0.676  1.00  0.00     0.028 C 
ATOM      9  C   UNL     1       1.628  -3.662   0.839  1.00  0.00     0.038 C 
ENDROOT
BRANCH   1  10
ATOM     10  C   UNL     1       0.738   2.018   0.723  1.00  0.00    -0.018 A 
ATOM     11  C   UNL     1      -0.512   3.922  -0.181  1.00  0.00    -0.026 A 
ATOM     12  C   UNL     1       0.285   4.788   0.583  1.00  0.00     0.008 A 
ATOM     13  C   UNL     1      -0.286   2.533  -0.095  1.00  0.00     0.016 A 
ATOM     14  C   UNL     1       1.302   4.284   1.397  1.00  0.00     0.001 A 
ATOM     15  C   UNL     1       1.531   2.910   1.466  1.00  0.00     0.009 A 
BRANCH  11  16
ATOM     16  C   UNL     1      -1.585   4.506  -1.023  1.00  0.00     0.000 C 
ATOM     17  C   UNL     1      -2.167   3.870  -2.041  1.00  0.00     0.009 C 
ENDBRANCH  11  16
ENDBRANCH   1  10
BRANCH   7  18
ATOM     18  N   UNL     1      -0.263  -2.752  -1.881  1.00  0.00    -0.324 NA
ATOM     19  H   UNL     1      -0.530  -1.849  -2.338  1.00  0.00     0.119 HD
ATOM     20  H   UNL     1      -0.244  -3.463  -2.648  1.00  0.00     0.119 HD
ENDBRANCH   7  18
TORSDOF 3


