REMARK SMILES O/C(=N/c1cc(F)c[nH]/c1=N\c1c[n-]c2nccc-2c1)Nc1ccc(-c2ccccc2)s1
REMARK SMILES IDX 3 1 2 2 21 3 1 5 22 7 32 8 23 9 25 10 24 11 26 12 27 13
REMARK SMILES IDX 31 14 28 15 30 16 29 17 4 18 5 19 10 20 6 21 9 22 8 23 7 24
REMARK SMILES IDX 11 26 12 27 13 28 20 29 14 30 19 31 15 32 18 33 16 34 17 35
REMARK H PARENT 21 4 1 6 9 25
ROOT
ATOM      1  N   UNL     1       2.206  -3.635   1.509  1.00  0.00    -0.194 NA
ENDROOT
BRANCH   1   2
ATOM      2  C   UNL     1       2.917  -2.722   0.910  1.00  0.00     0.292 C 
ATOM      3  N   UNL     1       2.864  -1.352   1.329  1.00  0.00    -0.301 N 
ATOM      4  H   UNL     1       2.887  -1.144   2.353  1.00  0.00     0.172 HD
BRANCH   2   5
ATOM      5  O   UNL     1       3.759  -3.083  -0.137  1.00  0.00    -0.480 OA
ATOM      6  H   UNL     1       3.820  -4.045  -0.451  1.00  0.00     0.296 HD
ENDBRANCH   2   5
BRANCH   3   7
ATOM      7  C   UNL     1       2.515  -0.292   0.433  1.00  0.00     0.097 A 
ATOM      8  S   UNL     1       2.031  -0.479  -1.168  1.00  0.00    -0.118 S 
ATOM      9  C   UNL     1       2.260   1.012   0.832  1.00  0.00     0.039 A 
ATOM     10  C   UNL     1       1.485   1.105  -1.375  1.00  0.00     0.036 A 
ATOM     11  C   UNL     1       1.691   1.796  -0.178  1.00  0.00     0.023 A 
BRANCH  10  12
ATOM     12  C   UNL     1       0.797   1.621  -2.585  1.00  0.00    -0.008 A 
ATOM     13  C   UNL     1       0.885   0.921  -3.804  1.00  0.00     0.009 A 
ATOM     14  C   UNL     1       0.014   2.791  -2.531  1.00  0.00     0.009 A 
ATOM     15  C   UNL     1       0.214   1.385  -4.939  1.00  0.00     0.001 A 
ATOM     16  C   UNL     1      -0.658   3.248  -3.668  1.00  0.00     0.001 A 
ATOM     17  C   UNL     1      -0.557   2.547  -4.871  1.00  0.00     0.000 A 
ENDBRANCH  10  12
ENDBRANCH   3   7
ENDBRANCH   1   2
BRANCH   1  18
ATOM     18  C   UNL     1       1.210  -3.360   2.509  1.00  0.00     0.114 A 
ATOM     19  C   UNL     1       1.324  -3.950   3.769  1.00  0.00     0.073 A 
ATOM     20  C   UNL     1       0.113  -2.511   2.242  1.00  0.00     0.156 A 
ATOM     21  C   UNL     1       0.388  -3.661   4.761  1.00  0.00     0.141 A 
ATOM     22  N   UNL     1      -0.793  -2.248   3.235  1.00  0.00    -0.342 N 
ATOM     23  C   UNL     1      -0.668  -2.796   4.475  1.00  0.00     0.123 A 
ATOM     24  F   UNL     1       0.502  -4.218   5.992  1.00  0.00    -0.205 F 
ATOM     25  H   UNL     1      -1.635  -1.659   3.056  1.00  0.00     0.168 HD
BRANCH  20  26
ATOM     26  N   UNL     1      -0.037  -2.042   1.034  1.00  0.00    -0.229 NA
BRANCH  26  27
ATOM     27  C   UNL     1      -0.966  -1.053   0.571  1.00  0.00     0.062 A 
ATOM     28  C   UNL     1      -1.575  -1.233  -0.699  1.00  0.00     0.006 A 
ATOM     29  C   UNL     1      -1.104   0.180   1.251  1.00  0.00     0.036 A 
ATOM     30  N   UNL     1      -2.328  -0.249  -1.278  1.00  0.00    -0.440 NA
ATOM     31  C   UNL     1      -1.876   1.157   0.644  1.00  0.00    -0.025 A 
ATOM     32  C   UNL     1      -2.488   0.921  -0.620  1.00  0.00    -0.052 A 
ATOM     33  C   UNL     1      -2.169   2.456   0.966  1.00  0.00     0.003 A 
ATOM     34  N   UNL     1      -3.131   2.009  -1.070  1.00  0.00    -0.442 NA
ATOM     35  C   UNL     1      -2.938   2.938  -0.096  1.00  0.00    -0.022 A 
ENDBRANCH  26  27
ENDBRANCH  20  26
ENDBRANCH   1  18
TORSDOF 7


