REMARK SMILES O/C(CC(F)(F)F)=N\c1cc(F)c[n-]/c1=N\c1c[n-]c2nccc-2c1
REMARK SMILES IDX 2 1 1 2 8 4 9 5 10 6 15 7 11 8 14 9 13 10 12 11 16 12 17 13
REMARK SMILES IDX 18 14 25 15 19 16 24 17 20 18 23 19 21 20 22 21 3 22 4 23
REMARK SMILES IDX 5 24 6 25 7 26
REMARK H PARENT 1 3
ROOT
ATOM      1  C   UNL     1      -3.352   0.690   0.325  1.00  0.00     0.195 C 
ENDROOT
BRANCH   1   2
ATOM      2  O   UNL     1      -4.179   0.061  -0.605  1.00  0.00    -0.496 OA
ATOM      3  H   UNL     1      -5.047   0.486  -0.910  1.00  0.00     0.294 HD
ENDBRANCH   1   2
BRANCH   1   4
ATOM      4  N   UNL     1      -2.223   0.155   0.688  1.00  0.00    -0.218 NA
BRANCH   4   5
ATOM      5  C   UNL     1      -1.725  -1.135   0.290  1.00  0.00     0.069 A 
ATOM      6  C   UNL     1      -2.576  -2.246   0.153  1.00  0.00     0.067 A 
ATOM      7  C   UNL     1      -0.341  -1.317   0.112  1.00  0.00    -0.032 A 
ATOM      8  C   UNL     1      -2.053  -3.488  -0.207  1.00  0.00     0.121 A 
ATOM      9  N   UNL     1       0.135  -2.543  -0.249  1.00  0.00    -0.438 NA
ATOM     10  C   UNL     1      -0.680  -3.617  -0.414  1.00  0.00     0.018 A 
ATOM     11  F   UNL     1      -2.869  -4.561  -0.345  1.00  0.00    -0.207 F 
BRANCH   7  12
ATOM     12  N   UNL     1       0.462  -0.299   0.244  1.00  0.00    -0.435 NA
BRANCH  12  13
ATOM     13  C   UNL     1       1.895  -0.309   0.143  1.00  0.00    -0.045 A 
ATOM     14  C   UNL     1       2.679  -1.375   0.680  1.00  0.00    -0.019 A 
ATOM     15  C   UNL     1       2.533   0.810  -0.429  1.00  0.00     0.011 A 
ATOM     16  N   UNL     1       4.046  -1.358   0.613  1.00  0.00    -0.442 NA
ATOM     17  C   UNL     1       3.917   0.796  -0.489  1.00  0.00    -0.027 A 
ATOM     18  C   UNL     1       4.657  -0.301   0.031  1.00  0.00    -0.052 A 
ATOM     19  C   UNL     1       4.846   1.683  -0.968  1.00  0.00     0.003 A 
ATOM     20  N   UNL     1       5.979  -0.119  -0.107  1.00  0.00    -0.442 NA
ATOM     21  C   UNL     1       6.086   1.090  -0.719  1.00  0.00    -0.022 A 
ENDBRANCH  12  13
ENDBRANCH   7  12
ENDBRANCH   4   5
ENDBRANCH   1   4
BRANCH   1  22
ATOM     22  C   UNL     1      -3.728   2.040   0.865  1.00  0.00     0.212 C 
BRANCH  22  23
ATOM     23  C   UNL     1      -3.190   3.162  -0.024  1.00  0.00     0.397 C 
ATOM     24  F   UNL     1      -3.562   4.384   0.505  1.00  0.00    -0.171 F 
ATOM     25  F   UNL     1      -3.708   3.051  -1.302  1.00  0.00    -0.171 F 
ATOM     26  F   UNL     1      -1.808   3.103  -0.084  1.00  0.00    -0.171 F 
ENDBRANCH  22  23
ENDBRANCH   1  22
TORSDOF 7


