REMARK SMILES Cc1ccc(-c2cc(F)c3ncccc3c2[O-])c(F)n1
REMARK SMILES IDX 6 1 7 2 8 3 9 4 10 5 11 6 12 7 13 8 14 9 15 10 16 11 17 12
REMARK SMILES IDX 5 13 2 14 3 15 20 16 4 17 18 18 1 19 19 20
REMARK H PARENT
ROOT
ATOM      1  C   UNL     1      -0.247   0.508  -0.673  1.00  0.00    -0.018 A 
ATOM      2  C   UNL     1      -1.487   1.147  -0.839  1.00  0.00     0.049 A 
ATOM      3  C   UNL     1      -1.794   2.304  -0.120  1.00  0.00     0.149 A 
ATOM      4  F   UNL     1      -3.002   2.898  -0.291  1.00  0.00    -0.205 F 
ATOM      5  C   UNL     1      -0.863   2.844   0.771  1.00  0.00     0.105 A 
ATOM      6  N   UNL     1      -1.165   3.970   1.472  1.00  0.00    -0.253 NA
ATOM      7  C   UNL     1      -0.285   4.529   2.345  1.00  0.00     0.112 A 
ATOM      8  C   UNL     1       0.969   3.949   2.544  1.00  0.00     0.021 A 
ATOM      9  C   UNL     1       1.311   2.793   1.841  1.00  0.00     0.011 A 
ATOM     10  C   UNL     1       0.396   2.221   0.942  1.00  0.00    -0.004 A 
ATOM     11  C   UNL     1       0.704   1.056   0.212  1.00  0.00    -0.091 A 
ATOM     12  O   UNL     1       1.954   0.457   0.349  1.00  0.00    -0.872 OA
ENDROOT
BRANCH   1  13
ATOM     13  C   UNL     1       0.047  -0.721  -1.445  1.00  0.00     0.036 A 
ATOM     14  C   UNL     1       0.592  -3.042  -2.891  1.00  0.00     0.041 A 
ATOM     15  C   UNL     1       0.198  -1.882  -3.569  1.00  0.00     0.024 A 
ATOM     16  N   UNL     1       0.686  -3.030  -1.534  1.00  0.00    -0.225 NA
ATOM     17  C   UNL     1      -0.076  -0.723  -2.842  1.00  0.00     0.015 A 
ATOM     18  C   UNL     1       0.428  -1.913  -0.802  1.00  0.00     0.220 A 
ATOM     19  C   UNL     1       0.873  -4.301  -3.647  1.00  0.00     0.067 C 
ATOM     20  F   UNL     1       0.510  -1.975   0.550  1.00  0.00    -0.184 F 
ENDBRANCH   1  13
TORSDOF 1


