REMARK SMILES Cc1ccc(-c2ccc([O-])cc2)c2c[n-]nc12
REMARK SMILES IDX 1 1 2 2 3 3 4 4 5 5 13 6 14 7 15 8 16 9 17 10 6 11 7 12
REMARK SMILES IDX 12 13 8 14 11 15 9 16 10 17
REMARK H PARENT
ROOT
ATOM      1  C   UNL     1       2.715   0.531  -4.406  1.00  0.00     0.046 C 
ATOM      2  C   UNL     1       2.104   0.357  -3.047  1.00  0.00    -0.027 A 
ATOM      3  C   UNL     1       2.859  -0.142  -1.965  1.00  0.00     0.006 A 
ATOM      4  C   UNL     1       2.261  -0.343  -0.701  1.00  0.00     0.010 A 
ATOM      5  C   UNL     1       0.893  -0.055  -0.492  1.00  0.00    -0.011 A 
ATOM      6  C   UNL     1       0.171   0.420  -1.596  1.00  0.00    -0.014 A 
ATOM      7  C   UNL     1      -1.158   0.737  -1.779  1.00  0.00    -0.113 A 
ATOM      8  N   UNL     1      -1.332   1.110  -3.067  1.00  0.00    -0.581 NA
ATOM      9  N   UNL     1      -0.169   1.035  -3.707  1.00  0.00    -0.367 NA
ATOM     10  C   UNL     1       0.749   0.613  -2.820  1.00  0.00     0.050 A 
ENDROOT
BRANCH   5  11
ATOM     11  C   UNL     1       0.269  -0.260   0.836  1.00  0.00    -0.018 A 
ATOM     12  C   UNL     1       0.483  -1.456   1.543  1.00  0.00     0.008 A 
ATOM     13  C   UNL     1      -0.523   0.747   1.417  1.00  0.00     0.008 A 
ATOM     14  C   UNL     1      -0.097  -1.647   2.800  1.00  0.00    -0.008 A 
ATOM     15  C   UNL     1      -1.102   0.552   2.675  1.00  0.00    -0.008 A 
ATOM     16  C   UNL     1      -0.891  -0.645   3.366  1.00  0.00    -0.109 A 
ATOM     17  O   UNL     1      -1.467  -0.837   4.616  1.00  0.00    -0.872 OA
ENDBRANCH   5  11
TORSDOF 1


