REMARK SMILES C[C@@]1(C(=O)N(c2ccc3[nH]ccc3c2)c2cccc3c2CCC3)CC[C@H]([NH3+])C1
REMARK SMILES IDX 3 1 4 2 2 3 24 4 28 5 25 6 26 7 1 8 27 9 5 13 6 14 7 15
REMARK SMILES IDX 14 16 8 17 13 18 9 19 12 20 10 21 11 22 15 24 16 25 20 26
REMARK SMILES IDX 17 27 19 28 21 29 18 30 23 31 22 32
REMARK H PARENT 27 10 27 11 27 12 10 23
ROOT
ATOM      1  C   UNL     1      -0.605  -0.526  -0.651  1.00  0.00     0.237 C 
ATOM      2  O   UNL     1      -0.643  -0.375  -1.903  1.00  0.00    -0.273 OA
ENDROOT
BRANCH   1   3
ATOM      3  C   UNL     1      -1.896  -0.844   0.094  1.00  0.00     0.053 C 
ATOM      4  C   UNL     1      -3.024   0.094  -0.366  1.00  0.00     0.023 C 
ATOM      5  C   UNL     1      -1.809  -0.566   1.604  1.00  0.00     0.081 C 
ATOM      6  C   UNL     1      -3.992   0.224   0.807  1.00  0.00     0.066 C 
ATOM      7  C   UNL     1      -3.238  -0.252   2.057  1.00  0.00     0.181 C 
ATOM      8  C   UNL     1      -2.289  -2.315  -0.165  1.00  0.00     0.022 C 
BRANCH   7   9
ATOM      9  N   UNL     1      -3.260   0.753   3.126  1.00  0.00    -0.355 N 
ATOM     10  H   UNL     1      -2.848   1.657   2.795  1.00  0.00     0.344 HD
ATOM     11  H   UNL     1      -4.247   0.917   3.430  1.00  0.00     0.344 HD
ATOM     12  H   UNL     1      -2.714   0.404   3.946  1.00  0.00     0.344 HD
ENDBRANCH   7   9
ENDBRANCH   1   3
BRANCH   1  13
ATOM     13  N   UNL     1       0.655  -0.367   0.027  1.00  0.00    -0.280 N 
BRANCH  13  14
ATOM     14  C   UNL     1       1.155  -1.398   0.897  1.00  0.00     0.050 A 
ATOM     15  C   UNL     1       1.658  -1.063   2.181  1.00  0.00     0.029 A 
ATOM     16  C   UNL     1       1.174  -2.743   0.467  1.00  0.00     0.037 A 
ATOM     17  C   UNL     1       2.160  -2.058   3.038  1.00  0.00     0.029 A 
ATOM     18  C   UNL     1       1.677  -3.702   1.341  1.00  0.00     0.001 A 
ATOM     19  C   UNL     1       2.152  -3.374   2.581  1.00  0.00     0.045 A 
ATOM     20  C   UNL     1       1.813  -5.065   1.194  1.00  0.00     0.028 A 
ATOM     21  N   UNL     1       2.583  -4.467   3.232  1.00  0.00    -0.361 N 
ATOM     22  C   UNL     1       2.377  -5.504   2.388  1.00  0.00     0.083 A 
ATOM     23  H   UNL     1       2.993  -4.511   4.191  1.00  0.00     0.166 HD
ENDBRANCH  13  14
BRANCH  13  24
ATOM     24  C   UNL     1       1.411   0.841  -0.184  1.00  0.00     0.052 A 
ATOM     25  C   UNL     1       0.783   2.098  -0.072  1.00  0.00     0.027 A 
ATOM     26  C   UNL     1       2.777   0.810  -0.525  1.00  0.00    -0.021 A 
ATOM     27  C   UNL     1       1.511   3.280  -0.284  1.00  0.00     0.002 A 
ATOM     28  C   UNL     1       3.479   1.972  -0.743  1.00  0.00    -0.043 A 
ATOM     29  C   UNL     1       3.631  -0.386  -0.750  1.00  0.00     0.038 C 
ATOM     30  C   UNL     1       2.869   3.222  -0.620  1.00  0.00     0.004 A 
ATOM     31  C   UNL     1       4.886   1.717  -1.126  1.00  0.00     0.036 C 
ATOM     32  C   UNL     1       4.955   0.189  -1.284  1.00  0.00     0.010 C 
ENDBRANCH  13  24
ENDBRANCH   1  13
TORSDOF 5


