REMARK SMILES O=C1Cc2ccc(-c3c[n-]c4nccc-4c3)cc2[N-]1
REMARK SMILES IDX 1 1 2 2 3 3 4 4 5 5 6 6 7 7 17 8 18 9 19 10 8 11 9 12 16 13
REMARK SMILES IDX 10 14 15 15 11 16 14 17 12 18 13 19
REMARK H PARENT
ROOT
ATOM      1  O   UNL     1      -4.799  -1.476   3.800  1.00  0.00    -0.320 OA
ATOM      2  C   UNL     1      -4.095  -1.151   2.808  1.00  0.00     0.059 C 
ATOM      3  C   UNL     1      -4.662  -0.812   1.463  1.00  0.00     0.089 C 
ATOM      4  C   UNL     1      -3.399  -0.521   0.730  1.00  0.00    -0.057 A 
ATOM      5  C   UNL     1      -3.243  -0.135  -0.599  1.00  0.00     0.003 A 
ATOM      6  C   UNL     1      -1.945   0.091  -1.085  1.00  0.00     0.009 A 
ATOM      7  C   UNL     1      -0.817  -0.070  -0.241  1.00  0.00    -0.020 A 
ATOM      8  C   UNL     1      -1.012  -0.465   1.103  1.00  0.00    -0.007 A 
ATOM      9  C   UNL     1      -2.311  -0.682   1.558  1.00  0.00    -0.130 A 
ATOM     10  N   UNL     1      -2.672  -1.074   2.872  1.00  0.00    -0.626 NA
ENDROOT
BRANCH   7  11
ATOM     11  C   UNL     1       0.552   0.170  -0.761  1.00  0.00    -0.022 A 
ATOM     12  C   UNL     1       0.806   1.265  -1.641  1.00  0.00    -0.014 A 
ATOM     13  C   UNL     1       1.615  -0.687  -0.388  1.00  0.00     0.016 A 
ATOM     14  N   UNL     1       2.058   1.509  -2.136  1.00  0.00    -0.442 NA
ATOM     15  C   UNL     1       2.870  -0.413  -0.906  1.00  0.00    -0.026 A 
ATOM     16  C   UNL     1       3.072   0.689  -1.780  1.00  0.00    -0.052 A 
ATOM     17  C   UNL     1       4.094  -1.016  -0.771  1.00  0.00     0.003 A 
ATOM     18  N   UNL     1       4.351   0.782  -2.176  1.00  0.00    -0.442 NA
ATOM     19  C   UNL     1       4.968  -0.260  -1.557  1.00  0.00    -0.022 A 
ENDBRANCH   7  11
TORSDOF 1


