REMARK SMILES Cc1ccc([NH2+]c2ccc([C@@H]3O[C@H]3c3ccccc3)c(N)c2[O-])cc1F
REMARK SMILES IDX 7 1 8 2 9 3 10 4 20 5 22 6 23 7 6 8 5 11 2 12 3 13 25 14
REMARK SMILES IDX 4 15 24 16 1 17 26 18 21 19 11 22 12 23 13 24 14 25 15 26
REMARK SMILES IDX 19 27 16 28 18 29 17 30
REMARK H PARENT 6 9 6 10 21 20 21 21
ROOT
ATOM      1  C   UNL     1       1.109  -0.758  -2.268  1.00  0.00     0.128 A 
ATOM      2  C   UNL     1      -0.250  -0.416  -2.333  1.00  0.00     0.068 A 
ATOM      3  C   UNL     1      -1.131  -0.809  -1.327  1.00  0.00     0.015 A 
ATOM      4  C   UNL     1      -0.674  -1.540  -0.220  1.00  0.00     0.007 A 
ATOM      5  C   UNL     1       0.687  -1.919  -0.153  1.00  0.00     0.035 A 
ATOM      6  C   UNL     1       1.573  -1.515  -1.172  1.00  0.00    -0.021 A 
ATOM      7  O   UNL     1       2.916  -1.874  -1.099  1.00  0.00    -0.867 OA
ENDROOT
BRANCH   1   8
ATOM      8  N   UNL     1       2.014  -0.306  -3.298  1.00  0.00    -0.282 N 
ATOM      9  H   UNL     1       1.514  -0.248  -4.216  1.00  0.00     0.358 HD
ATOM     10  H   UNL     1       2.793  -0.993  -3.432  1.00  0.00     0.358 HD
BRANCH   8  11
ATOM     11  C   UNL     1       2.543   0.990  -2.949  1.00  0.00     0.137 A 
ATOM     12  C   UNL     1       3.549   3.522  -2.220  1.00  0.00    -0.015 A 
ATOM     13  C   UNL     1       4.258   2.356  -1.892  1.00  0.00     0.012 A 
ATOM     14  C   UNL     1       2.328   3.415  -2.904  1.00  0.00     0.132 A 
ATOM     15  C   UNL     1       3.760   1.101  -2.254  1.00  0.00     0.068 A 
ATOM     16  C   UNL     1       1.829   2.159  -3.264  1.00  0.00     0.107 A 
ATOM     17  C   UNL     1       4.079   4.870  -1.827  1.00  0.00     0.047 C 
ATOM     18  F   UNL     1       1.618   4.528  -3.220  1.00  0.00    -0.206 F 
ENDBRANCH   8  11
ENDBRANCH   1   8
BRANCH   5  19
ATOM     19  N   UNL     1       1.180  -2.711   0.938  1.00  0.00    -0.399 N 
ATOM     20  H   UNL     1       2.194  -2.942   1.026  1.00  0.00     0.156 HD
ATOM     21  H   UNL     1       0.541  -3.120   1.652  1.00  0.00     0.156 HD
ENDBRANCH   5  19
BRANCH   4  22
ATOM     22  C   UNL     1      -1.660  -1.934   0.849  1.00  0.00     0.185 C 
ATOM     23  O   UNL     1      -2.502  -0.854   1.183  1.00  0.00    -0.359 OA
ATOM     24  C   UNL     1      -1.544  -1.219   2.148  1.00  0.00     0.183 C 
BRANCH  24  25
ATOM     25  C   UNL     1      -2.211  -1.850   3.336  1.00  0.00    -0.016 A 
ATOM     26  C   UNL     1      -1.772  -3.091   3.826  1.00  0.00     0.006 A 
ATOM     27  C   UNL     1      -3.239  -1.169   4.007  1.00  0.00     0.006 A 
ATOM     28  C   UNL     1      -2.369  -3.648   4.961  1.00  0.00     0.000 A 
ATOM     29  C   UNL     1      -3.836  -1.733   5.139  1.00  0.00     0.000 A 
ATOM     30  C   UNL     1      -3.401  -2.973   5.616  1.00  0.00     0.000 A 
ENDBRANCH  24  25
ENDBRANCH   4  22
TORSDOF 5


