REMARK SMILES Nc1cc([O-])c(F)cc1[NH2+]c1ccc2cc[nH]c2c1
REMARK SMILES IDX 2 1 3 2 4 3 5 4 6 5 7 6 8 7 9 8 1 9 10 12 11 15 12 16 19 17
REMARK SMILES IDX 13 18 18 19 14 20 17 21 15 22 16 23
REMARK H PARENT 1 10 1 11 10 13 10 14 17 24
ROOT
ATOM      1  C   UNL     1      -2.703   0.861   0.603  1.00  0.00     0.093 A 
ATOM      2  C   UNL     1      -3.357   1.719  -0.297  1.00  0.00     0.026 A 
ATOM      3  C   UNL     1      -4.036   1.209  -1.405  1.00  0.00    -0.070 A 
ATOM      4  O   UNL     1      -4.678   2.074  -2.283  1.00  0.00    -0.870 OA
ATOM      5  C   UNL     1      -4.071  -0.168  -1.628  1.00  0.00     0.121 A 
ATOM      6  F   UNL     1      -4.729  -0.667  -2.704  1.00  0.00    -0.207 F 
ATOM      7  C   UNL     1      -3.424  -1.035  -0.747  1.00  0.00     0.109 A 
ATOM      8  C   UNL     1      -2.731  -0.542   0.377  1.00  0.00     0.160 A 
ENDROOT
BRANCH   1   9
ATOM      9  N   UNL     1      -2.028   1.437   1.729  1.00  0.00    -0.394 N 
ATOM     10  H   UNL     1      -1.587   0.863   2.476  1.00  0.00     0.156 HD
ATOM     11  H   UNL     1      -1.990   2.474   1.848  1.00  0.00     0.156 HD
ENDBRANCH   1   9
BRANCH   8  12
ATOM     12  N   UNL     1      -2.044  -1.474   1.247  1.00  0.00    -0.280 N 
ATOM     13  H   UNL     1      -2.406  -2.445   1.102  1.00  0.00     0.358 HD
ATOM     14  H   UNL     1      -2.246  -1.240   2.246  1.00  0.00     0.358 HD
BRANCH  12  15
ATOM     15  C   UNL     1      -0.625  -1.481   0.975  1.00  0.00     0.136 A 
ATOM     16  C   UNL     1      -0.140  -1.884  -0.301  1.00  0.00     0.069 A 
ATOM     17  C   UNL     1       0.300  -1.144   1.992  1.00  0.00     0.094 A 
ATOM     18  C   UNL     1       1.240  -1.915  -0.572  1.00  0.00     0.016 A 
ATOM     19  C   UNL     1       1.659  -1.185   1.688  1.00  0.00     0.051 A 
ATOM     20  C   UNL     1       2.111  -1.553   0.451  1.00  0.00    -0.000 A 
ATOM     21  N   UNL     1       2.687  -0.896   2.504  1.00  0.00    -0.361 N 
ATOM     22  C   UNL     1       3.487  -1.496   0.479  1.00  0.00     0.028 A 
ATOM     23  C   UNL     1       3.807  -1.085   1.769  1.00  0.00     0.083 A 
ATOM     24  H   UNL     1       2.636  -0.591   3.501  1.00  0.00     0.166 HD
ENDBRANCH  12  15
ENDBRANCH   8  12
TORSDOF 3


