REMARK SMILES Cc1[nH+]cnc(O[C@@H](c2ccccc2)[C@@H]2CO2)c1C
REMARK SMILES IDX 7 1 6 2 2 3 3 4 18 5 4 6 5 7 1 8 19 10 8 11 9 12 10 13 14 14
REMARK SMILES IDX 11 15 13 16 12 17 15 18 16 19 17 20
REMARK H PARENT 3 9
ROOT
ATOM      1  O   UNL     1      -0.313   0.681   0.326  1.00  0.00    -0.448 OA
ENDROOT
BRANCH   1   2
ATOM      2  C   UNL     1       0.550  -0.405   0.123  1.00  0.00     0.335 A 
ATOM      3  C   UNL     1       1.000  -2.780   0.117  1.00  0.00     0.108 A 
ATOM      4  N   UNL     1       2.260  -2.505  -0.326  1.00  0.00    -0.247 N 
ATOM      5  C   UNL     1       0.108  -1.715   0.381  1.00  0.00     0.080 A 
ATOM      6  C   UNL     1       2.666  -1.229  -0.545  1.00  0.00     0.453 A 
ATOM      7  N   UNL     1       1.816  -0.197  -0.327  1.00  0.00    -0.010 NA
ATOM      8  C   UNL     1       0.594  -4.213   0.340  1.00  0.00     0.093 C 
ATOM      9  H   UNL     1       2.938  -3.280  -0.507  1.00  0.00     0.311 HD
ATOM     10  C   UNL     1      -1.300  -1.969   0.861  1.00  0.00     0.057 C 
ENDBRANCH   1   2
BRANCH   1  11
ATOM     11  C   UNL     1       0.039   2.034   0.037  1.00  0.00     0.239 C 
BRANCH  11  12
ATOM     12  C   UNL     1       0.169   2.240  -1.454  1.00  0.00    -0.005 A 
ATOM     13  C   UNL     1      -0.804   1.730  -2.334  1.00  0.00     0.007 A 
ATOM     14  C   UNL     1       1.246   2.977  -1.976  1.00  0.00     0.007 A 
ATOM     15  C   UNL     1      -0.686   1.937  -3.712  1.00  0.00     0.000 A 
ATOM     16  C   UNL     1       1.359   3.181  -3.354  1.00  0.00     0.000 A 
ATOM     17  C   UNL     1       0.395   2.661  -4.222  1.00  0.00     0.000 A 
ENDBRANCH  11  12
BRANCH  11  18
ATOM     18  C   UNL     1      -1.060   2.952   0.580  1.00  0.00     0.189 C 
ATOM     19  C   UNL     1      -0.648   4.311   0.998  1.00  0.00     0.197 C 
ATOM     20  O   UNL     1      -0.851   3.276   1.934  1.00  0.00    -0.369 OA
ENDBRANCH  11  18
ENDBRANCH   1  11
TORSDOF 4


