MODEL 1
REMARK VINA RESULT:      -4.1      0.000      0.000
REMARK SMILES C[C@H](COC(=O)Nc1cc(F)c[nH]/c1=N/c1c[n-]c2nccc-2c1)c1ccccc1[N+](=O)[O-]
REMARK SMILES IDX 4 1 5 2 7 3 6 5 8 6 14 7 13 8 9 9 12 10 10 11 11 13 15 14
REMARK SMILES IDX 16 15 21 16 20 17 22 18 19 19 23 20 18 21 24 22 17 23 3 24
REMARK SMILES IDX 2 25 1 26 25 27 26 28 30 29 27 30 29 31 28 32 31 33 32 34
REMARK SMILES IDX 33 35
REMARK H PARENT 7 4 13 12
ROOT
ATOM      1  O   UNL     1      43.313 132.005  17.163  1.00  0.00    -0.449 OA
ENDROOT
BRANCH   1   2
ATOM      2  C   UNL     1      43.310 131.848  18.553  1.00  0.00     0.411 C 
ATOM      3  N   UNL     1      44.545 131.579  19.225  1.00  0.00    -0.288 N 
ATOM      4  H   UNL     1      45.352 131.240  18.655  1.00  0.00     0.173 HD
ATOM      5  O   UNL     1      42.240 131.967  19.212  1.00  0.00    -0.224 OA
BRANCH   3   6
ATOM      6  C   UNL     1      44.643 131.523  20.655  1.00  0.00     0.090 A 
ATOM      7  C   UNL     1      45.481 132.392  21.417  1.00  0.00     0.154 A 
ATOM      8  N   UNL     1      45.350 132.401  22.777  1.00  0.00    -0.342 N 
ATOM      9  C   UNL     1      43.803 130.632  21.331  1.00  0.00     0.071 A 
ATOM     10  C   UNL     1      44.512 131.553  23.433  1.00  0.00     0.123 A 
ATOM     11  C   UNL     1      43.738 130.641  22.721  1.00  0.00     0.141 A 
ATOM     12  H   UNL     1      45.933 133.053  23.347  1.00  0.00     0.168 HD
ATOM     13  F   UNL     1      42.908 129.791  23.374  1.00  0.00    -0.205 F 
BRANCH   7  14
ATOM     14  N   UNL     1      46.382 133.183  20.891  1.00  0.00    -0.229 NA
BRANCH  14  15
ATOM     15  C   UNL     1      47.502 133.820  21.521  1.00  0.00     0.062 A 
ATOM     16  C   UNL     1      50.803 136.751  22.373  1.00  0.00    -0.022 A 
ATOM     17  N   UNL     1      50.719 135.690  23.218  1.00  0.00    -0.442 NA
ATOM     18  C   UNL     1      49.810 136.741  21.390  1.00  0.00     0.003 A 
ATOM     19  C   UNL     1      49.662 134.996  22.771  1.00  0.00    -0.052 A 
ATOM     20  C   UNL     1      49.067 135.616  21.636  1.00  0.00    -0.025 A 
ATOM     21  N   UNL     1      49.179 133.841  23.285  1.00  0.00    -0.440 NA
ATOM     22  C   UNL     1      47.971 135.046  21.009  1.00  0.00     0.036 A 
ATOM     23  C   UNL     1      48.100 133.253  22.682  1.00  0.00     0.006 A 
ENDBRANCH  14  15
ENDBRANCH   7  14
ENDBRANCH   3   6
ENDBRANCH   1   2
BRANCH   1  24
ATOM     24  C   UNL     1      44.505 132.068  16.384  1.00  0.00     0.243 C 
BRANCH  24  25
ATOM     25  C   UNL     1      44.369 131.227  15.099  1.00  0.00     0.061 C 
ATOM     26  C   UNL     1      43.570 131.992  14.036  1.00  0.00     0.016 C 
BRANCH  25  27
ATOM     27  C   UNL     1      45.728 130.806  14.547  1.00  0.00     0.036 A 
ATOM     28  C   UNL     1      46.306 131.548  13.495  1.00  0.00     0.011 A 
ATOM     29  C   UNL     1      46.397 129.636  15.001  1.00  0.00     0.272 A 
ATOM     30  C   UNL     1      47.510 131.150  12.913  1.00  0.00     0.001 A 
ATOM     31  C   UNL     1      47.599 129.244  14.390  1.00  0.00     0.086 A 
ATOM     32  C   UNL     1      48.154 129.998  13.358  1.00  0.00     0.007 A 
BRANCH  29  33
ATOM     33  N   UNL     1      45.879 128.837  16.073  1.00  0.00     0.063 N 
ATOM     34  O   UNL     1      46.099 129.170  17.256  1.00  0.00    -0.258 OA
ATOM     35  O   UNL     1      44.907 127.899  15.817  1.00  0.00    -0.258 OA
ENDBRANCH  29  33
ENDBRANCH  25  27
ENDBRANCH  24  25
ENDBRANCH   1  24
TORSDOF 8
ENDMDL
MODEL 2
REMARK VINA RESULT:      -3.8      1.513      2.024
REMARK SMILES C[C@H](COC(=O)Nc1cc(F)c[nH]/c1=N/c1c[n-]c2nccc-2c1)c1ccccc1[N+](=O)[O-]
REMARK SMILES IDX 4 1 5 2 7 3 6 5 8 6 14 7 13 8 9 9 12 10 10 11 11 13 15 14
REMARK SMILES IDX 16 15 21 16 20 17 22 18 19 19 23 20 18 21 24 22 17 23 3 24
REMARK SMILES IDX 2 25 1 26 25 27 26 28 30 29 27 30 29 31 28 32 31 33 32 34
REMARK SMILES IDX 33 35
REMARK H PARENT 7 4 13 12
ROOT
ATOM      1  O   UNL     1      45.486 130.919  17.543  1.00  0.00    -0.449 OA
ENDROOT
BRANCH   1   2
ATOM      2  C   UNL     1      45.062 131.297  18.821  1.00  0.00     0.411 C 
ATOM      3  N   UNL     1      45.925 131.061  19.938  1.00  0.00    -0.288 N 
ATOM      4  H   UNL     1      46.710 130.381  19.819  1.00  0.00     0.173 HD
ATOM      5  O   UNL     1      43.946 131.863  18.987  1.00  0.00    -0.224 OA
BRANCH   3   6
ATOM      6  C   UNL     1      45.614 131.525  21.259  1.00  0.00     0.090 A 
ATOM      7  C   UNL     1      46.266 132.638  21.871  1.00  0.00     0.154 A 
ATOM      8  N   UNL     1      45.759 133.129  23.041  1.00  0.00    -0.342 N 
ATOM      9  C   UNL     1      44.555 130.908  21.934  1.00  0.00     0.071 A 
ATOM     10  C   UNL     1      44.712 132.545  23.683  1.00  0.00     0.123 A 
ATOM     11  C   UNL     1      44.104 131.414  23.149  1.00  0.00     0.141 A 
ATOM     12  H   UNL     1      46.206 133.963  23.487  1.00  0.00     0.168 HD
ATOM     13  F   UNL     1      43.064 130.827  23.791  1.00  0.00    -0.205 F 
BRANCH   7  14
ATOM     14  N   UNL     1      47.334 133.217  21.384  1.00  0.00    -0.229 NA
BRANCH  14  15
ATOM     15  C   UNL     1      48.332 133.990  22.064  1.00  0.00     0.062 A 
ATOM     16  C   UNL     1      51.308 137.233  22.980  1.00  0.00    -0.022 A 
ATOM     17  N   UNL     1      51.207 136.242  23.905  1.00  0.00    -0.442 NA
ATOM     18  C   UNL     1      50.430 137.064  21.906  1.00  0.00     0.003 A 
ATOM     19  C   UNL     1      50.256 135.432  23.417  1.00  0.00    -0.052 A 
ATOM     20  C   UNL     1      49.746 135.908  22.175  1.00  0.00    -0.025 A 
ATOM     21  N   UNL     1      49.802 134.289  23.981  1.00  0.00    -0.440 NA
ATOM     22  C   UNL     1      48.767 135.203  21.495  1.00  0.00     0.036 A 
ATOM     23  C   UNL     1      48.838 133.570  23.327  1.00  0.00     0.006 A 
ENDBRANCH  14  15
ENDBRANCH   7  14
ENDBRANCH   3   6
ENDBRANCH   1   2
BRANCH   1  24
ATOM     24  C   UNL     1      46.204 129.715  17.279  1.00  0.00     0.243 C 
BRANCH  24  25
ATOM     25  C   UNL     1      45.767 129.098  15.936  1.00  0.00     0.061 C 
ATOM     26  C   UNL     1      44.259 129.282  15.722  1.00  0.00     0.016 C 
BRANCH  25  27
ATOM     27  C   UNL     1      46.548 129.679  14.760  1.00  0.00     0.036 A 
ATOM     28  C   UNL     1      47.715 129.023  14.315  1.00  0.00     0.011 A 
ATOM     29  C   UNL     1      46.184 130.909  14.147  1.00  0.00     0.272 A 
ATOM     30  C   UNL     1      48.497 129.564  13.293  1.00  0.00     0.001 A 
ATOM     31  C   UNL     1      46.994 131.445  13.133  1.00  0.00     0.086 A 
ATOM     32  C   UNL     1      48.139 130.775  12.705  1.00  0.00     0.007 A 
BRANCH  29  33
ATOM     33  N   UNL     1      45.005 131.628  14.537  1.00  0.00     0.063 N 
ATOM     34  O   UNL     1      43.899 131.308  14.056  1.00  0.00    -0.258 OA
ATOM     35  O   UNL     1      45.039 132.448  15.640  1.00  0.00    -0.258 OA
ENDBRANCH  29  33
ENDBRANCH  25  27
ENDBRANCH  24  25
ENDBRANCH   1  24
TORSDOF 8
ENDMDL
MODEL 3
REMARK VINA RESULT:      -3.3      3.173      8.207
REMARK SMILES C[C@H](COC(=O)Nc1cc(F)c[nH]/c1=N/c1c[n-]c2nccc-2c1)c1ccccc1[N+](=O)[O-]
REMARK SMILES IDX 4 1 5 2 7 3 6 5 8 6 14 7 13 8 9 9 12 10 10 11 11 13 15 14
REMARK SMILES IDX 16 15 21 16 20 17 22 18 19 19 23 20 18 21 24 22 17 23 3 24
REMARK SMILES IDX 2 25 1 26 25 27 26 28 30 29 27 30 29 31 28 32 31 33 32 34
REMARK SMILES IDX 33 35
REMARK H PARENT 7 4 13 12
ROOT
ATOM      1  O   UNL     1      48.145 133.271  21.708  1.00  0.00    -0.449 OA
ENDROOT
BRANCH   1   2
ATOM      2  C   UNL     1      47.025 132.445  21.574  1.00  0.00     0.411 C 
ATOM      3  N   UNL     1      45.840 132.753  22.315  1.00  0.00    -0.288 N 
ATOM      4  H   UNL     1      45.923 133.405  23.128  1.00  0.00     0.173 HD
ATOM      5  O   UNL     1      47.045 131.456  20.790  1.00  0.00    -0.224 OA
BRANCH   3   6
ATOM      6  C   UNL     1      44.616 132.026  22.143  1.00  0.00     0.090 A 
ATOM      7  C   UNL     1      44.059 131.723  20.864  1.00  0.00     0.154 A 
ATOM      8  N   UNL     1      43.008 130.852  20.798  1.00  0.00    -0.342 N 
ATOM      9  C   UNL     1      43.996 131.513  23.287  1.00  0.00     0.071 A 
ATOM     10  C   UNL     1      42.423 130.332  21.910  1.00  0.00     0.123 A 
ATOM     11  C   UNL     1      42.896 130.669  23.175  1.00  0.00     0.141 A 
ATOM     12  H   UNL     1      42.609 130.596  19.867  1.00  0.00     0.168 HD
ATOM     13  F   UNL     1      42.309 130.156  24.284  1.00  0.00    -0.205 F 
BRANCH   7  14
ATOM     14  N   UNL     1      44.489 132.238  19.740  1.00  0.00    -0.229 NA
BRANCH  14  15
ATOM     15  C   UNL     1      44.962 131.570  18.563  1.00  0.00     0.062 A 
ATOM     16  C   UNL     1      45.903 130.700  14.253  1.00  0.00    -0.022 A 
ATOM     17  N   UNL     1      46.243 129.729  15.143  1.00  0.00    -0.442 NA
ATOM     18  C   UNL     1      45.334 131.820  14.865  1.00  0.00     0.003 A 
ATOM     19  C   UNL     1      45.886 130.234  16.333  1.00  0.00    -0.052 A 
ATOM     20  C   UNL     1      45.318 131.533  16.204  1.00  0.00    -0.025 A 
ATOM     21  N   UNL     1      46.017 129.631  17.537  1.00  0.00    -0.440 NA
ATOM     22  C   UNL     1      44.867 132.223  17.318  1.00  0.00     0.036 A 
ATOM     23  C   UNL     1      45.574 130.287  18.653  1.00  0.00     0.006 A 
ENDBRANCH  14  15
ENDBRANCH   7  14
ENDBRANCH   3   6
ENDBRANCH   1   2
BRANCH   1  24
ATOM     24  C   UNL     1      48.062 134.688  21.845  1.00  0.00     0.243 C 
BRANCH  24  25
ATOM     25  C   UNL     1      48.690 135.150  23.175  1.00  0.00     0.061 C 
ATOM     26  C   UNL     1      48.097 134.364  24.353  1.00  0.00     0.016 C 
BRANCH  25  27
ATOM     27  C   UNL     1      50.211 135.024  23.161  1.00  0.00     0.036 A 
ATOM     28  C   UNL     1      50.821 133.944  23.834  1.00  0.00     0.011 A 
ATOM     29  C   UNL     1      51.044 136.008  22.560  1.00  0.00     0.272 A 
ATOM     30  C   UNL     1      52.210 133.837  23.908  1.00  0.00     0.001 A 
ATOM     31  C   UNL     1      52.440 135.890  22.660  1.00  0.00     0.086 A 
ATOM     32  C   UNL     1      53.019 134.810  23.324  1.00  0.00     0.007 A 
BRANCH  29  33
ATOM     33  N   UNL     1      50.498 137.126  21.847  1.00  0.00     0.063 N 
ATOM     34  O   UNL     1      50.735 138.286  22.241  1.00  0.00    -0.258 OA
ATOM     35  O   UNL     1      49.980 136.945  20.586  1.00  0.00    -0.258 OA
ENDBRANCH  29  33
ENDBRANCH  25  27
ENDBRANCH  24  25
ENDBRANCH   1  24
TORSDOF 8
ENDMDL
MODEL 4
REMARK VINA RESULT:      -3.1      3.801      6.168
REMARK SMILES C[C@H](COC(=O)Nc1cc(F)c[nH]/c1=N/c1c[n-]c2nccc-2c1)c1ccccc1[N+](=O)[O-]
REMARK SMILES IDX 4 1 5 2 7 3 6 5 8 6 14 7 13 8 9 9 12 10 10 11 11 13 15 14
REMARK SMILES IDX 16 15 21 16 20 17 22 18 19 19 23 20 18 21 24 22 17 23 3 24
REMARK SMILES IDX 2 25 1 26 25 27 26 28 30 29 27 30 29 31 28 32 31 33 32 34
REMARK SMILES IDX 33 35
REMARK H PARENT 7 4 13 12
ROOT
ATOM      1  O   UNL     1      44.400 131.492  17.983  1.00  0.00    -0.449 OA
ENDROOT
BRANCH   1   2
ATOM      2  C   UNL     1      44.215 131.576  19.367  1.00  0.00     0.411 C 
ATOM      3  N   UNL     1      44.244 130.375  20.146  1.00  0.00    -0.288 N 
ATOM      4  H   UNL     1      44.128 129.463  19.650  1.00  0.00     0.173 HD
ATOM      5  O   UNL     1      44.051 132.694  19.928  1.00  0.00    -0.224 OA
BRANCH   3   6
ATOM      6  C   UNL     1      44.181 130.390  21.579  1.00  0.00     0.090 A 
ATOM      7  C   UNL     1      44.804 129.403  22.400  1.00  0.00     0.154 A 
ATOM      8  N   UNL     1      44.863 129.616  23.749  1.00  0.00    -0.342 N 
ATOM      9  C   UNL     1      43.553 131.479  22.193  1.00  0.00     0.071 A 
ATOM     10  C   UNL     1      44.276 130.690  24.342  1.00  0.00     0.123 A 
ATOM     11  C   UNL     1      43.596 131.631  23.575  1.00  0.00     0.141 A 
ATOM     12  H   UNL     1      45.343 128.918  24.360  1.00  0.00     0.168 HD
ATOM     13  F   UNL     1      43.005 132.698  24.166  1.00  0.00    -0.205 F 
BRANCH   7  14
ATOM     14  N   UNL     1      45.320 128.290  21.941  1.00  0.00    -0.229 NA
BRANCH  14  15
ATOM     15  C   UNL     1      45.168 126.953  22.434  1.00  0.00     0.062 A 
ATOM     16  C   UNL     1      46.063 122.664  23.444  1.00  0.00    -0.022 A 
ATOM     17  N   UNL     1      44.820 123.105  23.773  1.00  0.00    -0.442 NA
ATOM     18  C   UNL     1      46.854 123.659  22.861  1.00  0.00     0.003 A 
ATOM     19  C   UNL     1      44.816 124.392  23.397  1.00  0.00    -0.052 A 
ATOM     20  C   UNL     1      46.063 124.777  22.826  1.00  0.00    -0.025 A 
ATOM     21  N   UNL     1      43.787 125.263  23.511  1.00  0.00    -0.440 NA
ATOM     22  C   UNL     1      46.259 126.064  22.355  1.00  0.00     0.036 A 
ATOM     23  C   UNL     1      43.952 126.540  23.049  1.00  0.00     0.006 A 
ENDBRANCH  14  15
ENDBRANCH   7  14
ENDBRANCH   3   6
ENDBRANCH   1   2
BRANCH   1  24
ATOM     24  C   UNL     1      45.672 131.631  17.353  1.00  0.00     0.243 C 
BRANCH  24  25
ATOM     25  C   UNL     1      45.511 131.957  15.855  1.00  0.00     0.061 C 
ATOM     26  C   UNL     1      45.710 133.458  15.606  1.00  0.00     0.016 C 
BRANCH  25  27
ATOM     27  C   UNL     1      46.465 131.141  14.988  1.00  0.00     0.036 A 
ATOM     28  C   UNL     1      47.249 131.797  14.016  1.00  0.00     0.011 A 
ATOM     29  C   UNL     1      46.533 129.722  15.071  1.00  0.00     0.272 A 
ATOM     30  C   UNL     1      48.077 131.076  13.154  1.00  0.00     0.001 A 
ATOM     31  C   UNL     1      47.359 129.014  14.182  1.00  0.00     0.086 A 
ATOM     32  C   UNL     1      48.129 129.687  13.235  1.00  0.00     0.007 A 
BRANCH  29  33
ATOM     33  N   UNL     1      45.776 128.985  16.041  1.00  0.00     0.063 N 
ATOM     34  O   UNL     1      46.059 129.084  17.252  1.00  0.00    -0.258 OA
ATOM     35  O   UNL     1      44.575 128.420  15.683  1.00  0.00    -0.258 OA
ENDBRANCH  29  33
ENDBRANCH  25  27
ENDBRANCH  24  25
ENDBRANCH   1  24
TORSDOF 8
ENDMDL
MODEL 5
REMARK VINA RESULT:      -3.0      3.325      8.641
REMARK SMILES C[C@H](COC(=O)Nc1cc(F)c[nH]/c1=N/c1c[n-]c2nccc-2c1)c1ccccc1[N+](=O)[O-]
REMARK SMILES IDX 4 1 5 2 7 3 6 5 8 6 14 7 13 8 9 9 12 10 10 11 11 13 15 14
REMARK SMILES IDX 16 15 21 16 20 17 22 18 19 19 23 20 18 21 24 22 17 23 3 24
REMARK SMILES IDX 2 25 1 26 25 27 26 28 30 29 27 30 29 31 28 32 31 33 32 34
REMARK SMILES IDX 33 35
REMARK H PARENT 7 4 13 12
ROOT
ATOM      1  O   UNL     1      47.987 135.336  21.520  1.00  0.00    -0.449 OA
ENDROOT
BRANCH   1   2
ATOM      2  C   UNL     1      47.048 134.394  21.952  1.00  0.00     0.411 C 
ATOM      3  N   UNL     1      46.263 133.697  20.979  1.00  0.00    -0.288 N 
ATOM      4  H   UNL     1      46.210 134.092  20.014  1.00  0.00     0.173 HD
ATOM      5  O   UNL     1      46.910 134.140  23.181  1.00  0.00    -0.224 OA
BRANCH   3   6
ATOM      6  C   UNL     1      45.366 132.635  21.335  1.00  0.00     0.090 A 
ATOM      7  C   UNL     1      44.655 131.856  20.374  1.00  0.00     0.154 A 
ATOM      8  N   UNL     1      43.990 130.740  20.800  1.00  0.00    -0.342 N 
ATOM      9  C   UNL     1      45.263 132.295  22.689  1.00  0.00     0.071 A 
ATOM     10  C   UNL     1      43.914 130.395  22.113  1.00  0.00     0.123 A 
ATOM     11  C   UNL     1      44.535 131.177  23.082  1.00  0.00     0.141 A 
ATOM     12  H   UNL     1      43.490 130.141  20.104  1.00  0.00     0.168 HD
ATOM     13  F   UNL     1      44.454 130.838  24.392  1.00  0.00    -0.205 F 
BRANCH   7  14
ATOM     14  N   UNL     1      44.589 132.150  19.100  1.00  0.00    -0.229 NA
BRANCH  14  15
ATOM     15  C   UNL     1      45.178 131.469  17.985  1.00  0.00     0.062 A 
ATOM     16  C   UNL     1      46.899 130.685  13.906  1.00  0.00    -0.022 A 
ATOM     17  N   UNL     1      46.821 129.609  14.734  1.00  0.00    -0.442 NA
ATOM     18  C   UNL     1      46.441 131.862  14.502  1.00  0.00     0.003 A 
ATOM     19  C   UNL     1      46.307 130.105  15.870  1.00  0.00    -0.052 A 
ATOM     20  C   UNL     1      46.057 131.503  15.767  1.00  0.00    -0.025 A 
ATOM     21  N   UNL     1      46.030 129.414  16.999  1.00  0.00    -0.440 NA
ATOM     22  C   UNL     1      45.508 132.203  16.828  1.00  0.00     0.036 A 
ATOM     23  C   UNL     1      45.482 130.080  18.061  1.00  0.00     0.006 A 
ENDBRANCH  14  15
ENDBRANCH   7  14
ENDBRANCH   3   6
ENDBRANCH   1   2
BRANCH   1  24
ATOM     24  C   UNL     1      49.374 135.263  21.840  1.00  0.00     0.243 C 
BRANCH  24  25
ATOM     25  C   UNL     1      50.150 136.430  21.196  1.00  0.00     0.061 C 
ATOM     26  C   UNL     1      49.226 137.256  20.291  1.00  0.00     0.016 C 
BRANCH  25  27
ATOM     27  C   UNL     1      50.810 137.323  22.243  1.00  0.00     0.036 A 
ATOM     28  C   UNL     1      50.705 138.725  22.120  1.00  0.00     0.011 A 
ATOM     29  C   UNL     1      51.599 136.790  23.299  1.00  0.00     0.272 A 
ATOM     30  C   UNL     1      51.358 139.574  23.015  1.00  0.00     0.001 A 
ATOM     31  C   UNL     1      52.262 137.663  24.178  1.00  0.00     0.086 A 
ATOM     32  C   UNL     1      52.137 139.044  24.040  1.00  0.00     0.007 A 
BRANCH  29  33
ATOM     33  N   UNL     1      51.743 135.377  23.496  1.00  0.00     0.063 N 
ATOM     34  O   UNL     1      50.912 134.762  24.196  1.00  0.00    -0.258 OA
ATOM     35  O   UNL     1      52.595 134.659  22.691  1.00  0.00    -0.258 OA
ENDBRANCH  29  33
ENDBRANCH  25  27
ENDBRANCH  24  25
ENDBRANCH   1  24
TORSDOF 8
ENDMDL
MODEL 6
REMARK VINA RESULT:      -2.8      3.784      5.857
REMARK SMILES C[C@H](COC(=O)Nc1cc(F)c[nH]/c1=N/c1c[n-]c2nccc-2c1)c1ccccc1[N+](=O)[O-]
REMARK SMILES IDX 4 1 5 2 7 3 6 5 8 6 14 7 13 8 9 9 12 10 10 11 11 13 15 14
REMARK SMILES IDX 16 15 21 16 20 17 22 18 19 19 23 20 18 21 24 22 17 23 3 24
REMARK SMILES IDX 2 25 1 26 25 27 26 28 30 29 27 30 29 31 28 32 31 33 32 34
REMARK SMILES IDX 33 35
REMARK H PARENT 7 4 13 12
ROOT
ATOM      1  O   UNL     1      44.483 132.057  17.565  1.00  0.00    -0.449 OA
ENDROOT
BRANCH   1   2
ATOM      2  C   UNL     1      43.933 131.715  18.804  1.00  0.00     0.411 C 
ATOM      3  N   UNL     1      44.741 131.012  19.754  1.00  0.00    -0.288 N 
ATOM      4  H   UNL     1      45.606 130.537  19.409  1.00  0.00     0.173 HD
ATOM      5  O   UNL     1      42.750 132.044  19.095  1.00  0.00    -0.224 OA
BRANCH   3   6
ATOM      6  C   UNL     1      44.290 130.732  21.086  1.00  0.00     0.090 A 
ATOM      7  C   UNL     1      44.708 129.588  21.830  1.00  0.00     0.154 A 
ATOM      8  N   UNL     1      44.389 129.517  23.156  1.00  0.00    -0.342 N 
ATOM      9  C   UNL     1      43.473 131.680  21.711  1.00  0.00     0.071 A 
ATOM     10  C   UNL     1      43.618 130.454  23.770  1.00  0.00     0.123 A 
ATOM     11  C   UNL     1      43.132 131.543  23.052  1.00  0.00     0.141 A 
ATOM     12  H   UNL     1      44.715 128.701  23.722  1.00  0.00     0.168 HD
ATOM     13  F   UNL     1      42.358 132.474  23.662  1.00  0.00    -0.205 F 
BRANCH   7  14
ATOM     14  N   UNL     1      45.377 128.586  21.315  1.00  0.00    -0.229 NA
BRANCH  14  15
ATOM     15  C   UNL     1      45.627 127.288  21.868  1.00  0.00     0.062 A 
ATOM     16  C   UNL     1      45.017 123.406  24.054  1.00  0.00    -0.022 A 
ATOM     17  N   UNL     1      46.252 123.599  23.518  1.00  0.00    -0.442 NA
ATOM     18  C   UNL     1      44.145 124.467  23.797  1.00  0.00     0.003 A 
ATOM     19  C   UNL     1      46.167 124.793  22.914  1.00  0.00    -0.052 A 
ATOM     20  C   UNL     1      44.872 125.366  23.063  1.00  0.00    -0.025 A 
ATOM     21  N   UNL     1      47.153 125.429  22.241  1.00  0.00    -0.440 NA
ATOM     22  C   UNL     1      44.582 126.610  22.527  1.00  0.00     0.036 A 
ATOM     23  C   UNL     1      46.896 126.661  21.706  1.00  0.00     0.006 A 
ENDBRANCH  14  15
ENDBRANCH   7  14
ENDBRANCH   3   6
ENDBRANCH   1   2
BRANCH   1  24
ATOM     24  C   UNL     1      44.610 131.136  16.483  1.00  0.00     0.243 C 
BRANCH  24  25
ATOM     25  C   UNL     1      45.123 131.845  15.214  1.00  0.00     0.061 C 
ATOM     26  C   UNL     1      45.496 133.300  15.523  1.00  0.00     0.016 C 
BRANCH  25  27
ATOM     27  C   UNL     1      46.307 131.111  14.590  1.00  0.00     0.036 A 
ATOM     28  C   UNL     1      47.137 131.791  13.675  1.00  0.00     0.011 A 
ATOM     29  C   UNL     1      46.555 129.732  14.838  1.00  0.00     0.272 A 
ATOM     30  C   UNL     1      48.183 131.132  13.027  1.00  0.00     0.001 A 
ATOM     31  C   UNL     1      47.602 129.084  14.163  1.00  0.00     0.086 A 
ATOM     32  C   UNL     1      48.413 129.780  13.268  1.00  0.00     0.007 A 
BRANCH  29  33
ATOM     33  N   UNL     1      45.763 128.977  15.765  1.00  0.00     0.063 N 
ATOM     34  O   UNL     1      45.970 129.088  16.990  1.00  0.00    -0.258 OA
ATOM     35  O   UNL     1      44.603 128.376  15.338  1.00  0.00    -0.258 OA
ENDBRANCH  29  33
ENDBRANCH  25  27
ENDBRANCH  24  25
ENDBRANCH   1  24
TORSDOF 8
ENDMDL
MODEL 7
REMARK VINA RESULT:      -2.5      4.001      5.478
REMARK SMILES C[C@H](COC(=O)Nc1cc(F)c[nH]/c1=N/c1c[n-]c2nccc-2c1)c1ccccc1[N+](=O)[O-]
REMARK SMILES IDX 4 1 5 2 7 3 6 5 8 6 14 7 13 8 9 9 12 10 10 11 11 13 15 14
REMARK SMILES IDX 16 15 21 16 20 17 22 18 19 19 23 20 18 21 24 22 17 23 3 24
REMARK SMILES IDX 2 25 1 26 25 27 26 28 30 29 27 30 29 31 28 32 31 33 32 34
REMARK SMILES IDX 33 35
REMARK H PARENT 7 4 13 12
ROOT
ATOM      1  O   UNL     1      42.805 132.029  16.974  1.00  0.00    -0.449 OA
ENDROOT
BRANCH   1   2
ATOM      2  C   UNL     1      42.446 131.947  18.323  1.00  0.00     0.411 C 
ATOM      3  N   UNL     1      43.368 131.371  19.254  1.00  0.00    -0.288 N 
ATOM      4  H   UNL     1      44.149 130.788  18.877  1.00  0.00     0.173 HD
ATOM      5  O   UNL     1      41.337 132.397  18.722  1.00  0.00    -0.224 OA
BRANCH   3   6
ATOM      6  C   UNL     1      43.123 131.358  20.667  1.00  0.00     0.090 A 
ATOM      7  C   UNL     1      43.865 130.553  21.583  1.00  0.00     0.154 A 
ATOM      8  N   UNL     1      43.699 130.764  22.923  1.00  0.00    -0.342 N 
ATOM      9  C   UNL     1      42.173 132.252  21.172  1.00  0.00     0.071 A 
ATOM     10  C   UNL     1      42.793 131.653  23.413  1.00  0.00     0.123 A 
ATOM     11  C   UNL     1      42.002 132.399  22.545  1.00  0.00     0.141 A 
ATOM     12  H   UNL     1      44.257 130.204  23.606  1.00  0.00     0.168 HD
ATOM     13  F   UNL     1      41.095 133.281  23.032  1.00  0.00    -0.205 F 
BRANCH   7  14
ATOM     14  N   UNL     1      44.695 129.608  21.218  1.00  0.00    -0.229 NA
BRANCH  14  15
ATOM     15  C   UNL     1      44.956 128.345  21.843  1.00  0.00     0.062 A 
ATOM     16  C   UNL     1      44.585 124.793  24.574  1.00  0.00    -0.022 A 
ATOM     17  N   UNL     1      45.639 124.774  23.715  1.00  0.00    -0.442 NA
ATOM     18  C   UNL     1      43.786 125.929  24.426  1.00  0.00     0.003 A 
ATOM     19  C   UNL     1      45.511 125.909  23.012  1.00  0.00    -0.052 A 
ATOM     20  C   UNL     1      44.370 126.655  23.422  1.00  0.00    -0.025 A 
ATOM     21  N   UNL     1      46.333 126.347  22.031  1.00  0.00    -0.440 NA
ATOM     22  C   UNL     1      44.070 127.871  22.831  1.00  0.00     0.036 A 
ATOM     23  C   UNL     1      46.063 127.548  21.434  1.00  0.00     0.006 A 
ENDBRANCH  14  15
ENDBRANCH   7  14
ENDBRANCH   3   6
ENDBRANCH   1   2
BRANCH   1  24
ATOM     24  C   UNL     1      44.139 131.843  16.505  1.00  0.00     0.243 C 
BRANCH  24  25
ATOM     25  C   UNL     1      44.145 131.207  15.101  1.00  0.00     0.061 C 
ATOM     26  C   UNL     1      43.514 132.157  14.075  1.00  0.00     0.016 C 
BRANCH  25  27
ATOM     27  C   UNL     1      45.552 130.806  14.663  1.00  0.00     0.036 A 
ATOM     28  C   UNL     1      45.991 131.138  13.364  1.00  0.00     0.011 A 
ATOM     29  C   UNL     1      46.409 130.034  15.494  1.00  0.00     0.272 A 
ATOM     30  C   UNL     1      47.241 130.724  12.901  1.00  0.00     0.001 A 
ATOM     31  C   UNL     1      47.656 129.612  15.003  1.00  0.00     0.086 A 
ATOM     32  C   UNL     1      48.071 129.960  13.718  1.00  0.00     0.007 A 
BRANCH  29  33
ATOM     33  N   UNL     1      46.038 129.668  16.830  1.00  0.00     0.063 N 
ATOM     34  O   UNL     1      45.211 128.752  17.014  1.00  0.00    -0.258 OA
ATOM     35  O   UNL     1      46.796 130.103  17.892  1.00  0.00    -0.258 OA
ENDBRANCH  29  33
ENDBRANCH  25  27
ENDBRANCH  24  25
ENDBRANCH   1  24
TORSDOF 8
ENDMDL
MODEL 8
REMARK VINA RESULT:      -2.0      3.008      8.331
REMARK SMILES C[C@H](COC(=O)Nc1cc(F)c[nH]/c1=N/c1c[n-]c2nccc-2c1)c1ccccc1[N+](=O)[O-]
REMARK SMILES IDX 4 1 5 2 7 3 6 5 8 6 14 7 13 8 9 9 12 10 10 11 11 13 15 14
REMARK SMILES IDX 16 15 21 16 20 17 22 18 19 19 23 20 18 21 24 22 17 23 3 24
REMARK SMILES IDX 2 25 1 26 25 27 26 28 30 29 27 30 29 31 28 32 31 33 32 34
REMARK SMILES IDX 33 35
REMARK H PARENT 7 4 13 12
ROOT
ATOM      1  O   UNL     1      47.300 132.812  22.304  1.00  0.00    -0.449 OA
ENDROOT
BRANCH   1   2
ATOM      2  C   UNL     1      46.367 132.802  21.262  1.00  0.00     0.411 C 
ATOM      3  N   UNL     1      45.195 131.989  21.384  1.00  0.00    -0.288 N 
ATOM      4  H   UNL     1      45.196 131.229  22.102  1.00  0.00     0.173 HD
ATOM      5  O   UNL     1      46.539 133.519  20.237  1.00  0.00    -0.224 OA
BRANCH   3   6
ATOM      6  C   UNL     1      44.139 132.015  20.415  1.00  0.00     0.090 A 
ATOM      7  C   UNL     1      44.192 131.301  19.180  1.00  0.00     0.154 A 
ATOM      8  N   UNL     1      43.058 131.221  18.421  1.00  0.00    -0.342 N 
ATOM      9  C   UNL     1      42.966 132.701  20.748  1.00  0.00     0.071 A 
ATOM     10  C   UNL     1      41.909 131.866  18.759  1.00  0.00     0.123 A 
ATOM     11  C   UNL     1      41.850 132.632  19.920  1.00  0.00     0.141 A 
ATOM     12  H   UNL     1      43.072 130.676  17.530  1.00  0.00     0.168 HD
ATOM     13  F   UNL     1      40.707 133.280  20.254  1.00  0.00    -0.205 F 
BRANCH   7  14
ATOM     14  N   UNL     1      45.271 130.720  18.718  1.00  0.00    -0.229 NA
BRANCH  14  15
ATOM     15  C   UNL     1      45.659 130.487  17.358  1.00  0.00     0.062 A 
ATOM     16  C   UNL     1      46.960 131.228  13.119  1.00  0.00    -0.022 A 
ATOM     17  N   UNL     1      46.738 129.929  13.453  1.00  0.00    -0.442 NA
ATOM     18  C   UNL     1      46.758 132.105  14.188  1.00  0.00     0.003 A 
ATOM     19  C   UNL     1      46.392 129.977  14.748  1.00  0.00    -0.052 A 
ATOM     20  C   UNL     1      46.393 131.311  15.244  1.00  0.00    -0.025 A 
ATOM     21  N   UNL     1      46.064 128.926  15.535  1.00  0.00    -0.440 NA
ATOM     22  C   UNL     1      46.045 131.580  16.557  1.00  0.00     0.036 A 
ATOM     23  C   UNL     1      45.710 129.163  16.835  1.00  0.00     0.006 A 
ENDBRANCH  14  15
ENDBRANCH   7  14
ENDBRANCH   3   6
ENDBRANCH   1   2
BRANCH   1  24
ATOM     24  C   UNL     1      48.614 133.352  22.174  1.00  0.00     0.243 C 
BRANCH  24  25
ATOM     25  C   UNL     1      48.565 134.882  21.995  1.00  0.00     0.061 C 
ATOM     26  C   UNL     1      47.432 135.488  22.835  1.00  0.00     0.016 C 
BRANCH  25  27
ATOM     27  C   UNL     1      49.898 135.540  22.342  1.00  0.00     0.036 A 
ATOM     28  C   UNL     1      50.565 135.163  23.526  1.00  0.00     0.011 A 
ATOM     29  C   UNL     1      50.453 136.583  21.551  1.00  0.00     0.272 A 
ATOM     30  C   UNL     1      51.747 135.795  23.916  1.00  0.00     0.001 A 
ATOM     31  C   UNL     1      51.634 137.217  21.969  1.00  0.00     0.086 A 
ATOM     32  C   UNL     1      52.279 136.823  23.141  1.00  0.00     0.007 A 
BRANCH  29  33
ATOM     33  N   UNL     1      49.839 137.012  20.327  1.00  0.00     0.063 N 
ATOM     34  O   UNL     1      50.327 136.660  19.234  1.00  0.00    -0.258 OA
ATOM     35  O   UNL     1      48.571 137.542  20.350  1.00  0.00    -0.258 OA
ENDBRANCH  29  33
ENDBRANCH  25  27
ENDBRANCH  24  25
ENDBRANCH   1  24
TORSDOF 8
ENDMDL
MODEL 9
REMARK VINA RESULT:      -1.2      1.658      2.252
REMARK SMILES C[C@H](COC(=O)Nc1cc(F)c[nH]/c1=N/c1c[n-]c2nccc-2c1)c1ccccc1[N+](=O)[O-]
REMARK SMILES IDX 4 1 5 2 7 3 6 5 8 6 14 7 13 8 9 9 12 10 10 11 11 13 15 14
REMARK SMILES IDX 16 15 21 16 20 17 22 18 19 19 23 20 18 21 24 22 17 23 3 24
REMARK SMILES IDX 2 25 1 26 25 27 26 28 30 29 27 30 29 31 28 32 31 33 32 34
REMARK SMILES IDX 33 35
REMARK H PARENT 7 4 13 12
ROOT
ATOM      1  O   UNL     1      44.571 131.537  17.888  1.00  0.00    -0.449 OA
ENDROOT
BRANCH   1   2
ATOM      2  C   UNL     1      44.499 131.940  19.225  1.00  0.00     0.411 C 
ATOM      3  N   UNL     1      44.608 130.953  20.256  1.00  0.00    -0.288 N 
ATOM      4  H   UNL     1      44.462 129.952  19.997  1.00  0.00     0.173 HD
ATOM      5  O   UNL     1      44.368 133.160  19.523  1.00  0.00    -0.224 OA
BRANCH   3   6
ATOM      6  C   UNL     1      44.662 131.300  21.647  1.00  0.00     0.090 A 
ATOM      7  C   UNL     1      45.634 132.190  22.195  1.00  0.00     0.154 A 
ATOM      8  N   UNL     1      45.477 132.618  23.483  1.00  0.00    -0.342 N 
ATOM      9  C   UNL     1      43.651 130.810  22.481  1.00  0.00     0.071 A 
ATOM     10  C   UNL     1      44.478 132.162  24.285  1.00  0.00     0.123 A 
ATOM     11  C   UNL     1      43.558 131.236  23.802  1.00  0.00     0.141 A 
ATOM     12  H   UNL     1      46.163 133.294  23.889  1.00  0.00     0.168 HD
ATOM     13  F   UNL     1      42.565 130.776  24.602  1.00  0.00    -0.205 F 
BRANCH   7  14
ATOM     14  N   UNL     1      46.683 132.619  21.538  1.00  0.00    -0.229 NA
BRANCH  14  15
ATOM     15  C   UNL     1      47.687 133.555  21.953  1.00  0.00     0.062 A 
ATOM     16  C   UNL     1      51.098 135.407  24.221  1.00  0.00    -0.022 A 
ATOM     17  N   UNL     1      50.556 136.171  23.236  1.00  0.00    -0.442 NA
ATOM     18  C   UNL     1      50.492 134.153  24.329  1.00  0.00     0.003 A 
ATOM     19  C   UNL     1      49.595 135.397  22.710  1.00  0.00    -0.052 A 
ATOM     20  C   UNL     1      49.524 134.133  23.361  1.00  0.00    -0.025 A 
ATOM     21  N   UNL     1      48.762 135.723  21.695  1.00  0.00    -0.440 NA
ATOM     22  C   UNL     1      48.582 133.191  22.978  1.00  0.00     0.036 A 
ATOM     23  C   UNL     1      47.819 134.814  21.301  1.00  0.00     0.006 A 
ENDBRANCH  14  15
ENDBRANCH   7  14
ENDBRANCH   3   6
ENDBRANCH   1   2
BRANCH   1  24
ATOM     24  C   UNL     1      45.766 131.052  17.279  1.00  0.00     0.243 C 
BRANCH  24  25
ATOM     25  C   UNL     1      45.460 129.888  16.316  1.00  0.00     0.061 C 
ATOM     26  C   UNL     1      43.952 129.794  16.046  1.00  0.00     0.016 C 
BRANCH  25  27
ATOM     27  C   UNL     1      46.230 130.015  15.005  1.00  0.00     0.036 A 
ATOM     28  C   UNL     1      47.488 129.388  14.879  1.00  0.00     0.011 A 
ATOM     29  C   UNL     1      45.760 130.816  13.928  1.00  0.00     0.272 A 
ATOM     30  C   UNL     1      48.255 129.543  13.724  1.00  0.00     0.001 A 
ATOM     31  C   UNL     1      46.556 130.973  12.781  1.00  0.00     0.086 A 
ATOM     32  C   UNL     1      47.792 130.337  12.678  1.00  0.00     0.007 A 
BRANCH  29  33
ATOM     33  N   UNL     1      44.487 131.474  13.976  1.00  0.00     0.063 N 
ATOM     34  O   UNL     1      43.520 130.999  13.346  1.00  0.00    -0.258 OA
ATOM     35  O   UNL     1      44.250 132.432  14.933  1.00  0.00    -0.258 OA
ENDBRANCH  29  33
ENDBRANCH  25  27
ENDBRANCH  24  25
ENDBRANCH   1  24
TORSDOF 8
ENDMDL


