REMARK SMILES Fc1ccc2nc(-c3ccc[nH+]c3F)ccc2c1
REMARK SMILES IDX 1 1 2 2 3 3 4 4 5 5 6 6 7 7 15 8 16 9 17 10 18 11 8 12 9 13
REMARK SMILES IDX 13 14 10 15 12 16 11 17 14 18
REMARK H PARENT 12 19
ROOT
ATOM      1  F   UNL     1      -4.237  -4.007   2.372  1.00  0.00    -0.207 F 
ATOM      2  C   UNL     1      -3.525  -3.033   1.753  1.00  0.00     0.123 A 
ATOM      3  C   UNL     1      -3.505  -2.964   0.356  1.00  0.00     0.041 A 
ATOM      4  C   UNL     1      -2.772  -1.961  -0.288  1.00  0.00     0.032 A 
ATOM      5  C   UNL     1      -2.056  -1.024   0.466  1.00  0.00     0.071 A 
ATOM      6  N   UNL     1      -1.343  -0.049  -0.155  1.00  0.00    -0.247 NA
ATOM      7  C   UNL     1      -0.625   0.894   0.521  1.00  0.00     0.080 A 
ATOM      8  C   UNL     1      -0.628   0.848   1.934  1.00  0.00     0.030 A 
ATOM      9  C   UNL     1      -1.352  -0.143   2.601  1.00  0.00     0.013 A 
ATOM     10  C   UNL     1      -2.075  -1.092   1.873  1.00  0.00     0.003 A 
ATOM     11  C   UNL     1      -2.812  -2.099   2.514  1.00  0.00     0.049 A 
ENDROOT
BRANCH   7  12
ATOM     12  C   UNL     1       0.132   1.934  -0.259  1.00  0.00     0.104 A 
ATOM     13  C   UNL     1       0.896   2.938   0.377  1.00  0.00     0.026 A 
ATOM     14  C   UNL     1       0.106   1.941  -1.677  1.00  0.00     0.367 A 
ATOM     15  C   UNL     1       1.587   3.889  -0.372  1.00  0.00     0.072 A 
ATOM     16  N   UNL     1       0.794   2.884  -2.378  1.00  0.00    -0.186 N 
ATOM     17  C   UNL     1       1.525   3.846  -1.760  1.00  0.00     0.309 A 
ATOM     18  F   UNL     1      -0.600   1.015  -2.374  1.00  0.00    -0.135 F 
ATOM     19  H   UNL     1       0.759   2.869  -3.422  1.00  0.00     0.456 HD
ENDBRANCH   7  12
TORSDOF 1


