REMARK SMILES [O-]c1nccc2ccc(-c3cccc([C@H]4CO4)c3)cc12
REMARK SMILES IDX 1 1 2 2 3 3 4 4 5 5 6 6 7 7 8 8 9 9 19 10 20 11 10 12 11 13
REMARK SMILES IDX 18 14 12 15 14 16 13 17 15 18 16 19 17 20
REMARK H PARENT
ROOT
ATOM      1  O   UNL     1      -0.501  -2.020  -3.451  1.00  0.00    -0.858 OA
ATOM      2  C   UNL     1       0.890  -2.009  -3.442  1.00  0.00    -0.005 A 
ATOM      3  N   UNL     1       1.562  -2.445  -4.540  1.00  0.00    -0.272 NA
ATOM      4  C   UNL     1       2.920  -2.460  -4.596  1.00  0.00     0.111 A 
ATOM      5  C   UNL     1       3.672  -2.019  -3.506  1.00  0.00     0.029 A 
ATOM      6  C   UNL     1       3.015  -1.562  -2.357  1.00  0.00    -0.016 A 
ATOM      7  C   UNL     1       3.746  -1.116  -1.247  1.00  0.00     0.009 A 
ATOM      8  C   UNL     1       3.083  -0.662  -0.105  1.00  0.00     0.009 A 
ATOM      9  C   UNL     1       1.678  -0.646  -0.050  1.00  0.00    -0.018 A 
ATOM     10  C   UNL     1       0.944  -1.095  -1.163  1.00  0.00     0.018 A 
ATOM     11  C   UNL     1       1.602  -1.553  -2.317  1.00  0.00    -0.007 A 
ENDROOT
BRANCH   9  12
ATOM     12  C   UNL     1       0.980  -0.160   1.168  1.00  0.00    -0.018 A 
ATOM     13  C   UNL     1       1.447  -0.514   2.447  1.00  0.00     0.009 A 
ATOM     14  C   UNL     1      -0.160   0.658   1.060  1.00  0.00     0.015 A 
ATOM     15  C   UNL     1       0.783  -0.065   3.592  1.00  0.00     0.001 A 
ATOM     16  C   UNL     1      -0.816   1.125   2.210  1.00  0.00    -0.016 A 
ATOM     17  C   UNL     1      -0.347   0.746   3.476  1.00  0.00     0.006 A 
BRANCH  16  18
ATOM     18  C   UNL     1      -2.048   1.972   2.089  1.00  0.00     0.174 C 
ATOM     19  C   UNL     1      -1.949   3.348   2.628  1.00  0.00     0.198 C 
ATOM     20  O   UNL     1      -1.837   3.084   1.250  1.00  0.00    -0.368 OA
ENDBRANCH  16  18
ENDBRANCH   9  12
TORSDOF 2


