MODEL 1
REMARK VINA RESULT:      -7.4      0.000      0.000
REMARK SMILES Cc1ccc(-c2cc(N)c(NC3CC(=O)C3)c([NH2+]c3ccc(C)c(F)c3)c2)cc1
REMARK SMILES IDX 6 1 7 2 8 3 10 4 17 5 27 6 5 7 2 8 3 9 29 10 4 11 28 12 1 13
REMARK SMILES IDX 9 14 18 17 19 20 20 21 26 22 21 23 24 24 22 25 25 26 23 27
REMARK SMILES IDX 11 28 12 30 13 31 16 32 14 33 15 34
REMARK H PARENT 9 15 9 16 18 18 18 19 11 29
ROOT
ATOM      1  C   UNL     1      44.578 131.029  19.284  1.00  0.00    -0.010 A 
ATOM      2  C   UNL     1      43.454 131.824  19.543  1.00  0.00     0.037 A 
ATOM      3  C   UNL     1      42.882 131.865  20.820  1.00  0.00     0.062 A 
ATOM      4  C   UNL     1      43.401 131.052  21.854  1.00  0.00     0.120 A 
ATOM      5  C   UNL     1      44.584 130.302  21.620  1.00  0.00     0.160 A 
ATOM      6  C   UNL     1      45.148 130.294  20.332  1.00  0.00     0.079 A 
ENDROOT
BRANCH   1   7
ATOM      7  C   UNL     1      45.177 130.989  17.925  1.00  0.00    -0.018 A 
ATOM      8  C   UNL     1      46.306 130.899  15.342  1.00  0.00    -0.051 A 
ATOM      9  C   UNL     1      45.473 131.965  15.714  1.00  0.00     0.004 A 
ATOM     10  C   UNL     1      46.591 129.892  16.274  1.00  0.00     0.004 A 
ATOM     11  C   UNL     1      44.908 132.007  16.992  1.00  0.00     0.009 A 
ATOM     12  C   UNL     1      46.027 129.932  17.553  1.00  0.00     0.009 A 
ATOM     13  C   UNL     1      46.942 130.876  13.984  1.00  0.00     0.044 C 
ENDBRANCH   1   7
BRANCH   3  14
ATOM     14  N   UNL     1      41.825 132.799  21.069  1.00  0.00    -0.397 N 
ATOM     15  H   UNL     1      41.631 133.143  22.035  1.00  0.00     0.156 HD
ATOM     16  H   UNL     1      41.360 133.297  20.279  1.00  0.00     0.156 HD
ENDBRANCH   3  14
BRANCH   5  17
ATOM     17  N   UNL     1      45.217 129.531  22.670  1.00  0.00    -0.280 N 
ATOM     18  H   UNL     1      46.252 129.481  22.519  1.00  0.00     0.358 HD
ATOM     19  H   UNL     1      45.084 130.020  23.585  1.00  0.00     0.358 HD
BRANCH  17  20
ATOM     20  C   UNL     1      44.707 128.181  22.712  1.00  0.00     0.137 A 
ATOM     21  C   UNL     1      45.406 127.138  22.082  1.00  0.00     0.068 A 
ATOM     22  C   UNL     1      43.472 127.899  23.327  1.00  0.00     0.107 A 
ATOM     23  C   UNL     1      44.903 125.834  22.098  1.00  0.00     0.012 A 
ATOM     24  C   UNL     1      42.973 126.594  23.353  1.00  0.00     0.132 A 
ATOM     25  C   UNL     1      43.684 125.552  22.734  1.00  0.00    -0.015 A 
ATOM     26  F   UNL     1      41.795 126.345  23.979  1.00  0.00    -0.206 F 
ATOM     27  C   UNL     1      43.165 124.145  22.790  1.00  0.00     0.047 C 
ENDBRANCH  17  20
ENDBRANCH   5  17
BRANCH   4  28
ATOM     28  N   UNL     1      42.715 130.941  23.117  1.00  0.00    -0.375 N 
ATOM     29  H   UNL     1      41.743 130.561  23.124  1.00  0.00     0.161 HD
BRANCH  28  30
ATOM     30  C   UNL     1      43.283 131.467  24.370  1.00  0.00     0.094 C 
ATOM     31  C   UNL     1      44.708 131.922  24.241  1.00  0.00     0.100 C 
ATOM     32  C   UNL     1      42.935 132.907  24.624  1.00  0.00     0.100 C 
ATOM     33  C   UNL     1      44.375 133.376  24.522  1.00  0.00     0.137 C 
ATOM     34  O   UNL     1      44.983 134.428  24.624  1.00  0.00    -0.300 OA
ENDBRANCH  28  30
ENDBRANCH   4  28
TORSDOF 6
ENDMDL
MODEL 2
REMARK VINA RESULT:      -6.0      3.662      5.573
REMARK SMILES Cc1ccc(-c2cc(N)c(NC3CC(=O)C3)c([NH2+]c3ccc(C)c(F)c3)c2)cc1
REMARK SMILES IDX 6 1 7 2 8 3 10 4 17 5 27 6 5 7 2 8 3 9 29 10 4 11 28 12 1 13
REMARK SMILES IDX 9 14 18 17 19 20 20 21 26 22 21 23 24 24 22 25 25 26 23 27
REMARK SMILES IDX 11 28 12 30 13 31 16 32 14 33 15 34
REMARK H PARENT 9 15 9 16 18 18 18 19 11 29
ROOT
ATOM      1  C   UNL     1      44.977 131.592  18.549  1.00  0.00    -0.010 A 
ATOM      2  C   UNL     1      43.596 131.788  18.687  1.00  0.00     0.037 A 
ATOM      3  C   UNL     1      43.033 132.082  19.935  1.00  0.00     0.062 A 
ATOM      4  C   UNL     1      43.851 132.125  21.088  1.00  0.00     0.120 A 
ATOM      5  C   UNL     1      45.258 132.002  20.945  1.00  0.00     0.160 A 
ATOM      6  C   UNL     1      45.798 131.725  19.677  1.00  0.00     0.079 A 
ENDROOT
BRANCH   1   7
ATOM      7  C   UNL     1      45.566 131.277  17.223  1.00  0.00    -0.018 A 
ATOM      8  C   UNL     1      46.674 130.668  14.702  1.00  0.00    -0.051 A 
ATOM      9  C   UNL     1      46.166 131.949  14.961  1.00  0.00     0.004 A 
ATOM     10  C   UNL     1      46.647 129.700  15.715  1.00  0.00     0.004 A 
ATOM     11  C   UNL     1      45.611 132.250  16.208  1.00  0.00     0.009 A 
ATOM     12  C   UNL     1      46.093 129.998  16.964  1.00  0.00     0.009 A 
ATOM     13  C   UNL     1      47.303 130.358  13.377  1.00  0.00     0.044 C 
ENDBRANCH   1   7
BRANCH   3  14
ATOM     14  N   UNL     1      41.641 132.415  19.997  1.00  0.00    -0.397 N 
ATOM     15  H   UNL     1      41.160 132.860  19.186  1.00  0.00     0.156 HD
ATOM     16  H   UNL     1      41.042 132.050  20.771  1.00  0.00     0.156 HD
ENDBRANCH   3  14
BRANCH   5  17
ATOM     17  N   UNL     1      46.152 132.138  22.076  1.00  0.00    -0.280 N 
ATOM     18  H   UNL     1      45.610 132.255  22.965  1.00  0.00     0.358 HD
ATOM     19  H   UNL     1      46.701 131.256  22.190  1.00  0.00     0.358 HD
BRANCH  17  20
ATOM     20  C   UNL     1      47.017 133.285  21.930  1.00  0.00     0.137 A 
ATOM     21  C   UNL     1      46.644 134.353  21.096  1.00  0.00     0.068 A 
ATOM     22  C   UNL     1      48.273 133.322  22.564  1.00  0.00     0.107 A 
ATOM     23  C   UNL     1      47.491 135.452  20.931  1.00  0.00     0.012 A 
ATOM     24  C   UNL     1      49.116 134.426  22.407  1.00  0.00     0.132 A 
ATOM     25  C   UNL     1      48.732 135.498  21.585  1.00  0.00    -0.015 A 
ATOM     26  F   UNL     1      50.308 134.449  23.055  1.00  0.00    -0.206 F 
ATOM     27  C   UNL     1      49.621 136.698  21.443  1.00  0.00     0.047 C 
ENDBRANCH  17  20
ENDBRANCH   5  17
BRANCH   4  28
ATOM     28  N   UNL     1      43.266 132.242  22.400  1.00  0.00    -0.375 N 
ATOM     29  H   UNL     1      43.246 133.181  22.854  1.00  0.00     0.161 HD
BRANCH  28  30
ATOM     30  C   UNL     1      42.824 131.068  23.172  1.00  0.00     0.094 C 
ATOM     31  C   UNL     1      43.326 129.764  22.624  1.00  0.00     0.100 C 
ATOM     32  C   UNL     1      43.676 130.792  24.378  1.00  0.00     0.100 C 
ATOM     33  C   UNL     1      44.170 129.459  23.847  1.00  0.00     0.137 C 
ATOM     34  O   UNL     1      44.901 128.559  24.228  1.00  0.00    -0.300 OA
ENDBRANCH  28  30
ENDBRANCH   4  28
TORSDOF 6
ENDMDL
MODEL 3
REMARK VINA RESULT:      -5.8      1.492      2.230
REMARK SMILES Cc1ccc(-c2cc(N)c(NC3CC(=O)C3)c([NH2+]c3ccc(C)c(F)c3)c2)cc1
REMARK SMILES IDX 6 1 7 2 8 3 10 4 17 5 27 6 5 7 2 8 3 9 29 10 4 11 28 12 1 13
REMARK SMILES IDX 9 14 18 17 19 20 20 21 26 22 21 23 24 24 22 25 25 26 23 27
REMARK SMILES IDX 11 28 12 30 13 31 16 32 14 33 15 34
REMARK H PARENT 9 15 9 16 18 18 18 19 11 29
ROOT
ATOM      1  C   UNL     1      44.949 130.948  17.757  1.00  0.00    -0.010 A 
ATOM      2  C   UNL     1      43.632 131.423  17.726  1.00  0.00     0.037 A 
ATOM      3  C   UNL     1      42.884 131.548  18.903  1.00  0.00     0.062 A 
ATOM      4  C   UNL     1      43.436 131.136  20.138  1.00  0.00     0.120 A 
ATOM      5  C   UNL     1      44.794 130.724  20.188  1.00  0.00     0.160 A 
ATOM      6  C   UNL     1      45.527 130.626  18.992  1.00  0.00     0.079 A 
ENDROOT
BRANCH   1   7
ATOM      7  C   UNL     1      45.734 130.815  16.502  1.00  0.00    -0.018 A 
ATOM      8  C   UNL     1      47.230 130.577  14.123  1.00  0.00    -0.051 A 
ATOM      9  C   UNL     1      47.463 129.706  15.197  1.00  0.00     0.004 A 
ATOM     10  C   UNL     1      46.229 131.551  14.235  1.00  0.00     0.004 A 
ATOM     11  C   UNL     1      46.727 129.827  16.379  1.00  0.00     0.009 A 
ATOM     12  C   UNL     1      45.491 131.675  15.416  1.00  0.00     0.009 A 
ATOM     13  C   UNL     1      47.994 130.420  12.842  1.00  0.00     0.044 C 
ENDBRANCH   1   7
BRANCH   3  14
ATOM     14  N   UNL     1      41.597 132.172  18.835  1.00  0.00    -0.397 N 
ATOM     15  H   UNL     1      40.991 132.060  17.993  1.00  0.00     0.156 HD
ATOM     16  H   UNL     1      41.162 132.586  19.689  1.00  0.00     0.156 HD
ENDBRANCH   3  14
BRANCH   5  17
ATOM     17  N   UNL     1      45.441 130.387  21.439  1.00  0.00    -0.280 N 
ATOM     18  H   UNL     1      46.481 130.360  21.322  1.00  0.00     0.358 HD
ATOM     19  H   UNL     1      45.252 131.141  22.140  1.00  0.00     0.358 HD
BRANCH  17  20
ATOM     20  C   UNL     1      45.013 129.096  21.923  1.00  0.00     0.137 A 
ATOM     21  C   UNL     1      43.886 128.986  22.754  1.00  0.00     0.068 A 
ATOM     22  C   UNL     1      45.754 127.936  21.624  1.00  0.00     0.107 A 
ATOM     23  C   UNL     1      43.485 127.741  23.246  1.00  0.00     0.012 A 
ATOM     24  C   UNL     1      45.347 126.690  22.106  1.00  0.00     0.132 A 
ATOM     25  C   UNL     1      44.211 126.584  22.925  1.00  0.00    -0.015 A 
ATOM     26  F   UNL     1      46.063 125.584  21.777  1.00  0.00    -0.206 F 
ATOM     27  C   UNL     1      43.755 125.241  23.416  1.00  0.00     0.047 C 
ENDBRANCH  17  20
ENDBRANCH   5  17
BRANCH   4  28
ATOM     28  N   UNL     1      42.622 131.083  21.326  1.00  0.00    -0.375 N 
ATOM     29  H   UNL     1      41.933 130.305  21.423  1.00  0.00     0.161 HD
BRANCH  28  30
ATOM     30  C   UNL     1      42.632 132.155  22.335  1.00  0.00     0.094 C 
ATOM     31  C   UNL     1      42.953 131.674  23.720  1.00  0.00     0.100 C 
ATOM     32  C   UNL     1      43.928 132.913  22.389  1.00  0.00     0.100 C 
ATOM     33  C   UNL     1      44.252 132.455  23.800  1.00  0.00     0.137 C 
ATOM     34  O   UNL     1      45.139 132.634  24.617  1.00  0.00    -0.300 OA
ENDBRANCH  28  30
ENDBRANCH   4  28
TORSDOF 6
ENDMDL
MODEL 4
REMARK VINA RESULT:      -5.6      3.688      5.589
REMARK SMILES Cc1ccc(-c2cc(N)c(NC3CC(=O)C3)c([NH2+]c3ccc(C)c(F)c3)c2)cc1
REMARK SMILES IDX 6 1 7 2 8 3 10 4 17 5 27 6 5 7 2 8 3 9 29 10 4 11 28 12 1 13
REMARK SMILES IDX 9 14 18 17 19 20 20 21 26 22 21 23 24 24 22 25 25 26 23 27
REMARK SMILES IDX 11 28 12 30 13 31 16 32 14 33 15 34
REMARK H PARENT 9 15 9 16 18 18 18 19 11 29
ROOT
ATOM      1  C   UNL     1      44.846 131.514  18.532  1.00  0.00    -0.010 A 
ATOM      2  C   UNL     1      43.457 131.625  18.676  1.00  0.00     0.037 A 
ATOM      3  C   UNL     1      42.881 131.863  19.930  1.00  0.00     0.062 A 
ATOM      4  C   UNL     1      43.698 131.933  21.082  1.00  0.00     0.120 A 
ATOM      5  C   UNL     1      45.110 131.895  20.934  1.00  0.00     0.160 A 
ATOM      6  C   UNL     1      45.661 131.674  19.660  1.00  0.00     0.079 A 
ENDROOT
BRANCH   1   7
ATOM      7  C   UNL     1      45.449 131.258  17.199  1.00  0.00    -0.018 A 
ATOM      8  C   UNL     1      46.582 130.763  14.664  1.00  0.00    -0.051 A 
ATOM      9  C   UNL     1      46.131 132.048  15.000  1.00  0.00     0.004 A 
ATOM     10  C   UNL     1      46.486 129.733  15.609  1.00  0.00     0.004 A 
ATOM     11  C   UNL     1      45.563 132.293  16.253  1.00  0.00     0.009 A 
ATOM     12  C   UNL     1      45.919 129.975  16.864  1.00  0.00     0.009 A 
ATOM     13  C   UNL     1      47.225 130.511  13.333  1.00  0.00     0.044 C 
ENDBRANCH   1   7
BRANCH   3  14
ATOM     14  N   UNL     1      41.472 132.112  20.002  1.00  0.00    -0.397 N 
ATOM     15  H   UNL     1      40.802 131.340  20.211  1.00  0.00     0.156 HD
ATOM     16  H   UNL     1      41.107 133.089  20.036  1.00  0.00     0.156 HD
ENDBRANCH   3  14
BRANCH   5  17
ATOM     17  N   UNL     1      45.998 132.062  22.066  1.00  0.00    -0.280 N 
ATOM     18  H   UNL     1      45.451 132.198  22.949  1.00  0.00     0.358 HD
ATOM     19  H   UNL     1      46.550 131.185  22.204  1.00  0.00     0.358 HD
BRANCH  17  20
ATOM     20  C   UNL     1      46.858 133.209  21.896  1.00  0.00     0.137 A 
ATOM     21  C   UNL     1      46.463 134.278  21.074  1.00  0.00     0.068 A 
ATOM     22  C   UNL     1      48.132 133.246  22.494  1.00  0.00     0.107 A 
ATOM     23  C   UNL     1      47.304 135.377  20.885  1.00  0.00     0.012 A 
ATOM     24  C   UNL     1      48.970 134.350  22.315  1.00  0.00     0.132 A 
ATOM     25  C   UNL     1      48.563 135.422  21.504  1.00  0.00    -0.015 A 
ATOM     26  F   UNL     1      50.179 134.373  22.930  1.00  0.00    -0.206 F 
ATOM     27  C   UNL     1      49.448 136.623  21.338  1.00  0.00     0.047 C 
ENDBRANCH  17  20
ENDBRANCH   5  17
BRANCH   4  28
ATOM     28  N   UNL     1      43.112 131.990  22.397  1.00  0.00    -0.375 N 
ATOM     29  H   UNL     1      42.569 132.842  22.663  1.00  0.00     0.161 HD
BRANCH  28  30
ATOM     30  C   UNL     1      43.364 130.959  23.418  1.00  0.00     0.094 C 
ATOM     31  C   UNL     1      42.255 130.821  24.420  1.00  0.00     0.100 C 
ATOM     32  C   UNL     1      43.012 129.571  22.963  1.00  0.00     0.100 C 
ATOM     33  C   UNL     1      41.906 129.408  23.990  1.00  0.00     0.137 C 
ATOM     34  O   UNL     1      41.111 128.544  24.319  1.00  0.00    -0.300 OA
ENDBRANCH  28  30
ENDBRANCH   4  28
TORSDOF 6
ENDMDL
MODEL 5
REMARK VINA RESULT:      -5.4      3.677      5.591
REMARK SMILES Cc1ccc(-c2cc(N)c(NC3CC(=O)C3)c([NH2+]c3ccc(C)c(F)c3)c2)cc1
REMARK SMILES IDX 6 1 7 2 8 3 10 4 17 5 27 6 5 7 2 8 3 9 29 10 4 11 28 12 1 13
REMARK SMILES IDX 9 14 18 17 19 20 20 21 26 22 21 23 24 24 22 25 25 26 23 27
REMARK SMILES IDX 11 28 12 30 13 31 16 32 14 33 15 34
REMARK H PARENT 9 15 9 16 18 18 18 19 11 29
ROOT
ATOM      1  C   UNL     1      44.990 131.600  18.541  1.00  0.00    -0.010 A 
ATOM      2  C   UNL     1      43.615 131.833  18.679  1.00  0.00     0.037 A 
ATOM      3  C   UNL     1      43.056 132.122  19.929  1.00  0.00     0.062 A 
ATOM      4  C   UNL     1      43.872 132.122  21.085  1.00  0.00     0.120 A 
ATOM      5  C   UNL     1      45.275 131.961  20.944  1.00  0.00     0.160 A 
ATOM      6  C   UNL     1      45.811 131.690  19.672  1.00  0.00     0.079 A 
ENDROOT
BRANCH   1   7
ATOM      7  C   UNL     1      45.574 131.290  17.211  1.00  0.00    -0.018 A 
ATOM      8  C   UNL     1      46.694 130.712  14.688  1.00  0.00    -0.051 A 
ATOM      9  C   UNL     1      46.638 129.723  15.681  1.00  0.00     0.004 A 
ATOM     10  C   UNL     1      46.166 131.982  14.953  1.00  0.00     0.004 A 
ATOM     11  C   UNL     1      46.089 130.010  16.934  1.00  0.00     0.009 A 
ATOM     12  C   UNL     1      45.616 132.273  16.205  1.00  0.00     0.009 A 
ATOM     13  C   UNL     1      47.248 130.391  13.332  1.00  0.00     0.044 C 
ENDBRANCH   1   7
BRANCH   3  14
ATOM     14  N   UNL     1      41.675 132.493  19.994  1.00  0.00    -0.397 N 
ATOM     15  H   UNL     1      41.251 133.107  19.265  1.00  0.00     0.156 HD
ATOM     16  H   UNL     1      41.025 132.011  20.653  1.00  0.00     0.156 HD
ENDBRANCH   3  14
BRANCH   5  17
ATOM     17  N   UNL     1      46.169 132.052  22.080  1.00  0.00    -0.280 N 
ATOM     18  H   UNL     1      45.628 132.189  22.966  1.00  0.00     0.358 HD
ATOM     19  H   UNL     1      46.678 131.146  22.192  1.00  0.00     0.358 HD
BRANCH  17  20
ATOM     20  C   UNL     1      47.085 133.160  21.942  1.00  0.00     0.137 A 
ATOM     21  C   UNL     1      48.382 133.079  22.475  1.00  0.00     0.068 A 
ATOM     22  C   UNL     1      46.673 134.360  21.332  1.00  0.00     0.107 A 
ATOM     23  C   UNL     1      49.262 134.159  22.367  1.00  0.00     0.012 A 
ATOM     24  C   UNL     1      47.556 135.437  21.214  1.00  0.00     0.132 A 
ATOM     25  C   UNL     1      48.857 135.345  21.735  1.00  0.00    -0.015 A 
ATOM     26  F   UNL     1      47.142 136.570  20.593  1.00  0.00    -0.206 F 
ATOM     27  C   UNL     1      49.816 136.488  21.579  1.00  0.00     0.047 C 
ENDBRANCH  17  20
ENDBRANCH   5  17
BRANCH   4  28
ATOM     28  N   UNL     1      43.286 132.234  22.397  1.00  0.00    -0.375 N 
ATOM     29  H   UNL     1      43.278 133.169  22.860  1.00  0.00     0.161 HD
BRANCH  28  30
ATOM     30  C   UNL     1      42.828 131.058  23.157  1.00  0.00     0.094 C 
ATOM     31  C   UNL     1      43.353 129.756  22.625  1.00  0.00     0.100 C 
ATOM     32  C   UNL     1      43.644 130.788  24.388  1.00  0.00     0.100 C 
ATOM     33  C   UNL     1      44.161 129.456  23.874  1.00  0.00     0.137 C 
ATOM     34  O   UNL     1      44.885 128.561  24.277  1.00  0.00    -0.300 OA
ENDBRANCH  28  30
ENDBRANCH   4  28
TORSDOF 6
ENDMDL
MODEL 6
REMARK VINA RESULT:      -5.3      3.727      5.564
REMARK SMILES Cc1ccc(-c2cc(N)c(NC3CC(=O)C3)c([NH2+]c3ccc(C)c(F)c3)c2)cc1
REMARK SMILES IDX 6 1 7 2 8 3 10 4 17 5 27 6 5 7 2 8 3 9 29 10 4 11 28 12 1 13
REMARK SMILES IDX 9 14 18 17 19 20 20 21 26 22 21 23 24 24 22 25 25 26 23 27
REMARK SMILES IDX 11 28 12 30 13 31 16 32 14 33 15 34
REMARK H PARENT 9 15 9 16 18 18 18 19 11 29
ROOT
ATOM      1  C   UNL     1      45.034 131.538  18.330  1.00  0.00    -0.010 A 
ATOM      2  C   UNL     1      43.652 131.749  18.423  1.00  0.00     0.037 A 
ATOM      3  C   UNL     1      43.047 132.018  19.657  1.00  0.00     0.062 A 
ATOM      4  C   UNL     1      43.822 132.020  20.839  1.00  0.00     0.120 A 
ATOM      5  C   UNL     1      45.232 131.882  20.745  1.00  0.00     0.160 A 
ATOM      6  C   UNL     1      45.815 131.630  19.490  1.00  0.00     0.079 A 
ENDROOT
BRANCH   1   7
ATOM      7  C   UNL     1      45.667 131.249  17.018  1.00  0.00    -0.018 A 
ATOM      8  C   UNL     1      46.859 130.691  14.524  1.00  0.00    -0.051 A 
ATOM      9  C   UNL     1      46.348 131.968  14.794  1.00  0.00     0.004 A 
ATOM     10  C   UNL     1      46.793 129.701  15.514  1.00  0.00     0.004 A 
ATOM     11  C   UNL     1      45.751 132.244  16.028  1.00  0.00     0.009 A 
ATOM     12  C   UNL     1      46.197 129.974  16.749  1.00  0.00     0.009 A 
ATOM     13  C   UNL     1      47.533 130.407  13.215  1.00  0.00     0.044 C 
ENDBRANCH   1   7
BRANCH   3  14
ATOM     14  N   UNL     1      41.658 132.368  19.678  1.00  0.00    -0.397 N 
ATOM     15  H   UNL     1      41.165 132.548  20.579  1.00  0.00     0.156 HD
ATOM     16  H   UNL     1      41.164 132.635  18.797  1.00  0.00     0.156 HD
ENDBRANCH   3  14
BRANCH   5  17
ATOM     17  N   UNL     1      46.086 131.976  21.911  1.00  0.00    -0.280 N 
ATOM     18  H   UNL     1      45.514 132.112  22.778  1.00  0.00     0.358 HD
ATOM     19  H   UNL     1      46.593 131.071  22.041  1.00  0.00     0.358 HD
BRANCH  17  20
ATOM     20  C   UNL     1      47.002 133.087  21.804  1.00  0.00     0.137 A 
ATOM     21  C   UNL     1      48.341 132.944  22.206  1.00  0.00     0.068 A 
ATOM     22  C   UNL     1      46.555 134.346  21.361  1.00  0.00     0.107 A 
ATOM     23  C   UNL     1      49.224 134.024  22.130  1.00  0.00     0.012 A 
ATOM     24  C   UNL     1      47.440 135.424  21.274  1.00  0.00     0.132 A 
ATOM     25  C   UNL     1      48.781 135.271  21.663  1.00  0.00    -0.015 A 
ATOM     26  F   UNL     1      46.990 136.618  20.812  1.00  0.00    -0.206 F 
ATOM     27  C   UNL     1      49.740 136.419  21.538  1.00  0.00     0.047 C 
ENDBRANCH  17  20
ENDBRANCH   5  17
BRANCH   4  28
ATOM     28  N   UNL     1      43.191 132.111  22.132  1.00  0.00    -0.375 N 
ATOM     29  H   UNL     1      42.585 132.936  22.333  1.00  0.00     0.161 HD
BRANCH  28  30
ATOM     30  C   UNL     1      43.479 131.157  23.217  1.00  0.00     0.094 C 
ATOM     31  C   UNL     1      42.322 130.939  24.148  1.00  0.00     0.100 C 
ATOM     32  C   UNL     1      43.312 129.721  22.809  1.00  0.00     0.100 C 
ATOM     33  C   UNL     1      42.159 129.480  23.766  1.00  0.00     0.137 C 
ATOM     34  O   UNL     1      41.439 128.548  24.084  1.00  0.00    -0.300 OA
ENDBRANCH  28  30
ENDBRANCH   4  28
TORSDOF 6
ENDMDL
MODEL 7
REMARK VINA RESULT:      -5.3      1.853      2.632
REMARK SMILES Cc1ccc(-c2cc(N)c(NC3CC(=O)C3)c([NH2+]c3ccc(C)c(F)c3)c2)cc1
REMARK SMILES IDX 6 1 7 2 8 3 10 4 17 5 27 6 5 7 2 8 3 9 29 10 4 11 28 12 1 13
REMARK SMILES IDX 9 14 18 17 19 20 20 21 26 22 21 23 24 24 22 25 25 26 23 27
REMARK SMILES IDX 11 28 12 30 13 31 16 32 14 33 15 34
REMARK H PARENT 9 15 9 16 18 18 18 19 11 29
ROOT
ATOM      1  C   UNL     1      45.040 131.109  17.503  1.00  0.00    -0.010 A 
ATOM      2  C   UNL     1      43.702 131.514  17.407  1.00  0.00     0.037 A 
ATOM      3  C   UNL     1      42.926 131.712  18.555  1.00  0.00     0.062 A 
ATOM      4  C   UNL     1      43.472 131.445  19.832  1.00  0.00     0.120 A 
ATOM      5  C   UNL     1      44.846 131.106  19.942  1.00  0.00     0.160 A 
ATOM      6  C   UNL     1      45.606 130.932  18.772  1.00  0.00     0.079 A 
ENDROOT
BRANCH   1   7
ATOM      7  C   UNL     1      45.855 130.898  16.280  1.00  0.00    -0.018 A 
ATOM      8  C   UNL     1      47.413 130.506  13.961  1.00  0.00    -0.051 A 
ATOM      9  C   UNL     1      47.202 129.450  14.860  1.00  0.00     0.004 A 
ATOM     10  C   UNL     1      46.821 131.751  14.214  1.00  0.00     0.004 A 
ATOM     11  C   UNL     1      46.436 129.645  16.012  1.00  0.00     0.009 A 
ATOM     12  C   UNL     1      46.054 131.949  15.366  1.00  0.00     0.009 A 
ATOM     13  C   UNL     1      48.203 130.285  12.706  1.00  0.00     0.044 C 
ENDBRANCH   1   7
BRANCH   3  14
ATOM     14  N   UNL     1      41.613 132.264  18.409  1.00  0.00    -0.397 N 
ATOM     15  H   UNL     1      41.214 132.453  17.464  1.00  0.00     0.156 HD
ATOM     16  H   UNL     1      40.961 132.309  19.223  1.00  0.00     0.156 HD
ENDBRANCH   3  14
BRANCH   5  17
ATOM     17  N   UNL     1      45.483 130.919  21.230  1.00  0.00    -0.280 N 
ATOM     18  H   UNL     1      46.526 130.938  21.133  1.00  0.00     0.358 HD
ATOM     19  H   UNL     1      45.239 131.721  21.855  1.00  0.00     0.358 HD
BRANCH  17  20
ATOM     20  C   UNL     1      45.114 129.655  21.821  1.00  0.00     0.137 A 
ATOM     21  C   UNL     1      45.661 128.456  21.334  1.00  0.00     0.068 A 
ATOM     22  C   UNL     1      44.153 129.597  22.849  1.00  0.00     0.107 A 
ATOM     23  C   UNL     1      45.286 127.229  21.886  1.00  0.00     0.012 A 
ATOM     24  C   UNL     1      43.786 128.370  23.409  1.00  0.00     0.132 A 
ATOM     25  C   UNL     1      44.347 127.176  22.928  1.00  0.00    -0.015 A 
ATOM     26  F   UNL     1      42.880 128.347  24.420  1.00  0.00    -0.206 F 
ATOM     27  C   UNL     1      43.978 125.862  23.552  1.00  0.00     0.047 C 
ENDBRANCH  17  20
ENDBRANCH   5  17
BRANCH   4  28
ATOM     28  N   UNL     1      42.637 131.464  21.007  1.00  0.00    -0.375 N 
ATOM     29  H   UNL     1      42.106 130.600  21.254  1.00  0.00     0.161 HD
BRANCH  28  30
ATOM     30  C   UNL     1      42.403 132.691  21.787  1.00  0.00     0.094 C 
ATOM     31  C   UNL     1      41.139 133.409  21.413  1.00  0.00     0.100 C 
ATOM     32  C   UNL     1      41.765 132.437  23.122  1.00  0.00     0.100 C 
ATOM     33  C   UNL     1      40.491 133.183  22.767  1.00  0.00     0.137 C 
ATOM     34  O   UNL     1      39.440 133.471  23.314  1.00  0.00    -0.300 OA
ENDBRANCH  28  30
ENDBRANCH   4  28
TORSDOF 6
ENDMDL
MODEL 8
REMARK VINA RESULT:      -5.1      2.118      2.505
REMARK SMILES Cc1ccc(-c2cc(N)c(NC3CC(=O)C3)c([NH2+]c3ccc(C)c(F)c3)c2)cc1
REMARK SMILES IDX 6 1 7 2 8 3 10 4 17 5 27 6 5 7 2 8 3 9 29 10 4 11 28 12 1 13
REMARK SMILES IDX 9 14 18 17 19 20 20 21 26 22 21 23 24 24 22 25 25 26 23 27
REMARK SMILES IDX 11 28 12 30 13 31 16 32 14 33 15 34
REMARK H PARENT 9 15 9 16 18 18 18 19 11 29
ROOT
ATOM      1  C   UNL     1      44.723 131.060  19.000  1.00  0.00    -0.010 A 
ATOM      2  C   UNL     1      43.546 131.738  19.343  1.00  0.00     0.037 A 
ATOM      3  C   UNL     1      43.108 131.793  20.672  1.00  0.00     0.062 A 
ATOM      4  C   UNL     1      43.824 131.107  21.681  1.00  0.00     0.120 A 
ATOM      5  C   UNL     1      45.056 130.481  21.354  1.00  0.00     0.160 A 
ATOM      6  C   UNL     1      45.480 130.458  20.013  1.00  0.00     0.079 A 
ENDROOT
BRANCH   1   7
ATOM      7  C   UNL     1      45.177 131.003  17.587  1.00  0.00    -0.018 A 
ATOM      8  C   UNL     1      46.036 130.881  14.903  1.00  0.00    -0.051 A 
ATOM      9  C   UNL     1      44.996 131.745  15.276  1.00  0.00     0.004 A 
ATOM     10  C   UNL     1      46.661 130.097  15.883  1.00  0.00     0.004 A 
ATOM     11  C   UNL     1      44.565 131.801  16.604  1.00  0.00     0.009 A 
ATOM     12  C   UNL     1      46.233 130.152  17.212  1.00  0.00     0.009 A 
ATOM     13  C   UNL     1      46.523 130.850  13.486  1.00  0.00     0.044 C 
ENDBRANCH   1   7
BRANCH   3  14
ATOM     14  N   UNL     1      41.981 132.617  20.989  1.00  0.00    -0.397 N 
ATOM     15  H   UNL     1      42.038 133.656  20.909  1.00  0.00     0.156 HD
ATOM     16  H   UNL     1      41.035 132.196  21.121  1.00  0.00     0.156 HD
ENDBRANCH   3  14
BRANCH   5  17
ATOM     17  N   UNL     1      45.880 129.851  22.364  1.00  0.00    -0.280 N 
ATOM     18  H   UNL     1      46.848 129.685  22.001  1.00  0.00     0.358 HD
ATOM     19  H   UNL     1      45.988 130.501  23.177  1.00  0.00     0.358 HD
BRANCH  17  20
ATOM     20  C   UNL     1      45.334 128.579  22.773  1.00  0.00     0.137 A 
ATOM     21  C   UNL     1      45.064 128.324  24.128  1.00  0.00     0.068 A 
ATOM     22  C   UNL     1      45.124 127.553  21.832  1.00  0.00     0.107 A 
ATOM     23  C   UNL     1      44.561 127.084  24.530  1.00  0.00     0.012 A 
ATOM     24  C   UNL     1      44.610 126.317  22.232  1.00  0.00     0.132 A 
ATOM     25  C   UNL     1      44.329 126.072  23.586  1.00  0.00    -0.015 A 
ATOM     26  F   UNL     1      44.389 125.356  21.299  1.00  0.00    -0.206 F 
ATOM     27  C   UNL     1      43.746 124.756  24.011  1.00  0.00     0.047 C 
ENDBRANCH  17  20
ENDBRANCH   5  17
BRANCH   4  28
ATOM     28  N   UNL     1      43.291 130.998  23.015  1.00  0.00    -0.375 N 
ATOM     29  H   UNL     1      43.918 131.214  23.821  1.00  0.00     0.161 HD
BRANCH  28  30
ATOM     30  C   UNL     1      41.944 130.466  23.284  1.00  0.00     0.094 C 
ATOM     31  C   UNL     1      41.621 129.226  22.502  1.00  0.00     0.100 C 
ATOM     32  C   UNL     1      41.877 129.606  24.514  1.00  0.00     0.100 C 
ATOM     33  C   UNL     1      41.523 128.350  23.737  1.00  0.00     0.137 C 
ATOM     34  O   UNL     1      41.272 127.184  23.988  1.00  0.00    -0.300 OA
ENDBRANCH  28  30
ENDBRANCH   4  28
TORSDOF 6
ENDMDL
MODEL 9
REMARK VINA RESULT:      -4.9      1.949      2.592
REMARK SMILES Cc1ccc(-c2cc(N)c(NC3CC(=O)C3)c([NH2+]c3ccc(C)c(F)c3)c2)cc1
REMARK SMILES IDX 6 1 7 2 8 3 10 4 17 5 27 6 5 7 2 8 3 9 29 10 4 11 28 12 1 13
REMARK SMILES IDX 9 14 18 17 19 20 20 21 26 22 21 23 24 24 22 25 25 26 23 27
REMARK SMILES IDX 11 28 12 30 13 31 16 32 14 33 15 34
REMARK H PARENT 9 15 9 16 18 18 18 19 11 29
ROOT
ATOM      1  C   UNL     1      44.940 131.122  17.655  1.00  0.00    -0.010 A 
ATOM      2  C   UNL     1      43.607 131.552  17.601  1.00  0.00     0.037 A 
ATOM      3  C   UNL     1      42.855 131.713  18.770  1.00  0.00     0.062 A 
ATOM      4  C   UNL     1      43.419 131.382  20.025  1.00  0.00     0.120 A 
ATOM      5  C   UNL     1      44.789 131.018  20.095  1.00  0.00     0.160 A 
ATOM      6  C   UNL     1      45.526 130.882  18.905  1.00  0.00     0.079 A 
ENDROOT
BRANCH   1   7
ATOM      7  C   UNL     1      45.729 130.951  16.409  1.00  0.00    -0.018 A 
ATOM      8  C   UNL     1      47.220 130.613  14.038  1.00  0.00    -0.051 A 
ATOM      9  C   UNL     1      46.443 131.765  14.229  1.00  0.00     0.004 A 
ATOM     10  C   UNL     1      47.267 129.643  15.048  1.00  0.00     0.004 A 
ATOM     11  C   UNL     1      45.699 131.931  15.400  1.00  0.00     0.009 A 
ATOM     12  C   UNL     1      46.524 129.805  16.221  1.00  0.00     0.009 A 
ATOM     13  C   UNL     1      48.048 130.455  12.798  1.00  0.00     0.044 C 
ENDBRANCH   1   7
BRANCH   3  14
ATOM     14  N   UNL     1      41.548 132.291  18.672  1.00  0.00    -0.397 N 
ATOM     15  H   UNL     1      41.302 132.925  17.881  1.00  0.00     0.156 HD
ATOM     16  H   UNL     1      40.768 131.945  19.272  1.00  0.00     0.156 HD
ENDBRANCH   3  14
BRANCH   5  17
ATOM     17  N   UNL     1      45.446 130.766  21.361  1.00  0.00    -0.280 N 
ATOM     18  H   UNL     1      46.485 130.731  21.239  1.00  0.00     0.358 HD
ATOM     19  H   UNL     1      45.261 131.565  22.010  1.00  0.00     0.358 HD
BRANCH  17  20
ATOM     20  C   UNL     1      45.022 129.510  21.934  1.00  0.00     0.137 A 
ATOM     21  C   UNL     1      44.004 129.477  22.901  1.00  0.00     0.068 A 
ATOM     22  C   UNL     1      45.667 128.308  21.583  1.00  0.00     0.107 A 
ATOM     23  C   UNL     1      43.610 128.267  23.476  1.00  0.00     0.012 A 
ATOM     24  C   UNL     1      45.266 127.096  22.150  1.00  0.00     0.132 A 
ATOM     25  C   UNL     1      44.237 127.067  23.106  1.00  0.00    -0.015 A 
ATOM     26  F   UNL     1      45.883 125.948  21.770  1.00  0.00    -0.206 F 
ATOM     27  C   UNL     1      43.784 125.761  23.690  1.00  0.00     0.047 C 
ENDBRANCH  17  20
ENDBRANCH   5  17
BRANCH   4  28
ATOM     28  N   UNL     1      42.606 131.364  21.214  1.00  0.00    -0.375 N 
ATOM     29  H   UNL     1      42.056 130.503  21.428  1.00  0.00     0.161 HD
BRANCH  28  30
ATOM     30  C   UNL     1      42.419 132.557  22.058  1.00  0.00     0.094 C 
ATOM     31  C   UNL     1      41.165 133.322  21.748  1.00  0.00     0.100 C 
ATOM     32  C   UNL     1      41.801 132.252  23.394  1.00  0.00     0.100 C 
ATOM     33  C   UNL     1      40.540 133.045  23.103  1.00  0.00     0.137 C 
ATOM     34  O   UNL     1      39.508 133.331  23.687  1.00  0.00    -0.300 OA
ENDBRANCH  28  30
ENDBRANCH   4  28
TORSDOF 6
ENDMDL


