REMARK SMILES CC(=O)c1ccc(-c2cc(N)c(O)c([NH2+]c3ccc(C)c(F)c3)c2)c(F)[nH+]1
REMARK SMILES IDX 8 1 9 2 10 3 12 4 14 5 24 6 7 7 4 8 5 9 27 10 6 11 25 12
REMARK SMILES IDX 26 14 2 15 1 16 3 17 11 18 15 21 16 24 17 25 23 26 18 27
REMARK SMILES IDX 21 28 19 29 22 30 20 31 13 32
REMARK H PARENT 27 13 11 19 11 20 15 22 15 23 13 33
ROOT
ATOM      1  C   UNL     1      -0.415   1.632  -0.054  1.00  0.00    -0.001 A 
ATOM      2  C   UNL     1       0.496   2.645  -0.379  1.00  0.00     0.039 A 
ATOM      3  C   UNL     1       1.846   2.534  -0.028  1.00  0.00     0.081 A 
ATOM      4  C   UNL     1       2.305   1.394   0.658  1.00  0.00     0.201 A 
ATOM      5  C   UNL     1       1.395   0.356   0.988  1.00  0.00     0.179 A 
ATOM      6  C   UNL     1       0.043   0.494   0.624  1.00  0.00     0.081 A 
ENDROOT
BRANCH   1   7
ATOM      7  C   UNL     1      -1.841   1.745  -0.447  1.00  0.00     0.086 A 
ATOM      8  C   UNL     1      -4.529   1.969  -1.196  1.00  0.00     0.249 A 
ATOM      9  C   UNL     1      -3.827   0.776  -1.441  1.00  0.00     0.084 A 
ATOM     10  N   UNL     1      -3.879   3.006  -0.586  1.00  0.00    -0.176 N 
ATOM     11  C   UNL     1      -2.490   0.669  -1.065  1.00  0.00     0.025 A 
ATOM     12  C   UNL     1      -2.573   2.922  -0.211  1.00  0.00     0.366 A 
ATOM     13  H   UNL     1      -4.385   3.898  -0.388  1.00  0.00     0.457 HD
ATOM     14  F   UNL     1      -1.998   3.975   0.424  1.00  0.00    -0.136 F 
BRANCH   8  15
ATOM     15  C   UNL     1      -5.956   2.116  -1.588  1.00  0.00     0.223 C 
ATOM     16  C   UNL     1      -6.709   1.018  -2.278  1.00  0.00     0.100 C 
ATOM     17  O   UNL     1      -6.562   3.192  -1.337  1.00  0.00    -0.288 OA
ENDBRANCH   8  15
ENDBRANCH   1   7
BRANCH   3  18
ATOM     18  N   UNL     1       2.751   3.589  -0.378  1.00  0.00    -0.396 N 
ATOM     19  H   UNL     1       3.766   3.539  -0.139  1.00  0.00     0.156 HD
ATOM     20  H   UNL     1       2.411   4.437  -0.883  1.00  0.00     0.156 HD
ENDBRANCH   3  18
BRANCH   5  21
ATOM     21  N   UNL     1       1.825  -0.855   1.656  1.00  0.00    -0.278 N 
ATOM     22  H   UNL     1       2.459  -0.615   2.452  1.00  0.00     0.358 HD
ATOM     23  H   UNL     1       1.007  -1.349   2.083  1.00  0.00     0.358 HD
BRANCH  21  24
ATOM     24  C   UNL     1       2.457  -1.759   0.722  1.00  0.00     0.137 A 
ATOM     25  C   UNL     1       3.791  -2.162   0.906  1.00  0.00     0.068 A 
ATOM     26  C   UNL     1       1.727  -2.300  -0.353  1.00  0.00     0.107 A 
ATOM     27  C   UNL     1       4.395  -3.050   0.011  1.00  0.00     0.012 A 
ATOM     28  C   UNL     1       2.331  -3.188  -1.249  1.00  0.00     0.132 A 
ATOM     29  C   UNL     1       3.676  -3.554  -1.082  1.00  0.00    -0.015 A 
ATOM     30  F   UNL     1       1.601  -3.694  -2.276  1.00  0.00    -0.206 F 
ATOM     31  C   UNL     1       4.317  -4.530  -2.026  1.00  0.00     0.047 C 
ENDBRANCH  21  24
ENDBRANCH   5  21
BRANCH   4  32
ATOM     32  O   UNL     1       3.659   1.322   0.994  1.00  0.00    -0.501 OA
ATOM     33  H   UNL     1       4.071   0.557   1.508  1.00  0.00     0.293 HD
ENDBRANCH   4  32
TORSDOF 6


