MODEL 1
REMARK VINA RESULT:      -5.9      0.000      0.000
REMARK SMILES N[NH2+][C@H]1CCC[C@@H](F)[C@@]1(CCC(=O)c1ccccc1)c1nc2ccccc2[n-]1
REMARK SMILES IDX 3 1 4 2 5 3 6 4 7 5 8 6 9 7 2 8 1 11 10 14 11 15 12 16 13 17
REMARK SMILES IDX 14 18 15 19 19 20 16 21 18 22 17 23 20 24 21 25 28 26 22 27
REMARK SMILES IDX 27 28 23 29 26 30 24 31 25 32
REMARK H PARENT 2 9 2 10 1 12 1 13
ROOT
ATOM      1  C   UNL     1      43.281 132.232  20.395  1.00  0.00     0.214 C 
ATOM      2  C   UNL     1      42.825 132.439  21.869  1.00  0.00     0.068 C 
ATOM      3  C   UNL     1      43.138 131.236  22.769  1.00  0.00     0.009 C 
ATOM      4  C   UNL     1      44.613 130.833  22.693  1.00  0.00     0.039 C 
ATOM      5  C   UNL     1      45.056 130.576  21.245  1.00  0.00     0.182 C 
ATOM      6  F   UNL     1      44.393 129.453  20.779  1.00  0.00    -0.246 F 
ATOM      7  C   UNL     1      44.805 131.808  20.308  1.00  0.00     0.073 C 
ENDROOT
BRANCH   1   8
ATOM      8  N   UNL     1      42.366 131.294  19.690  1.00  0.00    -0.268 N 
ATOM      9  H   UNL     1      41.688 130.862  20.355  1.00  0.00     0.370 HD
ATOM     10  H   UNL     1      42.890 130.529  19.206  1.00  0.00     0.370 HD
BRANCH   8  11
ATOM     11  N   UNL     1      41.631 131.996  18.711  1.00  0.00    -0.183 NA
ATOM     12  H   UNL     1      41.011 131.311  18.218  1.00  0.00     0.183 HD
ATOM     13  H   UNL     1      42.299 132.359  17.989  1.00  0.00     0.183 HD
ENDBRANCH   8  11
ENDBRANCH   1   8
BRANCH   7  14
ATOM     14  C   UNL     1      45.696 133.039  20.731  1.00  0.00     0.028 C 
BRANCH  14  15
ATOM     15  C   UNL     1      47.058 132.747  21.404  1.00  0.00     0.082 C 
BRANCH  15  16
ATOM     16  C   UNL     1      47.497 133.836  22.356  1.00  0.00     0.162 C 
ATOM     17  O   UNL     1      46.979 133.832  23.506  1.00  0.00    -0.294 OA
BRANCH  16  18
ATOM     18  C   UNL     1      48.484 134.905  22.016  1.00  0.00     0.017 A 
ATOM     19  C   UNL     1      48.270 135.840  20.978  1.00  0.00     0.012 A 
ATOM     20  C   UNL     1      49.673 135.006  22.770  1.00  0.00     0.012 A 
ATOM     21  C   UNL     1      49.208 136.846  20.723  1.00  0.00     0.001 A 
ATOM     22  C   UNL     1      50.605 136.012  22.506  1.00  0.00     0.001 A 
ATOM     23  C   UNL     1      50.372 136.933  21.485  1.00  0.00     0.000 A 
ENDBRANCH  16  18
ENDBRANCH  15  16
ENDBRANCH  14  15
ENDBRANCH   7  14
BRANCH   7  24
ATOM     24  C   UNL     1      45.151 131.468  18.865  1.00  0.00    -0.067 A 
ATOM     25  N   UNL     1      44.726 132.228  17.817  1.00  0.00    -0.439 NA
ATOM     26  N   UNL     1      45.879 130.377  18.500  1.00  0.00    -0.439 NA
ATOM     27  C   UNL     1      45.227 131.576  16.758  1.00  0.00    -0.038 A 
ATOM     28  C   UNL     1      45.911 130.474  17.164  1.00  0.00    -0.038 A 
ATOM     29  C   UNL     1      45.130 131.932  15.416  1.00  0.00     0.004 A 
ATOM     30  C   UNL     1      46.554 129.629  16.264  1.00  0.00     0.004 A 
ATOM     31  C   UNL     1      45.770 131.103  14.473  1.00  0.00     0.000 A 
ATOM     32  C   UNL     1      46.479 129.955  14.897  1.00  0.00     0.000 A 
ENDBRANCH   7  24
TORSDOF 7
ENDMDL
MODEL 2
REMARK VINA RESULT:      -5.4      0.247      1.126
REMARK SMILES N[NH2+][C@H]1CCC[C@@H](F)[C@@]1(CCC(=O)c1ccccc1)c1nc2ccccc2[n-]1
REMARK SMILES IDX 3 1 4 2 5 3 6 4 7 5 8 6 9 7 2 8 1 11 10 14 11 15 12 16 13 17
REMARK SMILES IDX 14 18 15 19 19 20 16 21 18 22 17 23 20 24 21 25 28 26 22 27
REMARK SMILES IDX 27 28 23 29 26 30 24 31 25 32
REMARK H PARENT 2 9 2 10 1 12 1 13
ROOT
ATOM      1  C   UNL     1      43.195 132.097  20.288  1.00  0.00     0.214 C 
ATOM      2  C   UNL     1      42.659 132.245  21.743  1.00  0.00     0.068 C 
ATOM      3  C   UNL     1      43.018 131.052  22.639  1.00  0.00     0.009 C 
ATOM      4  C   UNL     1      44.519 130.756  22.625  1.00  0.00     0.039 C 
ATOM      5  C   UNL     1      45.045 130.556  21.196  1.00  0.00     0.182 C 
ATOM      6  F   UNL     1      44.485 129.397  20.683  1.00  0.00    -0.246 F 
ATOM      7  C   UNL     1      44.748 131.784  20.266  1.00  0.00     0.073 C 
ENDROOT
BRANCH   1   8
ATOM      8  N   UNL     1      42.383 131.109  19.529  1.00  0.00    -0.268 N 
ATOM      9  H   UNL     1      41.848 130.488  20.175  1.00  0.00     0.370 HD
ATOM     10  H   UNL     1      42.977 130.510  18.909  1.00  0.00     0.370 HD
BRANCH   8  11
ATOM     11  N   UNL     1      41.457 131.787  18.708  1.00  0.00    -0.183 NA
ATOM     12  H   UNL     1      41.854 132.730  18.481  1.00  0.00     0.183 HD
ATOM     13  H   UNL     1      40.585 131.963  19.263  1.00  0.00     0.183 HD
ENDBRANCH   8  11
ENDBRANCH   1   8
BRANCH   7  14
ATOM     14  C   UNL     1      45.528 133.067  20.747  1.00  0.00     0.028 C 
BRANCH  14  15
ATOM     15  C   UNL     1      47.041 132.924  21.041  1.00  0.00     0.082 C 
BRANCH  15  16
ATOM     16  C   UNL     1      47.526 133.855  22.129  1.00  0.00     0.162 C 
ATOM     17  O   UNL     1      46.999 133.726  23.268  1.00  0.00    -0.294 OA
BRANCH  16  18
ATOM     18  C   UNL     1      48.568 134.908  21.935  1.00  0.00     0.017 A 
ATOM     19  C   UNL     1      48.425 135.961  21.004  1.00  0.00     0.012 A 
ATOM     20  C   UNL     1      49.738 134.870  22.723  1.00  0.00     0.012 A 
ATOM     21  C   UNL     1      49.413 136.944  20.885  1.00  0.00     0.001 A 
ATOM     22  C   UNL     1      50.720 135.854  22.596  1.00  0.00     0.001 A 
ATOM     23  C   UNL     1      50.557 136.892  21.680  1.00  0.00     0.000 A 
ENDBRANCH  16  18
ENDBRANCH  15  16
ENDBRANCH  14  15
ENDBRANCH   7  14
BRANCH   7  24
ATOM     24  C   UNL     1      45.182 131.494  18.835  1.00  0.00    -0.067 A 
ATOM     25  N   UNL     1      45.822 130.342  18.490  1.00  0.00    -0.439 NA
ATOM     26  N   UNL     1      44.997 132.358  17.800  1.00  0.00    -0.439 NA
ATOM     27  C   UNL     1      46.031 130.503  17.176  1.00  0.00    -0.038 A 
ATOM     28  C   UNL     1      45.542 131.704  16.766  1.00  0.00    -0.038 A 
ATOM     29  C   UNL     1      46.623 129.606  16.291  1.00  0.00     0.004 A 
ATOM     30  C   UNL     1      45.607 132.114  15.437  1.00  0.00     0.004 A 
ATOM     31  C   UNL     1      46.705 129.984  14.937  1.00  0.00     0.000 A 
ATOM     32  C   UNL     1      46.199 131.234  14.511  1.00  0.00     0.000 A 
ENDBRANCH   7  24
TORSDOF 7
ENDMDL
MODEL 3
REMARK VINA RESULT:      -4.8      0.320      1.454
REMARK SMILES N[NH2+][C@H]1CCC[C@@H](F)[C@@]1(CCC(=O)c1ccccc1)c1nc2ccccc2[n-]1
REMARK SMILES IDX 3 1 4 2 5 3 6 4 7 5 8 6 9 7 2 8 1 11 10 14 11 15 12 16 13 17
REMARK SMILES IDX 14 18 15 19 19 20 16 21 18 22 17 23 20 24 21 25 28 26 22 27
REMARK SMILES IDX 27 28 23 29 26 30 24 31 25 32
REMARK H PARENT 2 9 2 10 1 12 1 13
ROOT
ATOM      1  C   UNL     1      43.394 132.288  20.428  1.00  0.00     0.214 C 
ATOM      2  C   UNL     1      43.068 132.526  21.932  1.00  0.00     0.068 C 
ATOM      3  C   UNL     1      43.385 131.312  22.815  1.00  0.00     0.009 C 
ATOM      4  C   UNL     1      44.824 130.826  22.626  1.00  0.00     0.039 C 
ATOM      5  C   UNL     1      45.136 130.538  21.150  1.00  0.00     0.182 C 
ATOM      6  F   UNL     1      44.377 129.452  20.747  1.00  0.00    -0.246 F 
ATOM      7  C   UNL     1      44.881 131.779  20.226  1.00  0.00     0.073 C 
ENDROOT
BRANCH   1   8
ATOM      8  N   UNL     1      42.376 131.400  19.806  1.00  0.00    -0.268 N 
ATOM      9  H   UNL     1      42.005 130.712  20.498  1.00  0.00     0.370 HD
ATOM     10  H   UNL     1      42.765 130.872  18.991  1.00  0.00     0.370 HD
BRANCH   8  11
ATOM     11  N   UNL     1      41.294 132.175  19.338  1.00  0.00    -0.183 NA
ATOM     12  H   UNL     1      40.415 131.797  19.762  1.00  0.00     0.183 HD
ATOM     13  H   UNL     1      41.205 132.033  18.303  1.00  0.00     0.183 HD
ENDBRANCH   8  11
ENDBRANCH   1   8
BRANCH   7  14
ATOM     14  C   UNL     1      45.869 132.960  20.565  1.00  0.00     0.028 C 
BRANCH  14  15
ATOM     15  C   UNL     1      47.104 132.638  21.441  1.00  0.00     0.082 C 
BRANCH  15  16
ATOM     16  C   UNL     1      47.425 133.726  22.440  1.00  0.00     0.162 C 
ATOM     17  O   UNL     1      46.755 133.737  23.509  1.00  0.00    -0.294 OA
BRANCH  16  18
ATOM     18  C   UNL     1      48.466 134.778  22.234  1.00  0.00     0.017 A 
ATOM     19  C   UNL     1      49.691 134.788  22.937  1.00  0.00     0.012 A 
ATOM     20  C   UNL     1      48.233 135.797  21.285  1.00  0.00     0.012 A 
ATOM     21  C   UNL     1      50.649 135.775  22.681  1.00  0.00     0.001 A 
ATOM     22  C   UNL     1      49.194 136.779  21.038  1.00  0.00     0.001 A 
ATOM     23  C   UNL     1      50.403 136.767  21.734  1.00  0.00     0.000 A 
ENDBRANCH  16  18
ENDBRANCH  15  16
ENDBRANCH  14  15
ENDBRANCH   7  14
BRANCH   7  24
ATOM     24  C   UNL     1      45.092 131.413  18.762  1.00  0.00    -0.067 A 
ATOM     25  N   UNL     1      46.020 130.498  18.369  1.00  0.00    -0.439 NA
ATOM     26  N   UNL     1      44.401 131.980  17.734  1.00  0.00    -0.439 NA
ATOM     27  C   UNL     1      45.887 130.496  17.035  1.00  0.00    -0.038 A 
ATOM     28  C   UNL     1      44.925 131.379  16.658  1.00  0.00    -0.038 A 
ATOM     29  C   UNL     1      46.571 129.711  16.111  1.00  0.00     0.004 A 
ATOM     30  C   UNL     1      44.567 131.558  15.324  1.00  0.00     0.004 A 
ATOM     31  C   UNL     1      46.236 129.861  14.752  1.00  0.00     0.000 A 
ATOM     32  C   UNL     1      45.237 130.782  14.360  1.00  0.00     0.000 A 
ENDBRANCH   7  24
TORSDOF 7
ENDMDL
MODEL 4
REMARK VINA RESULT:      -4.5      0.903      1.435
REMARK SMILES N[NH2+][C@H]1CCC[C@@H](F)[C@@]1(CCC(=O)c1ccccc1)c1nc2ccccc2[n-]1
REMARK SMILES IDX 3 1 4 2 5 3 6 4 7 5 8 6 9 7 2 8 1 11 10 14 11 15 12 16 13 17
REMARK SMILES IDX 14 18 15 19 19 20 16 21 18 22 17 23 20 24 21 25 28 26 22 27
REMARK SMILES IDX 27 28 23 29 26 30 24 31 25 32
REMARK H PARENT 2 9 2 10 1 12 1 13
ROOT
ATOM      1  C   UNL     1      43.797 132.188  21.394  1.00  0.00     0.214 C 
ATOM      2  C   UNL     1      43.618 132.257  22.939  1.00  0.00     0.068 C 
ATOM      3  C   UNL     1      43.534 130.873  23.597  1.00  0.00     0.009 C 
ATOM      4  C   UNL     1      44.718 129.982  23.211  1.00  0.00     0.039 C 
ATOM      5  C   UNL     1      44.868 129.867  21.688  1.00  0.00     0.182 C 
ATOM      6  F   UNL     1      43.774 129.176  21.192  1.00  0.00    -0.246 F 
ATOM      7  C   UNL     1      45.017 131.263  20.988  1.00  0.00     0.073 C 
ENDROOT
BRANCH   1   8
ATOM      8  N   UNL     1      42.520 131.803  20.735  1.00  0.00    -0.268 N 
ATOM      9  H   UNL     1      41.989 131.119  21.318  1.00  0.00     0.370 HD
ATOM     10  H   UNL     1      42.679 131.381  19.792  1.00  0.00     0.370 HD
BRANCH   8  11
ATOM     11  N   UNL     1      41.713 132.948  20.562  1.00  0.00    -0.183 NA
ATOM     12  H   UNL     1      40.802 132.781  21.051  1.00  0.00     0.183 HD
ATOM     13  H   UNL     1      41.485 133.044  19.543  1.00  0.00     0.183 HD
ENDBRANCH   8  11
ENDBRANCH   1   8
BRANCH   7  14
ATOM     14  C   UNL     1      46.356 131.977  21.416  1.00  0.00     0.028 C 
BRANCH  14  15
ATOM     15  C   UNL     1      46.452 133.509  21.217  1.00  0.00     0.082 C 
BRANCH  15  16
ATOM     16  C   UNL     1      47.444 134.169  22.148  1.00  0.00     0.162 C 
ATOM     17  O   UNL     1      47.483 133.745  23.336  1.00  0.00    -0.294 OA
BRANCH  16  18
ATOM     18  C   UNL     1      48.358 135.283  21.752  1.00  0.00     0.017 A 
ATOM     19  C   UNL     1      48.012 136.246  20.778  1.00  0.00     0.012 A 
ATOM     20  C   UNL     1      49.613 135.398  22.387  1.00  0.00     0.012 A 
ATOM     21  C   UNL     1      48.888 137.292  20.470  1.00  0.00     0.001 A 
ATOM     22  C   UNL     1      50.483 136.444  22.071  1.00  0.00     0.001 A 
ATOM     23  C   UNL     1      50.120 137.392  21.115  1.00  0.00     0.000 A 
ENDBRANCH  16  18
ENDBRANCH  15  16
ENDBRANCH  14  15
ENDBRANCH   7  14
BRANCH   7  24
ATOM     24  C   UNL     1      45.047 131.106  19.473  1.00  0.00    -0.067 A 
ATOM     25  N   UNL     1      45.915 130.264  18.847  1.00  0.00    -0.439 NA
ATOM     26  N   UNL     1      44.240 131.802  18.626  1.00  0.00    -0.439 NA
ATOM     27  C   UNL     1      45.620 130.445  17.552  1.00  0.00    -0.038 A 
ATOM     28  C   UNL     1      44.625 131.362  17.420  1.00  0.00    -0.038 A 
ATOM     29  C   UNL     1      46.182 129.804  16.452  1.00  0.00     0.004 A 
ATOM     30  C   UNL     1      44.109 131.720  16.178  1.00  0.00     0.004 A 
ATOM     31  C   UNL     1      45.686 130.137  15.178  1.00  0.00     0.000 A 
ATOM     32  C   UNL     1      44.652 131.093  15.041  1.00  0.00     0.000 A 
ENDBRANCH   7  24
TORSDOF 7
ENDMDL
MODEL 5
REMARK VINA RESULT:      -3.9      1.141      1.687
REMARK SMILES N[NH2+][C@H]1CCC[C@@H](F)[C@@]1(CCC(=O)c1ccccc1)c1nc2ccccc2[n-]1
REMARK SMILES IDX 3 1 4 2 5 3 6 4 7 5 8 6 9 7 2 8 1 11 10 14 11 15 12 16 13 17
REMARK SMILES IDX 14 18 15 19 19 20 16 21 18 22 17 23 20 24 21 25 28 26 22 27
REMARK SMILES IDX 27 28 23 29 26 30 24 31 25 32
REMARK H PARENT 2 9 2 10 1 12 1 13
ROOT
ATOM      1  C   UNL     1      43.393 132.181  22.104  1.00  0.00     0.214 C 
ATOM      2  C   UNL     1      43.004 132.229  23.611  1.00  0.00     0.068 C 
ATOM      3  C   UNL     1      42.993 130.844  24.272  1.00  0.00     0.009 C 
ATOM      4  C   UNL     1      44.312 130.096  24.059  1.00  0.00     0.039 C 
ATOM      5  C   UNL     1      44.675 130.000  22.570  1.00  0.00     0.182 C 
ATOM      6  F   UNL     1      43.742 129.187  21.945  1.00  0.00    -0.246 F 
ATOM      7  C   UNL     1      44.754 131.404  21.875  1.00  0.00     0.073 C 
ENDROOT
BRANCH   1   8
ATOM      8  N   UNL     1      42.267 131.652  21.288  1.00  0.00    -0.268 N 
ATOM      9  H   UNL     1      41.629 131.063  21.868  1.00  0.00     0.370 HD
ATOM     10  H   UNL     1      42.605 131.079  20.482  1.00  0.00     0.370 HD
BRANCH   8  11
ATOM     11  N   UNL     1      41.516 132.726  20.766  1.00  0.00    -0.183 NA
ATOM     12  H   UNL     1      41.915 133.617  21.145  1.00  0.00     0.183 HD
ATOM     13  H   UNL     1      40.538 132.661  21.137  1.00  0.00     0.183 HD
ENDBRANCH   8  11
ENDBRANCH   1   8
BRANCH   7  14
ATOM     14  C   UNL     1      45.935 132.268  22.465  1.00  0.00     0.028 C 
BRANCH  14  15
ATOM     15  C   UNL     1      46.659 133.247  21.510  1.00  0.00     0.082 C 
BRANCH  15  16
ATOM     16  C   UNL     1      47.879 133.888  22.129  1.00  0.00     0.162 C 
ATOM     17  O   UNL     1      48.408 133.288  23.104  1.00  0.00    -0.294 OA
BRANCH  16  18
ATOM     18  C   UNL     1      48.480 135.176  21.667  1.00  0.00     0.017 A 
ATOM     19  C   UNL     1      49.796 135.569  22.003  1.00  0.00     0.012 A 
ATOM     20  C   UNL     1      47.719 136.032  20.843  1.00  0.00     0.012 A 
ATOM     21  C   UNL     1      50.326 136.767  21.515  1.00  0.00     0.001 A 
ATOM     22  C   UNL     1      48.256 137.228  20.362  1.00  0.00     0.001 A 
ATOM     23  C   UNL     1      49.559 137.595  20.695  1.00  0.00     0.000 A 
ENDBRANCH  16  18
ENDBRANCH  15  16
ENDBRANCH  14  15
ENDBRANCH   7  14
BRANCH   7  24
ATOM     24  C   UNL     1      45.002 131.251  20.380  1.00  0.00    -0.067 A 
ATOM     25  N   UNL     1      44.372 132.030  19.456  1.00  0.00    -0.439 NA
ATOM     26  N   UNL     1      45.839 130.322  19.843  1.00  0.00    -0.439 NA
ATOM     27  C   UNL     1      44.854 131.561  18.297  1.00  0.00    -0.038 A 
ATOM     28  C   UNL     1      45.725 130.543  18.527  1.00  0.00    -0.038 A 
ATOM     29  C   UNL     1      44.576 132.018  17.012  1.00  0.00     0.004 A 
ATOM     30  C   UNL     1      46.391 129.891  17.493  1.00  0.00     0.004 A 
ATOM     31  C   UNL     1      45.231 131.385  15.938  1.00  0.00     0.000 A 
ATOM     32  C   UNL     1      46.136 130.325  16.178  1.00  0.00     0.000 A 
ENDBRANCH   7  24
TORSDOF 7
ENDMDL
MODEL 6
REMARK VINA RESULT:      -3.8      3.742      7.066
REMARK SMILES N[NH2+][C@H]1CCC[C@@H](F)[C@@]1(CCC(=O)c1ccccc1)c1nc2ccccc2[n-]1
REMARK SMILES IDX 3 1 4 2 5 3 6 4 7 5 8 6 9 7 2 8 1 11 10 14 11 15 12 16 13 17
REMARK SMILES IDX 14 18 15 19 19 20 16 21 18 22 17 23 20 24 21 25 28 26 22 27
REMARK SMILES IDX 27 28 23 29 26 30 24 31 25 32
REMARK H PARENT 2 9 2 10 1 12 1 13
ROOT
ATOM      1  C   UNL     1      45.363 131.709  22.760  1.00  0.00     0.214 C 
ATOM      2  C   UNL     1      45.040 131.831  24.279  1.00  0.00     0.068 C 
ATOM      3  C   UNL     1      43.600 132.285  24.552  1.00  0.00     0.009 C 
ATOM      4  C   UNL     1      42.575 131.405  23.833  1.00  0.00     0.039 C 
ATOM      5  C   UNL     1      42.856 131.323  22.326  1.00  0.00     0.182 C 
ATOM      6  F   UNL     1      42.645 132.576  21.774  1.00  0.00    -0.246 F 
ATOM      7  C   UNL     1      44.302 130.804  22.008  1.00  0.00     0.073 C 
ENDROOT
BRANCH   1   8
ATOM      8  N   UNL     1      45.528 133.055  22.150  1.00  0.00    -0.268 N 
ATOM      9  H   UNL     1      45.245 133.806  22.817  1.00  0.00     0.370 HD
ATOM     10  H   UNL     1      44.965 133.159  21.275  1.00  0.00     0.370 HD
BRANCH   8  11
ATOM     11  N   UNL     1      46.883 133.258  21.814  1.00  0.00    -0.183 NA
ATOM     12  H   UNL     1      47.473 132.836  22.569  1.00  0.00     0.183 HD
ATOM     13  H   UNL     1      47.080 134.288  21.829  1.00  0.00     0.183 HD
ENDBRANCH   8  11
ENDBRANCH   1   8
BRANCH   7  14
ATOM     14  C   UNL     1      44.489 129.310  22.478  1.00  0.00     0.028 C 
BRANCH  14  15
ATOM     15  C   UNL     1      43.405 128.702  23.401  1.00  0.00     0.082 C 
BRANCH  15  16
ATOM     16  C   UNL     1      43.685 127.267  23.781  1.00  0.00     0.162 C 
ATOM     17  O   UNL     1      44.601 127.066  24.625  1.00  0.00    -0.294 OA
BRANCH  16  18
ATOM     18  C   UNL     1      42.958 126.089  23.216  1.00  0.00     0.017 A 
ATOM     19  C   UNL     1      41.586 125.851  23.457  1.00  0.00     0.012 A 
ATOM     20  C   UNL     1      43.656 125.183  22.390  1.00  0.00     0.012 A 
ATOM     21  C   UNL     1      40.942 124.754  22.876  1.00  0.00     0.001 A 
ATOM     22  C   UNL     1      43.006 124.089  21.815  1.00  0.00     0.001 A 
ATOM     23  C   UNL     1      41.649 123.876  22.056  1.00  0.00     0.000 A 
ENDBRANCH  16  18
ENDBRANCH  15  16
ENDBRANCH  14  15
ENDBRANCH   7  14
BRANCH   7  24
ATOM     24  C   UNL     1      44.574 130.849  20.510  1.00  0.00    -0.067 A 
ATOM     25  N   UNL     1      45.658 130.245  19.950  1.00  0.00    -0.439 NA
ATOM     26  N   UNL     1      43.785 131.511  19.619  1.00  0.00    -0.439 NA
ATOM     27  C   UNL     1      45.523 130.541  18.650  1.00  0.00    -0.038 A 
ATOM     28  C   UNL     1      44.410 131.296  18.453  1.00  0.00    -0.038 A 
ATOM     29  C   UNL     1      46.341 130.145  17.596  1.00  0.00     0.004 A 
ATOM     30  C   UNL     1      44.021 131.724  17.187  1.00  0.00     0.004 A 
ATOM     31  C   UNL     1      45.980 130.556  16.299  1.00  0.00     0.000 A 
ATOM     32  C   UNL     1      44.823 131.343  16.095  1.00  0.00     0.000 A 
ENDBRANCH   7  24
TORSDOF 7
ENDMDL
MODEL 7
REMARK VINA RESULT:      -3.5      1.062      1.824
REMARK SMILES N[NH2+][C@H]1CCC[C@@H](F)[C@@]1(CCC(=O)c1ccccc1)c1nc2ccccc2[n-]1
REMARK SMILES IDX 3 1 4 2 5 3 6 4 7 5 8 6 9 7 2 8 1 11 10 14 11 15 12 16 13 17
REMARK SMILES IDX 14 18 15 19 19 20 16 21 18 22 17 23 20 24 21 25 28 26 22 27
REMARK SMILES IDX 27 28 23 29 26 30 24 31 25 32
REMARK H PARENT 2 9 2 10 1 12 1 13
ROOT
ATOM      1  C   UNL     1      43.078 131.958  20.972  1.00  0.00     0.214 C 
ATOM      2  C   UNL     1      42.550 131.980  22.436  1.00  0.00     0.068 C 
ATOM      3  C   UNL     1      42.861 130.689  23.206  1.00  0.00     0.009 C 
ATOM      4  C   UNL     1      44.350 130.336  23.155  1.00  0.00     0.039 C 
ATOM      5  C   UNL     1      44.865 130.261  21.711  1.00  0.00     0.182 C 
ATOM      6  F   UNL     1      44.260 129.183  21.086  1.00  0.00    -0.246 F 
ATOM      7  C   UNL     1      44.618 131.588  20.911  1.00  0.00     0.073 C 
ENDROOT
BRANCH   1   8
ATOM      8  N   UNL     1      42.227 131.085  20.120  1.00  0.00    -0.268 N 
ATOM      9  H   UNL     1      41.343 130.828  20.613  1.00  0.00     0.370 HD
ATOM     10  H   UNL     1      42.722 130.205  19.847  1.00  0.00     0.370 HD
BRANCH   8  11
ATOM     11  N   UNL     1      41.884 131.769  18.935  1.00  0.00    -0.183 NA
ATOM     12  H   UNL     1      41.307 131.125  18.343  1.00  0.00     0.183 HD
ATOM     13  H   UNL     1      42.761 131.958  18.392  1.00  0.00     0.183 HD
ENDBRANCH   8  11
ENDBRANCH   1   8
BRANCH   7  14
ATOM     14  C   UNL     1      45.449 132.784  21.515  1.00  0.00     0.028 C 
BRANCH  14  15
ATOM     15  C   UNL     1      46.973 132.812  21.246  1.00  0.00     0.082 C 
BRANCH  15  16
ATOM     16  C   UNL     1      47.603 134.155  21.531  1.00  0.00     0.162 C 
ATOM     17  O   UNL     1      47.141 135.149  20.905  1.00  0.00    -0.294 OA
BRANCH  16  18
ATOM     18  C   UNL     1      48.731 134.371  22.488  1.00  0.00     0.017 A 
ATOM     19  C   UNL     1      49.756 135.316  22.259  1.00  0.00     0.012 A 
ATOM     20  C   UNL     1      48.770 133.622  23.683  1.00  0.00     0.012 A 
ATOM     21  C   UNL     1      50.771 135.507  23.203  1.00  0.00     0.001 A 
ATOM     22  C   UNL     1      49.787 133.818  24.619  1.00  0.00     0.001 A 
ATOM     23  C   UNL     1      50.786 134.762  24.380  1.00  0.00     0.000 A 
ENDBRANCH  16  18
ENDBRANCH  15  16
ENDBRANCH  14  15
ENDBRANCH   7  14
BRANCH   7  24
ATOM     24  C   UNL     1      45.039 131.426  19.456  1.00  0.00    -0.067 A 
ATOM     25  N   UNL     1      45.673 130.309  19.003  1.00  0.00    -0.439 NA
ATOM     26  N   UNL     1      44.847 132.380  18.504  1.00  0.00    -0.439 NA
ATOM     27  C   UNL     1      45.871 130.587  17.707  1.00  0.00    -0.038 A 
ATOM     28  C   UNL     1      45.381 131.820  17.410  1.00  0.00    -0.038 A 
ATOM     29  C   UNL     1      46.453 129.773  16.740  1.00  0.00     0.004 A 
ATOM     30  C   UNL     1      45.436 132.348  16.123  1.00  0.00     0.004 A 
ATOM     31  C   UNL     1      46.525 130.270  15.424  1.00  0.00     0.000 A 
ATOM     32  C   UNL     1      46.017 131.554  15.117  1.00  0.00     0.000 A 
ENDBRANCH   7  24
TORSDOF 7
ENDMDL
MODEL 8
REMARK VINA RESULT:      -3.4      3.557      6.194
REMARK SMILES N[NH2+][C@H]1CCC[C@@H](F)[C@@]1(CCC(=O)c1ccccc1)c1nc2ccccc2[n-]1
REMARK SMILES IDX 3 1 4 2 5 3 6 4 7 5 8 6 9 7 2 8 1 11 10 14 11 15 12 16 13 17
REMARK SMILES IDX 14 18 15 19 19 20 16 21 18 22 17 23 20 24 21 25 28 26 22 27
REMARK SMILES IDX 27 28 23 29 26 30 24 31 25 32
REMARK H PARENT 2 9 2 10 1 12 1 13
ROOT
ATOM      1  C   UNL     1      45.222 131.594  22.206  1.00  0.00     0.214 C 
ATOM      2  C   UNL     1      44.862 131.721  23.715  1.00  0.00     0.068 C 
ATOM      3  C   UNL     1      43.520 132.425  23.956  1.00  0.00     0.009 C 
ATOM      4  C   UNL     1      42.382 131.777  23.164  1.00  0.00     0.039 C 
ATOM      5  C   UNL     1      42.708 131.697  21.666  1.00  0.00     0.182 C 
ATOM      6  F   UNL     1      42.756 132.986  21.160  1.00  0.00    -0.246 F 
ATOM      7  C   UNL     1      44.046 130.930  21.378  1.00  0.00     0.073 C 
ENDROOT
BRANCH   1   8
ATOM      8  N   UNL     1      45.659 132.907  21.660  1.00  0.00    -0.268 N 
ATOM      9  H   UNL     1      45.333 133.692  22.266  1.00  0.00     0.370 HD
ATOM     10  H   UNL     1      45.299 133.066  20.690  1.00  0.00     0.370 HD
BRANCH   8  11
ATOM     11  N   UNL     1      47.068 132.952  21.606  1.00  0.00    -0.183 NA
ATOM     12  H   UNL     1      47.442 132.260  22.298  1.00  0.00     0.183 HD
ATOM     13  H   UNL     1      47.385 133.896  21.934  1.00  0.00     0.183 HD
ENDBRANCH   8  11
ENDBRANCH   1   8
BRANCH   7  14
ATOM     14  C   UNL     1      43.934 129.411  21.790  1.00  0.00     0.028 C 
BRANCH  14  15
ATOM     15  C   UNL     1      45.234 128.676  22.194  1.00  0.00     0.082 C 
BRANCH  15  16
ATOM     16  C   UNL     1      45.050 127.746  23.371  1.00  0.00     0.162 C 
ATOM     17  O   UNL     1      44.350 128.170  24.331  1.00  0.00    -0.294 OA
BRANCH  16  18
ATOM     18  C   UNL     1      45.649 126.380  23.467  1.00  0.00     0.017 A 
ATOM     19  C   UNL     1      46.764 126.090  24.285  1.00  0.00     0.012 A 
ATOM     20  C   UNL     1      45.070 125.324  22.731  1.00  0.00     0.012 A 
ATOM     21  C   UNL     1      47.265 124.787  24.369  1.00  0.00     0.001 A 
ATOM     22  C   UNL     1      45.578 124.026  22.820  1.00  0.00     0.001 A 
ATOM     23  C   UNL     1      46.673 123.757  23.640  1.00  0.00     0.000 A 
ENDBRANCH  16  18
ENDBRANCH  15  16
ENDBRANCH  14  15
ENDBRANCH   7  14
BRANCH   7  24
ATOM     24  C   UNL     1      44.386 130.977  19.894  1.00  0.00    -0.067 A 
ATOM     25  N   UNL     1      43.554 131.543  18.975  1.00  0.00    -0.439 NA
ATOM     26  N   UNL     1      45.519 130.442  19.361  1.00  0.00    -0.439 NA
ATOM     27  C   UNL     1      44.214 131.355  17.824  1.00  0.00    -0.038 A 
ATOM     28  C   UNL     1      45.382 130.698  18.053  1.00  0.00    -0.038 A 
ATOM     29  C   UNL     1      43.839 131.770  16.550  1.00  0.00     0.004 A 
ATOM     30  C   UNL     1      46.274 130.395  17.028  1.00  0.00     0.004 A 
ATOM     31  C   UNL     1      44.716 131.484  15.486  1.00  0.00     0.000 A 
ATOM     32  C   UNL     1      45.930 130.799  15.725  1.00  0.00     0.000 A 
ENDBRANCH   7  24
TORSDOF 7
ENDMDL
MODEL 9
REMARK VINA RESULT:      -3.2      3.410      6.717
REMARK SMILES N[NH2+][C@H]1CCC[C@@H](F)[C@@]1(CCC(=O)c1ccccc1)c1nc2ccccc2[n-]1
REMARK SMILES IDX 3 1 4 2 5 3 6 4 7 5 8 6 9 7 2 8 1 11 10 14 11 15 12 16 13 17
REMARK SMILES IDX 14 18 15 19 19 20 16 21 18 22 17 23 20 24 21 25 28 26 22 27
REMARK SMILES IDX 27 28 23 29 26 30 24 31 25 32
REMARK H PARENT 2 9 2 10 1 12 1 13
ROOT
ATOM      1  C   UNL     1      43.328 130.816  20.597  1.00  0.00     0.214 C 
ATOM      2  C   UNL     1      43.120 132.164  19.848  1.00  0.00     0.068 C 
ATOM      3  C   UNL     1      43.967 133.308  20.422  1.00  0.00     0.009 C 
ATOM      4  C   UNL     1      45.450 132.937  20.504  1.00  0.00     0.039 C 
ATOM      5  C   UNL     1      45.666 131.635  21.288  1.00  0.00     0.182 C 
ATOM      6  F   UNL     1      45.320 131.859  22.611  1.00  0.00    -0.246 F 
ATOM      7  C   UNL     1      44.861 130.429  20.691  1.00  0.00     0.073 C 
ENDROOT
BRANCH   1   8
ATOM      8  N   UNL     1      42.643 130.840  21.918  1.00  0.00    -0.268 N 
ATOM      9  H   UNL     1      43.310 130.617  22.689  1.00  0.00     0.370 HD
ATOM     10  H   UNL     1      41.850 130.159  21.959  1.00  0.00     0.370 HD
BRANCH   8  11
ATOM     11  N   UNL     1      42.116 132.127  22.154  1.00  0.00    -0.183 NA
ATOM     12  H   UNL     1      41.417 132.054  22.931  1.00  0.00     0.183 HD
ATOM     13  H   UNL     1      41.580 132.429  21.305  1.00  0.00     0.183 HD
ENDBRANCH   8  11
ENDBRANCH   1   8
BRANCH   7  14
ATOM     14  C   UNL     1      45.377 130.055  19.248  1.00  0.00     0.028 C 
BRANCH  14  15
ATOM     15  C   UNL     1      45.920 131.198  18.357  1.00  0.00     0.082 C 
BRANCH  15  16
ATOM     16  C   UNL     1      45.415 131.133  16.934  1.00  0.00     0.162 C 
ATOM     17  O   UNL     1      44.194 131.391  16.748  1.00  0.00    -0.294 OA
BRANCH  16  18
ATOM     18  C   UNL     1      46.261 130.778  15.755  1.00  0.00     0.017 A 
ATOM     19  C   UNL     1      46.893 129.521  15.619  1.00  0.00     0.012 A 
ATOM     20  C   UNL     1      46.425 131.721  14.719  1.00  0.00     0.012 A 
ATOM     21  C   UNL     1      47.646 129.223  14.479  1.00  0.00     0.001 A 
ATOM     22  C   UNL     1      47.180 131.416  13.584  1.00  0.00     0.001 A 
ATOM     23  C   UNL     1      47.788 130.167  13.463  1.00  0.00     0.000 A 
ENDBRANCH  16  18
ENDBRANCH  15  16
ENDBRANCH  14  15
ENDBRANCH   7  14
BRANCH   7  24
ATOM     24  C   UNL     1      45.015 129.192  21.566  1.00  0.00    -0.067 A 
ATOM     25  N   UNL     1      44.464 129.108  22.809  1.00  0.00    -0.439 NA
ATOM     26  N   UNL     1      45.728 128.091  21.200  1.00  0.00    -0.439 NA
ATOM     27  C   UNL     1      44.850 127.893  23.222  1.00  0.00    -0.038 A 
ATOM     28  C   UNL     1      45.604 127.289  22.265  1.00  0.00    -0.038 A 
ATOM     29  C   UNL     1      44.538 127.262  24.423  1.00  0.00     0.004 A 
ATOM     30  C   UNL     1      46.115 126.004  22.428  1.00  0.00     0.004 A 
ATOM     31  C   UNL     1      45.035 125.960  24.625  1.00  0.00     0.000 A 
ATOM     32  C   UNL     1      45.821 125.333  23.630  1.00  0.00     0.000 A 
ENDBRANCH   7  24
TORSDOF 7
ENDMDL


