REMARK SMILES CO[C@@H]1CCC[C@@H](c2cc3cc(F)ccc3[nH]2)N1[C@H]1C(=O)c2ccccc21
REMARK SMILES IDX 3 1 4 2 5 3 6 4 7 5 18 6 2 7 1 8 19 9 20 10 27 11 22 12
REMARK SMILES IDX 26 13 23 14 25 15 24 16 21 17 8 18 9 19 17 20 10 21 16 22
REMARK SMILES IDX 11 23 15 24 12 25 14 26 13 28
REMARK H PARENT 17 27
ROOT
ATOM      1  C   UNL     1      -1.758   0.161  -1.842  1.00  0.00     0.189 C 
ATOM      2  C   UNL     1      -2.973  -0.789  -1.966  1.00  0.00     0.049 C 
ATOM      3  C   UNL     1      -3.559  -1.204  -0.606  1.00  0.00     0.006 C 
ATOM      4  C   UNL     1      -3.301  -0.141   0.462  1.00  0.00     0.026 C 
ATOM      5  C   UNL     1      -1.782   0.117   0.642  1.00  0.00     0.107 C 
ATOM      6  N   UNL     1      -1.006  -0.159  -0.599  1.00  0.00    -0.255 NA
ENDROOT
BRANCH   1   7
ATOM      7  O   UNL     1      -2.206   1.510  -1.809  1.00  0.00    -0.366 OA
ATOM      8  C   UNL     1      -2.184   2.080  -3.100  1.00  0.00     0.197 C 
ENDBRANCH   1   7
BRANCH   6   9
ATOM      9  C   UNL     1       0.379   0.389  -0.516  1.00  0.00     0.163 C 
ATOM     10  C   UNL     1       1.230  -0.054  -1.601  1.00  0.00     0.184 C 
ATOM     11  C   UNL     1       0.515   1.794  -0.885  1.00  0.00    -0.012 A 
ATOM     12  C   UNL     1       1.351   1.402  -1.939  1.00  0.00     0.025 A 
ATOM     13  C   UNL     1       0.196   3.111  -0.618  1.00  0.00     0.006 A 
ATOM     14  C   UNL     1       1.923   2.303  -2.817  1.00  0.00     0.012 A 
ATOM     15  C   UNL     1       0.763   4.063  -1.501  1.00  0.00     0.000 A 
ATOM     16  C   UNL     1       1.611   3.666  -2.582  1.00  0.00     0.001 A 
ATOM     17  O   UNL     1       1.670  -1.145  -2.047  1.00  0.00    -0.292 OA
ENDBRANCH   6   9
BRANCH   5  18
ATOM     18  C   UNL     1      -1.265  -0.742   1.769  1.00  0.00     0.033 A 
ATOM     19  C   UNL     1      -1.181  -0.341   3.100  1.00  0.00     0.033 A 
ATOM     20  N   UNL     1      -0.888  -2.036   1.626  1.00  0.00    -0.357 N 
ATOM     21  C   UNL     1      -0.720  -1.449   3.776  1.00  0.00     0.003 A 
ATOM     22  C   UNL     1      -0.552  -2.452   2.858  1.00  0.00     0.046 A 
ATOM     23  C   UNL     1      -0.445  -1.638   5.129  1.00  0.00     0.049 A 
ATOM     24  C   UNL     1      -0.098  -3.717   3.228  1.00  0.00     0.029 A 
ATOM     25  C   UNL     1       0.015  -2.905   5.535  1.00  0.00     0.123 A 
ATOM     26  C   UNL     1       0.190  -3.939   4.588  1.00  0.00     0.041 A 
ATOM     27  H   UNL     1      -0.864  -2.595   0.745  1.00  0.00     0.166 HD
ATOM     28  F   UNL     1       0.297  -3.132   6.842  1.00  0.00    -0.207 F 
ENDBRANCH   5  18
TORSDOF 3


