MODEL 1
REMARK VINA RESULT:      -9.1      0.000      0.000
REMARK SMILES [H]/N=c1\[n-]cccc1[NH2+]c1ccc(C(C)=O)c(F)c1
REMARK SMILES IDX 9 1 8 4 3 5 4 6 5 7 7 8 6 9 2 10 1 11 10 12 11 13 19 14
REMARK SMILES IDX 12 15 17 16 13 17 18 18 14 19 16 20 15 21
REMARK H PARENT 9 2 9 3
ROOT
ATOM      1  N   UNL     1      43.617 131.930  17.634  1.00  0.00    -0.282 N 
ATOM      2  H   UNL     1      43.470 132.961  17.538  1.00  0.00     0.358 HD
ATOM      3  H   UNL     1      42.686 131.484  17.466  1.00  0.00     0.358 HD
ENDROOT
BRANCH   1   4
ATOM      4  C   UNL     1      44.096 131.619  18.963  1.00  0.00     0.133 A 
ATOM      5  C   UNL     1      43.331 131.914  20.116  1.00  0.00    -0.002 A 
ATOM      6  N   UNL     1      43.807 131.579  21.348  1.00  0.00    -0.438 NA
ATOM      7  C   UNL     1      45.004 130.960  21.516  1.00  0.00    -0.022 A 
ATOM      8  C   UNL     1      45.333 130.974  19.132  1.00  0.00     0.067 A 
ATOM      9  C   UNL     1      45.789 130.645  20.408  1.00  0.00     0.002 A 
BRANCH   5  10
ATOM     10  N   UNL     1      42.183 132.504  20.014  1.00  0.00    -0.477 NA
ATOM     11  H   UNL     1      41.856 132.914  19.112  1.00  0.00     0.020 HD
ENDBRANCH   5  10
ENDBRANCH   1   4
BRANCH   1  12
ATOM     12  C   UNL     1      44.577 131.485  16.652  1.00  0.00     0.137 A 
ATOM     13  C   UNL     1      45.488 132.392  16.089  1.00  0.00     0.069 A 
ATOM     14  C   UNL     1      44.636 130.136  16.268  1.00  0.00     0.108 A 
ATOM     15  C   UNL     1      46.433 131.960  15.157  1.00  0.00     0.021 A 
ATOM     16  C   UNL     1      45.581 129.698  15.335  1.00  0.00     0.139 A 
ATOM     17  C   UNL     1      46.493 130.612  14.759  1.00  0.00     0.053 A 
ATOM     18  F   UNL     1      45.611 128.377  15.031  1.00  0.00    -0.206 F 
BRANCH  17  19
ATOM     19  C   UNL     1      47.514 130.195  13.758  1.00  0.00     0.162 C 
ATOM     20  O   UNL     1      48.112 129.095  13.905  1.00  0.00    -0.294 OA
ATOM     21  C   UNL     1      47.861 131.033  12.565  1.00  0.00     0.093 C 
ENDBRANCH  17  19
ENDBRANCH   1  12
TORSDOF 4
ENDMDL
MODEL 2
REMARK VINA RESULT:      -8.5      1.136      1.610
REMARK SMILES [H]/N=c1\[n-]cccc1[NH2+]c1ccc(C(C)=O)c(F)c1
REMARK SMILES IDX 9 1 8 4 3 5 4 6 5 7 7 8 6 9 2 10 1 11 10 12 11 13 19 14
REMARK SMILES IDX 12 15 17 16 13 17 18 18 14 19 16 20 15 21
REMARK H PARENT 9 2 9 3
ROOT
ATOM      1  N   UNL     1      43.412 131.746  17.560  1.00  0.00    -0.282 N 
ATOM      2  H   UNL     1      43.158 132.745  17.378  1.00  0.00     0.358 HD
ATOM      3  H   UNL     1      42.538 131.191  17.415  1.00  0.00     0.358 HD
ENDROOT
BRANCH   1   4
ATOM      4  C   UNL     1      43.890 131.597  18.917  1.00  0.00     0.133 A 
ATOM      5  C   UNL     1      43.073 131.898  20.030  1.00  0.00    -0.002 A 
ATOM      6  N   UNL     1      43.553 131.716  21.292  1.00  0.00    -0.438 NA
ATOM      7  C   UNL     1      44.805 131.245  21.528  1.00  0.00    -0.022 A 
ATOM      8  C   UNL     1      45.185 131.104  19.155  1.00  0.00     0.067 A 
ATOM      9  C   UNL     1      45.644 130.930  20.461  1.00  0.00     0.002 A 
BRANCH   5  10
ATOM     10  N   UNL     1      41.871 132.351  19.865  1.00  0.00    -0.477 NA
ATOM     11  H   UNL     1      41.035 131.731  19.954  1.00  0.00     0.020 HD
ENDBRANCH   5  10
ENDBRANCH   1   4
BRANCH   1  12
ATOM     12  C   UNL     1      44.436 131.332  16.631  1.00  0.00     0.137 A 
ATOM     13  C   UNL     1      44.516 129.994  16.215  1.00  0.00     0.069 A 
ATOM     14  C   UNL     1      45.344 132.264  16.104  1.00  0.00     0.108 A 
ATOM     15  C   UNL     1      45.489 129.595  15.297  1.00  0.00     0.021 A 
ATOM     16  C   UNL     1      46.320 131.869  15.184  1.00  0.00     0.139 A 
ATOM     17  C   UNL     1      46.410 130.520  14.772  1.00  0.00     0.053 A 
ATOM     18  F   UNL     1      47.147 132.821  14.685  1.00  0.00    -0.206 F 
BRANCH  17  19
ATOM     19  C   UNL     1      47.435 130.051  13.799  1.00  0.00     0.162 C 
ATOM     20  O   UNL     1      48.001 128.939  13.983  1.00  0.00    -0.294 OA
ATOM     21  C   UNL     1      47.823 130.848  12.590  1.00  0.00     0.093 C 
ENDBRANCH  17  19
ENDBRANCH   1  12
TORSDOF 4
ENDMDL
MODEL 3
REMARK VINA RESULT:      -8.3      3.382      6.234
REMARK SMILES [H]/N=c1\[n-]cccc1[NH2+]c1ccc(C(C)=O)c(F)c1
REMARK SMILES IDX 9 1 8 4 3 5 4 6 5 7 7 8 6 9 2 10 1 11 10 12 11 13 19 14
REMARK SMILES IDX 12 15 17 16 13 17 18 18 14 19 16 20 15 21
REMARK H PARENT 9 2 9 3
ROOT
ATOM      1  N   UNL     1      44.232 131.157  15.549  1.00  0.00    -0.282 N 
ATOM      2  H   UNL     1      43.483 130.468  15.304  1.00  0.00     0.358 HD
ATOM      3  H   UNL     1      43.912 132.081  15.179  1.00  0.00     0.358 HD
ENDROOT
BRANCH   1   4
ATOM      4  C   UNL     1      45.482 130.769  14.936  1.00  0.00     0.133 A 
ATOM      5  C   UNL     1      45.907 129.421  14.902  1.00  0.00    -0.002 A 
ATOM      6  N   UNL     1      47.079 129.094  14.289  1.00  0.00    -0.438 NA
ATOM      7  C   UNL     1      47.868 130.027  13.695  1.00  0.00    -0.022 A 
ATOM      8  C   UNL     1      46.293 131.738  14.319  1.00  0.00     0.067 A 
ATOM      9  C   UNL     1      47.487 131.368  13.700  1.00  0.00     0.002 A 
BRANCH   5  10
ATOM     10  N   UNL     1      45.195 128.489  15.452  1.00  0.00    -0.477 NA
ATOM     11  H   UNL     1      44.513 127.923  14.900  1.00  0.00     0.020 HD
ENDBRANCH   5  10
ENDBRANCH   1   4
BRANCH   1  12
ATOM     12  C   UNL     1      44.385 131.212  16.983  1.00  0.00     0.137 A 
ATOM     13  C   UNL     1      45.547 130.713  17.592  1.00  0.00     0.069 A 
ATOM     14  C   UNL     1      43.393 131.795  17.788  1.00  0.00     0.108 A 
ATOM     15  C   UNL     1      45.710 130.787  18.977  1.00  0.00     0.021 A 
ATOM     16  C   UNL     1      43.551 131.871  19.175  1.00  0.00     0.139 A 
ATOM     17  C   UNL     1      44.715 131.360  19.791  1.00  0.00     0.053 A 
ATOM     18  F   UNL     1      42.573 132.476  19.895  1.00  0.00    -0.206 F 
BRANCH  17  19
ATOM     19  C   UNL     1      44.927 131.414  21.264  1.00  0.00     0.162 C 
ATOM     20  O   UNL     1      45.678 132.303  21.750  1.00  0.00    -0.294 OA
ATOM     21  C   UNL     1      44.273 130.451  22.209  1.00  0.00     0.093 C 
ENDBRANCH  17  19
ENDBRANCH   1  12
TORSDOF 4
ENDMDL
MODEL 4
REMARK VINA RESULT:      -8.1      3.237      6.132
REMARK SMILES [H]/N=c1\[n-]cccc1[NH2+]c1ccc(C(C)=O)c(F)c1
REMARK SMILES IDX 9 1 8 4 3 5 4 6 5 7 7 8 6 9 2 10 1 11 10 12 11 13 19 14
REMARK SMILES IDX 12 15 17 16 13 17 18 18 14 19 16 20 15 21
REMARK H PARENT 9 2 9 3
ROOT
ATOM      1  N   UNL     1      44.206 131.109  15.229  1.00  0.00    -0.282 N 
ATOM      2  H   UNL     1      43.485 130.397  14.966  1.00  0.00     0.358 HD
ATOM      3  H   UNL     1      43.908 132.006  14.783  1.00  0.00     0.358 HD
ENDROOT
BRANCH   1   4
ATOM      4  C   UNL     1      45.504 130.703  14.739  1.00  0.00     0.133 A 
ATOM      5  C   UNL     1      45.956 129.368  14.847  1.00  0.00    -0.002 A 
ATOM      6  N   UNL     1      47.175 129.022  14.346  1.00  0.00    -0.438 NA
ATOM      7  C   UNL     1      47.986 129.922  13.732  1.00  0.00    -0.022 A 
ATOM      8  C   UNL     1      46.337 131.638  14.100  1.00  0.00     0.067 A 
ATOM      9  C   UNL     1      47.579 131.249  13.598  1.00  0.00     0.002 A 
BRANCH   5  10
ATOM     10  N   UNL     1      45.225 128.467  15.423  1.00  0.00    -0.477 NA
ATOM     11  H   UNL     1      45.478 127.455  15.393  1.00  0.00     0.020 HD
ENDBRANCH   5  10
ENDBRANCH   1   4
BRANCH   1  12
ATOM     12  C   UNL     1      44.246 131.246  16.665  1.00  0.00     0.137 A 
ATOM     13  C   UNL     1      43.137 131.754  17.360  1.00  0.00     0.069 A 
ATOM     14  C   UNL     1      45.378 130.844  17.392  1.00  0.00     0.108 A 
ATOM     15  C   UNL     1      43.163 131.865  18.752  1.00  0.00     0.021 A 
ATOM     16  C   UNL     1      45.409 130.954  18.786  1.00  0.00     0.139 A 
ATOM     17  C   UNL     1      44.298 131.475  19.487  1.00  0.00     0.053 A 
ATOM     18  F   UNL     1      46.517 130.517  19.435  1.00  0.00    -0.206 F 
BRANCH  17  19
ATOM     19  C   UNL     1      44.285 131.615  20.969  1.00  0.00     0.162 C 
ATOM     20  O   UNL     1      45.320 132.024  21.562  1.00  0.00    -0.294 OA
ATOM     21  C   UNL     1      43.078 131.294  21.798  1.00  0.00     0.093 C 
ENDBRANCH  17  19
ENDBRANCH   1  12
TORSDOF 4
ENDMDL
MODEL 5
REMARK VINA RESULT:      -8.0      3.555      6.148
REMARK SMILES [H]/N=c1\[n-]cccc1[NH2+]c1ccc(C(C)=O)c(F)c1
REMARK SMILES IDX 9 1 8 4 3 5 4 6 5 7 7 8 6 9 2 10 1 11 10 12 11 13 19 14
REMARK SMILES IDX 12 15 17 16 13 17 18 18 14 19 16 20 15 21
REMARK H PARENT 9 2 9 3
ROOT
ATOM      1  N   UNL     1      44.516 131.612  14.874  1.00  0.00    -0.282 N 
ATOM      2  H   UNL     1      43.689 131.166  14.414  1.00  0.00     0.358 HD
ATOM      3  H   UNL     1      44.558 132.593  14.512  1.00  0.00     0.358 HD
ENDROOT
BRANCH   1   4
ATOM      4  C   UNL     1      45.723 130.893  14.533  1.00  0.00     0.133 A 
ATOM      5  C   UNL     1      45.892 129.527  14.860  1.00  0.00    -0.002 A 
ATOM      6  N   UNL     1      47.033 128.879  14.494  1.00  0.00    -0.438 NA
ATOM      7  C   UNL     1      48.030 129.500  13.813  1.00  0.00    -0.022 A 
ATOM      8  C   UNL     1      46.750 131.539  13.823  1.00  0.00     0.067 A 
ATOM      9  C   UNL     1      47.905 130.844  13.464  1.00  0.00     0.002 A 
BRANCH   5  10
ATOM     10  N   UNL     1      44.974 128.885  15.509  1.00  0.00    -0.477 NA
ATOM     11  H   UNL     1      45.210 128.118  16.177  1.00  0.00     0.020 HD
ENDBRANCH   5  10
ENDBRANCH   1   4
BRANCH   1  12
ATOM     12  C   UNL     1      44.331 131.608  16.306  1.00  0.00     0.137 A 
ATOM     13  C   UNL     1      45.440 131.549  17.164  1.00  0.00     0.069 A 
ATOM     14  C   UNL     1      43.045 131.697  16.862  1.00  0.00     0.108 A 
ATOM     15  C   UNL     1      45.266 131.570  18.549  1.00  0.00     0.021 A 
ATOM     16  C   UNL     1      42.866 131.719  18.248  1.00  0.00     0.139 A 
ATOM     17  C   UNL     1      43.980 131.648  19.115  1.00  0.00     0.053 A 
ATOM     18  F   UNL     1      41.602 131.840  18.725  1.00  0.00    -0.206 F 
BRANCH  17  19
ATOM     19  C   UNL     1      43.840 131.663  20.597  1.00  0.00     0.162 C 
ATOM     20  O   UNL     1      42.835 132.219  21.119  1.00  0.00    -0.294 OA
ATOM     21  C   UNL     1      44.849 131.032  21.508  1.00  0.00     0.093 C 
ENDBRANCH  17  19
ENDBRANCH   1  12
TORSDOF 4
ENDMDL
MODEL 6
REMARK VINA RESULT:      -8.0      3.227      6.258
REMARK SMILES [H]/N=c1\[n-]cccc1[NH2+]c1ccc(C(C)=O)c(F)c1
REMARK SMILES IDX 9 1 8 4 3 5 4 6 5 7 7 8 6 9 2 10 1 11 10 12 11 13 19 14
REMARK SMILES IDX 12 15 17 16 13 17 18 18 14 19 16 20 15 21
REMARK H PARENT 9 2 9 3
ROOT
ATOM      1  N   UNL     1      43.836 131.930  16.478  1.00  0.00    -0.282 N 
ATOM      2  H   UNL     1      42.888 131.685  16.108  1.00  0.00     0.358 HD
ATOM      3  H   UNL     1      43.989 132.939  16.247  1.00  0.00     0.358 HD
ENDROOT
BRANCH   1   4
ATOM      4  C   UNL     1      44.842 131.106  15.847  1.00  0.00     0.133 A 
ATOM      5  C   UNL     1      46.025 131.660  15.305  1.00  0.00    -0.002 A 
ATOM      6  N   UNL     1      46.961 130.845  14.744  1.00  0.00    -0.438 NA
ATOM      7  C   UNL     1      46.804 129.497  14.687  1.00  0.00    -0.022 A 
ATOM      8  C   UNL     1      44.677 129.711  15.795  1.00  0.00     0.067 A 
ATOM      9  C   UNL     1      45.656 128.905  15.214  1.00  0.00     0.002 A 
BRANCH   5  10
ATOM     10  N   UNL     1      46.227 132.939  15.331  1.00  0.00    -0.477 NA
ATOM     11  H   UNL     1      45.765 133.581  14.649  1.00  0.00     0.020 HD
ENDBRANCH   5  10
ENDBRANCH   1   4
BRANCH   1  12
ATOM     12  C   UNL     1      43.863 131.729  17.907  1.00  0.00     0.137 A 
ATOM     13  C   UNL     1      42.684 131.838  18.661  1.00  0.00     0.069 A 
ATOM     14  C   UNL     1      45.058 131.388  18.560  1.00  0.00     0.108 A 
ATOM     15  C   UNL     1      42.701 131.620  20.040  1.00  0.00     0.021 A 
ATOM     16  C   UNL     1      45.081 131.168  19.941  1.00  0.00     0.139 A 
ATOM     17  C   UNL     1      43.897 131.288  20.703  1.00  0.00     0.053 A 
ATOM     18  F   UNL     1      46.259 130.808  20.509  1.00  0.00    -0.206 F 
BRANCH  17  19
ATOM     19  C   UNL     1      43.872 131.069  22.176  1.00  0.00     0.162 C 
ATOM     20  O   UNL     1      44.562 130.139  22.676  1.00  0.00    -0.294 OA
ATOM     21  C   UNL     1      43.057 131.919  23.104  1.00  0.00     0.093 C 
ENDBRANCH  17  19
ENDBRANCH   1  12
TORSDOF 4
ENDMDL
MODEL 7
REMARK VINA RESULT:      -7.9      1.051      1.073
REMARK SMILES [H]/N=c1\[n-]cccc1[NH2+]c1ccc(C(C)=O)c(F)c1
REMARK SMILES IDX 9 1 8 4 3 5 4 6 5 7 7 8 6 9 2 10 1 11 10 12 11 13 19 14
REMARK SMILES IDX 12 15 17 16 13 17 18 18 14 19 16 20 15 21
REMARK H PARENT 9 2 9 3
ROOT
ATOM      1  N   UNL     1      43.162 131.818  17.251  1.00  0.00    -0.282 N 
ATOM      2  H   UNL     1      42.879 132.794  17.004  1.00  0.00     0.358 HD
ATOM      3  H   UNL     1      42.312 131.224  17.116  1.00  0.00     0.358 HD
ENDROOT
BRANCH   1   4
ATOM      4  C   UNL     1      43.607 131.763  18.625  1.00  0.00     0.133 A 
ATOM      5  C   UNL     1      42.834 132.303  19.679  1.00  0.00    -0.002 A 
ATOM      6  N   UNL     1      43.277 132.206  20.964  1.00  0.00    -0.438 NA
ATOM      7  C   UNL     1      44.449 131.597  21.279  1.00  0.00    -0.022 A 
ATOM      8  C   UNL     1      44.819 131.128  18.947  1.00  0.00     0.067 A 
ATOM      9  C   UNL     1      45.242 131.046  20.274  1.00  0.00     0.002 A 
BRANCH   5  10
ATOM     10  N   UNL     1      41.708 132.895  19.436  1.00  0.00    -0.477 NA
ATOM     11  H   UNL     1      41.175 133.387  20.187  1.00  0.00     0.020 HD
ENDBRANCH   5  10
ENDBRANCH   1   4
BRANCH   1  12
ATOM     12  C   UNL     1      44.225 131.387  16.374  1.00  0.00     0.137 A 
ATOM     13  C   UNL     1      44.189 131.704  15.008  1.00  0.00     0.069 A 
ATOM     14  C   UNL     1      45.324 130.674  16.878  1.00  0.00     0.108 A 
ATOM     15  C   UNL     1      45.228 131.310  14.161  1.00  0.00     0.021 A 
ATOM     16  C   UNL     1      46.367 130.278  16.035  1.00  0.00     0.139 A 
ATOM     17  C   UNL     1      46.328 130.587  14.657  1.00  0.00     0.053 A 
ATOM     18  F   UNL     1      47.418 129.622  16.587  1.00  0.00    -0.206 F 
BRANCH  17  19
ATOM     19  C   UNL     1      47.411 130.182  13.718  1.00  0.00     0.162 C 
ATOM     20  O   UNL     1      47.952 129.051  13.846  1.00  0.00    -0.294 OA
ATOM     21  C   UNL     1      47.889 131.070  12.609  1.00  0.00     0.093 C 
ENDBRANCH  17  19
ENDBRANCH   1  12
TORSDOF 4
ENDMDL
MODEL 8
REMARK VINA RESULT:      -7.8      1.190      1.285
REMARK SMILES [H]/N=c1\[n-]cccc1[NH2+]c1ccc(C(C)=O)c(F)c1
REMARK SMILES IDX 9 1 8 4 3 5 4 6 5 7 7 8 6 9 2 10 1 11 10 12 11 13 19 14
REMARK SMILES IDX 12 15 17 16 13 17 18 18 14 19 16 20 15 21
REMARK H PARENT 9 2 9 3
ROOT
ATOM      1  N   UNL     1      43.171 132.020  17.961  1.00  0.00    -0.282 N 
ATOM      2  H   UNL     1      43.001 133.046  17.848  1.00  0.00     0.358 HD
ATOM      3  H   UNL     1      42.250 131.551  17.798  1.00  0.00     0.358 HD
ENDROOT
BRANCH   1   4
ATOM      4  C   UNL     1      43.654 131.742  19.294  1.00  0.00     0.133 A 
ATOM      5  C   UNL     1      42.893 132.061  20.443  1.00  0.00    -0.002 A 
ATOM      6  N   UNL     1      43.373 131.756  21.681  1.00  0.00    -0.438 NA
ATOM      7  C   UNL     1      44.572 131.143  21.859  1.00  0.00    -0.022 A 
ATOM      8  C   UNL     1      44.893 131.103  19.474  1.00  0.00     0.067 A 
ATOM      9  C   UNL     1      45.354 130.805  20.756  1.00  0.00     0.002 A 
BRANCH   5  10
ATOM     10  N   UNL     1      41.743 132.646  20.332  1.00  0.00    -0.477 NA
ATOM     11  H   UNL     1      41.187 132.925  21.170  1.00  0.00     0.020 HD
ENDBRANCH   5  10
ENDBRANCH   1   4
BRANCH   1  12
ATOM     12  C   UNL     1      44.141 131.581  16.986  1.00  0.00     0.137 A 
ATOM     13  C   UNL     1      45.389 131.091  17.399  1.00  0.00     0.069 A 
ATOM     14  C   UNL     1      43.840 131.607  15.615  1.00  0.00     0.108 A 
ATOM     15  C   UNL     1      46.320 130.643  16.460  1.00  0.00     0.021 A 
ATOM     16  C   UNL     1      44.769 131.159  14.671  1.00  0.00     0.139 A 
ATOM     17  C   UNL     1      46.031 130.675  15.083  1.00  0.00     0.053 A 
ATOM     18  F   UNL     1      44.407 131.177  13.363  1.00  0.00    -0.206 F 
BRANCH  17  19
ATOM     19  C   UNL     1      47.054 130.191  14.116  1.00  0.00     0.162 C 
ATOM     20  O   UNL     1      47.487 129.011  14.210  1.00  0.00    -0.294 OA
ATOM     21  C   UNL     1      47.596 131.055  13.017  1.00  0.00     0.093 C 
ENDBRANCH  17  19
ENDBRANCH   1  12
TORSDOF 4
ENDMDL
MODEL 9
REMARK VINA RESULT:      -7.8      3.541      6.383
REMARK SMILES [H]/N=c1\[n-]cccc1[NH2+]c1ccc(C(C)=O)c(F)c1
REMARK SMILES IDX 9 1 8 4 3 5 4 6 5 7 7 8 6 9 2 10 1 11 10 12 11 13 19 14
REMARK SMILES IDX 12 15 17 16 13 17 18 18 14 19 16 20 15 21
REMARK H PARENT 9 2 9 3
ROOT
ATOM      1  N   UNL     1      43.973 131.971  16.717  1.00  0.00    -0.282 N 
ATOM      2  H   UNL     1      42.997 131.802  16.378  1.00  0.00     0.358 HD
ATOM      3  H   UNL     1      44.173 132.983  16.540  1.00  0.00     0.358 HD
ENDROOT
BRANCH   1   4
ATOM      4  C   UNL     1      44.902 131.135  15.989  1.00  0.00     0.133 A 
ATOM      5  C   UNL     1      46.043 131.673  15.351  1.00  0.00    -0.002 A 
ATOM      6  N   UNL     1      46.908 130.846  14.700  1.00  0.00    -0.438 NA
ATOM      7  C   UNL     1      46.717 129.502  14.641  1.00  0.00    -0.022 A 
ATOM      8  C   UNL     1      44.702 129.745  15.936  1.00  0.00     0.067 A 
ATOM      9  C   UNL     1      45.609 128.927  15.260  1.00  0.00     0.002 A 
BRANCH   5  10
ATOM     10  N   UNL     1      46.275 132.946  15.374  1.00  0.00    -0.477 NA
ATOM     11  H   UNL     1      47.245 133.325  15.453  1.00  0.00     0.020 HD
ENDBRANCH   5  10
ENDBRANCH   1   4
BRANCH   1  12
ATOM     12  C   UNL     1      44.052 131.679  18.128  1.00  0.00     0.137 A 
ATOM     13  C   UNL     1      45.203 131.083  18.666  1.00  0.00     0.069 A 
ATOM     14  C   UNL     1      42.995 132.015  18.989  1.00  0.00     0.108 A 
ATOM     15  C   UNL     1      45.293 130.821  20.034  1.00  0.00     0.021 A 
ATOM     16  C   UNL     1      43.080 131.755  20.360  1.00  0.00     0.139 A 
ATOM     17  C   UNL     1      44.233 131.145  20.902  1.00  0.00     0.053 A 
ATOM     18  F   UNL     1      42.040 132.133  21.146  1.00  0.00    -0.206 F 
BRANCH  17  19
ATOM     19  C   UNL     1      44.369 130.845  22.355  1.00  0.00     0.162 C 
ATOM     20  O   UNL     1      44.343 131.790  23.188  1.00  0.00    -0.294 OA
ATOM     21  C   UNL     1      44.529 129.449  22.877  1.00  0.00     0.093 C 
ENDBRANCH  17  19
ENDBRANCH   1  12
TORSDOF 4
ENDMDL


