REMARK SMILES Nc1cc(F)c(-c2cnc3c(c2)C(=O)[N-]C3)cc1C=O
REMARK SMILES IDX 2 1 3 2 4 3 5 4 6 5 17 6 18 7 1 8 19 11 20 12 7 13 8 14
REMARK SMILES IDX 12 15 9 16 11 17 10 18 13 19 16 20 15 21 14 22
REMARK H PARENT 1 9 1 10
ROOT
ATOM      1  C   UNL     1      -2.621  -1.392   0.898  1.00  0.00     0.045 A 
ATOM      2  C   UNL     1      -3.074  -0.145   0.442  1.00  0.00     0.066 A 
ATOM      3  C   UNL     1      -2.182   0.902   0.211  1.00  0.00     0.133 A 
ATOM      4  F   UNL     1      -2.659   2.075  -0.279  1.00  0.00    -0.206 F 
ATOM      5  C   UNL     1      -0.807   0.722   0.433  1.00  0.00     0.020 A 
ATOM      6  C   UNL     1      -0.348  -0.520   0.901  1.00  0.00     0.025 A 
ATOM      7  C   UNL     1      -1.240  -1.575   1.161  1.00  0.00     0.038 A 
ENDROOT
BRANCH   1   8
ATOM      8  N   UNL     1      -3.570  -2.460   1.023  1.00  0.00    -0.398 N 
ATOM      9  H   UNL     1      -4.595  -2.264   0.965  1.00  0.00     0.156 HD
ATOM     10  H   UNL     1      -3.281  -3.461   1.014  1.00  0.00     0.156 HD
ENDBRANCH   1   8
BRANCH   7  11
ATOM     11  C   UNL     1      -0.680  -2.816   1.740  1.00  0.00     0.262 C 
ATOM     12  O   UNL     1      -1.376  -3.588   2.450  1.00  0.00    -0.298 OA
ENDBRANCH   7  11
BRANCH   5  13
ATOM     13  C   UNL     1       0.158   1.820   0.185  1.00  0.00     0.004 A 
ATOM     14  C   UNL     1      -0.095   3.132   0.664  1.00  0.00     0.120 A 
ATOM     15  C   UNL     1       1.357   1.573  -0.517  1.00  0.00     0.022 A 
ATOM     16  N   UNL     1       0.799   4.141   0.442  1.00  0.00    -0.262 NA
ATOM     17  C   UNL     1       2.228   2.638  -0.715  1.00  0.00     0.020 A 
ATOM     18  C   UNL     1       1.942   3.889  -0.242  1.00  0.00     0.032 A 
ATOM     19  C   UNL     1       3.501   2.724  -1.380  1.00  0.00     0.084 C 
ATOM     20  C   UNL     1       3.029   4.864  -0.578  1.00  0.00    -0.059 C 
ATOM     21  N   UNL     1       4.008   4.054  -1.313  1.00  0.00    -0.644 NA
ATOM     22  O   UNL     1       4.100   1.773  -1.946  1.00  0.00    -0.315 OA
ENDBRANCH   5  13
TORSDOF 3


