REMARK SMILES [H]/N=c1\[n-]cccc1Nc1ccc2c(nnn2C)c1C=C
REMARK SMILES IDX 9 1 8 3 3 4 4 5 5 6 7 7 6 8 2 9 1 10 10 11 11 12 19 13 12 14
REMARK SMILES IDX 14 15 13 16 15 17 17 18 16 19 18 20 20 21 21 22
REMARK H PARENT 9 2
ROOT
ATOM      1  N   UNL     1      -0.506  -0.495  -1.476  1.00  0.00    -0.355 N 
ATOM      2  H   UNL     1      -0.811  -1.468  -1.706  1.00  0.00     0.167 HD
ENDROOT
BRANCH   1   3
ATOM      3  C   UNL     1      -0.830   0.564  -2.401  1.00  0.00     0.037 A 
ATOM      4  C   UNL     1      -0.989   0.292  -3.775  1.00  0.00    -0.041 A 
ATOM      5  N   UNL     1      -1.305   1.299  -4.635  1.00  0.00    -0.441 NA
ATOM      6  C   UNL     1      -1.483   2.578  -4.212  1.00  0.00    -0.022 A 
ATOM      7  C   UNL     1      -1.024   1.883  -1.954  1.00  0.00     0.025 A 
ATOM      8  C   UNL     1      -1.346   2.892  -2.861  1.00  0.00    -0.002 A 
BRANCH   4   9
ATOM      9  N   UNL     1      -0.823  -0.909  -4.230  1.00  0.00    -0.480 NA
ATOM     10  H   UNL     1      -0.931  -1.130  -5.245  1.00  0.00     0.020 HD
ENDBRANCH   4   9
ENDBRANCH   1   3
BRANCH   1  11
ATOM     11  C   UNL     1       0.061  -0.272  -0.175  1.00  0.00     0.048 A 
ATOM     12  C   UNL     1      -0.588  -0.843   0.951  1.00  0.00     0.029 A 
ATOM     13  C   UNL     1       1.256   0.488  -0.004  1.00  0.00     0.027 A 
ATOM     14  C   UNL     1      -0.089  -0.649   2.249  1.00  0.00     0.032 A 
ATOM     15  C   UNL     1       1.714   0.652   1.313  1.00  0.00     0.122 A 
ATOM     16  C   UNL     1       1.065   0.115   2.381  1.00  0.00     0.089 A 
ATOM     17  N   UNL     1       2.838   1.252   1.755  1.00  0.00    -0.130 NA
ATOM     18  N   UNL     1       1.781   0.407   3.477  1.00  0.00    -0.248 N 
ATOM     19  N   UNL     1       2.850   1.086   3.077  1.00  0.00    -0.066 NA
ATOM     20  C   UNL     1       1.526  -0.008   4.850  1.00  0.00     0.176 C 
BRANCH  13  21
ATOM     21  C   UNL     1       2.020   0.988  -1.171  1.00  0.00     0.005 C 
ATOM     22  C   UNL     1       2.673   2.149  -1.170  1.00  0.00     0.009 C 
ENDBRANCH  13  21
ENDBRANCH   1  11
TORSDOF 4


