REMARK SMILES O/C=C(/O)Oc1[nH+]ccc2ccc(-c3cccc([C@H]4CO4)c3)cc12
REMARK SMILES IDX 3 1 2 2 1 3 4 5 5 7 6 8 24 9 7 10 23 11 10 12 8 13 13 14
REMARK SMILES IDX 11 15 9 16 12 17 14 19 15 20 22 21 16 22 18 23 17 24 19 25
REMARK SMILES IDX 21 26 20 27
REMARK H PARENT 1 4 4 6 7 18
ROOT
ATOM      1  C   UNL     1      -0.576   5.190   0.095  1.00  0.00     0.322 C 
ENDROOT
BRANCH   1   2
ATOM      2  C   UNL     1      -0.167   5.815   1.194  1.00  0.00     0.272 C 
BRANCH   2   3
ATOM      3  O   UNL     1      -0.129   5.146   2.413  1.00  0.00    -0.508 OA
ATOM      4  H   UNL     1       0.182   5.625   3.250  1.00  0.00     0.293 HD
ENDBRANCH   2   3
ENDBRANCH   1   2
BRANCH   1   5
ATOM      5  O   UNL     1      -0.581   5.881  -1.117  1.00  0.00    -0.478 OA
ATOM      6  H   UNL     1      -0.775   5.417  -1.995  1.00  0.00     0.297 HD
ENDBRANCH   1   5
BRANCH   1   7
ATOM      7  O   UNL     1      -0.947   3.841   0.165  1.00  0.00    -0.368 OA
BRANCH   7   8
ATOM      8  C   UNL     1      -1.815   3.205  -0.735  1.00  0.00     0.382 A 
ATOM      9  C   UNL     1      -1.650   1.834  -1.011  1.00  0.00     0.095 A 
ATOM     10  N   UNL     1      -2.845   3.893  -1.313  1.00  0.00    -0.179 N 
ATOM     11  C   UNL     1      -0.616   1.084  -0.422  1.00  0.00     0.028 A 
ATOM     12  C   UNL     1      -2.539   1.204  -1.912  1.00  0.00    -0.002 A 
ATOM     13  C   UNL     1      -3.706   3.298  -2.182  1.00  0.00     0.310 A 
ATOM     14  C   UNL     1      -0.463  -0.283  -0.718  1.00  0.00    -0.017 A 
ATOM     15  C   UNL     1      -2.384  -0.157  -2.207  1.00  0.00     0.010 A 
ATOM     16  C   UNL     1      -3.568   1.948  -2.500  1.00  0.00     0.079 A 
ATOM     17  C   UNL     1      -1.356  -0.893  -1.616  1.00  0.00     0.009 A 
ATOM     18  H   UNL     1      -3.005   4.896  -1.073  1.00  0.00     0.457 HD
BRANCH  14  19
ATOM     19  C   UNL     1       0.629  -1.072  -0.091  1.00  0.00    -0.018 A 
ATOM     20  C   UNL     1       0.948  -0.896   1.268  1.00  0.00     0.009 A 
ATOM     21  C   UNL     1       1.362  -2.004  -0.849  1.00  0.00     0.015 A 
ATOM     22  C   UNL     1       1.980  -1.633   1.853  1.00  0.00     0.001 A 
ATOM     23  C   UNL     1       2.387  -2.758  -0.256  1.00  0.00    -0.016 A 
ATOM     24  C   UNL     1       2.702  -2.556   1.095  1.00  0.00     0.006 A 
BRANCH  23  25
ATOM     25  C   UNL     1       3.190  -3.723  -1.078  1.00  0.00     0.174 C 
ATOM     26  O   UNL     1       2.364  -4.622  -1.782  1.00  0.00    -0.368 OA
ATOM     27  C   UNL     1       3.085  -5.150  -0.694  1.00  0.00     0.198 C 
ENDBRANCH  23  25
ENDBRANCH  14  19
ENDBRANCH   7   8
ENDBRANCH   1   7
TORSDOF 7


