REMARK SMILES C=C[C@H]1CC[C@H](c2cccc3ccoc23)N(C(=O)[C@@H](C)c2[nH]cc[nH+]2)C1
REMARK SMILES IDX 17 1 18 2 16 3 3 4 4 5 26 6 5 7 6 8 2 9 1 10 7 11 8 12 15 13
REMARK SMILES IDX 9 14 14 15 11 16 10 17 13 18 12 19 19 20 20 21 21 22 22 23
REMARK SMILES IDX 25 24 23 25 24 26
REMARK H PARENT 22 27 25 28
ROOT
ATOM      1  C   UNL     1      -0.830   0.419   0.918  1.00  0.00     0.238 C 
ATOM      2  O   UNL     1      -0.470   0.888   2.035  1.00  0.00    -0.274 OA
ENDROOT
BRANCH   1   3
ATOM      3  N   UNL     1      -0.909  -1.016   0.748  1.00  0.00    -0.334 N 
ATOM      4  C   UNL     1      -1.647  -3.238   1.702  1.00  0.00     0.031 C 
ATOM      5  C   UNL     1      -0.772  -3.883   0.625  1.00  0.00     0.012 C 
ATOM      6  C   UNL     1      -1.170  -1.806   1.972  1.00  0.00     0.127 C 
ATOM      7  C   UNL     1      -0.896  -3.118  -0.687  1.00  0.00     0.031 C 
ATOM      8  C   UNL     1      -0.515  -1.628  -0.549  1.00  0.00     0.119 C 
BRANCH   4   9
ATOM      9  C   UNL     1      -3.119  -3.268   1.339  1.00  0.00    -0.030 C 
ATOM     10  C   UNL     1      -3.813  -4.410   1.323  1.00  0.00     0.004 C 
ENDBRANCH   4   9
BRANCH   8  11
ATOM     11  C   UNL     1       0.959  -1.423  -0.868  1.00  0.00     0.018 A 
ATOM     12  C   UNL     1       1.371  -1.320  -2.219  1.00  0.00     0.010 A 
ATOM     13  C   UNL     1       1.972  -1.373   0.104  1.00  0.00     0.139 A 
ATOM     14  C   UNL     1       2.730  -1.140  -2.555  1.00  0.00     0.001 A 
ATOM     15  O   UNL     1       1.855  -1.469   1.405  1.00  0.00    -0.464 OA
ATOM     16  C   UNL     1       3.289  -1.197  -0.232  1.00  0.00     0.021 A 
ATOM     17  C   UNL     1       3.708  -1.072  -1.551  1.00  0.00     0.012 A 
ATOM     18  C   UNL     1       3.059  -1.358   1.935  1.00  0.00     0.196 A 
ATOM     19  C   UNL     1       4.010  -1.181   0.938  1.00  0.00     0.050 A 
ENDBRANCH   8  11
ENDBRANCH   1   3
BRANCH   1  20
ATOM     20  C   UNL     1      -1.144   1.378  -0.211  1.00  0.00     0.189 C 
ATOM     21  C   UNL     1      -1.789   2.669   0.306  1.00  0.00     0.031 C 
BRANCH  20  22
ATOM     22  C   UNL     1       0.097   1.707  -0.996  1.00  0.00     0.264 A 
ATOM     23  N   UNL     1       1.282   2.042  -0.444  1.00  0.00    -0.247 N 
ATOM     24  N   UNL     1       0.134   1.763  -2.342  1.00  0.00    -0.247 N 
ATOM     25  C   UNL     1       2.099   2.301  -1.481  1.00  0.00     0.240 A 
ATOM     26  C   UNL     1       1.390   2.131  -2.651  1.00  0.00     0.240 A 
ATOM     27  H   UNL     1       1.523   2.093   0.570  1.00  0.00     0.311 HD
ATOM     28  H   UNL     1      -0.645   1.565  -3.008  1.00  0.00     0.311 HD
ENDBRANCH  20  22
ENDBRANCH   1  20
TORSDOF 5


