REMARK SMILES Cc1ccc(Nc2cc(F)c(C)cc2N=C=S)c(F)[nH+]1
REMARK SMILES IDX 8 1 9 2 10 3 11 4 12 5 13 6 14 7 7 8 6 9 5 11 4 12 18 13
REMARK SMILES IDX 3 14 20 15 2 16 19 17 1 19 15 20 16 21 17 22
REMARK H PARENT 6 10 20 18
ROOT
ATOM      1  C   UNL     1      -0.483   0.718   1.393  1.00  0.00     0.067 A 
ATOM      2  C   UNL     1      -0.780   1.579   2.451  1.00  0.00     0.128 A 
ATOM      3  F   UNL     1      -1.483   1.109   3.513  1.00  0.00    -0.207 F 
ATOM      4  C   UNL     1      -0.360   2.916   2.412  1.00  0.00    -0.013 A 
ATOM      5  C   UNL     1      -0.659   3.834   3.563  1.00  0.00     0.047 C 
ATOM      6  C   UNL     1       0.375   3.376   1.309  1.00  0.00     0.037 A 
ATOM      7  C   UNL     1       0.679   2.513   0.236  1.00  0.00     0.098 A 
ATOM      8  C   UNL     1       0.256   1.170   0.286  1.00  0.00     0.069 A 
ENDROOT
BRANCH   8   9
ATOM      9  N   UNL     1       0.535   0.285  -0.815  1.00  0.00    -0.346 N 
ATOM     10  H   UNL     1       0.529   0.683  -1.781  1.00  0.00     0.167 HD
BRANCH   9  11
ATOM     11  C   UNL     1       0.727  -1.133  -0.679  1.00  0.00     0.144 A 
ATOM     12  C   UNL     1       0.220  -1.994  -1.658  1.00  0.00     0.042 A 
ATOM     13  C   UNL     1       1.460  -1.683   0.389  1.00  0.00     0.381 A 
ATOM     14  C   UNL     1       0.410  -3.371  -1.548  1.00  0.00     0.076 A 
ATOM     15  N   UNL     1       1.635  -3.030   0.477  1.00  0.00    -0.182 N 
ATOM     16  C   UNL     1       1.138  -3.882  -0.466  1.00  0.00     0.179 A 
ATOM     17  F   UNL     1       2.029  -0.878   1.321  1.00  0.00    -0.134 F 
ATOM     18  H   UNL     1       2.174  -3.411   1.288  1.00  0.00     0.456 HD
ATOM     19  C   UNL     1       1.319  -5.364  -0.315  1.00  0.00     0.123 C 
ENDBRANCH   9  11
ENDBRANCH   8   9
BRANCH   7  20
ATOM     20  N   UNL     1       1.433   2.965  -0.903  1.00  0.00    -0.193 NA
BRANCH  20  21
ATOM     21  C   UNL     1       1.867   4.154  -1.047  1.00  0.00     0.064 C 
ATOM     22  S   UNL     1       2.415   5.658  -1.230  1.00  0.00    -0.006 S 
ENDBRANCH  20  21
ENDBRANCH   7  20
TORSDOF 4


