REMARK SMILES O=C1[N-]C[C@H](C(=O)[N@@H+]2CCC[C@@H](c3ccc4cc(F)ccc4n3)[C@H]2F)[N-]1
REMARK SMILES IDX 8 1 9 2 10 3 11 4 12 5 24 6 25 7 6 9 7 10 5 11 2 12 3 13
REMARK SMILES IDX 26 14 4 15 1 16 13 17 14 18 23 19 15 20 22 21 16 22 21 23
REMARK SMILES IDX 17 24 20 25 18 26 19 27
REMARK H PARENT 8 8
ROOT
ATOM      1  N   UNL     1       0.855  -2.192   0.704  1.00  0.00    -0.244 N 
ATOM      2  C   UNL     1       2.318  -2.095   0.520  1.00  0.00     0.272 C 
ATOM      3  C   UNL     1       2.813  -0.676   0.813  1.00  0.00     0.063 C 
ATOM      4  C   UNL     1       2.467  -0.281   2.249  1.00  0.00     0.025 C 
ATOM      5  C   UNL     1       0.966  -0.452   2.544  1.00  0.00     0.132 C 
ATOM      6  C   UNL     1       0.461  -1.851   2.096  1.00  0.00     0.383 C 
ATOM      7  F   UNL     1      -0.917  -1.910   2.237  1.00  0.00    -0.184 F 
ATOM      8  H   UNL     1       0.402  -1.526   0.041  1.00  0.00     0.359 HD
ENDROOT
BRANCH   1   9
ATOM      9  C   UNL     1       0.416  -3.533   0.356  1.00  0.00     0.298 C 
ATOM     10  O   UNL     1       0.712  -4.483   1.070  1.00  0.00    -0.232 OA
BRANCH   9  11
ATOM     11  C   UNL     1      -0.382  -3.792  -0.904  1.00  0.00     0.008 C 
ATOM     12  C   UNL     1      -0.596  -2.304  -2.647  1.00  0.00    -0.039 C 
ATOM     13  N   UNL     1      -1.840  -2.213  -1.991  1.00  0.00    -0.670 NA
ATOM     14  N   UNL     1       0.301  -3.216  -2.055  1.00  0.00    -0.657 NA
ATOM     15  C   UNL     1      -1.791  -3.138  -0.867  1.00  0.00    -0.121 C 
ATOM     16  O   UNL     1      -0.309  -1.625  -3.667  1.00  0.00    -0.341 OA
ENDBRANCH   9  11
ENDBRANCH   1   9
BRANCH   5  17
ATOM     17  C   UNL     1       0.158   0.709   1.990  1.00  0.00     0.053 A 
ATOM     18  C   UNL     1      -0.019   1.871   2.761  1.00  0.00     0.025 A 
ATOM     19  N   UNL     1      -0.348   0.667   0.726  1.00  0.00    -0.252 NA
ATOM     20  C   UNL     1      -0.731   2.951   2.235  1.00  0.00     0.012 A 
ATOM     21  C   UNL     1      -1.044   1.701   0.186  1.00  0.00     0.071 A 
ATOM     22  C   UNL     1      -1.254   2.877   0.939  1.00  0.00     0.003 A 
ATOM     23  C   UNL     1      -1.548   1.604  -1.115  1.00  0.00     0.032 A 
ATOM     24  C   UNL     1      -1.973   3.943   0.378  1.00  0.00     0.049 A 
ATOM     25  C   UNL     1      -2.264   2.671  -1.668  1.00  0.00     0.041 A 
ATOM     26  C   UNL     1      -2.476   3.837  -0.924  1.00  0.00     0.123 A 
ATOM     27  F   UNL     1      -3.171   4.867  -1.466  1.00  0.00    -0.207 F 
ENDBRANCH   5  17
TORSDOF 3


