MODEL 1
REMARK VINA RESULT:      -8.6      0.000      0.000
REMARK SMILES C=CC(=O)N1CCC[C@@H](c2ccc3ccc(C)c(F)c3n2)[C@@H]1F
REMARK SMILES IDX 5 1 6 2 7 3 8 4 9 5 22 6 23 7 3 8 4 9 2 10 1 11 10 12 11 13
REMARK SMILES IDX 21 14 12 15 20 16 13 17 18 18 14 19 16 20 15 21 19 22 17 23
REMARK H PARENT
ROOT
ATOM      1  N   UNL     1      43.513 130.256  22.629  1.00  0.00    -0.308 N 
ATOM      2  C   UNL     1      44.457 129.135  22.783  1.00  0.00     0.123 C 
ATOM      3  C   UNL     1      45.322 128.940  21.528  1.00  0.00     0.022 C 
ATOM      4  C   UNL     1      45.779 130.298  20.979  1.00  0.00     0.017 C 
ATOM      5  C   UNL     1      44.585 131.229  20.621  1.00  0.00     0.093 C 
ATOM      6  C   UNL     1      43.260 130.774  21.272  1.00  0.00     0.274 C 
ATOM      7  F   UNL     1      42.351 131.821  21.275  1.00  0.00    -0.223 F 
ENDROOT
BRANCH   1   8
ATOM      8  C   UNL     1      42.929 130.865  23.802  1.00  0.00     0.248 C 
ATOM      9  O   UNL     1      41.983 130.287  24.405  1.00  0.00    -0.270 OA
BRANCH   8  10
ATOM     10  C   UNL     1      43.416 132.171  24.298  1.00  0.00     0.063 C 
ATOM     11  C   UNL     1      44.702 132.400  24.562  1.00  0.00     0.014 C 
ENDBRANCH   8  10
ENDBRANCH   1   8
BRANCH   5  12
ATOM     12  C   UNL     1      44.409 131.341  19.124  1.00  0.00     0.049 A 
ATOM     13  C   UNL     1      43.252 131.917  18.576  1.00  0.00     0.025 A 
ATOM     14  N   UNL     1      45.370 130.846  18.293  1.00  0.00    -0.249 NA
ATOM     15  C   UNL     1      43.106 131.988  17.190  1.00  0.00     0.012 A 
ATOM     16  C   UNL     1      45.255 130.901  16.939  1.00  0.00     0.106 A 
ATOM     17  C   UNL     1      44.109 131.481  16.355  1.00  0.00     0.003 A 
ATOM     18  C   UNL     1      46.270 130.382  16.124  1.00  0.00     0.152 A 
ATOM     19  C   UNL     1      43.989 131.533  14.960  1.00  0.00     0.011 A 
ATOM     20  C   UNL     1      46.154 130.447  14.725  1.00  0.00    -0.013 A 
ATOM     21  C   UNL     1      45.004 131.015  14.150  1.00  0.00     0.007 A 
ATOM     22  F   UNL     1      47.366 129.817  16.694  1.00  0.00    -0.204 F 
ATOM     23  C   UNL     1      47.230 129.869  13.852  1.00  0.00     0.047 C 
ENDBRANCH   5  12
TORSDOF 3
ENDMDL
MODEL 2
REMARK VINA RESULT:      -8.2      0.771      1.185
REMARK SMILES C=CC(=O)N1CCC[C@@H](c2ccc3ccc(C)c(F)c3n2)[C@@H]1F
REMARK SMILES IDX 5 1 6 2 7 3 8 4 9 5 22 6 23 7 3 8 4 9 2 10 1 11 10 12 11 13
REMARK SMILES IDX 21 14 12 15 20 16 13 17 18 18 14 19 16 20 15 21 19 22 17 23
REMARK H PARENT
ROOT
ATOM      1  N   UNL     1      43.591 130.379  22.510  1.00  0.00    -0.308 N 
ATOM      2  C   UNL     1      44.556 129.279  22.680  1.00  0.00     0.123 C 
ATOM      3  C   UNL     1      45.410 129.067  21.420  1.00  0.00     0.022 C 
ATOM      4  C   UNL     1      45.837 130.420  20.833  1.00  0.00     0.017 C 
ATOM      5  C   UNL     1      44.624 131.321  20.467  1.00  0.00     0.093 C 
ATOM      6  C   UNL     1      43.314 130.859  21.144  1.00  0.00     0.274 C 
ATOM      7  F   UNL     1      42.387 131.891  21.131  1.00  0.00    -0.223 F 
ENDROOT
BRANCH   1   8
ATOM      8  C   UNL     1      43.010 131.006  23.674  1.00  0.00     0.248 C 
ATOM      9  O   UNL     1      43.214 132.231  23.896  1.00  0.00    -0.270 OA
BRANCH   8  10
ATOM     10  C   UNL     1      42.189 130.223  24.625  1.00  0.00     0.063 C 
ATOM     11  C   UNL     1      41.604 129.076  24.285  1.00  0.00     0.014 C 
ENDBRANCH   8  10
ENDBRANCH   1   8
BRANCH   5  12
ATOM     12  C   UNL     1      44.430 131.394  18.969  1.00  0.00     0.049 A 
ATOM     13  C   UNL     1      43.246 131.913  18.421  1.00  0.00     0.025 A 
ATOM     14  N   UNL     1      45.400 130.918  18.139  1.00  0.00    -0.249 NA
ATOM     15  C   UNL     1      43.084 131.948  17.035  1.00  0.00     0.012 A 
ATOM     16  C   UNL     1      45.271 130.939  16.785  1.00  0.00     0.106 A 
ATOM     17  C   UNL     1      44.098 131.461  16.201  1.00  0.00     0.003 A 
ATOM     18  C   UNL     1      46.297 130.442  15.972  1.00  0.00     0.152 A 
ATOM     19  C   UNL     1      43.962 131.478  14.807  1.00  0.00     0.011 A 
ATOM     20  C   UNL     1      46.165 130.471  14.572  1.00  0.00    -0.013 A 
ATOM     21  C   UNL     1      44.989 130.982  13.998  1.00  0.00     0.007 A 
ATOM     22  F   UNL     1      47.420 129.932  16.542  1.00  0.00    -0.204 F 
ATOM     23  C   UNL     1      47.255 129.917  13.701  1.00  0.00     0.047 C 
ENDBRANCH   5  12
TORSDOF 3
ENDMDL
MODEL 3
REMARK VINA RESULT:      -7.4      2.797      7.707
REMARK SMILES C=CC(=O)N1CCC[C@@H](c2ccc3ccc(C)c(F)c3n2)[C@@H]1F
REMARK SMILES IDX 5 1 6 2 7 3 8 4 9 5 22 6 23 7 3 8 4 9 2 10 1 11 10 12 11 13
REMARK SMILES IDX 21 14 12 15 20 16 13 17 18 18 14 19 16 20 15 21 19 22 17 23
REMARK H PARENT
ROOT
ATOM      1  N   UNL     1      45.818 130.231  15.170  1.00  0.00    -0.308 N 
ATOM      2  C   UNL     1      44.520 130.675  14.633  1.00  0.00     0.123 C 
ATOM      3  C   UNL     1      43.606 131.235  15.735  1.00  0.00     0.022 C 
ATOM      4  C   UNL     1      44.414 132.114  16.700  1.00  0.00     0.017 C 
ATOM      5  C   UNL     1      45.588 131.344  17.369  1.00  0.00     0.093 C 
ATOM      6  C   UNL     1      45.941 130.036  16.626  1.00  0.00     0.274 C 
ATOM      7  F   UNL     1      47.211 129.615  16.990  1.00  0.00    -0.223 F 
ENDROOT
BRANCH   1   8
ATOM      8  C   UNL     1      46.945 130.078  14.279  1.00  0.00     0.248 C 
ATOM      9  O   UNL     1      47.521 128.960  14.180  1.00  0.00    -0.270 OA
BRANCH   8  10
ATOM     10  C   UNL     1      47.446 131.225  13.491  1.00  0.00     0.063 C 
ATOM     11  C   UNL     1      47.903 131.092  12.246  1.00  0.00     0.014 C 
ENDBRANCH   8  10
ENDBRANCH   1   8
BRANCH   5  12
ATOM     12  C   UNL     1      45.288 131.045  18.820  1.00  0.00     0.049 A 
ATOM     13  C   UNL     1      46.051 130.108  19.535  1.00  0.00     0.025 A 
ATOM     14  N   UNL     1      44.241 131.665  19.434  1.00  0.00    -0.249 NA
ATOM     15  C   UNL     1      45.739 129.835  20.868  1.00  0.00     0.012 A 
ATOM     16  C   UNL     1      43.913 131.419  20.731  1.00  0.00     0.106 A 
ATOM     17  C   UNL     1      44.665 130.490  21.481  1.00  0.00     0.003 A 
ATOM     18  C   UNL     1      42.830 132.084  21.322  1.00  0.00     0.152 A 
ATOM     19  C   UNL     1      44.323 130.234  22.815  1.00  0.00     0.011 A 
ATOM     20  C   UNL     1      42.496 131.834  22.665  1.00  0.00    -0.013 A 
ATOM     21  C   UNL     1      43.242 130.899  23.402  1.00  0.00     0.007 A 
ATOM     22  F   UNL     1      42.105 132.970  20.591  1.00  0.00    -0.204 F 
ATOM     23  C   UNL     1      41.321 132.529  23.291  1.00  0.00     0.047 C 
ENDBRANCH   5  12
TORSDOF 3
ENDMDL
MODEL 4
REMARK VINA RESULT:      -7.0      0.914      1.001
REMARK SMILES C=CC(=O)N1CCC[C@@H](c2ccc3ccc(C)c(F)c3n2)[C@@H]1F
REMARK SMILES IDX 5 1 6 2 7 3 8 4 9 5 22 6 23 7 3 8 4 9 2 10 1 11 10 12 11 13
REMARK SMILES IDX 21 14 12 15 20 16 13 17 18 18 14 19 16 20 15 21 19 22 17 23
REMARK H PARENT
ROOT
ATOM      1  N   UNL     1      43.810 130.823  22.083  1.00  0.00    -0.308 N 
ATOM      2  C   UNL     1      44.351 129.484  22.374  1.00  0.00     0.123 C 
ATOM      3  C   UNL     1      45.107 128.898  21.170  1.00  0.00     0.022 C 
ATOM      4  C   UNL     1      45.969 129.981  20.506  1.00  0.00     0.017 C 
ATOM      5  C   UNL     1      45.131 131.199  20.024  1.00  0.00     0.093 C 
ATOM      6  C   UNL     1      43.731 131.253  20.675  1.00  0.00     0.274 C 
ATOM      7  F   UNL     1      43.201 132.528  20.548  1.00  0.00    -0.223 F 
ENDROOT
BRANCH   1   8
ATOM      8  C   UNL     1      43.451 131.701  23.173  1.00  0.00     0.248 C 
ATOM      9  O   UNL     1      42.236 131.929  23.422  1.00  0.00    -0.270 OA
BRANCH   8  10
ATOM     10  C   UNL     1      44.496 132.353  23.994  1.00  0.00     0.063 C 
ATOM     11  C   UNL     1      44.291 133.510  24.622  1.00  0.00     0.014 C 
ENDBRANCH   8  10
ENDBRANCH   1   8
BRANCH   5  12
ATOM     12  C   UNL     1      44.997 131.208  18.518  1.00  0.00     0.049 A 
ATOM     13  C   UNL     1      43.833 131.693  17.902  1.00  0.00     0.025 A 
ATOM     14  N   UNL     1      46.004 130.706  17.748  1.00  0.00    -0.249 NA
ATOM     15  C   UNL     1      43.727 131.670  16.510  1.00  0.00     0.012 A 
ATOM     16  C   UNL     1      45.929 130.670  16.390  1.00  0.00     0.106 A 
ATOM     17  C   UNL     1      44.777 131.158  15.738  1.00  0.00     0.003 A 
ATOM     18  C   UNL     1      46.991 130.149  15.640  1.00  0.00     0.152 A 
ATOM     19  C   UNL     1      44.698 131.116  14.340  1.00  0.00     0.011 A 
ATOM     20  C   UNL     1      46.916 130.119  14.237  1.00  0.00    -0.013 A 
ATOM     21  C   UNL     1      45.760 130.595  13.594  1.00  0.00     0.007 A 
ATOM     22  F   UNL     1      48.093 129.672  16.275  1.00  0.00    -0.204 F 
ATOM     23  C   UNL     1      48.043 129.538  13.433  1.00  0.00     0.047 C 
ENDBRANCH   5  12
TORSDOF 3
ENDMDL
MODEL 5
REMARK VINA RESULT:      -6.3      1.752      2.769
REMARK SMILES C=CC(=O)N1CCC[C@@H](c2ccc3ccc(C)c(F)c3n2)[C@@H]1F
REMARK SMILES IDX 5 1 6 2 7 3 8 4 9 5 22 6 23 7 3 8 4 9 2 10 1 11 10 12 11 13
REMARK SMILES IDX 21 14 12 15 20 16 13 17 18 18 14 19 16 20 15 21 19 22 17 23
REMARK H PARENT
ROOT
ATOM      1  N   UNL     1      43.762 131.924  20.965  1.00  0.00    -0.308 N 
ATOM      2  C   UNL     1      42.501 132.687  20.935  1.00  0.00     0.123 C 
ATOM      3  C   UNL     1      41.926 132.785  19.513  1.00  0.00     0.022 C 
ATOM      4  C   UNL     1      42.062 131.438  18.789  1.00  0.00     0.017 C 
ATOM      5  C   UNL     1      43.537 130.956  18.698  1.00  0.00     0.093 C 
ATOM      6  C   UNL     1      44.466 131.690  19.691  1.00  0.00     0.274 C 
ATOM      7  F   UNL     1      45.635 130.966  19.867  1.00  0.00    -0.223 F 
ENDROOT
BRANCH   1   8
ATOM      8  C   UNL     1      44.228 131.363  22.212  1.00  0.00     0.248 C 
ATOM      9  O   UNL     1      44.976 132.043  22.966  1.00  0.00    -0.270 OA
BRANCH   8  10
ATOM     10  C   UNL     1      43.852 129.989  22.610  1.00  0.00     0.063 C 
ATOM     11  C   UNL     1      42.702 129.712  23.223  1.00  0.00     0.014 C 
ENDBRANCH   8  10
ENDBRANCH   1   8
BRANCH   5  12
ATOM     12  C   UNL     1      44.073 131.102  17.291  1.00  0.00     0.049 A 
ATOM     13  C   UNL     1      43.347 131.799  16.312  1.00  0.00     0.025 A 
ATOM     14  N   UNL     1      45.260 130.519  16.958  1.00  0.00    -0.249 NA
ATOM     15  C   UNL     1      43.855 131.899  15.016  1.00  0.00     0.012 A 
ATOM     16  C   UNL     1      45.779 130.600  15.704  1.00  0.00     0.106 A 
ATOM     17  C   UNL     1      45.080 131.300  14.698  1.00  0.00     0.003 A 
ATOM     18  C   UNL     1      47.005 129.988  15.408  1.00  0.00     0.152 A 
ATOM     19  C   UNL     1      45.614 131.379  13.405  1.00  0.00     0.011 A 
ATOM     20  C   UNL     1      47.545 130.078  14.113  1.00  0.00    -0.013 A 
ATOM     21  C   UNL     1      46.837 130.767  13.114  1.00  0.00     0.007 A 
ATOM     22  F   UNL     1      47.668 129.307  16.379  1.00  0.00    -0.204 F 
ATOM     23  C   UNL     1      48.846 129.403  13.791  1.00  0.00     0.047 C 
ENDBRANCH   5  12
TORSDOF 3
ENDMDL
MODEL 6
REMARK VINA RESULT:      -6.0      2.902      7.314
REMARK SMILES C=CC(=O)N1CCC[C@@H](c2ccc3ccc(C)c(F)c3n2)[C@@H]1F
REMARK SMILES IDX 5 1 6 2 7 3 8 4 9 5 22 6 23 7 3 8 4 9 2 10 1 11 10 12 11 13
REMARK SMILES IDX 21 14 12 15 20 16 13 17 18 18 14 19 16 20 15 21 19 22 17 23
REMARK H PARENT
ROOT
ATOM      1  N   UNL     1      45.687 130.211  15.279  1.00  0.00    -0.308 N 
ATOM      2  C   UNL     1      44.583 130.810  14.509  1.00  0.00     0.123 C 
ATOM      3  C   UNL     1      43.606 131.577  15.414  1.00  0.00     0.022 C 
ATOM      4  C   UNL     1      44.377 132.387  16.466  1.00  0.00     0.017 C 
ATOM      5  C   UNL     1      45.286 131.494  17.358  1.00  0.00     0.093 C 
ATOM      6  C   UNL     1      45.539 130.100  16.742  1.00  0.00     0.274 C 
ATOM      7  F   UNL     1      46.647 129.515  17.336  1.00  0.00    -0.223 F 
ENDROOT
BRANCH   1   8
ATOM      8  C   UNL     1      46.905 129.828  14.602  1.00  0.00     0.248 C 
ATOM      9  O   UNL     1      47.263 128.618  14.591  1.00  0.00    -0.270 OA
BRANCH   8  10
ATOM     10  C   UNL     1      47.750 130.842  13.934  1.00  0.00     0.063 C 
ATOM     11  C   UNL     1      47.739 131.023  12.614  1.00  0.00     0.014 C 
ENDBRANCH   8  10
ENDBRANCH   1   8
BRANCH   5  12
ATOM     12  C   UNL     1      44.709 131.343  18.748  1.00  0.00     0.049 A 
ATOM     13  C   UNL     1      43.754 132.251  19.233  1.00  0.00     0.025 A 
ATOM     14  N   UNL     1      45.147 130.335  19.554  1.00  0.00    -0.249 NA
ATOM     15  C   UNL     1      43.254 132.101  20.527  1.00  0.00     0.012 A 
ATOM     16  C   UNL     1      44.678 130.165  20.819  1.00  0.00     0.106 A 
ATOM     17  C   UNL     1      43.711 131.053  21.335  1.00  0.00     0.003 A 
ATOM     18  C   UNL     1      45.154 129.111  21.611  1.00  0.00     0.152 A 
ATOM     19  C   UNL     1      43.233 130.880  22.641  1.00  0.00     0.011 A 
ATOM     20  C   UNL     1      44.664 128.931  22.916  1.00  0.00    -0.013 A 
ATOM     21  C   UNL     1      43.710 129.827  23.427  1.00  0.00     0.007 A 
ATOM     22  F   UNL     1      46.092 128.265  21.110  1.00  0.00    -0.204 F 
ATOM     23  C   UNL     1      45.192 127.817  23.772  1.00  0.00     0.047 C 
ENDBRANCH   5  12
TORSDOF 3
ENDMDL
MODEL 7
REMARK VINA RESULT:      -5.9      3.022      7.644
REMARK SMILES C=CC(=O)N1CCC[C@@H](c2ccc3ccc(C)c(F)c3n2)[C@@H]1F
REMARK SMILES IDX 5 1 6 2 7 3 8 4 9 5 22 6 23 7 3 8 4 9 2 10 1 11 10 12 11 13
REMARK SMILES IDX 21 14 12 15 20 16 13 17 18 18 14 19 16 20 15 21 19 22 17 23
REMARK H PARENT
ROOT
ATOM      1  N   UNL     1      46.223 129.978  14.771  1.00  0.00    -0.308 N 
ATOM      2  C   UNL     1      45.090 130.546  14.020  1.00  0.00     0.123 C 
ATOM      3  C   UNL     1      44.153 131.360  14.927  1.00  0.00     0.022 C 
ATOM      4  C   UNL     1      44.971 132.215  15.905  1.00  0.00     0.017 C 
ATOM      5  C   UNL     1      45.912 131.361  16.801  1.00  0.00     0.093 C 
ATOM      6  C   UNL     1      46.135 129.938  16.242  1.00  0.00     0.274 C 
ATOM      7  F   UNL     1      47.266 129.376  16.817  1.00  0.00    -0.223 F 
ENDROOT
BRANCH   1   8
ATOM      8  C   UNL     1      47.411 129.557  14.063  1.00  0.00     0.248 C 
ATOM      9  O   UNL     1      47.811 128.364  14.162  1.00  0.00    -0.270 OA
BRANCH   8  10
ATOM     10  C   UNL     1      48.176 130.514  13.235  1.00  0.00     0.063 C 
ATOM     11  C   UNL     1      47.593 131.511  12.571  1.00  0.00     0.014 C 
ENDBRANCH   8  10
ENDBRANCH   1   8
BRANCH   5  12
ATOM     12  C   UNL     1      45.393 131.280  18.219  1.00  0.00     0.049 A 
ATOM     13  C   UNL     1      46.070 130.528  19.192  1.00  0.00     0.025 A 
ATOM     14  N   UNL     1      44.234 131.915  18.550  1.00  0.00    -0.249 NA
ATOM     15  C   UNL     1      45.557 130.452  20.487  1.00  0.00     0.012 A 
ATOM     16  C   UNL     1      43.710 131.860  19.804  1.00  0.00     0.106 A 
ATOM     17  C   UNL     1      44.369 131.120  20.808  1.00  0.00     0.003 A 
ATOM     18  C   UNL     1      42.517 132.534  20.099  1.00  0.00     0.152 A 
ATOM     19  C   UNL     1      43.826 131.059  22.098  1.00  0.00     0.011 A 
ATOM     20  C   UNL     1      41.980 132.482  21.397  1.00  0.00    -0.013 A 
ATOM     21  C   UNL     1      42.636 131.733  22.389  1.00  0.00     0.007 A 
ATOM     22  F   UNL     1      41.883 133.236  19.125  1.00  0.00    -0.204 F 
ATOM     23  C   UNL     1      40.689 133.184  21.707  1.00  0.00     0.047 C 
ENDBRANCH   5  12
TORSDOF 3
ENDMDL
MODEL 8
REMARK VINA RESULT:      -5.8      2.839      7.366
REMARK SMILES C=CC(=O)N1CCC[C@@H](c2ccc3ccc(C)c(F)c3n2)[C@@H]1F
REMARK SMILES IDX 5 1 6 2 7 3 8 4 9 5 22 6 23 7 3 8 4 9 2 10 1 11 10 12 11 13
REMARK SMILES IDX 21 14 12 15 20 16 13 17 18 18 14 19 16 20 15 21 19 22 17 23
REMARK H PARENT
ROOT
ATOM      1  N   UNL     1      45.973 130.093  14.948  1.00  0.00    -0.308 N 
ATOM      2  C   UNL     1      45.021 130.434  13.877  1.00  0.00     0.123 C 
ATOM      3  C   UNL     1      43.840 131.265  14.404  1.00  0.00     0.022 C 
ATOM      4  C   UNL     1      44.336 132.323  15.399  1.00  0.00     0.017 C 
ATOM      5  C   UNL     1      45.086 131.699  16.610  1.00  0.00     0.093 C 
ATOM      6  C   UNL     1      45.533 130.243  16.347  1.00  0.00     0.274 C 
ATOM      7  F   UNL     1      46.524 129.883  17.248  1.00  0.00    -0.223 F 
ENDROOT
BRANCH   1   8
ATOM      8  C   UNL     1      47.322 129.702  14.608  1.00  0.00     0.248 C 
ATOM      9  O   UNL     1      48.042 129.119  15.464  1.00  0.00    -0.270 OA
BRANCH   8  10
ATOM     10  C   UNL     1      47.879 129.995  13.269  1.00  0.00     0.063 C 
ATOM     11  C   UNL     1      47.854 131.216  12.737  1.00  0.00     0.014 C 
ENDBRANCH   8  10
ENDBRANCH   1   8
BRANCH   5  12
ATOM     12  C   UNL     1      44.244 131.758  17.865  1.00  0.00     0.049 A 
ATOM     13  C   UNL     1      42.859 131.973  17.793  1.00  0.00     0.025 A 
ATOM     14  N   UNL     1      44.841 131.638  19.084  1.00  0.00    -0.249 NA
ATOM     15  C   UNL     1      42.109 132.045  18.967  1.00  0.00     0.012 A 
ATOM     16  C   UNL     1      44.137 131.704  20.246  1.00  0.00     0.106 A 
ATOM     17  C   UNL     1      42.741 131.910  20.209  1.00  0.00     0.003 A 
ATOM     18  C   UNL     1      44.793 131.570  21.476  1.00  0.00     0.152 A 
ATOM     19  C   UNL     1      42.017 131.983  21.406  1.00  0.00     0.011 A 
ATOM     20  C   UNL     1      44.063 131.631  22.676  1.00  0.00    -0.013 A 
ATOM     21  C   UNL     1      42.675 131.849  22.632  1.00  0.00     0.007 A 
ATOM     22  F   UNL     1      46.138 131.381  21.504  1.00  0.00    -0.204 F 
ATOM     23  C   UNL     1      44.769 131.512  23.995  1.00  0.00     0.047 C 
ENDBRANCH   5  12
TORSDOF 3
ENDMDL
MODEL 9
REMARK VINA RESULT:      -5.7      1.210      1.393
REMARK SMILES C=CC(=O)N1CCC[C@@H](c2ccc3ccc(C)c(F)c3n2)[C@@H]1F
REMARK SMILES IDX 5 1 6 2 7 3 8 4 9 5 22 6 23 7 3 8 4 9 2 10 1 11 10 12 11 13
REMARK SMILES IDX 21 14 12 15 20 16 13 17 18 18 14 19 16 20 15 21 19 22 17 23
REMARK H PARENT
ROOT
ATOM      1  N   UNL     1      43.450 130.908  21.579  1.00  0.00    -0.308 N 
ATOM      2  C   UNL     1      44.510 129.993  22.036  1.00  0.00     0.123 C 
ATOM      3  C   UNL     1      45.572 129.760  20.949  1.00  0.00     0.022 C 
ATOM      4  C   UNL     1      45.907 131.080  20.242  1.00  0.00     0.017 C 
ATOM      5  C   UNL     1      44.660 131.739  19.587  1.00  0.00     0.093 C 
ATOM      6  C   UNL     1      43.331 131.173  20.134  1.00  0.00     0.274 C 
ATOM      7  F   UNL     1      42.292 132.045  19.846  1.00  0.00    -0.223 F 
ENDROOT
BRANCH   1   8
ATOM      8  C   UNL     1      42.616 131.578  22.551  1.00  0.00     0.248 C 
ATOM      9  O   UNL     1      41.953 132.597  22.214  1.00  0.00    -0.270 OA
BRANCH   8  10
ATOM     10  C   UNL     1      42.544 131.093  23.947  1.00  0.00     0.063 C 
ATOM     11  C   UNL     1      43.622 130.702  24.624  1.00  0.00     0.014 C 
ENDBRANCH   8  10
ENDBRANCH   1   8
BRANCH   5  12
ATOM     12  C   UNL     1      44.696 131.600  18.081  1.00  0.00     0.049 A 
ATOM     13  C   UNL     1      43.622 132.039  17.292  1.00  0.00     0.025 A 
ATOM     14  N   UNL     1      45.770 131.010  17.484  1.00  0.00    -0.249 NA
ATOM     15  C   UNL     1      43.672 131.878  15.906  1.00  0.00     0.012 A 
ATOM     16  C   UNL     1      45.847 130.840  16.137  1.00  0.00     0.106 A 
ATOM     17  C   UNL     1      44.788 131.277  15.313  1.00  0.00     0.003 A 
ATOM     18  C   UNL     1      46.973 130.232  15.566  1.00  0.00     0.152 A 
ATOM     19  C   UNL     1      44.866 131.097  13.926  1.00  0.00     0.011 A 
ATOM     20  C   UNL     1      47.055 130.063  14.173  1.00  0.00    -0.013 A 
ATOM     21  C   UNL     1      45.991 130.490  13.360  1.00  0.00     0.007 A 
ATOM     22  F   UNL     1      47.984 129.805  16.367  1.00  0.00    -0.204 F 
ATOM     23  C   UNL     1      48.250 129.390  13.564  1.00  0.00     0.047 C 
ENDBRANCH   5  12
TORSDOF 3
ENDMDL


