REMARK SMILES Cc1c(F)cc(Nc2cccc(N)c2[O-])c2cc(-c3nc[nH+]cc3F)[nH]c12
REMARK SMILES IDX 7 1 6 3 2 4 3 5 27 6 5 7 26 8 16 9 18 10 17 11 1 12 4 13
REMARK SMILES IDX 19 15 20 16 24 17 21 18 23 19 22 20 25 21 8 23 9 24 14 25
REMARK SMILES IDX 10 26 12 27 11 28 15 29 13 30
REMARK H PARENT 7 2 26 14 22 22 13 31 13 32
ROOT
ATOM      1  N   UNL     1      -0.838  -2.481  -0.538  1.00  0.00    -0.355 N 
ATOM      2  H   UNL     1      -0.693  -3.467  -0.853  1.00  0.00     0.167 HD
ENDROOT
BRANCH   1   3
ATOM      3  C   UNL     1      -1.149  -1.503  -1.543  1.00  0.00     0.051 A 
ATOM      4  C   UNL     1      -1.757   0.409  -3.569  1.00  0.00     0.009 A 
ATOM      5  C   UNL     1      -2.298  -0.897  -3.622  1.00  0.00     0.130 A 
ATOM      6  C   UNL     1      -0.897   0.710  -2.504  1.00  0.00     0.054 A 
ATOM      7  C   UNL     1      -1.990  -1.841  -2.619  1.00  0.00     0.066 A 
ATOM      8  N   UNL     1      -0.221   1.856  -2.298  1.00  0.00    -0.351 N 
ATOM      9  C   UNL     1      -0.600  -0.213  -1.531  1.00  0.00     0.024 A 
ATOM     10  C   UNL     1       0.518   1.657  -1.179  1.00  0.00     0.095 A 
ATOM     11  C   UNL     1       0.319   0.372  -0.682  1.00  0.00     0.043 A 
ATOM     12  C   UNL     1      -2.048   1.424  -4.638  1.00  0.00     0.050 C 
ATOM     13  F   UNL     1      -3.116  -1.265  -4.640  1.00  0.00    -0.207 F 
ATOM     14  H   UNL     1      -0.223   2.695  -2.917  1.00  0.00     0.167 HD
BRANCH  10  15
ATOM     15  C   UNL     1       1.460   2.639  -0.598  1.00  0.00     0.237 A 
ATOM     16  N   UNL     1       2.478   2.185   0.184  1.00  0.00    -0.044 NA
ATOM     17  C   UNL     1       1.329   4.022  -0.807  1.00  0.00     0.215 A 
ATOM     18  C   UNL     1       3.375   3.035   0.747  1.00  0.00     0.449 A 
ATOM     19  C   UNL     1       2.262   4.878  -0.220  1.00  0.00     0.241 A 
ATOM     20  N   UNL     1       3.268   4.373   0.540  1.00  0.00    -0.247 N 
ATOM     21  F   UNL     1       0.299   4.549  -1.515  1.00  0.00    -0.198 F 
ATOM     22  H   UNL     1       3.961   5.021   0.977  1.00  0.00     0.311 HD
ENDBRANCH  10  15
ENDBRANCH   1   3
BRANCH   1  23
ATOM     23  C   UNL     1      -0.835  -2.208   0.875  1.00  0.00     0.032 A 
ATOM     24  C   UNL     1      -1.645  -1.192   1.415  1.00  0.00     0.025 A 
ATOM     25  C   UNL     1      -0.046  -2.991   1.738  1.00  0.00    -0.061 A 
ATOM     26  C   UNL     1      -1.644  -0.944   2.788  1.00  0.00     0.004 A 
ATOM     27  C   UNL     1      -0.049  -2.741   3.123  1.00  0.00     0.025 A 
ATOM     28  C   UNL     1      -0.849  -1.712   3.639  1.00  0.00     0.025 A 
ATOM     29  O   UNL     1       0.748  -4.008   1.217  1.00  0.00    -0.870 OA
BRANCH  27  30
ATOM     30  N   UNL     1       0.757  -3.525   4.010  1.00  0.00    -0.399 N 
ATOM     31  H   UNL     1       0.755  -3.338   5.037  1.00  0.00     0.156 HD
ATOM     32  H   UNL     1       1.363  -4.297   3.654  1.00  0.00     0.156 HD
ENDBRANCH  27  30
ENDBRANCH   1  23
TORSDOF 4


