MODEL 1
REMARK VINA RESULT:      -9.9      0.000      0.000
REMARK SMILES Cc1ccc(-c2ccc([O-])cc2)c2c[n-]nc12
REMARK SMILES IDX 1 1 2 2 3 3 4 4 5 5 13 6 14 7 15 8 16 9 17 10 6 11 7 12
REMARK SMILES IDX 12 13 8 14 11 15 9 16 10 17
REMARK H PARENT
ROOT
ATOM      1  C   UNL     1      43.579 131.505  22.581  1.00  0.00     0.046 C 
ATOM      2  C   UNL     1      44.111 131.399  21.183  1.00  0.00    -0.027 A 
ATOM      3  C   UNL     1      45.386 130.851  20.925  1.00  0.00     0.006 A 
ATOM      4  C   UNL     1      45.859 130.716  19.602  1.00  0.00     0.010 A 
ATOM      5  C   UNL     1      45.064 131.121  18.504  1.00  0.00    -0.011 A 
ATOM      6  C   UNL     1      43.797 131.642  18.798  1.00  0.00    -0.014 A 
ATOM      7  C   UNL     1      42.753 132.069  18.004  1.00  0.00    -0.113 A 
ATOM      8  N   UNL     1      41.731 132.440  18.810  1.00  0.00    -0.581 NA
ATOM      9  N   UNL     1      42.085 132.259  20.079  1.00  0.00    -0.367 NA
ATOM     10  C   UNL     1      43.338 131.771  20.080  1.00  0.00     0.050 A 
ENDROOT
BRANCH   5  11
ATOM     11  C   UNL     1      45.564 130.987  17.115  1.00  0.00    -0.018 A 
ATOM     12  C   UNL     1      45.966 129.731  16.626  1.00  0.00     0.008 A 
ATOM     13  C   UNL     1      45.667 132.112  16.279  1.00  0.00     0.008 A 
ATOM     14  C   UNL     1      46.446 129.603  15.319  1.00  0.00    -0.008 A 
ATOM     15  C   UNL     1      46.149 131.981  14.973  1.00  0.00    -0.008 A 
ATOM     16  C   UNL     1      46.536 130.727  14.492  1.00  0.00    -0.109 A 
ATOM     17  O   UNL     1      47.014 130.598  13.194  1.00  0.00    -0.872 OA
ENDBRANCH   5  11
TORSDOF 1
ENDMDL
MODEL 2
REMARK VINA RESULT:      -9.9      0.059      1.176
REMARK SMILES Cc1ccc(-c2ccc([O-])cc2)c2c[n-]nc12
REMARK SMILES IDX 1 1 2 2 3 3 4 4 5 5 13 6 14 7 15 8 16 9 17 10 6 11 7 12
REMARK SMILES IDX 12 13 8 14 11 15 9 16 10 17
REMARK H PARENT
ROOT
ATOM      1  C   UNL     1      43.566 131.471  22.535  1.00  0.00     0.046 C 
ATOM      2  C   UNL     1      44.112 131.367  21.142  1.00  0.00    -0.027 A 
ATOM      3  C   UNL     1      45.388 130.817  20.896  1.00  0.00     0.006 A 
ATOM      4  C   UNL     1      45.873 130.684  19.577  1.00  0.00     0.010 A 
ATOM      5  C   UNL     1      45.090 131.092  18.472  1.00  0.00    -0.011 A 
ATOM      6  C   UNL     1      43.821 131.615  18.755  1.00  0.00    -0.014 A 
ATOM      7  C   UNL     1      42.786 132.045  17.952  1.00  0.00    -0.113 A 
ATOM      8  N   UNL     1      41.757 132.416  18.749  1.00  0.00    -0.581 NA
ATOM      9  N   UNL     1      42.098 132.232  20.020  1.00  0.00    -0.367 NA
ATOM     10  C   UNL     1      43.350 131.742  20.032  1.00  0.00     0.050 A 
ENDROOT
BRANCH   5  11
ATOM     11  C   UNL     1      45.603 130.960  17.088  1.00  0.00    -0.018 A 
ATOM     12  C   UNL     1      45.734 132.097  16.270  1.00  0.00     0.008 A 
ATOM     13  C   UNL     1      45.940 129.699  16.566  1.00  0.00     0.008 A 
ATOM     14  C   UNL     1      46.209 131.974  14.961  1.00  0.00    -0.008 A 
ATOM     15  C   UNL     1      46.414 129.580  15.257  1.00  0.00    -0.008 A 
ATOM     16  C   UNL     1      46.550 130.716  14.454  1.00  0.00    -0.109 A 
ATOM     17  O   UNL     1      47.022 130.596  13.153  1.00  0.00    -0.872 OA
ENDBRANCH   5  11
TORSDOF 1
ENDMDL
MODEL 3
REMARK VINA RESULT:      -9.2      1.557      2.641
REMARK SMILES Cc1ccc(-c2ccc([O-])cc2)c2c[n-]nc12
REMARK SMILES IDX 1 1 2 2 3 3 4 4 5 5 13 6 14 7 15 8 16 9 17 10 6 11 7 12
REMARK SMILES IDX 12 13 8 14 11 15 9 16 10 17
REMARK H PARENT
ROOT
ATOM      1  C   UNL     1      41.935 132.491  20.939  1.00  0.00     0.046 C 
ATOM      2  C   UNL     1      42.789 132.073  19.780  1.00  0.00    -0.027 A 
ATOM      3  C   UNL     1      42.311 132.149  18.454  1.00  0.00     0.006 A 
ATOM      4  C   UNL     1      43.139 131.794  17.367  1.00  0.00     0.010 A 
ATOM      5  C   UNL     1      44.468 131.360  17.581  1.00  0.00    -0.011 A 
ATOM      6  C   UNL     1      44.914 131.317  18.909  1.00  0.00    -0.014 A 
ATOM      7  C   UNL     1      46.133 131.013  19.477  1.00  0.00    -0.113 A 
ATOM      8  N   UNL     1      46.027 131.172  20.817  1.00  0.00    -0.581 NA
ATOM      9  N   UNL     1      44.794 131.568  21.116  1.00  0.00    -0.367 NA
ATOM     10  C   UNL     1      44.112 131.662  19.961  1.00  0.00     0.050 A 
ENDROOT
BRANCH   5  11
ATOM     11  C   UNL     1      45.335 130.980  16.441  1.00  0.00    -0.018 A 
ATOM     12  C   UNL     1      45.932 131.974  15.643  1.00  0.00     0.008 A 
ATOM     13  C   UNL     1      45.551 129.628  16.125  1.00  0.00     0.008 A 
ATOM     14  C   UNL     1      46.743 131.618  14.561  1.00  0.00    -0.008 A 
ATOM     15  C   UNL     1      46.363 129.276  15.042  1.00  0.00    -0.008 A 
ATOM     16  C   UNL     1      46.960 130.270  14.261  1.00  0.00    -0.109 A 
ATOM     17  O   UNL     1      47.766 129.919  13.186  1.00  0.00    -0.872 OA
ENDBRANCH   5  11
TORSDOF 1
ENDMDL
MODEL 4
REMARK VINA RESULT:      -9.2      1.565      2.431
REMARK SMILES Cc1ccc(-c2ccc([O-])cc2)c2c[n-]nc12
REMARK SMILES IDX 1 1 2 2 3 3 4 4 5 5 13 6 14 7 15 8 16 9 17 10 6 11 7 12
REMARK SMILES IDX 12 13 8 14 11 15 9 16 10 17
REMARK H PARENT
ROOT
ATOM      1  C   UNL     1      41.817 132.592  20.600  1.00  0.00     0.046 C 
ATOM      2  C   UNL     1      42.711 132.140  19.484  1.00  0.00    -0.027 A 
ATOM      3  C   UNL     1      42.295 132.216  18.138  1.00  0.00     0.006 A 
ATOM      4  C   UNL     1      43.162 131.829  17.093  1.00  0.00     0.010 A 
ATOM      5  C   UNL     1      44.468 131.361  17.370  1.00  0.00    -0.011 A 
ATOM      6  C   UNL     1      44.852 131.319  18.717  1.00  0.00    -0.014 A 
ATOM      7  C   UNL     1      46.035 130.988  19.344  1.00  0.00    -0.113 A 
ATOM      8  N   UNL     1      45.873 131.162  20.676  1.00  0.00    -0.581 NA
ATOM      9  N   UNL     1      44.639 131.595  20.915  1.00  0.00    -0.367 NA
ATOM     10  C   UNL     1      44.013 131.696  19.729  1.00  0.00     0.050 A 
ENDROOT
BRANCH   5  11
ATOM     11  C   UNL     1      45.374 130.947  16.274  1.00  0.00    -0.018 A 
ATOM     12  C   UNL     1      45.623 129.582  16.039  1.00  0.00     0.008 A 
ATOM     13  C   UNL     1      46.017 131.907  15.473  1.00  0.00     0.008 A 
ATOM     14  C   UNL     1      46.485 129.189  15.011  1.00  0.00    -0.008 A 
ATOM     15  C   UNL     1      46.878 131.510  14.447  1.00  0.00    -0.008 A 
ATOM     16  C   UNL     1      47.112 130.151  14.214  1.00  0.00    -0.109 A 
ATOM     17  O   UNL     1      47.968 129.758  13.193  1.00  0.00    -0.872 OA
ENDBRANCH   5  11
TORSDOF 1
ENDMDL
MODEL 5
REMARK VINA RESULT:      -7.2      3.384      5.755
REMARK SMILES Cc1ccc(-c2ccc([O-])cc2)c2c[n-]nc12
REMARK SMILES IDX 1 1 2 2 3 3 4 4 5 5 13 6 14 7 15 8 16 9 17 10 6 11 7 12
REMARK SMILES IDX 12 13 8 14 11 15 9 16 10 17
REMARK H PARENT
ROOT
ATOM      1  C   UNL     1      47.427 129.509  14.011  1.00  0.00     0.046 C 
ATOM      2  C   UNL     1      46.535 129.997  15.113  1.00  0.00    -0.027 A 
ATOM      3  C   UNL     1      46.902 129.857  16.468  1.00  0.00     0.006 A 
ATOM      4  C   UNL     1      46.075 130.360  17.495  1.00  0.00     0.010 A 
ATOM      5  C   UNL     1      44.862 131.020  17.191  1.00  0.00    -0.011 A 
ATOM      6  C   UNL     1      44.540 131.158  15.833  1.00  0.00    -0.014 A 
ATOM      7  C   UNL     1      43.500 131.781  15.177  1.00  0.00    -0.113 A 
ATOM      8  N   UNL     1      43.698 131.648  13.844  1.00  0.00    -0.581 NA
ATOM      9  N   UNL     1      44.823 130.971  13.634  1.00  0.00    -0.367 NA
ATOM     10  C   UNL     1      45.343 130.673  14.838  1.00  0.00     0.050 A 
ENDROOT
BRANCH   5  11
ATOM     11  C   UNL     1      43.989 131.540  18.269  1.00  0.00    -0.018 A 
ATOM     12  C   UNL     1      44.495 131.706  19.571  1.00  0.00     0.008 A 
ATOM     13  C   UNL     1      42.642 131.849  18.014  1.00  0.00     0.008 A 
ATOM     14  C   UNL     1      43.671 132.189  20.593  1.00  0.00    -0.008 A 
ATOM     15  C   UNL     1      41.821 132.330  19.039  1.00  0.00    -0.008 A 
ATOM     16  C   UNL     1      42.335 132.502  20.327  1.00  0.00    -0.109 A 
ATOM     17  O   UNL     1      41.519 132.980  21.344  1.00  0.00    -0.872 OA
ENDBRANCH   5  11
TORSDOF 1
ENDMDL
MODEL 6
REMARK VINA RESULT:      -7.1      3.311      5.783
REMARK SMILES Cc1ccc(-c2ccc([O-])cc2)c2c[n-]nc12
REMARK SMILES IDX 1 1 2 2 3 3 4 4 5 5 13 6 14 7 15 8 16 9 17 10 6 11 7 12
REMARK SMILES IDX 12 13 8 14 11 15 9 16 10 17
REMARK H PARENT
ROOT
ATOM      1  C   UNL     1      47.349 129.675  13.779  1.00  0.00     0.046 C 
ATOM      2  C   UNL     1      46.529 130.077  14.969  1.00  0.00    -0.027 A 
ATOM      3  C   UNL     1      46.996 129.868  16.284  1.00  0.00     0.006 A 
ATOM      4  C   UNL     1      46.235 130.290  17.395  1.00  0.00     0.010 A 
ATOM      5  C   UNL     1      44.989 130.936  17.217  1.00  0.00    -0.011 A 
ATOM      6  C   UNL     1      44.567 131.143  15.897  1.00  0.00    -0.014 A 
ATOM      7  C   UNL     1      43.469 131.776  15.354  1.00  0.00    -0.113 A 
ATOM      8  N   UNL     1      43.573 131.725  14.005  1.00  0.00    -0.581 NA
ATOM      9  N   UNL     1      44.694 131.090  13.676  1.00  0.00    -0.367 NA
ATOM     10  C   UNL     1      45.306 130.736  14.820  1.00  0.00     0.050 A 
ENDROOT
BRANCH   5  11
ATOM     11  C   UNL     1      44.186 131.371  18.384  1.00  0.00    -0.018 A 
ATOM     12  C   UNL     1      42.868 131.829  18.205  1.00  0.00     0.008 A 
ATOM     13  C   UNL     1      44.736 131.358  19.677  1.00  0.00     0.008 A 
ATOM     14  C   UNL     1      42.111 132.249  19.303  1.00  0.00    -0.008 A 
ATOM     15  C   UNL     1      43.976 131.779  20.773  1.00  0.00    -0.008 A 
ATOM     16  C   UNL     1      42.664 132.222  20.587  1.00  0.00    -0.109 A 
ATOM     17  O   UNL     1      41.910 132.640  21.676  1.00  0.00    -0.872 OA
ENDBRANCH   5  11
TORSDOF 1
ENDMDL


