REMARK SMILES [H]/N=c1\[n-]cccc1[NH2+]c1ccc2c(c1)[nH+]nn2C
REMARK SMILES IDX 3 1 4 2 5 3 6 4 7 5 8 6 2 7 1 8 9 9 10 12 11 13 15 14 12 15
REMARK SMILES IDX 14 16 13 17 16 18 18 19 17 20 19 22
REMARK H PARENT 9 10 9 11 16 21
ROOT
ATOM      1  C   UNL     1       2.841  -0.914   0.792  1.00  0.00    -0.002 A 
ATOM      2  N   UNL     1       3.683  -0.310   1.676  1.00  0.00    -0.438 NA
ATOM      3  C   UNL     1       4.160   0.946   1.475  1.00  0.00    -0.022 A 
ATOM      4  C   UNL     1       3.790   1.660   0.337  1.00  0.00     0.002 A 
ATOM      5  C   UNL     1       2.929   1.071  -0.589  1.00  0.00     0.067 A 
ATOM      6  C   UNL     1       2.442  -0.231  -0.380  1.00  0.00     0.133 A 
ENDROOT
BRANCH   1   7
ATOM      7  N   UNL     1       2.416  -2.113   1.034  1.00  0.00    -0.477 NA
ATOM      8  H   UNL     1       2.702  -2.632   1.894  1.00  0.00     0.020 HD
ENDBRANCH   1   7
BRANCH   6   9
ATOM      9  N   UNL     1       1.526  -0.821  -1.329  1.00  0.00    -0.282 N 
ATOM     10  H   UNL     1       1.673  -1.856  -1.387  1.00  0.00     0.358 HD
ATOM     11  H   UNL     1       1.711  -0.444  -2.289  1.00  0.00     0.358 HD
BRANCH   9  12
ATOM     12  C   UNL     1       0.168  -0.524  -0.949  1.00  0.00     0.139 A 
ATOM     13  C   UNL     1      -0.420   0.723  -1.311  1.00  0.00     0.073 A 
ATOM     14  C   UNL     1      -0.582  -1.456  -0.188  1.00  0.00     0.126 A 
ATOM     15  C   UNL     1      -1.737   1.041  -0.925  1.00  0.00     0.065 A 
ATOM     16  C   UNL     1      -1.878  -1.100   0.170  1.00  0.00     0.201 A 
ATOM     17  C   UNL     1      -2.430   0.091  -0.181  1.00  0.00     0.198 A 
ATOM     18  N   UNL     1      -2.787  -1.789   0.881  1.00  0.00    -0.143 N 
ATOM     19  N   UNL     1      -3.678   0.120   0.320  1.00  0.00    -0.133 N 
ATOM     20  N   UNL     1      -3.875  -1.028   0.962  1.00  0.00     0.088 NA
ATOM     21  H   UNL     1      -2.683  -2.739   1.303  1.00  0.00     0.342 HD
ATOM     22  C   UNL     1      -4.658   1.193   0.212  1.00  0.00     0.327 C 
ENDBRANCH   9  12
ENDBRANCH   6   9
TORSDOF 3


