REMARK SMILES Cc1ccc(-c2ccc([O-])cc2)c2cn(/C(O)=N/c3ccc(N(C)C)cc3)[nH+]c12
REMARK SMILES IDX 16 1 17 2 18 4 19 5 20 6 27 7 21 8 26 9 22 10 23 11 24 12
REMARK SMILES IDX 25 13 15 14 14 15 28 16 13 17 29 18 5 19 2 20 4 21 3 22 1 24
REMARK SMILES IDX 6 25 7 26 12 27 8 28 11 29 9 30 10 31
REMARK H PARENT 17 3 28 23
ROOT
ATOM      1  C   UNL     1       0.172  -0.926   1.160  1.00  0.00     0.349 C 
ENDROOT
BRANCH   1   2
ATOM      2  O   UNL     1       0.164  -1.542   2.413  1.00  0.00    -0.477 OA
ATOM      3  H   UNL     1       0.008  -1.034   3.272  1.00  0.00     0.297 HD
ENDBRANCH   1   2
BRANCH   1   4
ATOM      4  N   UNL     1       0.300  -1.642   0.080  1.00  0.00    -0.193 NA
BRANCH   4   5
ATOM      5  C   UNL     1       0.358  -3.075   0.006  1.00  0.00     0.069 A 
ATOM      6  C   UNL     1       1.160  -3.664  -0.975  1.00  0.00     0.030 A 
ATOM      7  C   UNL     1      -0.431  -3.897   0.828  1.00  0.00     0.030 A 
ATOM      8  C   UNL     1       1.222  -5.054  -1.104  1.00  0.00     0.028 A 
ATOM      9  C   UNL     1      -0.373  -5.288   0.700  1.00  0.00     0.028 A 
ATOM     10  C   UNL     1       0.460  -5.893  -0.264  1.00  0.00     0.036 A 
BRANCH  10  11
ATOM     11  N   UNL     1       0.524  -7.337  -0.396  1.00  0.00    -0.378 N 
ATOM     12  C   UNL     1       1.666  -7.976  -1.060  1.00  0.00     0.143 C 
ATOM     13  C   UNL     1      -0.552  -8.184   0.136  1.00  0.00     0.143 C 
ENDBRANCH  10  11
ENDBRANCH   4   5
ENDBRANCH   1   4
BRANCH   1  14
ATOM     14  N   UNL     1       0.072   0.506   1.046  1.00  0.00    -0.073 N 
ATOM     15  C   UNL     1      -0.141   1.189  -0.106  1.00  0.00     0.179 A 
ATOM     16  N   UNL     1       0.179   1.365   2.055  1.00  0.00    -0.114 N 
ATOM     17  C   UNL     1      -0.165   2.537   0.200  1.00  0.00     0.079 A 
ATOM     18  C   UNL     1       0.031   2.605   1.556  1.00  0.00     0.240 A 
ATOM     19  C   UNL     1      -0.375   3.680  -0.582  1.00  0.00    -0.003 A 
ATOM     20  C   UNL     1       0.037   3.823   2.244  1.00  0.00     0.024 A 
ATOM     21  C   UNL     1      -0.387   4.923   0.091  1.00  0.00     0.010 A 
ATOM     22  C   UNL     1      -0.180   4.994   1.486  1.00  0.00     0.011 A 
ATOM     23  H   UNL     1       0.359   1.120   3.054  1.00  0.00     0.489 HD
ATOM     24  C   UNL     1       0.245   3.881   3.728  1.00  0.00     0.052 C 
BRANCH  19  25
ATOM     25  C   UNL     1      -0.578   3.611  -2.048  1.00  0.00    -0.018 A 
ATOM     26  C   UNL     1       0.296   2.865  -2.858  1.00  0.00     0.008 A 
ATOM     27  C   UNL     1      -1.637   4.314  -2.650  1.00  0.00     0.008 A 
ATOM     28  C   UNL     1       0.104   2.811  -4.242  1.00  0.00    -0.008 A 
ATOM     29  C   UNL     1      -1.826   4.256  -4.034  1.00  0.00    -0.008 A 
ATOM     30  C   UNL     1      -0.957   3.504  -4.830  1.00  0.00    -0.109 A 
ATOM     31  O   UNL     1      -1.147   3.448  -6.205  1.00  0.00    -0.872 OA
ENDBRANCH  19  25
ENDBRANCH   1  14
TORSDOF 6


