REMARK SMILES Cc1ccc(-c2ccc(O)cc2)c2c[nH]nc12
REMARK SMILES IDX 6 1 7 2 8 3 9 4 11 5 12 6 5 7 2 8 3 9 17 10 4 11 16 12 13 13
REMARK SMILES IDX 15 14 14 15 1 16 10 18
REMARK H PARENT 15 17 10 19
ROOT
ATOM      1  C   UNL     1      -0.403  -0.964   1.032  1.00  0.00    -0.017 A 
ATOM      2  C   UNL     1      -0.782  -0.781   2.373  1.00  0.00     0.012 A 
ATOM      3  C   UNL     1       0.091  -1.129   3.408  1.00  0.00     0.047 A 
ATOM      4  C   UNL     1       1.350  -1.671   3.115  1.00  0.00     0.115 A 
ATOM      5  C   UNL     1       1.728  -1.865   1.783  1.00  0.00     0.047 A 
ATOM      6  C   UNL     1       0.858  -1.517   0.746  1.00  0.00     0.012 A 
ENDROOT
BRANCH   1   7
ATOM      7  C   UNL     1      -1.334  -0.604  -0.062  1.00  0.00    -0.007 A 
ATOM      8  C   UNL     1      -3.134   0.083  -2.174  1.00  0.00    -0.023 A 
ATOM      9  C   UNL     1      -3.572  -0.689  -1.077  1.00  0.00     0.006 A 
ATOM     10  C   UNL     1      -1.795   0.480  -2.186  1.00  0.00     0.096 A 
ATOM     11  C   UNL     1      -2.685  -1.020  -0.029  1.00  0.00     0.010 A 
ATOM     12  N   UNL     1      -1.167   1.227  -3.113  1.00  0.00    -0.175 NA
ATOM     13  C   UNL     1      -0.932   0.154  -1.172  1.00  0.00     0.028 A 
ATOM     14  N   UNL     1       0.083   1.381  -2.693  1.00  0.00    -0.284 N 
ATOM     15  C   UNL     1       0.264   0.749  -1.513  1.00  0.00     0.114 A 
ATOM     16  C   UNL     1      -4.058   0.423  -3.306  1.00  0.00     0.047 C 
ATOM     17  H   UNL     1       0.809   1.926  -3.209  1.00  0.00     0.189 HD
ENDBRANCH   1   7
BRANCH   4  18
ATOM     18  O   UNL     1       2.228  -2.021   4.138  1.00  0.00    -0.508 OA
ATOM     19  H   UNL     1       1.983  -1.894   5.113  1.00  0.00     0.293 HD
ENDBRANCH   4  18
TORSDOF 2


