MODEL 1
REMARK VINA RESULT:      -7.2      0.000      0.000
REMARK SMILES C#CCOCn1[nH+]c2cc(-c3cnc(F)cc3C)ccc2c1C
REMARK SMILES IDX 4 1 3 2 2 3 1 4 5 5 6 6 7 7 22 8 8 9 21 10 9 11 20 12 10 13
REMARK SMILES IDX 19 14 23 16 11 17 12 18 17 19 13 20 16 21 14 22 18 23 15 24
REMARK H PARENT 7 15
ROOT
ATOM      1  O   UNL     1      42.710 130.435  23.103  1.00  0.00    -0.342 OA
ENDROOT
BRANCH   1   2
ATOM      2  C   UNL     1      43.107 129.971  24.374  1.00  0.00     0.251 C 
BRANCH   2   3
ATOM      3  C   UNL     1      43.751 128.666  24.220  1.00  0.00    -0.078 C 
ATOM      4  C   UNL     1      44.281 127.590  24.094  1.00  0.00     0.006 C 
ENDBRANCH   2   3
ENDBRANCH   1   2
BRANCH   1   5
ATOM      5  C   UNL     1      43.485 131.561  22.752  1.00  0.00     0.351 C 
BRANCH   5   6
ATOM      6  N   UNL     1      43.629 131.604  21.298  1.00  0.00    -0.133 N 
ATOM      7  N   UNL     1      44.706 131.176  20.648  1.00  0.00    -0.121 N 
ATOM      8  C   UNL     1      42.694 132.015  20.402  1.00  0.00     0.090 A 
ATOM      9  C   UNL     1      44.481 131.337  19.333  1.00  0.00     0.236 A 
ATOM     10  C   UNL     1      43.234 131.867  19.137  1.00  0.00     0.073 A 
ATOM     11  C   UNL     1      45.333 131.043  18.273  1.00  0.00     0.091 A 
ATOM     12  C   UNL     1      42.746 132.148  17.863  1.00  0.00     0.018 A 
ATOM     13  C   UNL     1      44.879 131.320  16.964  1.00  0.00    -0.010 A 
ATOM     14  C   UNL     1      43.581 131.863  16.767  1.00  0.00     0.010 A 
ATOM     15  H   UNL     1      45.569 130.790  21.095  1.00  0.00     0.489 HD
ATOM     16  C   UNL     1      41.358 132.602  20.747  1.00  0.00     0.071 C 
BRANCH  13  17
ATOM     17  C   UNL     1      45.746 131.015  15.804  1.00  0.00     0.003 A 
ATOM     18  C   UNL     1      46.489 132.054  15.220  1.00  0.00     0.123 A 
ATOM     19  C   UNL     1      45.850 129.713  15.257  1.00  0.00    -0.037 A 
ATOM     20  N   UNL     1      47.316 131.804  14.171  1.00  0.00    -0.228 NA
ATOM     21  C   UNL     1      46.728 129.492  14.185  1.00  0.00     0.064 A 
ATOM     22  C   UNL     1      47.453 130.557  13.651  1.00  0.00     0.213 A 
ATOM     23  C   UNL     1      45.058 128.553  15.802  1.00  0.00     0.045 C 
ATOM     24  F   UNL     1      48.293 130.351  12.608  1.00  0.00    -0.185 F 
ENDBRANCH  13  17
ENDBRANCH   5   6
ENDBRANCH   1   5
TORSDOF 5
ENDMDL
MODEL 2
REMARK VINA RESULT:      -7.0      0.993      1.244
REMARK SMILES C#CCOCn1[nH+]c2cc(-c3cnc(F)cc3C)ccc2c1C
REMARK SMILES IDX 4 1 3 2 2 3 1 4 5 5 6 6 7 7 22 8 8 9 21 10 9 11 20 12 10 13
REMARK SMILES IDX 19 14 23 16 11 17 12 18 17 19 13 20 16 21 14 22 18 23 15 24
REMARK H PARENT 7 15
ROOT
ATOM      1  O   UNL     1      42.868 130.140  23.436  1.00  0.00    -0.342 OA
ENDROOT
BRANCH   1   2
ATOM      2  C   UNL     1      43.349 129.328  24.483  1.00  0.00     0.251 C 
BRANCH   2   3
ATOM      3  C   UNL     1      44.297 128.359  23.931  1.00  0.00    -0.078 C 
ATOM      4  C   UNL     1      45.077 127.560  23.477  1.00  0.00     0.006 C 
ENDBRANCH   2   3
ENDBRANCH   1   2
BRANCH   1   5
ATOM      5  C   UNL     1      43.838 131.112  23.111  1.00  0.00     0.351 C 
BRANCH   5   6
ATOM      6  N   UNL     1      43.932 131.223  21.658  1.00  0.00    -0.133 N 
ATOM      7  N   UNL     1      44.930 130.717  20.940  1.00  0.00    -0.121 N 
ATOM      8  C   UNL     1      43.018 131.786  20.826  1.00  0.00     0.090 A 
ATOM      9  C   UNL     1      44.676 130.978  19.647  1.00  0.00     0.236 A 
ATOM     10  C   UNL     1      43.491 131.654  19.533  1.00  0.00     0.073 A 
ATOM     11  C   UNL     1      45.451 130.654  18.537  1.00  0.00     0.091 A 
ATOM     12  C   UNL     1      42.992 132.060  18.297  1.00  0.00     0.018 A 
ATOM     13  C   UNL     1      44.983 131.055  17.265  1.00  0.00    -0.010 A 
ATOM     14  C   UNL     1      43.749 131.748  17.153  1.00  0.00     0.010 A 
ATOM     15  H   UNL     1      45.759 130.213  21.328  1.00  0.00     0.489 HD
ATOM     16  C   UNL     1      41.771 132.497  21.259  1.00  0.00     0.071 C 
BRANCH  13  17
ATOM     17  C   UNL     1      45.768 130.723  16.054  1.00  0.00     0.003 A 
ATOM     18  C   UNL     1      46.979 130.027  16.200  1.00  0.00     0.123 A 
ATOM     19  C   UNL     1      45.344 131.088  14.753  1.00  0.00    -0.037 A 
ATOM     20  N   UNL     1      47.711 129.683  15.108  1.00  0.00    -0.228 NA
ATOM     21  C   UNL     1      46.120 130.699  13.650  1.00  0.00     0.064 A 
ATOM     22  C   UNL     1      47.307 129.996  13.851  1.00  0.00     0.213 A 
ATOM     23  C   UNL     1      44.077 131.867  14.515  1.00  0.00     0.045 C 
ATOM     24  F   UNL     1      48.066 129.629  12.789  1.00  0.00    -0.185 F 
ENDBRANCH  13  17
ENDBRANCH   5   6
ENDBRANCH   1   5
TORSDOF 5
ENDMDL
MODEL 3
REMARK VINA RESULT:      -6.7      1.300      1.682
REMARK SMILES C#CCOCn1[nH+]c2cc(-c3cnc(F)cc3C)ccc2c1C
REMARK SMILES IDX 4 1 3 2 2 3 1 4 5 5 6 6 7 7 22 8 8 9 21 10 9 11 20 12 10 13
REMARK SMILES IDX 19 14 23 16 11 17 12 18 17 19 13 20 16 21 14 22 18 23 15 24
REMARK H PARENT 7 15
ROOT
ATOM      1  O   UNL     1      44.304 128.354  23.319  1.00  0.00    -0.342 OA
ENDROOT
BRANCH   1   2
ATOM      2  C   UNL     1      45.341 127.538  23.815  1.00  0.00     0.251 C 
BRANCH   2   3
ATOM      3  C   UNL     1      45.223 126.208  23.216  1.00  0.00    -0.078 C 
ATOM      4  C   UNL     1      45.127 125.113  22.722  1.00  0.00     0.006 C 
ENDBRANCH   2   3
ENDBRANCH   1   2
BRANCH   1   5
ATOM      5  C   UNL     1      44.741 129.695  23.276  1.00  0.00     0.351 C 
BRANCH   5   6
ATOM      6  N   UNL     1      44.676 130.172  21.897  1.00  0.00    -0.133 N 
ATOM      7  N   UNL     1      45.515 129.788  20.941  1.00  0.00    -0.121 N 
ATOM      8  C   UNL     1      43.744 131.009  21.371  1.00  0.00     0.090 A 
ATOM      9  C   UNL     1      45.144 130.397  19.802  1.00  0.00     0.236 A 
ATOM     10  C   UNL     1      44.043 131.178  20.031  1.00  0.00     0.073 A 
ATOM     11  C   UNL     1      45.738 130.309  18.547  1.00  0.00     0.091 A 
ATOM     12  C   UNL     1      43.454 131.933  19.019  1.00  0.00     0.018 A 
ATOM     13  C   UNL     1      45.176 131.065  17.495  1.00  0.00    -0.010 A 
ATOM     14  C   UNL     1      44.028 131.867  17.736  1.00  0.00     0.010 A 
ATOM     15  H   UNL     1      46.318 129.131  21.069  1.00  0.00     0.489 HD
ATOM     16  C   UNL     1      42.650 131.686  22.141  1.00  0.00     0.071 C 
BRANCH  13  17
ATOM     17  C   UNL     1      45.767 130.995  16.139  1.00  0.00     0.003 A 
ATOM     18  C   UNL     1      46.367 132.144  15.600  1.00  0.00     0.123 A 
ATOM     19  C   UNL     1      45.744 129.810  15.364  1.00  0.00    -0.037 A 
ATOM     20  N   UNL     1      46.944 132.107  14.370  1.00  0.00    -0.228 NA
ATOM     21  C   UNL     1      46.365 129.809  14.105  1.00  0.00     0.064 A 
ATOM     22  C   UNL     1      46.960 130.975  13.623  1.00  0.00     0.213 A 
ATOM     23  C   UNL     1      45.088 128.547  15.854  1.00  0.00     0.045 C 
ATOM     24  F   UNL     1      47.550 130.981  12.403  1.00  0.00    -0.185 F 
ENDBRANCH  13  17
ENDBRANCH   5   6
ENDBRANCH   1   5
TORSDOF 5
ENDMDL
MODEL 4
REMARK VINA RESULT:      -6.6      1.160      1.351
REMARK SMILES C#CCOCn1[nH+]c2cc(-c3cnc(F)cc3C)ccc2c1C
REMARK SMILES IDX 4 1 3 2 2 3 1 4 5 5 6 6 7 7 22 8 8 9 21 10 9 11 20 12 10 13
REMARK SMILES IDX 19 14 23 16 11 17 12 18 17 19 13 20 16 21 14 22 18 23 15 24
REMARK H PARENT 7 15
ROOT
ATOM      1  O   UNL     1      45.203 128.849  23.369  1.00  0.00    -0.342 OA
ENDROOT
BRANCH   1   2
ATOM      2  C   UNL     1      44.376 127.799  22.918  1.00  0.00     0.251 C 
BRANCH   2   3
ATOM      3  C   UNL     1      43.260 127.644  23.851  1.00  0.00    -0.078 C 
ATOM      4  C   UNL     1      42.340 127.516  24.620  1.00  0.00     0.006 C 
ENDBRANCH   2   3
ENDBRANCH   1   2
BRANCH   1   5
ATOM      5  C   UNL     1      44.512 130.074  23.252  1.00  0.00     0.351 C 
BRANCH   5   6
ATOM      6  N   UNL     1      44.480 130.470  21.846  1.00  0.00    -0.133 N 
ATOM      7  N   UNL     1      45.386 130.091  20.950  1.00  0.00    -0.121 N 
ATOM      8  C   UNL     1      43.521 131.212  21.234  1.00  0.00     0.090 A 
ATOM      9  C   UNL     1      45.028 130.611  19.764  1.00  0.00     0.236 A 
ATOM     10  C   UNL     1      43.869 131.327  19.900  1.00  0.00     0.073 A 
ATOM     11  C   UNL     1      45.684 130.494  18.542  1.00  0.00     0.091 A 
ATOM     12  C   UNL     1      43.280 131.984  18.823  1.00  0.00     0.018 A 
ATOM     13  C   UNL     1      45.122 131.153  17.425  1.00  0.00    -0.010 A 
ATOM     14  C   UNL     1      43.916 131.887  17.572  1.00  0.00     0.010 A 
ATOM     15  H   UNL     1      46.223 129.498  21.149  1.00  0.00     0.489 HD
ATOM     16  C   UNL     1      42.351 131.854  21.917  1.00  0.00     0.071 C 
BRANCH  13  17
ATOM     17  C   UNL     1      45.779 131.049  16.102  1.00  0.00     0.003 A 
ATOM     18  C   UNL     1      46.340 132.202  15.530  1.00  0.00     0.123 A 
ATOM     19  C   UNL     1      45.856 129.828  15.389  1.00  0.00    -0.037 A 
ATOM     20  N   UNL     1      46.974 132.137  14.330  1.00  0.00    -0.228 NA
ATOM     21  C   UNL     1      46.534 129.799  14.160  1.00  0.00     0.064 A 
ATOM     22  C   UNL     1      47.086 130.971  13.644  1.00  0.00     0.213 A 
ATOM     23  C   UNL     1      45.247 128.555  15.916  1.00  0.00     0.045 C 
ATOM     24  F   UNL     1      47.731 130.950  12.453  1.00  0.00    -0.185 F 
ENDBRANCH  13  17
ENDBRANCH   5   6
ENDBRANCH   1   5
TORSDOF 5
ENDMDL
MODEL 5
REMARK VINA RESULT:      -6.2      1.154      1.664
REMARK SMILES C#CCOCn1[nH+]c2cc(-c3cnc(F)cc3C)ccc2c1C
REMARK SMILES IDX 4 1 3 2 2 3 1 4 5 5 6 6 7 7 22 8 8 9 21 10 9 11 20 12 10 13
REMARK SMILES IDX 19 14 23 16 11 17 12 18 17 19 13 20 16 21 14 22 18 23 15 24
REMARK H PARENT 7 15
ROOT
ATOM      1  O   UNL     1      44.857 130.045  23.032  1.00  0.00    -0.342 OA
ENDROOT
BRANCH   1   2
ATOM      2  C   UNL     1      44.265 129.626  24.241  1.00  0.00     0.251 C 
BRANCH   2   3
ATOM      3  C   UNL     1      43.742 128.271  24.067  1.00  0.00    -0.078 C 
ATOM      4  C   UNL     1      43.311 127.155  23.923  1.00  0.00     0.006 C 
ENDBRANCH   2   3
ENDBRANCH   1   2
BRANCH   1   5
ATOM      5  C   UNL     1      44.185 131.190  22.552  1.00  0.00     0.351 C 
BRANCH   5   6
ATOM      6  N   UNL     1      44.305 131.237  21.097  1.00  0.00    -0.133 N 
ATOM      7  N   UNL     1      45.333 130.731  20.422  1.00  0.00    -0.121 N 
ATOM      8  C   UNL     1      43.391 131.733  20.223  1.00  0.00     0.090 A 
ATOM      9  C   UNL     1      45.097 130.924  19.114  1.00  0.00     0.236 A 
ATOM     10  C   UNL     1      43.894 131.556  18.947  1.00  0.00     0.073 A 
ATOM     11  C   UNL     1      45.903 130.574  18.034  1.00  0.00     0.091 A 
ATOM     12  C   UNL     1      43.407 131.889  17.684  1.00  0.00     0.018 A 
ATOM     13  C   UNL     1      45.449 130.902  16.737  1.00  0.00    -0.010 A 
ATOM     14  C   UNL     1      44.196 131.550  16.570  1.00  0.00     0.010 A 
ATOM     15  H   UNL     1      46.169 130.271  20.849  1.00  0.00     0.489 HD
ATOM     16  C   UNL     1      42.114 132.422  20.599  1.00  0.00     0.071 C 
BRANCH  13  17
ATOM     17  C   UNL     1      46.267 130.540  15.558  1.00  0.00     0.003 A 
ATOM     18  C   UNL     1      46.664 129.203  15.391  1.00  0.00     0.123 A 
ATOM     19  C   UNL     1      46.671 131.495  14.594  1.00  0.00    -0.037 A 
ATOM     20  N   UNL     1      47.393 128.831  14.307  1.00  0.00    -0.228 NA
ATOM     21  C   UNL     1      47.409 131.068  13.479  1.00  0.00     0.064 A 
ATOM     22  C   UNL     1      47.764 129.725  13.356  1.00  0.00     0.213 A 
ATOM     23  C   UNL     1      46.318 132.954  14.719  1.00  0.00     0.045 C 
ATOM     24  F   UNL     1      48.487 129.310  12.287  1.00  0.00    -0.185 F 
ENDBRANCH  13  17
ENDBRANCH   5   6
ENDBRANCH   1   5
TORSDOF 5
ENDMDL
MODEL 6
REMARK VINA RESULT:      -5.4      1.427      1.782
REMARK SMILES C#CCOCn1[nH+]c2cc(-c3cnc(F)cc3C)ccc2c1C
REMARK SMILES IDX 4 1 3 2 2 3 1 4 5 5 6 6 7 7 22 8 8 9 21 10 9 11 20 12 10 13
REMARK SMILES IDX 19 14 23 16 11 17 12 18 17 19 13 20 16 21 14 22 18 23 15 24
REMARK H PARENT 7 15
ROOT
ATOM      1  O   UNL     1      43.712 129.638  24.233  1.00  0.00    -0.342 OA
ENDROOT
BRANCH   1   2
ATOM      2  C   UNL     1      42.994 129.171  23.113  1.00  0.00     0.251 C 
BRANCH   2   3
ATOM      3  C   UNL     1      42.048 128.146  23.553  1.00  0.00    -0.078 C 
ATOM      4  C   UNL     1      41.269 127.300  23.915  1.00  0.00     0.006 C 
ENDBRANCH   2   3
ENDBRANCH   1   2
BRANCH   1   5
ATOM      5  C   UNL     1      44.454 130.784  23.872  1.00  0.00     0.351 C 
BRANCH   5   6
ATOM      6  N   UNL     1      44.353 130.979  22.427  1.00  0.00    -0.133 N 
ATOM      7  N   UNL     1      45.248 130.526  21.555  1.00  0.00    -0.121 N 
ATOM      8  C   UNL     1      43.334 131.579  21.759  1.00  0.00     0.090 A 
ATOM      9  C   UNL     1      44.823 130.857  20.325  1.00  0.00     0.236 A 
ATOM     10  C   UNL     1      43.631 131.526  20.409  1.00  0.00     0.073 A 
ATOM     11  C   UNL     1      45.444 130.606  19.104  1.00  0.00     0.091 A 
ATOM     12  C   UNL     1      42.971 131.996  19.276  1.00  0.00     0.018 A 
ATOM     13  C   UNL     1      44.809 131.074  17.932  1.00  0.00    -0.010 A 
ATOM     14  C   UNL     1      43.569 131.759  18.025  1.00  0.00     0.010 A 
ATOM     15  H   UNL     1      46.123 130.009  21.800  1.00  0.00     0.489 HD
ATOM     16  C   UNL     1      42.153 132.250  22.394  1.00  0.00     0.071 C 
BRANCH  13  17
ATOM     17  C   UNL     1      45.427 130.820  16.610  1.00  0.00     0.003 A 
ATOM     18  C   UNL     1      46.691 130.212  16.557  1.00  0.00     0.123 A 
ATOM     19  C   UNL     1      44.790 131.175  15.396  1.00  0.00    -0.037 A 
ATOM     20  N   UNL     1      47.275 129.941  15.361  1.00  0.00    -0.228 NA
ATOM     21  C   UNL     1      45.419 130.863  14.181  1.00  0.00     0.064 A 
ATOM     22  C   UNL     1      46.669 130.245  14.185  1.00  0.00     0.213 A 
ATOM     23  C   UNL     1      43.451 131.864  15.368  1.00  0.00     0.045 C 
ATOM     24  F   UNL     1      47.285 129.952  13.014  1.00  0.00    -0.185 F 
ENDBRANCH  13  17
ENDBRANCH   5   6
ENDBRANCH   1   5
TORSDOF 5
ENDMDL
MODEL 7
REMARK VINA RESULT:      -5.2      0.753      1.009
REMARK SMILES C#CCOCn1[nH+]c2cc(-c3cnc(F)cc3C)ccc2c1C
REMARK SMILES IDX 4 1 3 2 2 3 1 4 5 5 6 6 7 7 22 8 8 9 21 10 9 11 20 12 10 13
REMARK SMILES IDX 19 14 23 16 11 17 12 18 17 19 13 20 16 21 14 22 18 23 15 24
REMARK H PARENT 7 15
ROOT
ATOM      1  O   UNL     1      44.773 130.887  23.327  1.00  0.00    -0.342 OA
ENDROOT
BRANCH   1   2
ATOM      2  C   UNL     1      44.348 129.900  24.241  1.00  0.00     0.251 C 
BRANCH   2   3
ATOM      3  C   UNL     1      42.907 130.042  24.451  1.00  0.00    -0.078 C 
ATOM      4  C   UNL     1      41.720 130.158  24.625  1.00  0.00     0.006 C 
ENDBRANCH   2   3
ENDBRANCH   1   2
BRANCH   1   5
ATOM      5  C   UNL     1      43.648 131.567  22.814  1.00  0.00     0.351 C 
BRANCH   5   6
ATOM      6  N   UNL     1      43.747 131.618  21.357  1.00  0.00    -0.133 N 
ATOM      7  N   UNL     1      44.786 131.157  20.669  1.00  0.00    -0.121 N 
ATOM      8  C   UNL     1      42.800 132.072  20.495  1.00  0.00     0.090 A 
ATOM      9  C   UNL     1      44.524 131.338  19.363  1.00  0.00     0.236 A 
ATOM     10  C   UNL     1      43.293 131.916  19.212  1.00  0.00     0.073 A 
ATOM     11  C   UNL     1      45.331 131.022  18.273  1.00  0.00     0.091 A 
ATOM     12  C   UNL     1      42.775 132.226  17.956  1.00  0.00     0.018 A 
ATOM     13  C   UNL     1      44.845 131.328  16.982  1.00  0.00    -0.010 A 
ATOM     14  C   UNL     1      43.563 131.920  16.832  1.00  0.00     0.010 A 
ATOM     15  H   UNL     1      45.647 130.735  21.084  1.00  0.00     0.489 HD
ATOM     16  C   UNL     1      41.499 132.705  20.888  1.00  0.00     0.071 C 
BRANCH  13  17
ATOM     17  C   UNL     1      45.663 131.001  15.792  1.00  0.00     0.003 A 
ATOM     18  C   UNL     1      46.123 132.047  14.976  1.00  0.00     0.123 A 
ATOM     19  C   UNL     1      45.993 129.669  15.443  1.00  0.00    -0.037 A 
ATOM     20  N   UNL     1      46.898 131.785  13.892  1.00  0.00    -0.228 NA
ATOM     21  C   UNL     1      46.810 129.441  14.324  1.00  0.00     0.064 A 
ATOM     22  C   UNL     1      47.251 130.518  13.557  1.00  0.00     0.213 A 
ATOM     23  C   UNL     1      45.508 128.489  16.244  1.00  0.00     0.045 C 
ATOM     24  F   UNL     1      48.030 130.302  12.469  1.00  0.00    -0.185 F 
ENDBRANCH  13  17
ENDBRANCH   5   6
ENDBRANCH   1   5
TORSDOF 5
ENDMDL
MODEL 8
REMARK VINA RESULT:      -5.1      1.693      2.359
REMARK SMILES C#CCOCn1[nH+]c2cc(-c3cnc(F)cc3C)ccc2c1C
REMARK SMILES IDX 4 1 3 2 2 3 1 4 5 5 6 6 7 7 22 8 8 9 21 10 9 11 20 12 10 13
REMARK SMILES IDX 19 14 23 16 11 17 12 18 17 19 13 20 16 21 14 22 18 23 15 24
REMARK H PARENT 7 15
ROOT
ATOM      1  O   UNL     1      45.339 127.817  23.498  1.00  0.00    -0.342 OA
ENDROOT
BRANCH   1   2
ATOM      2  C   UNL     1      44.329 126.889  23.827  1.00  0.00     0.251 C 
BRANCH   2   3
ATOM      3  C   UNL     1      44.906 125.544  23.826  1.00  0.00    -0.078 C 
ATOM      4  C   UNL     1      45.381 124.436  23.826  1.00  0.00     0.006 C 
ENDBRANCH   2   3
ENDBRANCH   1   2
BRANCH   1   5
ATOM      5  C   UNL     1      44.818 129.126  23.579  1.00  0.00     0.351 C 
BRANCH   5   6
ATOM      6  N   UNL     1      44.783 129.708  22.240  1.00  0.00    -0.133 N 
ATOM      7  N   UNL     1      45.479 129.237  21.210  1.00  0.00    -0.121 N 
ATOM      8  C   UNL     1      44.013 130.748  21.827  1.00  0.00     0.090 A 
ATOM      9  C   UNL     1      45.181 129.991  20.138  1.00  0.00     0.236 A 
ATOM     10  C   UNL     1      44.272 130.954  20.484  1.00  0.00     0.073 A 
ATOM     11  C   UNL     1      45.683 129.880  18.844  1.00  0.00     0.091 A 
ATOM     12  C   UNL     1      43.798 131.883  19.561  1.00  0.00     0.018 A 
ATOM     13  C   UNL     1      45.232 130.809  17.879  1.00  0.00    -0.010 A 
ATOM     14  C   UNL     1      44.283 131.801  18.243  1.00  0.00     0.010 A 
ATOM     15  H   UNL     1      46.138 128.427  21.245  1.00  0.00     0.489 HD
ATOM     16  C   UNL     1      43.117 131.569  22.706  1.00  0.00     0.071 C 
BRANCH  13  17
ATOM     17  C   UNL     1      45.730 130.724  16.487  1.00  0.00     0.003 A 
ATOM     18  C   UNL     1      46.975 130.120  16.247  1.00  0.00     0.123 A 
ATOM     19  C   UNL     1      44.998 131.236  15.389  1.00  0.00    -0.037 A 
ATOM     20  N   UNL     1      47.449 130.001  14.980  1.00  0.00    -0.228 NA
ATOM     21  C   UNL     1      45.514 131.078  14.093  1.00  0.00     0.064 A 
ATOM     22  C   UNL     1      46.750 130.457  13.910  1.00  0.00     0.213 A 
ATOM     23  C   UNL     1      43.673 131.931  15.566  1.00  0.00     0.045 C 
ATOM     24  F   UNL     1      47.258 130.313  12.662  1.00  0.00    -0.185 F 
ENDBRANCH  13  17
ENDBRANCH   5   6
ENDBRANCH   1   5
TORSDOF 5
ENDMDL
MODEL 9
REMARK VINA RESULT:      -4.7      3.904      7.942
REMARK SMILES C#CCOCn1[nH+]c2cc(-c3cnc(F)cc3C)ccc2c1C
REMARK SMILES IDX 4 1 3 2 2 3 1 4 5 5 6 6 7 7 22 8 8 9 21 10 9 11 20 12 10 13
REMARK SMILES IDX 19 14 23 16 11 17 12 18 17 19 13 20 16 21 14 22 18 23 15 24
REMARK H PARENT 7 15
ROOT
ATOM      1  O   UNL     1      46.704 131.333  13.049  1.00  0.00    -0.342 OA
ENDROOT
BRANCH   1   2
ATOM      2  C   UNL     1      48.045 131.218  12.630  1.00  0.00     0.251 C 
BRANCH   2   3
ATOM      3  C   UNL     1      48.610 129.989  13.189  1.00  0.00    -0.078 C 
ATOM      4  C   UNL     1      49.076 128.977  13.649  1.00  0.00     0.006 C 
ENDBRANCH   2   3
ENDBRANCH   1   2
BRANCH   1   5
ATOM      5  C   UNL     1      46.334 130.173  13.763  1.00  0.00     0.351 C 
BRANCH   5   6
ATOM      6  N   UNL     1      45.542 130.564  14.927  1.00  0.00    -0.133 N 
ATOM      7  N   UNL     1      45.938 130.394  16.184  1.00  0.00    -0.121 N 
ATOM      8  C   UNL     1      44.341 131.200  14.915  1.00  0.00     0.090 A 
ATOM      9  C   UNL     1      44.982 130.893  16.985  1.00  0.00     0.236 A 
ATOM     10  C   UNL     1      43.960 131.400  16.229  1.00  0.00     0.073 A 
ATOM     11  C   UNL     1      44.955 130.920  18.377  1.00  0.00     0.091 A 
ATOM     12  C   UNL     1      42.830 131.972  16.810  1.00  0.00     0.018 A 
ATOM     13  C   UNL     1      43.822 131.484  19.004  1.00  0.00    -0.010 A 
ATOM     14  C   UNL     1      42.769 132.016  18.215  1.00  0.00     0.010 A 
ATOM     15  H   UNL     1      46.836 129.946  16.480  1.00  0.00     0.489 HD
ATOM     16  C   UNL     1      43.547 131.535  13.688  1.00  0.00     0.071 C 
BRANCH  13  17
ATOM     17  C   UNL     1      43.754 131.545  20.482  1.00  0.00     0.003 A 
ATOM     18  C   UNL     1      44.741 130.888  21.235  1.00  0.00     0.123 A 
ATOM     19  C   UNL     1      42.724 132.236  21.165  1.00  0.00    -0.037 A 
ATOM     20  N   UNL     1      44.723 130.945  22.592  1.00  0.00    -0.228 NA
ATOM     21  C   UNL     1      42.751 132.286  22.568  1.00  0.00     0.064 A 
ATOM     22  C   UNL     1      43.763 131.628  23.266  1.00  0.00     0.213 A 
ATOM     23  C   UNL     1      41.608 132.934  20.432  1.00  0.00     0.045 C 
ATOM     24  F   UNL     1      43.786 131.664  24.620  1.00  0.00    -0.185 F 
ENDBRANCH  13  17
ENDBRANCH   5   6
ENDBRANCH   1   5
TORSDOF 5
ENDMDL


