MODEL 1
REMARK VINA RESULT:      -9.9      0.000      0.000
REMARK SMILES [O-]C(N[C@H]1Cc2ccccc2[C@H]1O)=C1CCCC1
REMARK SMILES IDX 4 1 5 2 6 3 7 4 8 5 9 6 10 7 11 8 12 9 3 10 2 12 1 13 14 14
REMARK SMILES IDX 15 15 18 16 16 17 17 18 13 19
REMARK H PARENT 3 11 13 20
ROOT
ATOM      1  C   UNL     1      44.522 130.709  15.911  1.00  0.00     0.115 C 
ATOM      2  C   UNL     1      44.811 131.484  14.603  1.00  0.00     0.063 C 
ATOM      3  C   UNL     1      46.088 130.909  14.123  1.00  0.00    -0.040 A 
ATOM      4  C   UNL     1      46.841 131.347  13.031  1.00  0.00     0.004 A 
ATOM      5  C   UNL     1      48.015 130.653  12.699  1.00  0.00     0.000 A 
ATOM      6  C   UNL     1      48.412 129.534  13.453  1.00  0.00     0.000 A 
ATOM      7  C   UNL     1      47.636 129.106  14.541  1.00  0.00     0.007 A 
ATOM      8  C   UNL     1      46.477 129.819  14.863  1.00  0.00    -0.014 A 
ATOM      9  C   UNL     1      45.513 129.509  15.944  1.00  0.00     0.167 C 
ENDROOT
BRANCH   1  10
ATOM     10  N   UNL     1      44.713 131.590  17.070  1.00  0.00    -0.391 N 
ATOM     11  H   UNL     1      45.677 131.952  17.245  1.00  0.00     0.159 HD
BRANCH  10  12
ATOM     12  C   UNL     1      43.687 131.778  18.062  1.00  0.00    -0.046 C 
ATOM     13  O   UNL     1      42.399 132.116  17.658  1.00  0.00    -0.860 OA
BRANCH  12  14
ATOM     14  C   UNL     1      43.944 131.628  19.372  1.00  0.00    -0.062 C 
ATOM     15  C   UNL     1      45.281 131.300  19.946  1.00  0.00     0.032 C 
ATOM     16  C   UNL     1      42.902 131.776  20.425  1.00  0.00     0.032 C 
ATOM     17  C   UNL     1      45.092 131.418  21.453  1.00  0.00     0.005 C 
ATOM     18  C   UNL     1      43.589 131.335  21.712  1.00  0.00     0.005 C 
ENDBRANCH  12  14
ENDBRANCH  10  12
ENDBRANCH   1  10
BRANCH   9  19
ATOM     19  O   UNL     1      46.183 129.395  17.173  1.00  0.00    -0.386 OA
ATOM     20  H   UNL     1      46.973 128.817  17.007  1.00  0.00     0.211 HD
ENDBRANCH   9  19
TORSDOF 4
ENDMDL
MODEL 2
REMARK VINA RESULT:      -9.3      1.580      6.406
REMARK SMILES [O-]C(N[C@H]1Cc2ccccc2[C@H]1O)=C1CCCC1
REMARK SMILES IDX 4 1 5 2 6 3 7 4 8 5 9 6 10 7 11 8 12 9 3 10 2 12 1 13 14 14
REMARK SMILES IDX 15 15 18 16 16 17 17 18 13 19
REMARK H PARENT 3 11 13 20
ROOT
ATOM      1  C   UNL     1      45.614 131.165  17.454  1.00  0.00     0.115 C 
ATOM      2  C   UNL     1      44.223 131.714  17.060  1.00  0.00     0.063 C 
ATOM      3  C   UNL     1      43.514 131.849  18.352  1.00  0.00    -0.040 A 
ATOM      4  C   UNL     1      42.174 132.200  18.536  1.00  0.00     0.004 A 
ATOM      5  C   UNL     1      41.680 132.316  19.844  1.00  0.00     0.000 A 
ATOM      6  C   UNL     1      42.529 132.090  20.943  1.00  0.00     0.000 A 
ATOM      7  C   UNL     1      43.873 131.747  20.736  1.00  0.00     0.007 A 
ATOM      8  C   UNL     1      44.342 131.623  19.424  1.00  0.00    -0.014 A 
ATOM      9  C   UNL     1      45.726 131.305  19.000  1.00  0.00     0.167 C 
ENDROOT
BRANCH   1  10
ATOM     10  N   UNL     1      45.739 129.764  17.035  1.00  0.00    -0.391 N 
ATOM     11  H   UNL     1      46.089 129.080  17.744  1.00  0.00     0.159 HD
BRANCH  10  12
ATOM     12  C   UNL     1      45.611 129.365  15.658  1.00  0.00    -0.046 C 
ATOM     13  O   UNL     1      44.589 128.494  15.291  1.00  0.00    -0.860 OA
BRANCH  12  14
ATOM     14  C   UNL     1      46.454 129.819  14.716  1.00  0.00    -0.062 C 
ATOM     15  C   UNL     1      46.206 131.010  13.853  1.00  0.00     0.032 C 
ATOM     16  C   UNL     1      47.763 129.173  14.419  1.00  0.00     0.032 C 
ATOM     17  C   UNL     1      47.511 131.213  13.093  1.00  0.00     0.005 C 
ATOM     18  C   UNL     1      48.275 129.892  13.177  1.00  0.00     0.005 C 
ENDBRANCH  12  14
ENDBRANCH  10  12
ENDBRANCH   1  10
BRANCH   9  19
ATOM     19  O   UNL     1      46.163 130.124  19.620  1.00  0.00    -0.386 OA
ATOM     20  H   UNL     1      45.350 129.679  19.975  1.00  0.00     0.211 HD
ENDBRANCH   9  19
TORSDOF 4
ENDMDL
MODEL 3
REMARK VINA RESULT:      -9.1      1.250      6.306
REMARK SMILES [O-]C(N[C@H]1Cc2ccccc2[C@H]1O)=C1CCCC1
REMARK SMILES IDX 4 1 5 2 6 3 7 4 8 5 9 6 10 7 11 8 12 9 3 10 2 12 1 13 14 14
REMARK SMILES IDX 15 15 18 16 16 17 17 18 13 19
REMARK H PARENT 3 11 13 20
ROOT
ATOM      1  C   UNL     1      44.622 131.748  17.235  1.00  0.00     0.115 C 
ATOM      2  C   UNL     1      43.328 132.101  18.007  1.00  0.00     0.063 C 
ATOM      3  C   UNL     1      43.593 131.623  19.383  1.00  0.00    -0.040 A 
ATOM      4  C   UNL     1      42.688 131.602  20.448  1.00  0.00     0.004 A 
ATOM      5  C   UNL     1      43.128 131.146  21.698  1.00  0.00     0.000 A 
ATOM      6  C   UNL     1      44.460 130.728  21.870  1.00  0.00     0.000 A 
ATOM      7  C   UNL     1      45.355 130.765  20.790  1.00  0.00     0.007 A 
ATOM      8  C   UNL     1      44.892 131.211  19.548  1.00  0.00    -0.014 A 
ATOM      9  C   UNL     1      45.684 131.355  18.303  1.00  0.00     0.167 C 
ENDROOT
BRANCH   1  10
ATOM     10  N   UNL     1      44.367 130.642  16.305  1.00  0.00    -0.391 N 
ATOM     11  H   UNL     1      44.128 129.712  16.718  1.00  0.00     0.159 HD
BRANCH  10  12
ATOM     12  C   UNL     1      44.649 130.749  14.897  1.00  0.00    -0.046 C 
ATOM     13  O   UNL     1      43.645 131.167  14.029  1.00  0.00    -0.860 OA
BRANCH  12  14
ATOM     14  C   UNL     1      45.864 130.458  14.403  1.00  0.00    -0.062 C 
ATOM     15  C   UNL     1      46.746 129.363  14.899  1.00  0.00     0.032 C 
ATOM     16  C   UNL     1      46.482 131.211  13.276  1.00  0.00     0.032 C 
ATOM     17  C   UNL     1      47.907 129.328  13.913  1.00  0.00     0.005 C 
ATOM     18  C   UNL     1      47.905 130.672  13.188  1.00  0.00     0.005 C 
ENDBRANCH  12  14
ENDBRANCH  10  12
ENDBRANCH   1  10
BRANCH   9  19
ATOM     19  O   UNL     1      46.335 130.149  18.000  1.00  0.00    -0.386 OA
ATOM     20  H   UNL     1      46.501 130.161  17.022  1.00  0.00     0.211 HD
ENDBRANCH   9  19
TORSDOF 4
ENDMDL
MODEL 4
REMARK VINA RESULT:      -9.0      1.218      1.744
REMARK SMILES [O-]C(N[C@H]1Cc2ccccc2[C@H]1O)=C1CCCC1
REMARK SMILES IDX 4 1 5 2 6 3 7 4 8 5 9 6 10 7 11 8 12 9 3 10 2 12 1 13 14 14
REMARK SMILES IDX 15 15 18 16 16 17 17 18 13 19
REMARK H PARENT 3 11 13 20
ROOT
ATOM      1  C   UNL     1      44.909 130.853  16.214  1.00  0.00     0.115 C 
ATOM      2  C   UNL     1      45.098 131.650  14.902  1.00  0.00     0.063 C 
ATOM      3  C   UNL     1      46.270 131.010  14.263  1.00  0.00    -0.040 A 
ATOM      4  C   UNL     1      46.922 131.434  13.102  1.00  0.00     0.004 A 
ATOM      5  C   UNL     1      48.000 130.678  12.619  1.00  0.00     0.000 A 
ATOM      6  C   UNL     1      48.404 129.510  13.293  1.00  0.00     0.000 A 
ATOM      7  C   UNL     1      47.729 129.098  14.452  1.00  0.00     0.007 A 
ATOM      8  C   UNL     1      46.666 129.874  14.924  1.00  0.00    -0.014 A 
ATOM      9  C   UNL     1      45.812 129.590  16.102  1.00  0.00     0.167 C 
ENDROOT
BRANCH   1  10
ATOM     10  N   UNL     1      45.289 131.681  17.365  1.00  0.00    -0.391 N 
ATOM     11  H   UNL     1      46.002 132.428  17.205  1.00  0.00     0.159 HD
BRANCH  10  12
ATOM     12  C   UNL     1      44.885 131.353  18.707  1.00  0.00    -0.046 C 
ATOM     13  O   UNL     1      45.725 130.580  19.504  1.00  0.00    -0.860 OA
BRANCH  12  14
ATOM     14  C   UNL     1      43.716 131.781  19.211  1.00  0.00    -0.062 C 
ATOM     15  C   UNL     1      42.524 132.157  18.397  1.00  0.00     0.032 C 
ATOM     16  C   UNL     1      43.470 131.933  20.672  1.00  0.00     0.032 C 
ATOM     17  C   UNL     1      41.420 132.395  19.420  1.00  0.00     0.005 C 
ATOM     18  C   UNL     1      42.110 132.616  20.765  1.00  0.00     0.005 C 
ENDBRANCH  12  14
ENDBRANCH  10  12
ENDBRANCH   1  10
BRANCH   9  19
ATOM     19  O   UNL     1      46.609 129.393  17.242  1.00  0.00    -0.386 OA
ATOM     20  H   UNL     1      47.432 129.931  17.102  1.00  0.00     0.211 HD
ENDBRANCH   9  19
TORSDOF 4
ENDMDL
MODEL 5
REMARK VINA RESULT:      -8.5      1.260      6.336
REMARK SMILES [O-]C(N[C@H]1Cc2ccccc2[C@H]1O)=C1CCCC1
REMARK SMILES IDX 4 1 5 2 6 3 7 4 8 5 9 6 10 7 11 8 12 9 3 10 2 12 1 13 14 14
REMARK SMILES IDX 15 15 18 16 16 17 17 18 13 19
REMARK H PARENT 3 11 13 20
ROOT
ATOM      1  C   UNL     1      44.926 131.547  17.279  1.00  0.00     0.115 C 
ATOM      2  C   UNL     1      43.666 132.151  17.943  1.00  0.00     0.063 C 
ATOM      3  C   UNL     1      43.756 131.704  19.351  1.00  0.00    -0.040 A 
ATOM      4  C   UNL     1      42.796 131.889  20.349  1.00  0.00     0.004 A 
ATOM      5  C   UNL     1      43.070 131.427  21.644  1.00  0.00     0.000 A 
ATOM      6  C   UNL     1      44.297 130.799  21.926  1.00  0.00     0.000 A 
ATOM      7  C   UNL     1      45.251 130.631  20.912  1.00  0.00     0.007 A 
ATOM      8  C   UNL     1      44.952 131.086  19.624  1.00  0.00    -0.014 A 
ATOM      9  C   UNL     1      45.834 131.033  18.434  1.00  0.00     0.167 C 
ENDROOT
BRANCH   1  10
ATOM     10  N   UNL     1      44.544 130.455  16.375  1.00  0.00    -0.391 N 
ATOM     11  H   UNL     1      44.287 129.539  16.809  1.00  0.00     0.159 HD
BRANCH  10  12
ATOM     12  C   UNL     1      44.726 130.545  14.950  1.00  0.00    -0.046 C 
ATOM     13  O   UNL     1      43.626 130.791  14.134  1.00  0.00    -0.860 OA
BRANCH  12  14
ATOM     14  C   UNL     1      45.938 130.402  14.389  1.00  0.00    -0.062 C 
ATOM     15  C   UNL     1      46.492 131.282  13.321  1.00  0.00     0.032 C 
ATOM     16  C   UNL     1      46.890 129.324  14.778  1.00  0.00     0.032 C 
ATOM     17  C   UNL     1      47.936 130.826  13.157  1.00  0.00     0.005 C 
ATOM     18  C   UNL     1      48.025 129.429  13.767  1.00  0.00     0.005 C 
ENDBRANCH  12  14
ENDBRANCH  10  12
ENDBRANCH   1  10
BRANCH   9  19
ATOM     19  O   UNL     1      46.285 129.720  18.224  1.00  0.00    -0.386 OA
ATOM     20  H   UNL     1      46.128 129.522  17.264  1.00  0.00     0.211 HD
ENDBRANCH   9  19
TORSDOF 4
ENDMDL
MODEL 6
REMARK VINA RESULT:      -8.1      1.345      6.269
REMARK SMILES [O-]C(N[C@H]1Cc2ccccc2[C@H]1O)=C1CCCC1
REMARK SMILES IDX 4 1 5 2 6 3 7 4 8 5 9 6 10 7 11 8 12 9 3 10 2 12 1 13 14 14
REMARK SMILES IDX 15 15 18 16 16 17 17 18 13 19
REMARK H PARENT 3 11 13 20
ROOT
ATOM      1  C   UNL     1      44.646 131.537  16.660  1.00  0.00     0.115 C 
ATOM      2  C   UNL     1      43.395 132.080  17.390  1.00  0.00     0.063 C 
ATOM      3  C   UNL     1      43.629 131.725  18.809  1.00  0.00    -0.040 A 
ATOM      4  C   UNL     1      42.735 131.895  19.869  1.00  0.00     0.004 A 
ATOM      5  C   UNL     1      43.145 131.533  21.161  1.00  0.00     0.000 A 
ATOM      6  C   UNL     1      44.436 131.020  21.376  1.00  0.00     0.000 A 
ATOM      7  C   UNL     1      45.321 130.866  20.298  1.00  0.00     0.007 A 
ATOM      8  C   UNL     1      44.889 131.219  19.016  1.00  0.00    -0.014 A 
ATOM      9  C   UNL     1      45.679 131.164  17.764  1.00  0.00     0.167 C 
ENDROOT
BRANCH   1  10
ATOM     10  N   UNL     1      44.287 130.367  15.849  1.00  0.00    -0.391 N 
ATOM     11  H   UNL     1      43.275 130.108  15.801  1.00  0.00     0.159 HD
BRANCH  10  12
ATOM     12  C   UNL     1      45.281 129.469  15.323  1.00  0.00    -0.046 C 
ATOM     13  O   UNL     1      45.232 128.120  15.662  1.00  0.00    -0.860 OA
BRANCH  12  14
ATOM     14  C   UNL     1      46.255 129.904  14.506  1.00  0.00    -0.062 C 
ATOM     15  C   UNL     1      46.141 131.077  13.594  1.00  0.00     0.032 C 
ATOM     16  C   UNL     1      47.590 129.250  14.416  1.00  0.00     0.032 C 
ATOM     17  C   UNL     1      47.544 131.263  13.029  1.00  0.00     0.005 C 
ATOM     18  C   UNL     1      48.281 129.944  13.249  1.00  0.00     0.005 C 
ENDBRANCH  12  14
ENDBRANCH  10  12
ENDBRANCH   1  10
BRANCH   9  19
ATOM     19  O   UNL     1      46.218 129.880  17.588  1.00  0.00    -0.386 OA
ATOM     20  H   UNL     1      46.904 129.767  18.297  1.00  0.00     0.211 HD
ENDBRANCH   9  19
TORSDOF 4
ENDMDL
MODEL 7
REMARK VINA RESULT:      -8.0      1.320      6.759
REMARK SMILES [O-]C(N[C@H]1Cc2ccccc2[C@H]1O)=C1CCCC1
REMARK SMILES IDX 4 1 5 2 6 3 7 4 8 5 9 6 10 7 11 8 12 9 3 10 2 12 1 13 14 14
REMARK SMILES IDX 15 15 18 16 16 17 17 18 13 19
REMARK H PARENT 3 11 13 20
ROOT
ATOM      1  C   UNL     1      45.337 131.557  19.071  1.00  0.00     0.115 C 
ATOM      2  C   UNL     1      44.038 132.296  19.466  1.00  0.00     0.063 C 
ATOM      3  C   UNL     1      43.709 131.750  20.802  1.00  0.00    -0.040 A 
ATOM      4  C   UNL     1      42.557 132.011  21.550  1.00  0.00     0.004 A 
ATOM      5  C   UNL     1      42.432 131.430  22.821  1.00  0.00     0.000 A 
ATOM      6  C   UNL     1      43.456 130.610  23.328  1.00  0.00     0.000 A 
ATOM      7  C   UNL     1      44.608 130.369  22.564  1.00  0.00     0.007 A 
ATOM      8  C   UNL     1      44.707 130.946  21.294  1.00  0.00    -0.014 A 
ATOM      9  C   UNL     1      45.849 130.840  20.355  1.00  0.00     0.167 C 
ENDROOT
BRANCH   1  10
ATOM     10  N   UNL     1      45.062 130.594  17.997  1.00  0.00    -0.391 N 
ATOM     11  H   UNL     1      45.239 129.584  18.200  1.00  0.00     0.159 HD
BRANCH  10  12
ATOM     12  C   UNL     1      44.781 131.015  16.650  1.00  0.00    -0.046 C 
ATOM     13  O   UNL     1      43.603 131.706  16.381  1.00  0.00    -0.860 OA
BRANCH  12  14
ATOM     14  C   UNL     1      45.635 130.760  15.644  1.00  0.00    -0.062 C 
ATOM     15  C   UNL     1      45.531 131.336  14.273  1.00  0.00     0.032 C 
ATOM     16  C   UNL     1      46.808 129.854  15.786  1.00  0.00     0.032 C 
ATOM     17  C   UNL     1      46.810 130.894  13.573  1.00  0.00     0.005 C 
ATOM     18  C   UNL     1      47.360 129.715  14.373  1.00  0.00     0.005 C 
ENDBRANCH  12  14
ENDBRANCH  10  12
ENDBRANCH   1  10
BRANCH   9  19
ATOM     19  O   UNL     1      46.168 129.491  20.131  1.00  0.00    -0.386 OA
ATOM     20  H   UNL     1      46.764 129.475  19.337  1.00  0.00     0.211 HD
ENDBRANCH   9  19
TORSDOF 4
ENDMDL
MODEL 8
REMARK VINA RESULT:      -8.0      1.287      1.909
REMARK SMILES [O-]C(N[C@H]1Cc2ccccc2[C@H]1O)=C1CCCC1
REMARK SMILES IDX 4 1 5 2 6 3 7 4 8 5 9 6 10 7 11 8 12 9 3 10 2 12 1 13 14 14
REMARK SMILES IDX 15 15 18 16 16 17 17 18 13 19
REMARK H PARENT 3 11 13 20
ROOT
ATOM      1  C   UNL     1      45.514 131.439  17.000  1.00  0.00     0.115 C 
ATOM      2  C   UNL     1      46.356 130.144  16.923  1.00  0.00     0.063 C 
ATOM      3  C   UNL     1      46.859 130.128  15.531  1.00  0.00    -0.040 A 
ATOM      4  C   UNL     1      47.582 129.102  14.916  1.00  0.00     0.004 A 
ATOM      5  C   UNL     1      48.010 129.278  13.592  1.00  0.00     0.000 A 
ATOM      6  C   UNL     1      47.722 130.474  12.909  1.00  0.00     0.000 A 
ATOM      7  C   UNL     1      47.003 131.495  13.548  1.00  0.00     0.007 A 
ATOM      8  C   UNL     1      46.573 131.294  14.863  1.00  0.00    -0.014 A 
ATOM      9  C   UNL     1      45.837 132.257  15.716  1.00  0.00     0.167 C 
ENDROOT
BRANCH   1  10
ATOM     10  N   UNL     1      44.086 131.107  17.076  1.00  0.00    -0.391 N 
ATOM     11  H   UNL     1      43.676 130.565  16.283  1.00  0.00     0.159 HD
BRANCH  10  12
ATOM     12  C   UNL     1      43.221 131.684  18.072  1.00  0.00    -0.046 C 
ATOM     13  O   UNL     1      42.043 132.309  17.675  1.00  0.00    -0.860 OA
BRANCH  12  14
ATOM     14  C   UNL     1      43.524 131.627  19.380  1.00  0.00    -0.062 C 
ATOM     15  C   UNL     1      44.809 131.115  19.935  1.00  0.00     0.032 C 
ATOM     16  C   UNL     1      42.591 132.081  20.448  1.00  0.00     0.032 C 
ATOM     17  C   UNL     1      44.735 131.425  21.425  1.00  0.00     0.005 C 
ATOM     18  C   UNL     1      43.260 131.657  21.750  1.00  0.00     0.005 C 
ENDBRANCH  12  14
ENDBRANCH  10  12
ENDBRANCH   1  10
BRANCH   9  19
ATOM     19  O   UNL     1      44.682 132.704  15.055  1.00  0.00    -0.386 OA
ATOM     20  H   UNL     1      44.784 133.686  14.950  1.00  0.00     0.211 HD
ENDBRANCH   9  19
TORSDOF 4
ENDMDL
MODEL 9
REMARK VINA RESULT:      -7.9      1.266      6.583
REMARK SMILES [O-]C(N[C@H]1Cc2ccccc2[C@H]1O)=C1CCCC1
REMARK SMILES IDX 4 1 5 2 6 3 7 4 8 5 9 6 10 7 11 8 12 9 3 10 2 12 1 13 14 14
REMARK SMILES IDX 15 15 18 16 16 17 17 18 13 19
REMARK H PARENT 3 11 13 20
ROOT
ATOM      1  C   UNL     1      44.806 130.694  17.542  1.00  0.00     0.115 C 
ATOM      2  C   UNL     1      45.685 130.535  18.805  1.00  0.00     0.063 C 
ATOM      3  C   UNL     1      44.877 131.152  19.881  1.00  0.00    -0.040 A 
ATOM      4  C   UNL     1      45.274 131.368  21.203  1.00  0.00     0.004 A 
ATOM      5  C   UNL     1      44.356 131.936  22.099  1.00  0.00     0.000 A 
ATOM      6  C   UNL     1      43.059 132.268  21.667  1.00  0.00     0.000 A 
ATOM      7  C   UNL     1      42.678 132.035  20.337  1.00  0.00     0.007 A 
ATOM      8  C   UNL     1      43.613 131.481  19.456  1.00  0.00    -0.014 A 
ATOM      9  C   UNL     1      43.395 131.129  18.033  1.00  0.00     0.167 C 
ENDROOT
BRANCH   1  10
ATOM     10  N   UNL     1      45.392 131.697  16.644  1.00  0.00    -0.391 N 
ATOM     11  H   UNL     1      45.678 132.610  17.066  1.00  0.00     0.159 HD
BRANCH  10  12
ATOM     12  C   UNL     1      45.372 131.545  15.213  1.00  0.00    -0.046 C 
ATOM     13  O   UNL     1      44.295 132.044  14.487  1.00  0.00    -0.860 OA
BRANCH  12  14
ATOM     14  C   UNL     1      46.376 130.934  14.560  1.00  0.00    -0.062 C 
ATOM     15  C   UNL     1      46.870 131.319  13.208  1.00  0.00     0.032 C 
ATOM     16  C   UNL     1      47.125 129.778  15.125  1.00  0.00     0.032 C 
ATOM     17  C   UNL     1      48.110 130.459  12.993  1.00  0.00     0.005 C 
ATOM     18  C   UNL     1      48.014 129.300  13.983  1.00  0.00     0.005 C 
ENDBRANCH  12  14
ENDBRANCH  10  12
ENDBRANCH   1  10
BRANCH   9  19
ATOM     19  O   UNL     1      42.896 132.238  17.331  1.00  0.00    -0.386 OA
ATOM     20  H   UNL     1      41.960 132.362  17.635  1.00  0.00     0.211 HD
ENDBRANCH   9  19
TORSDOF 4
ENDMDL


