MODEL 1
REMARK VINA RESULT:      -9.0      0.000      0.000
REMARK SMILES Cn1c[nH+]c2cc(-c3ccc(CC[NH3+])cc3)cnc21
REMARK SMILES IDX 12 1 11 2 8 3 9 4 16 5 10 6 15 7 7 8 2 9 3 10 19 11 4 12
REMARK SMILES IDX 18 13 5 14 17 15 6 16 1 17 13 19 14 20
REMARK H PARENT 4 18 14 21 14 22 14 23
ROOT
ATOM      1  C   UNL     1      46.492 130.725  13.522  1.00  0.00     0.096 C 
ENDROOT
BRANCH   1   2
ATOM      2  C   UNL     1      46.055 130.799  14.963  1.00  0.00    -0.042 A 
ATOM      3  C   UNL     1      45.280 130.969  17.670  1.00  0.00    -0.017 A 
ATOM      4  C   UNL     1      46.213 130.003  17.253  1.00  0.00     0.009 A 
ATOM      5  C   UNL     1      44.742 131.852  16.717  1.00  0.00     0.009 A 
ATOM      6  C   UNL     1      46.599 129.922  15.911  1.00  0.00     0.004 A 
ATOM      7  C   UNL     1      45.128 131.768  15.376  1.00  0.00     0.004 A 
BRANCH   3   8
ATOM      8  C   UNL     1      44.872 131.057  19.095  1.00  0.00     0.005 A 
ATOM      9  N   UNL     1      43.622 131.370  22.966  1.00  0.00    -0.217 N 
ATOM     10  C   UNL     1      42.457 132.026  22.730  1.00  0.00     0.404 A 
ATOM     11  C   UNL     1      44.157 131.200  21.748  1.00  0.00     0.268 A 
ATOM     12  N   UNL     1      42.270 132.287  21.410  1.00  0.00    -0.242 N 
ATOM     13  N   UNL     1      45.310 130.562  21.433  1.00  0.00    -0.213 NA
ATOM     14  C   UNL     1      43.349 131.757  20.810  1.00  0.00     0.192 A 
ATOM     15  C   UNL     1      45.681 130.485  20.120  1.00  0.00     0.124 A 
ATOM     16  C   UNL     1      43.668 131.708  19.459  1.00  0.00     0.068 A 
ATOM     17  C   UNL     1      44.101 130.843  24.239  1.00  0.00     0.298 C 
ATOM     18  H   UNL     1      41.459 132.770  20.963  1.00  0.00     0.312 HD
ENDBRANCH   3   8
ENDBRANCH   1   2
BRANCH   1  19
ATOM     19  C   UNL     1      48.022 130.681  13.390  1.00  0.00     0.263 C 
BRANCH  19  20
ATOM     20  N   UNL     1      48.519 129.309  13.265  1.00  0.00    -0.357 N 
ATOM     21  H   UNL     1      48.159 128.720  14.051  1.00  0.00     0.344 HD
ATOM     22  H   UNL     1      49.564 129.301  13.264  1.00  0.00     0.344 HD
ATOM     23  H   UNL     1      48.178 128.905  12.364  1.00  0.00     0.344 HD
ENDBRANCH  19  20
ENDBRANCH   1  19
TORSDOF 4
ENDMDL
MODEL 2
REMARK VINA RESULT:      -8.7      0.235      1.135
REMARK SMILES Cn1c[nH+]c2cc(-c3ccc(CC[NH3+])cc3)cnc21
REMARK SMILES IDX 12 1 11 2 8 3 9 4 16 5 10 6 15 7 7 8 2 9 3 10 19 11 4 12
REMARK SMILES IDX 18 13 5 14 17 15 6 16 1 17 13 19 14 20
REMARK H PARENT 4 18 14 21 14 22 14 23
ROOT
ATOM      1  C   UNL     1      46.206 130.669  13.643  1.00  0.00     0.096 C 
ENDROOT
BRANCH   1   2
ATOM      2  C   UNL     1      45.862 130.777  15.107  1.00  0.00    -0.042 A 
ATOM      3  C   UNL     1      45.176 130.944  17.838  1.00  0.00    -0.017 A 
ATOM      4  C   UNL     1      44.567 131.791  16.895  1.00  0.00     0.009 A 
ATOM      5  C   UNL     1      46.130 130.010  17.397  1.00  0.00     0.009 A 
ATOM      6  C   UNL     1      44.905 131.705  15.541  1.00  0.00     0.004 A 
ATOM      7  C   UNL     1      46.468 129.926  16.044  1.00  0.00     0.004 A 
BRANCH   3   8
ATOM      8  C   UNL     1      44.815 131.034  19.276  1.00  0.00     0.005 A 
ATOM      9  N   UNL     1      43.691 131.347  23.185  1.00  0.00    -0.217 N 
ATOM     10  C   UNL     1      42.502 131.971  22.985  1.00  0.00     0.404 A 
ATOM     11  C   UNL     1      44.189 131.182  21.950  1.00  0.00     0.268 A 
ATOM     12  N   UNL     1      42.263 132.216  21.670  1.00  0.00    -0.242 N 
ATOM     13  N   UNL     1      45.346 130.571  21.601  1.00  0.00    -0.213 NA
ATOM     14  C   UNL     1      43.335 131.709  21.037  1.00  0.00     0.192 A 
ATOM     15  C   UNL     1      45.674 130.492  20.276  1.00  0.00     0.124 A 
ATOM     16  C   UNL     1      43.608 131.657  19.677  1.00  0.00     0.068 A 
ATOM     17  C   UNL     1      44.227 130.844  24.444  1.00  0.00     0.298 C 
ATOM     18  H   UNL     1      41.425 132.674  21.248  1.00  0.00     0.312 HD
ENDBRANCH   3   8
ENDBRANCH   1   2
BRANCH   1  19
ATOM     19  C   UNL     1      47.720 130.764  13.403  1.00  0.00     0.263 C 
BRANCH  19  20
ATOM     20  N   UNL     1      48.348 129.442  13.348  1.00  0.00    -0.357 N 
ATOM     21  H   UNL     1      49.113 129.433  12.636  1.00  0.00     0.344 HD
ATOM     22  H   UNL     1      47.637 128.712  13.116  1.00  0.00     0.344 HD
ATOM     23  H   UNL     1      48.762 129.223  14.283  1.00  0.00     0.344 HD
ENDBRANCH  19  20
ENDBRANCH   1  19
TORSDOF 4
ENDMDL
MODEL 3
REMARK VINA RESULT:      -8.4      0.677      1.989
REMARK SMILES Cn1c[nH+]c2cc(-c3ccc(CC[NH3+])cc3)cnc21
REMARK SMILES IDX 12 1 11 2 8 3 9 4 16 5 10 6 15 7 7 8 2 9 3 10 19 11 4 12
REMARK SMILES IDX 18 13 5 14 17 15 6 16 1 17 13 19 14 20
REMARK H PARENT 4 18 14 21 14 22 14 23
ROOT
ATOM      1  C   UNL     1      46.320 130.787  13.526  1.00  0.00     0.096 C 
ENDROOT
BRANCH   1   2
ATOM      2  C   UNL     1      45.811 130.936  14.937  1.00  0.00    -0.042 A 
ATOM      3  C   UNL     1      44.825 131.168  17.571  1.00  0.00    -0.017 A 
ATOM      4  C   UNL     1      44.126 131.741  16.493  1.00  0.00     0.009 A 
ATOM      5  C   UNL     1      46.021 130.474  17.314  1.00  0.00     0.009 A 
ATOM      6  C   UNL     1      44.614 131.622  15.187  1.00  0.00     0.004 A 
ATOM      7  C   UNL     1      46.508 130.358  16.009  1.00  0.00     0.004 A 
BRANCH   3   8
ATOM      8  C   UNL     1      44.306 131.292  18.956  1.00  0.00     0.005 A 
ATOM      9  N   UNL     1      43.008 131.563  22.815  1.00  0.00    -0.217 N 
ATOM     10  C   UNL     1      44.063 130.945  23.407  1.00  0.00     0.404 A 
ATOM     11  C   UNL     1      43.305 131.540  21.506  1.00  0.00     0.268 A 
ATOM     12  N   UNL     1      44.986 130.522  22.504  1.00  0.00    -0.242 N 
ATOM     13  N   UNL     1      42.586 132.067  20.487  1.00  0.00    -0.213 NA
ATOM     14  C   UNL     1      44.491 130.909  21.316  1.00  0.00     0.192 A 
ATOM     15  C   UNL     1      43.068 131.949  19.213  1.00  0.00     0.124 A 
ATOM     16  C   UNL     1      45.036 130.761  20.047  1.00  0.00     0.068 A 
ATOM     17  C   UNL     1      41.887 132.226  23.470  1.00  0.00     0.298 C 
ATOM     18  H   UNL     1      45.886 130.030  22.696  1.00  0.00     0.312 HD
ENDBRANCH   3   8
ENDBRANCH   1   2
BRANCH   1  19
ATOM     19  C   UNL     1      47.830 130.506  13.491  1.00  0.00     0.263 C 
BRANCH  19  20
ATOM     20  N   UNL     1      48.129 129.095  13.744  1.00  0.00    -0.357 N 
ATOM     21  H   UNL     1      48.295 128.592  12.842  1.00  0.00     0.344 HD
ATOM     22  H   UNL     1      47.341 128.645  14.263  1.00  0.00     0.344 HD
ATOM     23  H   UNL     1      48.996 129.030  14.325  1.00  0.00     0.344 HD
ENDBRANCH  19  20
ENDBRANCH   1  19
TORSDOF 4
ENDMDL
MODEL 4
REMARK VINA RESULT:      -8.3      0.765      1.704
REMARK SMILES Cn1c[nH+]c2cc(-c3ccc(CC[NH3+])cc3)cnc21
REMARK SMILES IDX 12 1 11 2 8 3 9 4 16 5 10 6 15 7 7 8 2 9 3 10 19 11 4 12
REMARK SMILES IDX 18 13 5 14 17 15 6 16 1 17 13 19 14 20
REMARK H PARENT 4 18 14 21 14 22 14 23
ROOT
ATOM      1  C   UNL     1      46.870 130.692  13.339  1.00  0.00     0.096 C 
ENDROOT
BRANCH   1   2
ATOM      2  C   UNL     1      46.276 130.824  14.718  1.00  0.00    -0.042 A 
ATOM      3  C   UNL     1      45.215 131.065  17.321  1.00  0.00    -0.017 A 
ATOM      4  C   UNL     1      45.408 129.797  16.743  1.00  0.00     0.009 A 
ATOM      5  C   UNL     1      45.563 132.210  16.583  1.00  0.00     0.009 A 
ATOM      6  C   UNL     1      45.938 129.679  15.454  1.00  0.00     0.004 A 
ATOM      7  C   UNL     1      46.090 132.090  15.294  1.00  0.00     0.004 A 
BRANCH   3   8
ATOM      8  C   UNL     1      44.656 131.191  18.691  1.00  0.00     0.005 A 
ATOM      9  N   UNL     1      43.241 131.460  22.508  1.00  0.00    -0.217 N 
ATOM     10  C   UNL     1      44.242 130.779  23.123  1.00  0.00     0.404 A 
ATOM     11  C   UNL     1      43.581 131.445  21.210  1.00  0.00     0.268 A 
ATOM     12  N   UNL     1      45.173 130.325  22.244  1.00  0.00    -0.242 N 
ATOM     13  N   UNL     1      42.925 132.026  20.177  1.00  0.00    -0.213 NA
ATOM     14  C   UNL     1      44.739 130.757  21.048  1.00  0.00     0.192 A 
ATOM     15  C   UNL     1      43.444 131.906  18.918  1.00  0.00     0.124 A 
ATOM     16  C   UNL     1      45.320 130.604  19.795  1.00  0.00     0.068 A 
ATOM     17  C   UNL     1      42.133 132.169  23.138  1.00  0.00     0.298 C 
ATOM     18  H   UNL     1      46.040 129.784  22.456  1.00  0.00     0.312 HD
ENDBRANCH   3   8
ENDBRANCH   1   2
BRANCH   1  19
ATOM     19  C   UNL     1      48.382 130.424  13.391  1.00  0.00     0.263 C 
BRANCH  19  20
ATOM     20  N   UNL     1      48.693 129.010  13.168  1.00  0.00    -0.357 N 
ATOM     21  H   UNL     1      49.678 128.807  13.455  1.00  0.00     0.344 HD
ATOM     22  H   UNL     1      48.556 128.762  12.162  1.00  0.00     0.344 HD
ATOM     23  H   UNL     1      48.051 128.425  13.750  1.00  0.00     0.344 HD
ENDBRANCH  19  20
ENDBRANCH   1  19
TORSDOF 4
ENDMDL
MODEL 5
REMARK VINA RESULT:      -8.2      1.597      7.597
REMARK SMILES Cn1c[nH+]c2cc(-c3ccc(CC[NH3+])cc3)cnc21
REMARK SMILES IDX 12 1 11 2 8 3 9 4 16 5 10 6 15 7 7 8 2 9 3 10 19 11 4 12
REMARK SMILES IDX 18 13 5 14 17 15 6 16 1 17 13 19 14 20
REMARK H PARENT 4 18 14 21 14 22 14 23
ROOT
ATOM      1  C   UNL     1      43.042 131.562  22.532  1.00  0.00     0.096 C 
ENDROOT
BRANCH   1   2
ATOM      2  C   UNL     1      43.700 131.450  21.181  1.00  0.00    -0.042 A 
ATOM      3  C   UNL     1      44.912 131.189  18.646  1.00  0.00    -0.017 A 
ATOM      4  C   UNL     1      45.575 130.745  19.804  1.00  0.00     0.009 A 
ATOM      5  C   UNL     1      43.633 131.761  18.771  1.00  0.00     0.009 A 
ATOM      6  C   UNL     1      44.972 130.872  21.060  1.00  0.00     0.004 A 
ATOM      7  C   UNL     1      43.033 131.889  20.027  1.00  0.00     0.004 A 
BRANCH   3   8
ATOM      8  C   UNL     1      45.551 131.053  17.313  1.00  0.00     0.005 A 
ATOM      9  N   UNL     1      47.348 130.533  13.687  1.00  0.00    -0.217 N 
ATOM     10  C   UNL     1      47.805 129.271  13.888  1.00  0.00     0.404 A 
ATOM     11  C   UNL     1      46.724 130.844  14.833  1.00  0.00     0.268 A 
ATOM     12  N   UNL     1      47.503 128.804  15.128  1.00  0.00    -0.242 N 
ATOM     13  N   UNL     1      46.061 131.988  15.129  1.00  0.00    -0.213 NA
ATOM     14  C   UNL     1      46.821 129.808  15.704  1.00  0.00     0.192 A 
ATOM     15  C   UNL     1      45.476 132.109  16.359  1.00  0.00     0.124 A 
ATOM     16  C   UNL     1      46.243 129.867  16.966  1.00  0.00     0.068 A 
ATOM     17  C   UNL     1      47.401 131.309  12.454  1.00  0.00     0.298 C 
ATOM     18  H   UNL     1      47.730 127.867  15.530  1.00  0.00     0.312 HD
ENDBRANCH   3   8
ENDBRANCH   1   2
BRANCH   1  19
ATOM     19  C   UNL     1      43.159 130.257  23.334  1.00  0.00     0.263 C 
BRANCH  19  20
ATOM     20  N   UNL     1      41.894 129.520  23.364  1.00  0.00    -0.357 N 
ATOM     21  H   UNL     1      41.668 129.149  22.413  1.00  0.00     0.344 HD
ATOM     22  H   UNL     1      41.121 130.138  23.698  1.00  0.00     0.344 HD
ATOM     23  H   UNL     1      41.987 128.712  24.021  1.00  0.00     0.344 HD
ENDBRANCH  19  20
ENDBRANCH   1  19
TORSDOF 4
ENDMDL
MODEL 6
REMARK VINA RESULT:      -8.2      1.545      7.734
REMARK SMILES Cn1c[nH+]c2cc(-c3ccc(CC[NH3+])cc3)cnc21
REMARK SMILES IDX 12 1 11 2 8 3 9 4 16 5 10 6 15 7 7 8 2 9 3 10 19 11 4 12
REMARK SMILES IDX 18 13 5 14 17 15 6 16 1 17 13 19 14 20
REMARK H PARENT 4 18 14 21 14 22 14 23
ROOT
ATOM      1  C   UNL     1      42.693 131.851  22.184  1.00  0.00     0.096 C 
ENDROOT
BRANCH   1   2
ATOM      2  C   UNL     1      43.415 131.655  20.875  1.00  0.00    -0.042 A 
ATOM      3  C   UNL     1      44.786 131.340  18.430  1.00  0.00    -0.017 A 
ATOM      4  C   UNL     1      43.491 131.889  18.458  1.00  0.00     0.009 A 
ATOM      5  C   UNL     1      45.388 130.955  19.641  1.00  0.00     0.009 A 
ATOM      6  C   UNL     1      42.814 132.047  19.672  1.00  0.00     0.004 A 
ATOM      7  C   UNL     1      44.709 131.113  20.852  1.00  0.00     0.004 A 
BRANCH   3   8
ATOM      8  C   UNL     1      45.506 131.174  17.142  1.00  0.00     0.005 A 
ATOM      9  N   UNL     1      47.518 130.574  13.644  1.00  0.00    -0.217 N 
ATOM     10  C   UNL     1      47.909 129.294  13.875  1.00  0.00     0.404 A 
ATOM     11  C   UNL     1      46.831 130.912  14.746  1.00  0.00     0.268 A 
ATOM     12  N   UNL     1      47.506 128.843  15.091  1.00  0.00    -0.242 N 
ATOM     13  N   UNL     1      46.197 132.083  14.997  1.00  0.00    -0.213 NA
ATOM     14  C   UNL     1      46.828 129.875  15.621  1.00  0.00     0.192 A 
ATOM     15  C   UNL     1      45.537 132.230  16.185  1.00  0.00     0.124 A 
ATOM     16  C   UNL     1      46.171 129.961  16.841  1.00  0.00     0.068 A 
ATOM     17  C   UNL     1      47.683 131.344  12.417  1.00  0.00     0.298 C 
ATOM     18  H   UNL     1      47.668 127.899  15.508  1.00  0.00     0.312 HD
ENDBRANCH   3   8
ENDBRANCH   1   2
BRANCH   1  19
ATOM     19  C   UNL     1      43.625 131.644  23.388  1.00  0.00     0.263 C 
BRANCH  19  20
ATOM     20  N   UNL     1      42.890 131.218  24.580  1.00  0.00    -0.357 N 
ATOM     21  H   UNL     1      42.521 132.050  25.095  1.00  0.00     0.344 HD
ATOM     22  H   UNL     1      43.509 130.657  25.208  1.00  0.00     0.344 HD
ATOM     23  H   UNL     1      42.081 130.624  24.287  1.00  0.00     0.344 HD
ENDBRANCH  19  20
ENDBRANCH   1  19
TORSDOF 4
ENDMDL
MODEL 7
REMARK VINA RESULT:      -8.0      1.782      7.445
REMARK SMILES Cn1c[nH+]c2cc(-c3ccc(CC[NH3+])cc3)cnc21
REMARK SMILES IDX 12 1 11 2 8 3 9 4 16 5 10 6 15 7 7 8 2 9 3 10 19 11 4 12
REMARK SMILES IDX 18 13 5 14 17 15 6 16 1 17 13 19 14 20
REMARK H PARENT 4 18 14 21 14 22 14 23
ROOT
ATOM      1  C   UNL     1      42.801 131.889  23.456  1.00  0.00     0.096 C 
ENDROOT
BRANCH   1   2
ATOM      2  C   UNL     1      43.395 131.627  22.096  1.00  0.00    -0.042 A 
ATOM      3  C   UNL     1      44.527 131.188  19.549  1.00  0.00    -0.017 A 
ATOM      4  C   UNL     1      43.249 131.761  19.674  1.00  0.00     0.009 A 
ATOM      5  C   UNL     1      45.235 130.842  20.714  1.00  0.00     0.009 A 
ATOM      6  C   UNL     1      42.690 131.981  20.937  1.00  0.00     0.004 A 
ATOM      7  C   UNL     1      44.674 131.061  21.976  1.00  0.00     0.004 A 
BRANCH   3   8
ATOM      8  C   UNL     1      45.121 130.956  18.208  1.00  0.00     0.005 A 
ATOM      9  N   UNL     1      46.674 130.440  14.471  1.00  0.00    -0.217 N 
ATOM     10  C   UNL     1      46.011 131.452  13.855  1.00  0.00     0.404 A 
ATOM     11  C   UNL     1      46.245 130.489  15.741  1.00  0.00     0.268 A 
ATOM     12  N   UNL     1      45.171 132.107  14.699  1.00  0.00    -0.242 N 
ATOM     13  N   UNL     1      46.635 129.708  16.776  1.00  0.00    -0.213 NA
ATOM     14  C   UNL     1      45.335 131.487  15.879  1.00  0.00     0.192 A 
ATOM     15  C   UNL     1      46.084 129.924  18.008  1.00  0.00     0.124 A 
ATOM     16  C   UNL     1      44.743 131.760  17.106  1.00  0.00     0.068 A 
ATOM     17  C   UNL     1      47.720 129.594  13.908  1.00  0.00     0.298 C 
ATOM     18  H   UNL     1      44.555 132.922  14.481  1.00  0.00     0.312 HD
ENDBRANCH   3   8
ENDBRANCH   1   2
BRANCH   1  19
ATOM     19  C   UNL     1      42.590 130.590  24.248  1.00  0.00     0.263 C 
BRANCH  19  20
ATOM     20  N   UNL     1      41.774 129.626  23.506  1.00  0.00    -0.357 N 
ATOM     21  H   UNL     1      40.769 129.913  23.523  1.00  0.00     0.344 HD
ATOM     22  H   UNL     1      41.879 128.670  23.916  1.00  0.00     0.344 HD
ATOM     23  H   UNL     1      42.096 129.603  22.511  1.00  0.00     0.344 HD
ENDBRANCH  19  20
ENDBRANCH   1  19
TORSDOF 4
ENDMDL
MODEL 8
REMARK VINA RESULT:      -7.8      0.931      1.792
REMARK SMILES Cn1c[nH+]c2cc(-c3ccc(CC[NH3+])cc3)cnc21
REMARK SMILES IDX 12 1 11 2 8 3 9 4 16 5 10 6 15 7 7 8 2 9 3 10 19 11 4 12
REMARK SMILES IDX 18 13 5 14 17 15 6 16 1 17 13 19 14 20
REMARK H PARENT 4 18 14 21 14 22 14 23
ROOT
ATOM      1  C   UNL     1      45.897 130.845  13.662  1.00  0.00     0.096 C 
ENDROOT
BRANCH   1   2
ATOM      2  C   UNL     1      45.434 130.951  15.093  1.00  0.00    -0.042 A 
ATOM      3  C   UNL     1      44.594 131.198  17.774  1.00  0.00    -0.017 A 
ATOM      4  C   UNL     1      45.838 130.620  17.466  1.00  0.00     0.009 A 
ATOM      5  C   UNL     1      43.776 131.655  16.725  1.00  0.00     0.009 A 
ATOM      6  C   UNL     1      46.255 130.501  16.136  1.00  0.00     0.004 A 
ATOM      7  C   UNL     1      44.194 131.534  15.397  1.00  0.00     0.004 A 
BRANCH   3   8
ATOM      8  C   UNL     1      44.152 131.326  19.186  1.00  0.00     0.005 A 
ATOM      9  N   UNL     1      43.064 131.600  23.109  1.00  0.00    -0.217 N 
ATOM     10  C   UNL     1      44.098 130.897  23.636  1.00  0.00     0.404 A 
ATOM     11  C   UNL     1      43.295 131.586  21.787  1.00  0.00     0.268 A 
ATOM     12  N   UNL     1      44.945 130.431  22.681  1.00  0.00    -0.242 N 
ATOM     13  N   UNL     1      42.567 132.186  20.814  1.00  0.00    -0.213 NA
ATOM     14  C   UNL     1      44.422 130.878  21.527  1.00  0.00     0.192 A 
ATOM     15  C   UNL     1      42.977 132.063  19.516  1.00  0.00     0.124 A 
ATOM     16  C   UNL     1      44.894 130.721  20.230  1.00  0.00     0.068 A 
ATOM     17  C   UNL     1      42.026 132.326  23.831  1.00  0.00     0.298 C 
ATOM     18  H   UNL     1      45.816 129.872  22.818  1.00  0.00     0.312 HD
ENDBRANCH   3   8
ENDBRANCH   1   2
BRANCH   1  19
ATOM     19  C   UNL     1      47.360 130.387  13.567  1.00  0.00     0.263 C 
BRANCH  19  20
ATOM     20  N   UNL     1      48.173 131.316  12.779  1.00  0.00    -0.357 N 
ATOM     21  H   UNL     1      49.178 131.243  13.056  1.00  0.00     0.344 HD
ATOM     22  H   UNL     1      47.836 132.296  12.912  1.00  0.00     0.344 HD
ATOM     23  H   UNL     1      48.089 131.066  11.767  1.00  0.00     0.344 HD
ENDBRANCH  19  20
ENDBRANCH   1  19
TORSDOF 4
ENDMDL
MODEL 9
REMARK VINA RESULT:      -7.7      1.735      7.483
REMARK SMILES Cn1c[nH+]c2cc(-c3ccc(CC[NH3+])cc3)cnc21
REMARK SMILES IDX 12 1 11 2 8 3 9 4 16 5 10 6 15 7 7 8 2 9 3 10 19 11 4 12
REMARK SMILES IDX 18 13 5 14 17 15 6 16 1 17 13 19 14 20
REMARK H PARENT 4 18 14 21 14 22 14 23
ROOT
ATOM      1  C   UNL     1      42.756 131.926  23.341  1.00  0.00     0.096 C 
ENDROOT
BRANCH   1   2
ATOM      2  C   UNL     1      43.373 131.657  21.992  1.00  0.00    -0.042 A 
ATOM      3  C   UNL     1      44.550 131.205  19.469  1.00  0.00    -0.017 A 
ATOM      4  C   UNL     1      43.297 131.835  19.570  1.00  0.00     0.009 A 
ATOM      5  C   UNL     1      45.209 130.808  20.646  1.00  0.00     0.009 A 
ATOM      6  C   UNL     1      42.716 132.062  20.822  1.00  0.00     0.004 A 
ATOM      7  C   UNL     1      44.626 131.033  21.896  1.00  0.00     0.004 A 
BRANCH   3   8
ATOM      8  C   UNL     1      45.168 130.966  18.140  1.00  0.00     0.005 A 
ATOM      9  N   UNL     1      46.805 130.444  14.440  1.00  0.00    -0.217 N 
ATOM     10  C   UNL     1      46.305 131.564  13.858  1.00  0.00     0.404 A 
ATOM     11  C   UNL     1      46.330 130.483  15.694  1.00  0.00     0.268 A 
ATOM     12  N   UNL     1      45.519 132.278  14.705  1.00  0.00    -0.242 N 
ATOM     13  N   UNL     1      46.572 129.606  16.697  1.00  0.00    -0.213 NA
ATOM     14  C   UNL     1      45.551 131.582  15.854  1.00  0.00     0.192 A 
ATOM     15  C   UNL     1      45.999 129.830  17.918  1.00  0.00     0.124 A 
ATOM     16  C   UNL     1      44.945 131.868  17.071  1.00  0.00     0.068 A 
ATOM     17  C   UNL     1      47.758 129.499  13.870  1.00  0.00     0.298 C 
ATOM     18  H   UNL     1      45.023 133.176  14.511  1.00  0.00     0.312 HD
ENDBRANCH   3   8
ENDBRANCH   1   2
BRANCH   1  19
ATOM     19  C   UNL     1      43.814 131.977  24.454  1.00  0.00     0.263 C 
BRANCH  19  20
ATOM     20  N   UNL     1      44.361 133.325  24.624  1.00  0.00    -0.357 N 
ATOM     21  H   UNL     1      44.884 133.615  23.766  1.00  0.00     0.344 HD
ATOM     22  H   UNL     1      44.995 133.358  25.455  1.00  0.00     0.344 HD
ATOM     23  H   UNL     1      43.573 133.995  24.775  1.00  0.00     0.344 HD
ENDBRANCH  19  20
ENDBRANCH   1  19
TORSDOF 4
ENDMDL


