REMARK SMILES Cc1cc[nH+]c(F)c1-c1cc2c(C)c(F)cc(Nc3cccc(N)c3O)c2[nH]1
REMARK SMILES IDX 18 1 17 3 9 4 10 5 28 6 11 7 27 8 12 9 14 10 16 11 13 13
REMARK SMILES IDX 15 14 8 15 2 16 3 17 4 18 6 19 5 20 1 21 7 22 19 24 20 25
REMARK SMILES IDX 25 26 21 27 23 28 22 29 26 30 24 32
REMARK H PARENT 18 2 28 12 5 23 26 31 24 33 24 34
ROOT
ATOM      1  N   UNL     1       2.353  -1.411  -0.509  1.00  0.00    -0.351 N 
ATOM      2  H   UNL     1       3.384  -1.581  -0.533  1.00  0.00     0.167 HD
ENDROOT
BRANCH   1   3
ATOM      3  C   UNL     1       1.838  -0.324  -1.295  1.00  0.00     0.066 A 
ATOM      4  C   UNL     1      -0.723   1.502   0.313  1.00  0.00     0.056 A 
ATOM      5  C   UNL     1      -0.683   2.162  -0.912  1.00  0.00     0.037 A 
ATOM      6  N   UNL     1       0.187   0.503   0.350  1.00  0.00    -0.353 N 
ATOM      7  C   UNL     1       0.307   1.526  -1.634  1.00  0.00     0.008 A 
ATOM      8  C   UNL     1       0.806   0.517  -0.845  1.00  0.00     0.070 A 
ATOM      9  C   UNL     1       0.806   1.784  -2.917  1.00  0.00    -0.006 A 
ATOM     10  C   UNL     1       1.880   0.985  -3.369  1.00  0.00     0.128 A 
ATOM     11  C   UNL     1       2.388  -0.056  -2.563  1.00  0.00     0.067 A 
ATOM     12  H   UNL     1       0.382  -0.119   1.165  1.00  0.00     0.167 HD
ATOM     13  C   UNL     1       0.265   2.915  -3.746  1.00  0.00     0.048 C 
ATOM     14  F   UNL     1       2.438   1.205  -4.586  1.00  0.00    -0.207 F 
BRANCH   4  15
ATOM     15  C   UNL     1      -1.658   1.796   1.422  1.00  0.00     0.105 A 
ATOM     16  C   UNL     1      -1.846   3.106   1.927  1.00  0.00    -0.026 A 
ATOM     17  C   UNL     1      -2.780   3.312   2.953  1.00  0.00     0.075 A 
ATOM     18  C   UNL     1      -3.479   2.231   3.485  1.00  0.00     0.309 A 
ATOM     19  C   UNL     1      -2.380   0.737   2.004  1.00  0.00     0.367 A 
ATOM     20  N   UNL     1      -3.263   0.977   3.010  1.00  0.00    -0.186 N 
ATOM     21  C   UNL     1      -1.080   4.289   1.397  1.00  0.00     0.045 C 
ATOM     22  F   UNL     1      -2.230  -0.533   1.545  1.00  0.00    -0.135 F 
ATOM     23  H   UNL     1      -3.796   0.179   3.423  1.00  0.00     0.456 HD
ENDBRANCH   4  15
ENDBRANCH   1   3
BRANCH   1  24
ATOM     24  C   UNL     1       1.545  -2.295   0.288  1.00  0.00     0.083 A 
ATOM     25  C   UNL     1       2.068  -2.776   1.495  1.00  0.00     0.030 A 
ATOM     26  C   UNL     1       0.260  -2.710  -0.133  1.00  0.00     0.162 A 
ATOM     27  C   UNL     1       1.312  -3.619   2.308  1.00  0.00     0.005 A 
ATOM     28  C   UNL     1      -0.520  -3.537   0.715  1.00  0.00     0.076 A 
ATOM     29  C   UNL     1       0.025  -3.990   1.925  1.00  0.00     0.029 A 
BRANCH  26  30
ATOM     30  O   UNL     1      -0.194  -2.319  -1.396  1.00  0.00    -0.504 OA
ATOM     31  H   UNL     1      -1.048  -2.653  -1.818  1.00  0.00     0.293 HD
ENDBRANCH  26  30
BRANCH  28  32
ATOM     32  N   UNL     1      -1.863  -3.914   0.382  1.00  0.00    -0.396 N 
ATOM     33  H   UNL     1      -2.408  -3.446  -0.373  1.00  0.00     0.156 HD
ATOM     34  H   UNL     1      -2.377  -4.605   0.972  1.00  0.00     0.156 HD
ENDBRANCH  28  32
ENDBRANCH   1  24
TORSDOF 5


