REMARK SMILES C[C@@H]1CC[C@@H](c2ccc3ncccc3c2)[C@H](F)N1c1[nH+]cnc2c1CCC2
REMARK SMILES IDX 19 1 20 2 21 3 22 4 23 5 24 6 25 7 26 8 27 9 18 11 2 12 3 13
REMARK SMILES IDX 4 14 16 15 5 16 1 17 17 18 6 19 7 20 15 21 8 22 14 23 9 24
REMARK SMILES IDX 13 25 10 26 12 27 11 28
REMARK H PARENT 20 10
ROOT
ATOM      1  C   UNL     1      -0.203  -2.616   1.406  1.00  0.00     0.230 A 
ATOM      2  N   UNL     1       0.816  -3.355   1.933  1.00  0.00    -0.250 N 
ATOM      3  C   UNL     1       0.610  -4.170   3.010  1.00  0.00     0.367 A 
ATOM      4  N   UNL     1      -0.623  -4.254   3.583  1.00  0.00    -0.116 NA
ATOM      5  C   UNL     1      -1.645  -3.522   3.073  1.00  0.00     0.125 A 
ATOM      6  C   UNL     1      -1.467  -2.703   1.998  1.00  0.00     0.063 A 
ATOM      7  C   UNL     1      -2.720  -2.008   1.617  1.00  0.00     0.046 C 
ATOM      8  C   UNL     1      -3.746  -2.496   2.661  1.00  0.00     0.013 C 
ATOM      9  C   UNL     1      -3.032  -3.506   3.582  1.00  0.00     0.076 C 
ATOM     10  H   UNL     1       1.768  -3.302   1.506  1.00  0.00     0.266 HD
ENDROOT
BRANCH   1  11
ATOM     11  N   UNL     1       0.038  -1.763   0.274  1.00  0.00    -0.259 N 
ATOM     12  C   UNL     1      -0.436  -2.148  -1.074  1.00  0.00     0.145 C 
ATOM     13  C   UNL     1       0.493  -1.555  -2.149  1.00  0.00     0.042 C 
ATOM     14  C   UNL     1       0.678  -0.049  -1.948  1.00  0.00     0.018 C 
ATOM     15  C   UNL     1       0.309  -0.341   0.538  1.00  0.00     0.331 C 
ATOM     16  C   UNL     1       1.239   0.237  -0.545  1.00  0.00     0.090 C 
ATOM     17  C   UNL     1      -0.515  -3.674  -1.255  1.00  0.00     0.049 C 
ATOM     18  F   UNL     1       0.912  -0.185   1.778  1.00  0.00    -0.205 F 
BRANCH  16  19
ATOM     19  C   UNL     1       1.474   1.724  -0.340  1.00  0.00    -0.038 A 
ATOM     20  C   UNL     1       2.773   2.197  -0.080  1.00  0.00     0.006 A 
ATOM     21  C   UNL     1       0.410   2.645  -0.403  1.00  0.00     0.014 A 
ATOM     22  C   UNL     1       3.010   3.561   0.114  1.00  0.00     0.029 A 
ATOM     23  C   UNL     1       0.644   4.014  -0.208  1.00  0.00     0.000 A 
ATOM     24  C   UNL     1       1.953   4.472   0.052  1.00  0.00     0.070 A 
ATOM     25  C   UNL     1      -0.401   4.946  -0.266  1.00  0.00     0.012 A 
ATOM     26  N   UNL     1       2.183   5.800   0.241  1.00  0.00    -0.256 NA
ATOM     27  C   UNL     1      -0.133   6.302  -0.068  1.00  0.00     0.021 A 
ATOM     28  C   UNL     1       1.177   6.714   0.187  1.00  0.00     0.112 A 
ENDBRANCH  16  19
ENDBRANCH   1  11
TORSDOF 2


