REMARK SMILES Cc1ccc(Nc2[n-]cnc2[N+](=O)[O-])c(-c2ccc3c(c2)[N-]C(=O)C3)c1
REMARK SMILES IDX 6 1 5 3 2 4 3 5 26 6 4 7 15 8 1 9 16 10 17 11 21 12 18 13
REMARK SMILES IDX 20 14 19 15 22 16 25 17 23 18 24 19 7 20 8 21 11 22 9 23
REMARK SMILES IDX 10 24 12 25 13 26 14 27
REMARK H PARENT 6 2
ROOT
ATOM      1  N   UNL     1      -0.887   1.894  -0.775  1.00  0.00    -0.406 N 
ATOM      2  H   UNL     1      -1.032   2.907  -0.571  1.00  0.00     0.075 HD
ENDROOT
BRANCH   1   3
ATOM      3  C   UNL     1      -1.750   0.944  -0.129  1.00  0.00    -0.009 A 
ATOM      4  C   UNL     1      -3.528  -0.887   1.064  1.00  0.00    -0.050 A 
ATOM      5  C   UNL     1      -3.988   0.357   0.614  1.00  0.00     0.004 A 
ATOM      6  C   UNL     1      -2.174  -1.217   0.914  1.00  0.00     0.013 A 
ATOM      7  C   UNL     1      -3.103   1.268   0.035  1.00  0.00     0.011 A 
ATOM      8  C   UNL     1      -1.270  -0.305   0.343  1.00  0.00    -0.009 A 
ATOM      9  C   UNL     1      -4.488  -1.881   1.647  1.00  0.00     0.044 C 
BRANCH   8  10
ATOM     10  C   UNL     1       0.169  -0.658   0.293  1.00  0.00    -0.019 A 
ATOM     11  C   UNL     1       0.581  -1.877  -0.297  1.00  0.00     0.009 A 
ATOM     12  C   UNL     1       1.138   0.222   0.820  1.00  0.00    -0.007 A 
ATOM     13  C   UNL     1       1.944  -2.203  -0.386  1.00  0.00     0.003 A 
ATOM     14  C   UNL     1       2.483  -0.123   0.715  1.00  0.00    -0.130 A 
ATOM     15  C   UNL     1       2.878  -1.304   0.126  1.00  0.00    -0.057 A 
ATOM     16  N   UNL     1       3.576   0.658   1.169  1.00  0.00    -0.626 NA
ATOM     17  C   UNL     1       4.362  -1.422   0.134  1.00  0.00     0.089 C 
ATOM     18  C   UNL     1       4.709  -0.133   0.814  1.00  0.00     0.059 C 
ATOM     19  O   UNL     1       5.889   0.232   1.056  1.00  0.00    -0.320 OA
ENDBRANCH   8  10
ENDBRANCH   1   3
BRANCH   1  20
ATOM     20  C   UNL     1      -0.029   1.531  -1.866  1.00  0.00     0.104 A 
ATOM     21  N   UNL     1      -0.213   0.441  -2.632  1.00  0.00    -0.321 NA
ATOM     22  C   UNL     1       1.077   2.223  -2.312  1.00  0.00     0.375 A 
ATOM     23  C   UNL     1       0.798   0.506  -3.527  1.00  0.00     0.282 A 
ATOM     24  N   UNL     1       1.607   1.576  -3.364  1.00  0.00    -0.042 NA
BRANCH  22  25
ATOM     25  N   UNL     1       1.657   3.401  -1.740  1.00  0.00    -0.023 N 
ATOM     26  O   UNL     1       1.260   3.847  -0.645  1.00  0.00    -0.358 OA
ATOM     27  O   UNL     1       2.734   3.995  -2.356  1.00  0.00    -0.358 OA
ENDBRANCH  22  25
ENDBRANCH   1  20
TORSDOF 4


