REMARK SMILES C=Cc1cccc(-c2ccc3c(c2)[C@H](N=C=O)CC3)c1
REMARK SMILES IDX 8 1 9 2 10 3 11 4 12 5 13 6 14 7 18 8 19 9 7 10 3 11 4 12
REMARK SMILES IDX 20 13 5 14 6 15 2 16 1 17 15 18 16 19 17 20
REMARK H PARENT
ROOT
ATOM      1  C   UNL     1       0.651  -0.267  -0.424  1.00  0.00    -0.018 A 
ATOM      2  C   UNL     1       2.012   0.115  -0.503  1.00  0.00     0.009 A 
ATOM      3  C   UNL     1       2.440   1.034  -1.472  1.00  0.00     0.005 A 
ATOM      4  C   UNL     1       1.502   1.566  -2.357  1.00  0.00    -0.042 A 
ATOM      5  C   UNL     1       0.182   1.200  -2.295  1.00  0.00    -0.019 A 
ATOM      6  C   UNL     1      -0.271   0.290  -1.336  1.00  0.00     0.015 A 
ATOM      7  C   UNL     1      -0.638   1.890  -3.320  1.00  0.00     0.149 C 
ATOM      8  C   UNL     1       0.376   2.804  -4.053  1.00  0.00     0.038 C 
ATOM      9  C   UNL     1       1.763   2.547  -3.434  1.00  0.00     0.038 C 
ENDROOT
BRANCH   1  10
ATOM     10  C   UNL     1       0.200  -1.239   0.604  1.00  0.00    -0.018 A 
ATOM     11  C   UNL     1       0.283  -2.100   2.896  1.00  0.00    -0.026 A 
ATOM     12  C   UNL     1      -0.670  -3.070   2.549  1.00  0.00     0.008 A 
ATOM     13  C   UNL     1       0.705  -1.177   1.917  1.00  0.00     0.016 A 
ATOM     14  C   UNL     1      -1.175  -3.136   1.250  1.00  0.00     0.001 A 
ATOM     15  C   UNL     1      -0.742  -2.230   0.281  1.00  0.00     0.009 A 
BRANCH  11  16
ATOM     16  C   UNL     1       0.781  -2.065   4.293  1.00  0.00     0.000 C 
ATOM     17  C   UNL     1       1.907  -1.459   4.672  1.00  0.00     0.009 C 
ENDBRANCH  11  16
ENDBRANCH   1  10
BRANCH   7  18
ATOM     18  N   UNL     1      -1.229   0.906  -4.223  1.00  0.00    -0.198 NA
BRANCH  18  19
ATOM     19  C   UNL     1      -2.072   1.241  -5.115  1.00  0.00     0.235 C 
ATOM     20  O   UNL     1      -2.892   1.567  -5.983  1.00  0.00    -0.211 OA
ENDBRANCH  18  19
ENDBRANCH   7  18
TORSDOF 4


