REMARK SMILES Cc1c(CCC([O-])=C2CCC2)c(F)cc2[nH]c(-c3ncncc3F)cc12
REMARK SMILES IDX 4 1 3 2 2 3 26 4 12 5 25 6 15 7 14 8 17 9 16 10 1 11 13 12
REMARK SMILES IDX 18 14 19 15 23 16 20 17 22 18 21 19 24 20 5 21 6 22 7 23
REMARK SMILES IDX 8 24 9 25 11 26 10 27
REMARK H PARENT 16 13
ROOT
ATOM      1  C   UNL     1      -2.190   2.460  -0.602  1.00  0.00     0.042 C 
ENDROOT
BRANCH   1   2
ATOM      2  C   UNL     1      -1.826   1.094  -0.051  1.00  0.00    -0.008 A 
ATOM      3  C   UNL     1      -0.587   0.850   0.620  1.00  0.00    -0.036 A 
ATOM      4  C   UNL     1      -0.331  -0.468   1.039  1.00  0.00     0.003 A 
ATOM      5  C   UNL     1      -2.737   0.021  -0.258  1.00  0.00     0.128 A 
ATOM      6  C   UNL     1       0.759  -1.029   1.684  1.00  0.00     0.039 A 
ATOM      7  C   UNL     1      -1.223  -1.486   0.823  1.00  0.00     0.049 A 
ATOM      8  C   UNL     1      -2.435  -1.276   0.179  1.00  0.00     0.066 A 
ATOM      9  C   UNL     1       0.454  -2.380   1.831  1.00  0.00     0.068 A 
ATOM     10  N   UNL     1      -0.759  -2.655   1.295  1.00  0.00    -0.353 N 
ATOM     11  C   UNL     1       0.394   1.959   0.908  1.00  0.00     0.045 C 
ATOM     12  F   UNL     1      -3.917   0.233  -0.894  1.00  0.00    -0.207 F 
ATOM     13  H   UNL     1      -1.232  -3.581   1.212  1.00  0.00     0.167 HD
BRANCH   9  14
ATOM     14  C   UNL     1       1.361  -3.380   2.437  1.00  0.00     0.126 A 
ATOM     15  N   UNL     1       2.695  -3.108   2.485  1.00  0.00    -0.232 NA
ATOM     16  C   UNL     1       0.894  -4.590   2.980  1.00  0.00     0.169 A 
ATOM     17  C   UNL     1       3.579  -3.985   3.027  1.00  0.00     0.222 A 
ATOM     18  C   UNL     1       1.820  -5.476   3.531  1.00  0.00     0.154 A 
ATOM     19  N   UNL     1       3.140  -5.161   3.543  1.00  0.00    -0.242 NA
ATOM     20  F   UNL     1      -0.426  -4.895   3.028  1.00  0.00    -0.203 F 
ENDBRANCH   9  14
ENDBRANCH   1   2
BRANCH   1  21
ATOM     21  C   UNL     1      -1.992   2.539  -2.124  1.00  0.00     0.023 C 
BRANCH  21  22
ATOM     22  C   UNL     1      -0.538   2.553  -2.500  1.00  0.00    -0.133 C 
ATOM     23  O   UNL     1       0.167   3.749  -2.443  1.00  0.00    -0.875 OA
BRANCH  22  24
ATOM     24  C   UNL     1       0.098   1.439  -2.858  1.00  0.00    -0.082 C 
ATOM     25  C   UNL     1      -0.223  -0.031  -3.060  1.00  0.00     0.030 C 
ATOM     26  C   UNL     1       1.509   1.055  -3.256  1.00  0.00     0.030 C 
ATOM     27  C   UNL     1       1.174  -0.389  -3.450  1.00  0.00     0.009 C 
ENDBRANCH  22  24
ENDBRANCH  21  22
ENDBRANCH   1  21
TORSDOF 5


