REMARK SMILES C=C1CC[C@@H](Nc2cccc(N=C=S)c2[O-])C[C@H]1F
REMARK SMILES IDX 7 1 8 2 9 3 10 4 11 5 15 6 16 7 6 8 5 10 2 11 3 12 18 13
REMARK SMILES IDX 4 14 17 15 1 16 19 17 12 18 13 19 14 20
REMARK H PARENT 6 9
ROOT
ATOM      1  C   UNL     1      -0.703  -0.764   0.074  1.00  0.00     0.028 A 
ATOM      2  C   UNL     1      -1.530  -0.375   1.147  1.00  0.00     0.025 A 
ATOM      3  C   UNL     1      -2.866  -0.774   1.194  1.00  0.00     0.004 A 
ATOM      4  C   UNL     1      -3.402  -1.562   0.176  1.00  0.00     0.028 A 
ATOM      5  C   UNL     1      -2.599  -1.961  -0.909  1.00  0.00     0.068 A 
ATOM      6  C   UNL     1      -1.254  -1.559  -0.954  1.00  0.00    -0.058 A 
ATOM      7  O   UNL     1      -0.462  -1.960  -2.026  1.00  0.00    -0.870 OA
ENDROOT
BRANCH   1   8
ATOM      8  N   UNL     1       0.682  -0.358  -0.001  1.00  0.00    -0.383 N 
ATOM      9  H   UNL     1       1.196  -0.538  -0.894  1.00  0.00     0.160 HD
BRANCH   8  10
ATOM     10  C   UNL     1       1.423   0.285   1.093  1.00  0.00     0.082 C 
ATOM     11  C   UNL     1       3.691   0.644   2.888  1.00  0.00    -0.043 C 
ATOM     12  C   UNL     1       3.543   1.550   1.687  1.00  0.00     0.035 C 
ATOM     13  C   UNL     1       2.465  -0.098   3.382  1.00  0.00     0.194 C 
ATOM     14  C   UNL     1       2.756   0.856   0.571  1.00  0.00     0.029 C 
ATOM     15  C   UNL     1       1.704  -0.737   2.213  1.00  0.00     0.067 C 
ATOM     16  C   UNL     1       4.825   0.668   3.607  1.00  0.00     0.011 C 
ATOM     17  F   UNL     1       2.805  -1.093   4.285  1.00  0.00    -0.243 F 
ENDBRANCH   8  10
ENDBRANCH   1   8
BRANCH   5  18
ATOM     18  N   UNL     1      -3.115  -2.773  -1.977  1.00  0.00    -0.195 NA
BRANCH  18  19
ATOM     19  C   UNL     1      -4.316  -3.192  -2.037  1.00  0.00     0.064 C 
ATOM     20  S   UNL     1      -5.835  -3.723  -2.112  1.00  0.00    -0.006 S 
ENDBRANCH  18  19
ENDBRANCH   5  18
TORSDOF 4


