REMARK SMILES O=C1Cc2ccc(-c3c[n-]c4nccc-4c3)cc2[N-]1
REMARK SMILES IDX 1 1 2 2 3 3 4 4 5 5 6 6 7 7 17 8 18 9 19 10 8 11 9 12 16 13
REMARK SMILES IDX 10 14 15 15 11 16 14 17 12 18 13 19
REMARK H PARENT
ROOT
ATOM      1  O   UNL     1      -5.121  -1.587   3.494  1.00  0.00    -0.320 OA
ATOM      2  C   UNL     1      -4.305  -1.174   2.629  1.00  0.00     0.059 C 
ATOM      3  C   UNL     1      -4.675  -0.236   1.520  1.00  0.00     0.089 C 
ATOM      4  C   UNL     1      -3.351  -0.115   0.850  1.00  0.00    -0.057 A 
ATOM      5  C   UNL     1      -3.020   0.638  -0.274  1.00  0.00     0.003 A 
ATOM      6  C   UNL     1      -1.694   0.607  -0.737  1.00  0.00     0.009 A 
ATOM      7  C   UNL     1      -0.714  -0.174  -0.074  1.00  0.00    -0.020 A 
ATOM      8  C   UNL     1      -1.084  -0.926   1.064  1.00  0.00    -0.007 A 
ATOM      9  C   UNL     1      -2.407  -0.876   1.501  1.00  0.00    -0.130 A 
ATOM     10  N   UNL     1      -2.933  -1.564   2.624  1.00  0.00    -0.626 NA
ENDROOT
BRANCH   7  11
ATOM     11  C   UNL     1       0.686  -0.201  -0.568  1.00  0.00    -0.022 A 
ATOM     12  C   UNL     1       1.422  -1.424  -0.580  1.00  0.00    -0.014 A 
ATOM     13  C   UNL     1       1.300   0.988  -1.031  1.00  0.00     0.016 A 
ATOM     14  N   UNL     1       2.713  -1.478  -1.029  1.00  0.00    -0.442 NA
ATOM     15  C   UNL     1       2.607   0.900  -1.478  1.00  0.00    -0.026 A 
ATOM     16  C   UNL     1       3.299  -0.342  -1.469  1.00  0.00    -0.052 A 
ATOM     17  C   UNL     1       3.494   1.821  -1.974  1.00  0.00     0.003 A 
ATOM     18  N   UNL     1       4.551  -0.217  -1.935  1.00  0.00    -0.442 NA
ATOM     19  C   UNL     1       4.663   1.103  -2.241  1.00  0.00    -0.022 A 
ENDBRANCH   7  11
TORSDOF 1


