REMARK SMILES Cc1ccc(-c2cc(N)c([NH2+]c3ccc(C)nc3F)cc2F)cc1
REMARK SMILES IDX 6 1 7 2 8 3 10 4 20 5 21 6 22 7 5 8 2 9 3 10 24 11 4 12
REMARK SMILES IDX 23 13 1 14 9 15 11 18 12 21 13 22 18 23 14 24 17 25 15 26
REMARK SMILES IDX 19 27 16 28
REMARK H PARENT 9 16 9 17 11 19 11 20
ROOT
ATOM      1  C   UNL     1      -0.656   1.899  -0.976  1.00  0.00     0.020 A 
ATOM      2  C   UNL     1      -1.573   1.152  -0.220  1.00  0.00     0.043 A 
ATOM      3  C   UNL     1      -1.659  -0.242  -0.354  1.00  0.00     0.095 A 
ATOM      4  C   UNL     1      -0.801  -0.913  -1.264  1.00  0.00     0.160 A 
ATOM      5  C   UNL     1       0.118  -0.155  -2.013  1.00  0.00     0.110 A 
ATOM      6  C   UNL     1       0.193   1.232  -1.873  1.00  0.00     0.137 A 
ATOM      7  F   UNL     1       1.123   1.914  -2.588  1.00  0.00    -0.206 F 
ENDROOT
BRANCH   1   8
ATOM      8  C   UNL     1      -0.591   3.373  -0.816  1.00  0.00    -0.015 A 
ATOM      9  C   UNL     1      -0.472   6.172  -0.507  1.00  0.00    -0.051 A 
ATOM     10  C   UNL     1      -0.509   5.337   0.619  1.00  0.00     0.004 A 
ATOM     11  C   UNL     1      -0.523   5.603  -1.788  1.00  0.00     0.004 A 
ATOM     12  C   UNL     1      -0.564   3.948   0.466  1.00  0.00     0.009 A 
ATOM     13  C   UNL     1      -0.577   4.215  -1.942  1.00  0.00     0.009 A 
ATOM     14  C   UNL     1      -0.454   7.662  -0.342  1.00  0.00     0.044 C 
ENDBRANCH   1   8
BRANCH   3  15
ATOM     15  N   UNL     1      -2.623  -0.948   0.439  1.00  0.00    -0.394 N 
ATOM     16  H   UNL     1      -3.228  -0.434   1.118  1.00  0.00     0.156 HD
ATOM     17  H   UNL     1      -2.771  -1.976   0.361  1.00  0.00     0.156 HD
ENDBRANCH   3  15
BRANCH   4  18
ATOM     18  N   UNL     1      -0.827  -2.352  -1.422  1.00  0.00    -0.276 N 
ATOM     19  H   UNL     1      -1.816  -2.664  -1.550  1.00  0.00     0.358 HD
ATOM     20  H   UNL     1      -0.321  -2.636  -2.293  1.00  0.00     0.358 HD
BRANCH  18  21
ATOM     21  C   UNL     1      -0.190  -3.016  -0.305  1.00  0.00     0.190 A 
ATOM     22  C   UNL     1       1.136  -2.708   0.053  1.00  0.00     0.075 A 
ATOM     23  C   UNL     1      -0.840  -4.053   0.393  1.00  0.00     0.274 A 
ATOM     24  C   UNL     1       1.755  -3.374   1.110  1.00  0.00     0.030 A 
ATOM     25  N   UNL     1      -0.211  -4.689   1.418  1.00  0.00    -0.220 NA
ATOM     26  C   UNL     1       1.053  -4.366   1.802  1.00  0.00     0.041 A 
ATOM     27  F   UNL     1      -2.091  -4.447   0.048  1.00  0.00    -0.178 F 
ATOM     28  C   UNL     1       1.704  -5.112   2.923  1.00  0.00     0.067 C 
ENDBRANCH  18  21
ENDBRANCH   4  18
TORSDOF 4


