MODEL 1
REMARK VINA RESULT:      -8.2      0.000      0.000
REMARK SMILES NN(C(=O)N1CCOCC1)c1ccc2cc3ccccc3cc2c1
REMARK SMILES IDX 2 1 1 2 3 5 5 6 6 7 10 8 7 9 9 10 8 11 4 12 11 13 12 14
REMARK SMILES IDX 24 15 13 16 23 17 14 18 22 19 15 20 21 21 16 22 20 23 17 24
REMARK SMILES IDX 19 25 18 26
REMARK H PARENT 1 3 1 4
ROOT
ATOM      1  N   UNL     1      44.437 131.214  21.550  1.00  0.00    -0.230 N 
ENDROOT
BRANCH   1   2
ATOM      2  N   UNL     1      45.363 131.942  22.315  1.00  0.00    -0.239 NA
ATOM      3  H   UNL     1      44.987 132.020  23.280  1.00  0.00     0.144 HD
ATOM      4  H   UNL     1      45.447 132.907  21.914  1.00  0.00     0.144 HD
ENDBRANCH   1   2
BRANCH   1   5
ATOM      5  C   UNL     1      43.508 130.376  22.250  1.00  0.00     0.339 C 
ATOM      6  N   UNL     1      43.932 129.126  22.827  1.00  0.00    -0.319 N 
ATOM      7  C   UNL     1      43.126 128.542  23.910  1.00  0.00     0.150 C 
ATOM      8  C   UNL     1      44.863 128.276  22.075  1.00  0.00     0.150 C 
ATOM      9  C   UNL     1      43.878 127.408  24.622  1.00  0.00     0.181 C 
ATOM     10  C   UNL     1      45.459 127.184  22.969  1.00  0.00     0.181 C 
ATOM     11  O   UNL     1      44.433 126.514  23.682  1.00  0.00    -0.378 OA
ATOM     12  O   UNL     1      42.313 130.757  22.377  1.00  0.00    -0.247 OA
ENDBRANCH   1   5
BRANCH   1  13
ATOM     13  C   UNL     1      44.414 131.305  20.104  1.00  0.00     0.063 A 
ATOM     14  C   UNL     1      43.389 132.010  19.446  1.00  0.00     0.028 A 
ATOM     15  C   UNL     1      45.428 130.701  19.331  1.00  0.00     0.036 A 
ATOM     16  C   UNL     1      43.373 132.112  18.053  1.00  0.00     0.011 A 
ATOM     17  C   UNL     1      45.424 130.809  17.932  1.00  0.00    -0.016 A 
ATOM     18  C   UNL     1      44.388 131.525  17.288  1.00  0.00    -0.018 A 
ATOM     19  C   UNL     1      46.450 130.232  17.172  1.00  0.00     0.017 A 
ATOM     20  C   UNL     1      44.393 131.653  15.892  1.00  0.00     0.017 A 
ATOM     21  C   UNL     1      46.468 130.379  15.778  1.00  0.00    -0.018 A 
ATOM     22  C   UNL     1      45.430 131.092  15.134  1.00  0.00    -0.018 A 
ATOM     23  C   UNL     1      47.516 129.837  15.012  1.00  0.00     0.009 A 
ATOM     24  C   UNL     1      45.453 131.244  13.738  1.00  0.00     0.009 A 
ATOM     25  C   UNL     1      47.539 130.013  13.625  1.00  0.00     0.001 A 
ATOM     26  C   UNL     1      46.508 130.711  12.989  1.00  0.00     0.001 A 
ENDBRANCH   1  13
TORSDOF 3
ENDMDL
MODEL 2
REMARK VINA RESULT:      -8.1      1.269      1.694
REMARK SMILES NN(C(=O)N1CCOCC1)c1ccc2cc3ccccc3cc2c1
REMARK SMILES IDX 2 1 1 2 3 5 5 6 6 7 10 8 7 9 9 10 8 11 4 12 11 13 12 14
REMARK SMILES IDX 24 15 13 16 23 17 14 18 22 19 15 20 21 21 16 22 20 23 17 24
REMARK SMILES IDX 19 25 18 26
REMARK H PARENT 1 3 1 4
ROOT
ATOM      1  N   UNL     1      43.137 131.581  20.973  1.00  0.00    -0.230 N 
ENDROOT
BRANCH   1   2
ATOM      2  N   UNL     1      42.037 132.283  21.494  1.00  0.00    -0.239 NA
ATOM      3  H   UNL     1      42.360 132.801  22.335  1.00  0.00     0.144 HD
ATOM      4  H   UNL     1      41.306 131.593  21.789  1.00  0.00     0.144 HD
ENDBRANCH   1   2
BRANCH   1   5
ATOM      5  C   UNL     1      43.989 130.895  21.901  1.00  0.00     0.339 C 
ATOM      6  N   UNL     1      43.482 129.814  22.707  1.00  0.00    -0.319 N 
ATOM      7  C   UNL     1      44.437 128.846  23.267  1.00  0.00     0.150 C 
ATOM      8  C   UNL     1      42.140 129.932  23.292  1.00  0.00     0.150 C 
ATOM      9  C   UNL     1      43.724 127.600  23.809  1.00  0.00     0.181 C 
ATOM     10  C   UNL     1      41.644 128.579  23.812  1.00  0.00     0.181 C 
ATOM     11  O   UNL     1      42.632 127.968  24.624  1.00  0.00    -0.378 OA
ATOM     12  O   UNL     1      45.198 131.236  21.990  1.00  0.00    -0.247 OA
ENDBRANCH   1   5
BRANCH   1  13
ATOM     13  C   UNL     1      43.404 131.543  19.549  1.00  0.00     0.063 A 
ATOM     14  C   UNL     1      42.498 132.110  18.634  1.00  0.00     0.028 A 
ATOM     15  C   UNL     1      44.586 130.951  19.057  1.00  0.00     0.036 A 
ATOM     16  C   UNL     1      42.761 132.089  17.262  1.00  0.00     0.011 A 
ATOM     17  C   UNL     1      44.861 130.934  17.682  1.00  0.00    -0.016 A 
ATOM     18  C   UNL     1      43.941 131.513  16.776  1.00  0.00    -0.018 A 
ATOM     19  C   UNL     1      46.051 130.370  17.201  1.00  0.00     0.017 A 
ATOM     20  C   UNL     1      44.224 131.519  15.403  1.00  0.00     0.017 A 
ATOM     21  C   UNL     1      46.345 130.396  15.830  1.00  0.00    -0.018 A 
ATOM     22  C   UNL     1      45.422 130.971  14.925  1.00  0.00    -0.018 A 
ATOM     23  C   UNL     1      47.555 129.868  15.346  1.00  0.00     0.009 A 
ATOM     24  C   UNL     1      45.722 131.002  13.554  1.00  0.00     0.009 A 
ATOM     25  C   UNL     1      47.851 129.923  13.980  1.00  0.00     0.001 A 
ATOM     26  C   UNL     1      46.934 130.484  13.086  1.00  0.00     0.001 A 
ENDBRANCH   1  13
TORSDOF 3
ENDMDL
MODEL 3
REMARK VINA RESULT:      -8.0      1.609      2.654
REMARK SMILES NN(C(=O)N1CCOCC1)c1ccc2cc3ccccc3cc2c1
REMARK SMILES IDX 2 1 1 2 3 5 5 6 6 7 10 8 7 9 9 10 8 11 4 12 11 13 12 14
REMARK SMILES IDX 24 15 13 16 23 17 14 18 22 19 15 20 21 21 16 22 20 23 17 24
REMARK SMILES IDX 19 25 18 26
REMARK H PARENT 1 3 1 4
ROOT
ATOM      1  N   UNL     1      44.237 130.037  23.382  1.00  0.00    -0.230 N 
ENDROOT
BRANCH   1   2
ATOM      2  N   UNL     1      44.445 130.952  24.428  1.00  0.00    -0.239 NA
ATOM      3  H   UNL     1      44.469 130.416  25.318  1.00  0.00     0.144 HD
ATOM      4  H   UNL     1      43.633 131.614  24.461  1.00  0.00     0.144 HD
ENDBRANCH   1   2
BRANCH   1   5
ATOM      5  C   UNL     1      44.167 128.645  23.719  1.00  0.00     0.339 C 
ATOM      6  N   UNL     1      42.897 127.968  23.798  1.00  0.00    -0.319 N 
ATOM      7  C   UNL     1      42.872 126.503  23.667  1.00  0.00     0.150 C 
ATOM      8  C   UNL     1      41.759 128.663  24.411  1.00  0.00     0.150 C 
ATOM      9  C   UNL     1      41.445 125.983  23.445  1.00  0.00     0.181 C 
ATOM     10  C   UNL     1      40.442 127.945  24.101  1.00  0.00     0.181 C 
ATOM     11  O   UNL     1      40.556 126.559  24.378  1.00  0.00    -0.378 OA
ATOM     12  O   UNL     1      45.235 128.009  23.925  1.00  0.00    -0.247 OA
ENDBRANCH   1   5
BRANCH   1  13
ATOM     13  C   UNL     1      44.093 130.479  22.009  1.00  0.00     0.063 A 
ATOM     14  C   UNL     1      43.055 131.355  21.642  1.00  0.00     0.028 A 
ATOM     15  C   UNL     1      45.002 130.050  21.019  1.00  0.00     0.036 A 
ATOM     16  C   UNL     1      42.924 131.795  20.323  1.00  0.00     0.011 A 
ATOM     17  C   UNL     1      44.882 130.495  19.694  1.00  0.00    -0.016 A 
ATOM     18  C   UNL     1      43.835 131.380  19.344  1.00  0.00    -0.018 A 
ATOM     19  C   UNL     1      45.806 130.089  18.721  1.00  0.00     0.017 A 
ATOM     20  C   UNL     1      43.726 131.844  18.026  1.00  0.00     0.017 A 
ATOM     21  C   UNL     1      45.711 130.571  17.408  1.00  0.00    -0.018 A 
ATOM     22  C   UNL     1      44.661 131.452  17.058  1.00  0.00    -0.018 A 
ATOM     23  C   UNL     1      46.658 130.199  16.437  1.00  0.00     0.009 A 
ATOM     24  C   UNL     1      44.572 131.939  15.744  1.00  0.00     0.009 A 
ATOM     25  C   UNL     1      46.570 130.707  15.137  1.00  0.00     0.001 A 
ATOM     26  C   UNL     1      45.527 131.571  14.790  1.00  0.00     0.001 A 
ENDBRANCH   1  13
TORSDOF 3
ENDMDL
MODEL 4
REMARK VINA RESULT:      -7.3      0.998      1.296
REMARK SMILES NN(C(=O)N1CCOCC1)c1ccc2cc3ccccc3cc2c1
REMARK SMILES IDX 2 1 1 2 3 5 5 6 6 7 10 8 7 9 9 10 8 11 4 12 11 13 12 14
REMARK SMILES IDX 24 15 13 16 23 17 14 18 22 19 15 20 21 21 16 22 20 23 17 24
REMARK SMILES IDX 19 25 18 26
REMARK H PARENT 1 3 1 4
ROOT
ATOM      1  N   UNL     1      44.059 131.033  22.850  1.00  0.00    -0.230 N 
ENDROOT
BRANCH   1   2
ATOM      2  N   UNL     1      44.930 131.718  23.715  1.00  0.00    -0.239 NA
ATOM      3  H   UNL     1      45.898 131.581  23.363  1.00  0.00     0.144 HD
ATOM      4  H   UNL     1      44.860 131.290  24.669  1.00  0.00     0.144 HD
ENDBRANCH   1   2
BRANCH   1   5
ATOM      5  C   UNL     1      43.169 130.069  23.427  1.00  0.00     0.339 C 
ATOM      6  N   UNL     1      43.529 128.675  23.485  1.00  0.00    -0.319 N 
ATOM      7  C   UNL     1      42.857 127.816  24.471  1.00  0.00     0.150 C 
ATOM      8  C   UNL     1      44.204 128.068  22.331  1.00  0.00     0.150 C 
ATOM      9  C   UNL     1      43.575 126.467  24.624  1.00  0.00     0.181 C 
ATOM     10  C   UNL     1      44.806 126.707  22.698  1.00  0.00     0.181 C 
ATOM     11  O   UNL     1      43.844 125.902  23.360  1.00  0.00    -0.378 OA
ATOM     12  O   UNL     1      42.071 130.458  23.907  1.00  0.00    -0.247 OA
ENDBRANCH   1   5
BRANCH   1  13
ATOM     13  C   UNL     1      44.054 131.292  21.424  1.00  0.00     0.063 A 
ATOM     14  C   UNL     1      43.165 132.232  20.869  1.00  0.00     0.028 A 
ATOM     15  C   UNL     1      44.950 130.617  20.569  1.00  0.00     0.036 A 
ATOM     16  C   UNL     1      43.168 132.494  19.497  1.00  0.00     0.011 A 
ATOM     17  C   UNL     1      44.966 130.883  19.192  1.00  0.00    -0.016 A 
ATOM     18  C   UNL     1      44.069 131.834  18.651  1.00  0.00    -0.018 A 
ATOM     19  C   UNL     1      45.879 130.230  18.352  1.00  0.00     0.017 A 
ATOM     20  C   UNL     1      44.097 132.118  17.279  1.00  0.00     0.017 A 
ATOM     21  C   UNL     1      45.924 130.530  16.983  1.00  0.00    -0.018 A 
ATOM     22  C   UNL     1      45.023 131.479  16.443  1.00  0.00    -0.018 A 
ATOM     23  C   UNL     1      46.864 129.909  16.142  1.00  0.00     0.009 A 
ATOM     24  C   UNL     1      45.074 131.783  15.074  1.00  0.00     0.009 A 
ATOM     25  C   UNL     1      46.919 130.236  14.784  1.00  0.00     0.001 A 
ATOM     26  C   UNL     1      46.023 131.167  14.250  1.00  0.00     0.001 A 
ENDBRANCH   1  13
TORSDOF 3
ENDMDL
MODEL 5
REMARK VINA RESULT:      -6.3      3.935      8.126
REMARK SMILES NN(C(=O)N1CCOCC1)c1ccc2cc3ccccc3cc2c1
REMARK SMILES IDX 2 1 1 2 3 5 5 6 6 7 10 8 7 9 9 10 8 11 4 12 11 13 12 14
REMARK SMILES IDX 24 15 13 16 23 17 14 18 22 19 15 20 21 21 16 22 20 23 17 24
REMARK SMILES IDX 19 25 18 26
REMARK H PARENT 1 3 1 4
ROOT
ATOM      1  N   UNL     1      44.793 131.596  15.966  1.00  0.00    -0.230 N 
ENDROOT
BRANCH   1   2
ATOM      2  N   UNL     1      43.601 131.482  15.231  1.00  0.00    -0.239 NA
ATOM      3  H   UNL     1      42.990 132.281  15.493  1.00  0.00     0.144 HD
ATOM      4  H   UNL     1      43.119 130.593  15.506  1.00  0.00     0.144 HD
ENDBRANCH   1   2
BRANCH   1   5
ATOM      5  C   UNL     1      45.970 132.017  15.263  1.00  0.00     0.339 C 
ATOM      6  N   UNL     1      46.777 131.067  14.541  1.00  0.00    -0.319 N 
ATOM      7  C   UNL     1      47.659 131.562  13.473  1.00  0.00     0.150 C 
ATOM      8  C   UNL     1      47.025 129.748  15.136  1.00  0.00     0.150 C 
ATOM      9  C   UNL     1      48.187 130.414  12.601  1.00  0.00     0.181 C 
ATOM     10  C   UNL     1      47.595 128.774  14.099  1.00  0.00     0.181 C 
ATOM     11  O   UNL     1      48.681 129.366  13.407  1.00  0.00    -0.378 OA
ATOM     12  O   UNL     1      46.282 133.238  15.266  1.00  0.00    -0.247 OA
ENDBRANCH   1   5
BRANCH   1  13
ATOM     13  C   UNL     1      44.838 131.302  17.384  1.00  0.00     0.063 A 
ATOM     14  C   UNL     1      45.909 130.573  17.933  1.00  0.00     0.028 A 
ATOM     15  C   UNL     1      43.815 131.756  18.243  1.00  0.00     0.036 A 
ATOM     16  C   UNL     1      45.962 130.302  19.302  1.00  0.00     0.011 A 
ATOM     17  C   UNL     1      43.867 131.497  19.621  1.00  0.00    -0.016 A 
ATOM     18  C   UNL     1      44.953 130.766  20.155  1.00  0.00    -0.018 A 
ATOM     19  C   UNL     1      42.862 131.976  20.472  1.00  0.00     0.017 A 
ATOM     20  C   UNL     1      45.020 130.524  21.534  1.00  0.00     0.017 A 
ATOM     21  C   UNL     1      42.939 131.754  21.855  1.00  0.00    -0.018 A 
ATOM     22  C   UNL     1      44.025 131.020  22.388  1.00  0.00    -0.018 A 
ATOM     23  C   UNL     1      41.956 132.267  22.720  1.00  0.00     0.009 A 
ATOM     24  C   UNL     1      44.104 130.804  23.773  1.00  0.00     0.009 A 
ATOM     25  C   UNL     1      42.057 132.064  24.100  1.00  0.00     0.001 A 
ATOM     26  C   UNL     1      43.126 131.330  24.625  1.00  0.00     0.001 A 
ENDBRANCH   1  13
TORSDOF 3
ENDMDL
MODEL 6
REMARK VINA RESULT:      -6.2      1.366      2.232
REMARK SMILES NN(C(=O)N1CCOCC1)c1ccc2cc3ccccc3cc2c1
REMARK SMILES IDX 2 1 1 2 3 5 5 6 6 7 10 8 7 9 9 10 8 11 4 12 11 13 12 14
REMARK SMILES IDX 24 15 13 16 23 17 14 18 22 19 15 20 21 21 16 22 20 23 17 24
REMARK SMILES IDX 19 25 18 26
REMARK H PARENT 1 3 1 4
ROOT
ATOM      1  N   UNL     1      42.500 131.926  21.256  1.00  0.00    -0.230 N 
ENDROOT
BRANCH   1   2
ATOM      2  N   UNL     1      41.318 132.586  20.879  1.00  0.00    -0.239 NA
ATOM      3  H   UNL     1      41.457 132.966  19.923  1.00  0.00     0.144 HD
ATOM      4  H   UNL     1      41.157 133.388  21.535  1.00  0.00     0.144 HD
ENDBRANCH   1   2
BRANCH   1   5
ATOM      5  C   UNL     1      42.688 131.641  22.648  1.00  0.00     0.339 C 
ATOM      6  N   UNL     1      43.222 130.372  23.075  1.00  0.00    -0.319 N 
ATOM      7  C   UNL     1      43.840 130.282  24.407  1.00  0.00     0.150 C 
ATOM      8  C   UNL     1      42.776 129.150  22.396  1.00  0.00     0.150 C 
ATOM      9  C   UNL     1      44.636 128.980  24.570  1.00  0.00     0.181 C 
ATOM     10  C   UNL     1      43.685 127.965  22.739  1.00  0.00     0.181 C 
ATOM     11  O   UNL     1      43.871 127.874  24.142  1.00  0.00    -0.378 OA
ATOM     12  O   UNL     1      42.402 132.524  23.500  1.00  0.00    -0.247 OA
ENDBRANCH   1   5
BRANCH   1  13
ATOM     13  C   UNL     1      43.495 131.542  20.275  1.00  0.00     0.063 A 
ATOM     14  C   UNL     1      44.688 130.910  20.674  1.00  0.00     0.028 A 
ATOM     15  C   UNL     1      43.278 131.779  18.902  1.00  0.00     0.036 A 
ATOM     16  C   UNL     1      45.642 130.524  19.729  1.00  0.00     0.011 A 
ATOM     17  C   UNL     1      44.227 131.385  17.947  1.00  0.00    -0.016 A 
ATOM     18  C   UNL     1      45.419 130.748  18.365  1.00  0.00    -0.018 A 
ATOM     19  C   UNL     1      43.992 131.598  16.582  1.00  0.00     0.017 A 
ATOM     20  C   UNL     1      46.359 130.333  17.412  1.00  0.00     0.017 A 
ATOM     21  C   UNL     1      44.922 131.163  15.626  1.00  0.00    -0.018 A 
ATOM     22  C   UNL     1      46.115 130.529  16.046  1.00  0.00    -0.018 A 
ATOM     23  C   UNL     1      44.674 131.337  14.253  1.00  0.00     0.009 A 
ATOM     24  C   UNL     1      47.041 130.088  15.087  1.00  0.00     0.009 A 
ATOM     25  C   UNL     1      45.595 130.874  13.307  1.00  0.00     0.001 A 
ATOM     26  C   UNL     1      46.778 130.256  13.724  1.00  0.00     0.001 A 
ENDBRANCH   1  13
TORSDOF 3
ENDMDL
MODEL 7
REMARK VINA RESULT:      -6.0      3.874      7.949
REMARK SMILES NN(C(=O)N1CCOCC1)c1ccc2cc3ccccc3cc2c1
REMARK SMILES IDX 2 1 1 2 3 5 5 6 6 7 10 8 7 9 9 10 8 11 4 12 11 13 12 14
REMARK SMILES IDX 24 15 13 16 23 17 14 18 22 19 15 20 21 21 16 22 20 23 17 24
REMARK SMILES IDX 19 25 18 26
REMARK H PARENT 1 3 1 4
ROOT
ATOM      1  N   UNL     1      44.559 130.963  16.011  1.00  0.00    -0.230 N 
ENDROOT
BRANCH   1   2
ATOM      2  N   UNL     1      44.026 129.927  15.226  1.00  0.00    -0.239 NA
ATOM      3  H   UNL     1      43.589 130.358  14.387  1.00  0.00     0.144 HD
ATOM      4  H   UNL     1      43.280 129.438  15.775  1.00  0.00     0.144 HD
ENDBRANCH   1   2
BRANCH   1   5
ATOM      5  C   UNL     1      45.709 131.656  15.509  1.00  0.00     0.339 C 
ATOM      6  N   UNL     1      46.673 130.980  14.678  1.00  0.00    -0.319 N 
ATOM      7  C   UNL     1      47.542 131.789  13.809  1.00  0.00     0.150 C 
ATOM      8  C   UNL     1      47.057 129.603  15.012  1.00  0.00     0.150 C 
ATOM      9  C   UNL     1      48.263 130.920  12.769  1.00  0.00     0.181 C 
ATOM     10  C   UNL     1      47.806 128.943  13.850  1.00  0.00     0.181 C 
ATOM     11  O   UNL     1      48.844 129.790  13.384  1.00  0.00    -0.378 OA
ATOM     12  O   UNL     1      45.858 132.876  15.784  1.00  0.00    -0.247 OA
ENDBRANCH   1   5
BRANCH   1  13
ATOM     13  C   UNL     1      43.969 131.325  17.285  1.00  0.00     0.063 A 
ATOM     14  C   UNL     1      42.699 131.929  17.341  1.00  0.00     0.028 A 
ATOM     15  C   UNL     1      44.651 131.063  18.491  1.00  0.00     0.036 A 
ATOM     16  C   UNL     1      42.122 132.265  18.567  1.00  0.00     0.011 A 
ATOM     17  C   UNL     1      44.072 131.388  19.727  1.00  0.00    -0.016 A 
ATOM     18  C   UNL     1      42.793 131.991  19.765  1.00  0.00    -0.018 A 
ATOM     19  C   UNL     1      44.742 131.098  20.924  1.00  0.00     0.017 A 
ATOM     20  C   UNL     1      42.203 132.297  20.999  1.00  0.00     0.017 A 
ATOM     21  C   UNL     1      44.143 131.383  22.159  1.00  0.00    -0.018 A 
ATOM     22  C   UNL     1      42.865 131.990  22.196  1.00  0.00    -0.018 A 
ATOM     23  C   UNL     1      44.792 131.059  23.364  1.00  0.00     0.009 A 
ATOM     24  C   UNL     1      42.264 132.268  23.434  1.00  0.00     0.009 A 
ATOM     25  C   UNL     1      44.173 131.321  24.590  1.00  0.00     0.001 A 
ATOM     26  C   UNL     1      42.914 131.929  24.625  1.00  0.00     0.001 A 
ENDBRANCH   1  13
TORSDOF 3
ENDMDL
MODEL 8
REMARK VINA RESULT:      -5.8      1.590      2.625
REMARK SMILES NN(C(=O)N1CCOCC1)c1ccc2cc3ccccc3cc2c1
REMARK SMILES IDX 2 1 1 2 3 5 5 6 6 7 10 8 7 9 9 10 8 11 4 12 11 13 12 14
REMARK SMILES IDX 24 15 13 16 23 17 14 18 22 19 15 20 21 21 16 22 20 23 17 24
REMARK SMILES IDX 19 25 18 26
REMARK H PARENT 1 3 1 4
ROOT
ATOM      1  N   UNL     1      44.591 129.196  23.452  1.00  0.00    -0.230 N 
ENDROOT
BRANCH   1   2
ATOM      2  N   UNL     1      45.114 129.838  24.587  1.00  0.00    -0.239 NA
ATOM      3  H   UNL     1      45.833 130.515  24.266  1.00  0.00     0.144 HD
ATOM      4  H   UNL     1      45.581 129.122  25.194  1.00  0.00     0.144 HD
ENDBRANCH   1   2
BRANCH   1   5
ATOM      5  C   UNL     1      44.159 127.836  23.596  1.00  0.00     0.339 C 
ATOM      6  N   UNL     1      45.116 126.764  23.692  1.00  0.00    -0.319 N 
ATOM      7  C   UNL     1      44.692 125.495  24.303  1.00  0.00     0.150 C 
ATOM      8  C   UNL     1      46.306 126.795  22.832  1.00  0.00     0.150 C 
ATOM      9  C   UNL     1      45.894 124.595  24.622  1.00  0.00     0.181 C 
ATOM     10  C   UNL     1      47.355 125.785  23.305  1.00  0.00     0.181 C 
ATOM     11  O   UNL     1      46.762 124.514  23.512  1.00  0.00    -0.378 OA
ATOM     12  O   UNL     1      42.925 127.589  23.662  1.00  0.00    -0.247 OA
ENDBRANCH   1   5
BRANCH   1  13
ATOM     13  C   UNL     1      44.486 129.879  22.178  1.00  0.00     0.063 A 
ATOM     14  C   UNL     1      43.672 131.019  22.041  1.00  0.00     0.028 A 
ATOM     15  C   UNL     1      45.212 129.423  21.058  1.00  0.00     0.036 A 
ATOM     16  C   UNL     1      43.581 131.688  20.818  1.00  0.00     0.011 A 
ATOM     17  C   UNL     1      45.133 130.097  19.830  1.00  0.00    -0.016 A 
ATOM     18  C   UNL     1      44.313 131.243  19.711  1.00  0.00    -0.018 A 
ATOM     19  C   UNL     1      45.880 129.655  18.729  1.00  0.00     0.017 A 
ATOM     20  C   UNL     1      44.250 131.931  18.491  1.00  0.00     0.017 A 
ATOM     21  C   UNL     1      45.835 130.357  17.515  1.00  0.00    -0.018 A 
ATOM     22  C   UNL     1      45.011 131.501  17.396  1.00  0.00    -0.018 A 
ATOM     23  C   UNL     1      46.612 129.943  16.418  1.00  0.00     0.009 A 
ATOM     24  C   UNL     1      44.973 132.205  16.182  1.00  0.00     0.009 A 
ATOM     25  C   UNL     1      46.581 130.666  15.221  1.00  0.00     0.001 A 
ATOM     26  C   UNL     1      45.760 131.791  15.102  1.00  0.00     0.001 A 
ENDBRANCH   1  13
TORSDOF 3
ENDMDL
MODEL 9
REMARK VINA RESULT:      -5.3      1.248      1.631
REMARK SMILES NN(C(=O)N1CCOCC1)c1ccc2cc3ccccc3cc2c1
REMARK SMILES IDX 2 1 1 2 3 5 5 6 6 7 10 8 7 9 9 10 8 11 4 12 11 13 12 14
REMARK SMILES IDX 24 15 13 16 23 17 14 18 22 19 15 20 21 21 16 22 20 23 17 24
REMARK SMILES IDX 19 25 18 26
REMARK H PARENT 1 3 1 4
ROOT
ATOM      1  N   UNL     1      43.227 131.116  22.182  1.00  0.00    -0.230 N 
ENDROOT
BRANCH   1   2
ATOM      2  N   UNL     1      42.019 131.496  22.790  1.00  0.00    -0.239 NA
ATOM      3  H   UNL     1      42.233 131.793  23.762  1.00  0.00     0.144 HD
ATOM      4  H   UNL     1      41.386 130.662  22.830  1.00  0.00     0.144 HD
ENDBRANCH   1   2
BRANCH   1   5
ATOM      5  C   UNL     1      44.220 130.491  23.007  1.00  0.00     0.339 C 
ATOM      6  N   UNL     1      44.082 129.115  23.413  1.00  0.00    -0.319 N 
ATOM      7  C   UNL     1      45.287 128.380  23.827  1.00  0.00     0.150 C 
ATOM      8  C   UNL     1      42.757 128.621  23.807  1.00  0.00     0.150 C 
ATOM      9  C   UNL     1      45.024 126.870  23.908  1.00  0.00     0.181 C 
ATOM     10  C   UNL     1      42.736 127.090  23.870  1.00  0.00     0.181 C 
ATOM     11  O   UNL     1      43.836 126.611  24.625  1.00  0.00    -0.378 OA
ATOM     12  O   UNL     1      45.232 131.154  23.357  1.00  0.00    -0.247 OA
ENDBRANCH   1   5
BRANCH   1  13
ATOM     13  C   UNL     1      43.466 131.341  20.771  1.00  0.00     0.063 A 
ATOM     14  C   UNL     1      42.762 132.342  20.075  1.00  0.00     0.028 A 
ATOM     15  C   UNL     1      44.420 130.571  20.073  1.00  0.00     0.036 A 
ATOM     16  C   UNL     1      43.002 132.571  18.718  1.00  0.00     0.011 A 
ATOM     17  C   UNL     1      44.673 130.803  18.713  1.00  0.00    -0.016 A 
ATOM     18  C   UNL     1      43.960 131.816  18.030  1.00  0.00    -0.018 A 
ATOM     19  C   UNL     1      45.644 130.054  18.033  1.00  0.00     0.017 A 
ATOM     20  C   UNL     1      44.226 132.065  16.677  1.00  0.00     0.017 A 
ATOM     21  C   UNL     1      45.927 130.318  16.685  1.00  0.00    -0.018 A 
ATOM     22  C   UNL     1      45.210 131.329  16.002  1.00  0.00    -0.018 A 
ATOM     23  C   UNL     1      46.927 129.598  16.007  1.00  0.00     0.009 A 
ATOM     24  C   UNL     1      45.499 131.596  14.654  1.00  0.00     0.009 A 
ATOM     25  C   UNL     1      47.221 129.888  14.671  1.00  0.00     0.001 A 
ATOM     26  C   UNL     1      46.505 130.882  13.995  1.00  0.00     0.001 A 
ENDBRANCH   1  13
TORSDOF 3
ENDMDL


