REMARK SMILES Cc1cc(O[C@@H]2C=CC(O)=CO2)ccc1C(=O)N[C@H]1CC12CCC2
REMARK SMILES IDX 5 1 4 2 2 3 3 4 15 5 14 6 13 7 1 8 16 9 18 10 17 11 19 13
REMARK SMILES IDX 20 14 21 15 22 16 24 17 23 18 6 19 7 20 12 21 8 22 11 23
REMARK SMILES IDX 9 24 10 25
REMARK H PARENT 18 12 10 26
ROOT
ATOM      1  O   UNL     1       0.732  -3.971   1.065  1.00  0.00    -0.451 OA
ENDROOT
BRANCH   1   2
ATOM      2  C   UNL     1       0.911  -2.637   0.664  1.00  0.00     0.124 A 
ATOM      3  C   UNL     1       2.296  -0.626   0.752  1.00  0.00    -0.035 A 
ATOM      4  C   UNL     1       2.047  -1.961   1.117  1.00  0.00     0.050 A 
ATOM      5  C   UNL     1       1.364   0.053  -0.073  1.00  0.00     0.042 A 
ATOM      6  C   UNL     1       0.229  -0.636  -0.532  1.00  0.00     0.018 A 
ATOM      7  C   UNL     1       0.004  -1.965  -0.173  1.00  0.00     0.047 A 
ATOM      8  C   UNL     1       3.549   0.041   1.256  1.00  0.00     0.045 C 
BRANCH   5   9
ATOM      9  C   UNL     1       1.535   1.476  -0.458  1.00  0.00     0.251 C 
ATOM     10  N   UNL     1       1.167   1.921  -1.771  1.00  0.00    -0.349 N 
ATOM     11  O   UNL     1       1.978   2.306   0.382  1.00  0.00    -0.269 OA
ATOM     12  H   UNL     1       0.972   1.217  -2.518  1.00  0.00     0.164 HD
BRANCH  10  13
ATOM     13  C   UNL     1       1.198   3.335  -2.130  1.00  0.00     0.089 C 
ATOM     14  C   UNL     1       0.088   3.764  -3.099  1.00  0.00     0.034 C 
ATOM     15  C   UNL     1      -0.002   4.096  -1.615  1.00  0.00    -0.007 C 
ATOM     16  C   UNL     1      -0.140   5.543  -1.244  1.00  0.00     0.009 C 
ATOM     17  C   UNL     1      -1.238   3.648  -0.887  1.00  0.00     0.009 C 
ATOM     18  C   UNL     1      -1.417   5.126  -0.482  1.00  0.00     0.001 C 
ENDBRANCH  10  13
ENDBRANCH   5   9
ENDBRANCH   1   2
BRANCH   1  19
ATOM     19  C   UNL     1      -0.413  -4.779   0.789  1.00  0.00     0.388 C 
ATOM     20  C   UNL     1      -1.582  -4.308   1.625  1.00  0.00     0.066 C 
ATOM     21  O   UNL     1      -0.085  -6.144   1.078  1.00  0.00    -0.455 OA
ATOM     22  C   UNL     1      -1.912  -4.935   2.756  1.00  0.00     0.053 C 
ATOM     23  C   UNL     1      -0.366  -6.748   2.310  1.00  0.00     0.238 C 
ATOM     24  C   UNL     1      -1.234  -6.183   3.149  1.00  0.00     0.150 C 
BRANCH  24  25
ATOM     25  O   UNL     1      -1.515  -6.789   4.371  1.00  0.00    -0.505 OA
ATOM     26  H   UNL     1      -2.178  -6.380   5.019  1.00  0.00     0.293 HD
ENDBRANCH  24  25
ENDBRANCH   1  19
TORSDOF 5


