MODEL 1
REMARK VINA RESULT:     -10.0      0.000      0.000
REMARK SMILES Nc1cc(O)c(F)cc1Nc1ccc2cc[nH]c2c1
REMARK SMILES IDX 2 1 3 2 4 3 6 4 7 5 8 6 9 7 1 8 10 11 11 13 12 14 19 15
REMARK SMILES IDX 13 16 18 17 14 18 17 19 15 20 16 21 5 23
REMARK H PARENT 1 9 1 10 10 12 17 22 5 24
ROOT
ATOM      1  C   UNL     1      42.712 132.175  19.158  1.00  0.00     0.059 A 
ATOM      2  C   UNL     1      42.725 132.088  20.559  1.00  0.00     0.077 A 
ATOM      3  C   UNL     1      43.838 131.568  21.231  1.00  0.00     0.153 A 
ATOM      4  C   UNL     1      44.946 131.126  20.501  1.00  0.00     0.167 A 
ATOM      5  F   UNL     1      46.025 130.614  21.143  1.00  0.00    -0.203 F 
ATOM      6  C   UNL     1      44.947 131.215  19.106  1.00  0.00     0.071 A 
ATOM      7  C   UNL     1      43.848 131.758  18.427  1.00  0.00     0.065 A 
ENDROOT
BRANCH   1   8
ATOM      8  N   UNL     1      41.531 132.648  18.496  1.00  0.00    -0.397 N 
ATOM      9  H   UNL     1      41.184 133.619  18.661  1.00  0.00     0.156 HD
ATOM     10  H   UNL     1      40.957 132.026  17.887  1.00  0.00     0.156 HD
ENDBRANCH   1   8
BRANCH   7  11
ATOM     11  N   UNL     1      43.899 131.854  16.996  1.00  0.00    -0.354 N 
ATOM     12  H   UNL     1      43.116 132.356  16.519  1.00  0.00     0.167 HD
BRANCH  11  13
ATOM     13  C   UNL     1      44.857 131.153  16.181  1.00  0.00     0.041 A 
ATOM     14  C   UNL     1      44.969 129.736  16.220  1.00  0.00     0.027 A 
ATOM     15  C   UNL     1      45.685 131.891  15.307  1.00  0.00     0.052 A 
ATOM     16  C   UNL     1      45.906 129.066  15.412  1.00  0.00     0.012 A 
ATOM     17  C   UNL     1      46.601 131.197  14.521  1.00  0.00     0.047 A 
ATOM     18  C   UNL     1      46.708 129.834  14.573  1.00  0.00    -0.001 A 
ATOM     19  N   UNL     1      47.474 131.709  13.637  1.00  0.00    -0.361 N 
ATOM     20  C   UNL     1      47.692 129.462  13.685  1.00  0.00     0.028 A 
ATOM     21  C   UNL     1      48.145 130.652  13.124  1.00  0.00     0.083 A 
ATOM     22  H   UNL     1      47.611 132.716  13.395  1.00  0.00     0.166 HD
ENDBRANCH  11  13
ENDBRANCH   7  11
BRANCH   3  23
ATOM     23  O   UNL     1      43.850 131.481  22.621  1.00  0.00    -0.505 OA
ATOM     24  H   UNL     1      43.020 131.223  23.143  1.00  0.00     0.293 HD
ENDBRANCH   3  23
TORSDOF 4
ENDMDL
MODEL 2
REMARK VINA RESULT:      -9.6      2.230      2.776
REMARK SMILES Nc1cc(O)c(F)cc1Nc1ccc2cc[nH]c2c1
REMARK SMILES IDX 2 1 3 2 4 3 6 4 7 5 8 6 9 7 1 8 10 11 11 13 12 14 19 15
REMARK SMILES IDX 13 16 18 17 14 18 17 19 15 20 16 21 5 23
REMARK H PARENT 1 9 1 10 10 12 17 22 5 24
ROOT
ATOM      1  C   UNL     1      44.452 131.369  20.535  1.00  0.00     0.059 A 
ATOM      2  C   UNL     1      43.344 132.005  21.117  1.00  0.00     0.077 A 
ATOM      3  C   UNL     1      42.288 132.467  20.321  1.00  0.00     0.153 A 
ATOM      4  C   UNL     1      42.339 132.298  18.934  1.00  0.00     0.167 A 
ATOM      5  F   UNL     1      41.324 132.750  18.155  1.00  0.00    -0.203 F 
ATOM      6  C   UNL     1      43.433 131.660  18.345  1.00  0.00     0.071 A 
ATOM      7  C   UNL     1      44.482 131.172  19.136  1.00  0.00     0.065 A 
ENDROOT
BRANCH   1   8
ATOM      8  N   UNL     1      45.547 130.970  21.369  1.00  0.00    -0.397 N 
ATOM      9  H   UNL     1      45.486 131.068  22.407  1.00  0.00     0.156 HD
ATOM     10  H   UNL     1      46.448 130.632  20.968  1.00  0.00     0.156 HD
ENDBRANCH   1   8
BRANCH   7  11
ATOM     11  N   UNL     1      45.576 130.500  18.494  1.00  0.00    -0.354 N 
ATOM     12  H   UNL     1      46.201 129.915  19.095  1.00  0.00     0.167 HD
BRANCH  11  13
ATOM     13  C   UNL     1      45.964 130.728  17.126  1.00  0.00     0.041 A 
ATOM     14  C   UNL     1      45.643 131.941  16.456  1.00  0.00     0.027 A 
ATOM     15  C   UNL     1      46.699 129.732  16.447  1.00  0.00     0.052 A 
ATOM     16  C   UNL     1      46.034 132.149  15.121  1.00  0.00     0.012 A 
ATOM     17  C   UNL     1      47.071 129.971  15.126  1.00  0.00     0.047 A 
ATOM     18  C   UNL     1      46.748 131.138  14.486  1.00  0.00    -0.001 A 
ATOM     19  N   UNL     1      47.762 129.158  14.311  1.00  0.00    -0.361 N 
ATOM     20  C   UNL     1      47.256 131.063  13.209  1.00  0.00     0.028 A 
ATOM     21  C   UNL     1      47.878 129.820  13.137  1.00  0.00     0.083 A 
ATOM     22  H   UNL     1      48.135 128.207  14.534  1.00  0.00     0.166 HD
ENDBRANCH  11  13
ENDBRANCH   7  11
BRANCH   3  23
ATOM     23  O   UNL     1      41.189 133.099  20.898  1.00  0.00    -0.505 OA
ATOM     24  H   UNL     1      40.301 132.623  21.007  1.00  0.00     0.293 HD
ENDBRANCH   3  23
TORSDOF 4
ENDMDL
MODEL 3
REMARK VINA RESULT:      -9.3      3.572      6.543
REMARK SMILES Nc1cc(O)c(F)cc1Nc1ccc2cc[nH]c2c1
REMARK SMILES IDX 2 1 3 2 4 3 6 4 7 5 8 6 9 7 1 8 10 11 11 13 12 14 19 15
REMARK SMILES IDX 13 16 18 17 14 18 17 19 15 20 16 21 5 23
REMARK H PARENT 1 9 1 10 10 12 17 22 5 24
ROOT
ATOM      1  C   UNL     1      45.814 129.425  15.075  1.00  0.00     0.059 A 
ATOM      2  C   UNL     1      46.995 128.912  14.516  1.00  0.00     0.077 A 
ATOM      3  C   UNL     1      47.842 129.734  13.762  1.00  0.00     0.153 A 
ATOM      4  C   UNL     1      47.508 131.076  13.560  1.00  0.00     0.167 A 
ATOM      5  F   UNL     1      48.320 131.877  12.825  1.00  0.00    -0.203 F 
ATOM      6  C   UNL     1      46.339 131.600  14.118  1.00  0.00     0.071 A 
ATOM      7  C   UNL     1      45.498 130.791  14.896  1.00  0.00     0.065 A 
ENDROOT
BRANCH   1   8
ATOM      8  N   UNL     1      44.934 128.543  15.783  1.00  0.00    -0.397 N 
ATOM      9  H   UNL     1      45.305 127.685  16.248  1.00  0.00     0.156 HD
ATOM     10  H   UNL     1      43.903 128.695  15.802  1.00  0.00     0.156 HD
ENDBRANCH   1   8
BRANCH   7  11
ATOM     11  N   UNL     1      44.320 131.374  15.472  1.00  0.00    -0.354 N 
ATOM     12  H   UNL     1      43.655 131.855  14.825  1.00  0.00     0.167 HD
BRANCH  11  13
ATOM     13  C   UNL     1      44.097 131.490  16.890  1.00  0.00     0.041 A 
ATOM     14  C   UNL     1      42.817 131.819  17.415  1.00  0.00     0.027 A 
ATOM     15  C   UNL     1      45.170 131.248  17.776  1.00  0.00     0.052 A 
ATOM     16  C   UNL     1      42.614 131.923  18.803  1.00  0.00     0.012 A 
ATOM     17  C   UNL     1      44.934 131.358  19.144  1.00  0.00     0.047 A 
ATOM     18  C   UNL     1      43.701 131.686  19.639  1.00  0.00    -0.001 A 
ATOM     19  N   UNL     1      45.814 131.175  20.143  1.00  0.00    -0.361 N 
ATOM     20  C   UNL     1      43.800 131.712  21.012  1.00  0.00     0.028 A 
ATOM     21  C   UNL     1      45.126 131.390  21.287  1.00  0.00     0.083 A 
ATOM     22  H   UNL     1      46.823 130.919  20.056  1.00  0.00     0.166 HD
ENDBRANCH  11  13
ENDBRANCH   7  11
BRANCH   3  23
ATOM     23  O   UNL     1      49.014 129.224  13.206  1.00  0.00    -0.505 OA
ATOM     24  H   UNL     1      49.279 129.429  12.250  1.00  0.00     0.293 HD
ENDBRANCH   3  23
TORSDOF 4
ENDMDL
MODEL 4
REMARK VINA RESULT:      -9.2      3.524      6.777
REMARK SMILES Nc1cc(O)c(F)cc1Nc1ccc2cc[nH]c2c1
REMARK SMILES IDX 2 1 3 2 4 3 6 4 7 5 8 6 9 7 1 8 10 11 11 13 12 14 19 15
REMARK SMILES IDX 13 16 18 17 14 18 17 19 15 20 16 21 5 23
REMARK H PARENT 1 9 1 10 10 12 17 22 5 24
ROOT
ATOM      1  C   UNL     1      46.022 129.311  14.925  1.00  0.00     0.059 A 
ATOM      2  C   UNL     1      47.242 128.841  14.414  1.00  0.00     0.077 A 
ATOM      3  C   UNL     1      48.063 129.676  13.646  1.00  0.00     0.153 A 
ATOM      4  C   UNL     1      47.662 130.989  13.379  1.00  0.00     0.167 A 
ATOM      5  F   UNL     1      48.448 131.802  12.630  1.00  0.00    -0.203 F 
ATOM      6  C   UNL     1      46.454 131.470  13.889  1.00  0.00     0.071 A 
ATOM      7  C   UNL     1      45.638 130.650  14.680  1.00  0.00     0.065 A 
ENDROOT
BRANCH   1   8
ATOM      8  N   UNL     1      45.172 128.412  15.649  1.00  0.00    -0.397 N 
ATOM      9  H   UNL     1      45.339 127.381  15.613  1.00  0.00     0.156 HD
ATOM     10  H   UNL     1      44.338 128.748  16.175  1.00  0.00     0.156 HD
ENDBRANCH   1   8
BRANCH   7  11
ATOM     11  N   UNL     1      44.417 131.190  15.205  1.00  0.00    -0.354 N 
ATOM     12  H   UNL     1      43.717 131.553  14.519  1.00  0.00     0.167 HD
BRANCH  11  13
ATOM     13  C   UNL     1      44.182 131.424  16.606  1.00  0.00     0.041 A 
ATOM     14  C   UNL     1      45.193 131.188  17.578  1.00  0.00     0.027 A 
ATOM     15  C   UNL     1      42.926 131.921  17.018  1.00  0.00     0.052 A 
ATOM     16  C   UNL     1      44.949 131.427  18.942  1.00  0.00     0.012 A 
ATOM     17  C   UNL     1      42.718 132.147  18.376  1.00  0.00     0.047 A 
ATOM     18  C   UNL     1      43.694 131.907  19.305  1.00  0.00    -0.001 A 
ATOM     19  N   UNL     1      41.603 132.608  18.967  1.00  0.00    -0.361 N 
ATOM     20  C   UNL     1      43.179 132.229  20.540  1.00  0.00     0.028 A 
ATOM     21  C   UNL     1      41.879 132.660  20.291  1.00  0.00     0.083 A 
ATOM     22  H   UNL     1      40.705 132.873  18.503  1.00  0.00     0.166 HD
ENDBRANCH  11  13
ENDBRANCH   7  11
BRANCH   3  23
ATOM     23  O   UNL     1      49.273 129.209  13.138  1.00  0.00    -0.505 OA
ATOM     24  H   UNL     1      49.943 128.726  13.726  1.00  0.00     0.293 HD
ENDBRANCH   3  23
TORSDOF 4
ENDMDL
MODEL 5
REMARK VINA RESULT:      -8.9      0.862      1.489
REMARK SMILES Nc1cc(O)c(F)cc1Nc1ccc2cc[nH]c2c1
REMARK SMILES IDX 2 1 3 2 4 3 6 4 7 5 8 6 9 7 1 8 10 11 11 13 12 14 19 15
REMARK SMILES IDX 13 16 18 17 14 18 17 19 15 20 16 21 5 23
REMARK H PARENT 1 9 1 10 10 12 17 22 5 24
ROOT
ATOM      1  C   UNL     1      42.873 132.099  19.357  1.00  0.00     0.059 A 
ATOM      2  C   UNL     1      43.072 132.066  20.746  1.00  0.00     0.077 A 
ATOM      3  C   UNL     1      44.241 131.515  21.286  1.00  0.00     0.153 A 
ATOM      4  C   UNL     1      45.217 130.987  20.435  1.00  0.00     0.167 A 
ATOM      5  F   UNL     1      46.348 130.445  20.950  1.00  0.00    -0.203 F 
ATOM      6  C   UNL     1      45.033 131.021  19.050  1.00  0.00     0.071 A 
ATOM      7  C   UNL     1      43.878 131.594  18.500  1.00  0.00     0.065 A 
ENDROOT
BRANCH   1   8
ATOM      8  N   UNL     1      41.636 132.607  18.838  1.00  0.00    -0.397 N 
ATOM      9  H   UNL     1      41.574 133.586  18.482  1.00  0.00     0.156 HD
ATOM     10  H   UNL     1      40.760 132.042  18.857  1.00  0.00     0.156 HD
ENDBRANCH   1   8
BRANCH   7  11
ATOM     11  N   UNL     1      43.738 131.631  17.072  1.00  0.00    -0.354 N 
ATOM     12  H   UNL     1      42.768 131.666  16.684  1.00  0.00     0.167 HD
BRANCH  11  13
ATOM     13  C   UNL     1      44.833 131.442  16.156  1.00  0.00     0.041 A 
ATOM     14  C   UNL     1      45.520 132.547  15.582  1.00  0.00     0.027 A 
ATOM     15  C   UNL     1      45.245 130.129  15.841  1.00  0.00     0.052 A 
ATOM     16  C   UNL     1      46.591 132.345  14.693  1.00  0.00     0.012 A 
ATOM     17  C   UNL     1      46.309 129.964  14.959  1.00  0.00     0.047 A 
ATOM     18  C   UNL     1      46.957 131.034  14.403  1.00  0.00    -0.001 A 
ATOM     19  N   UNL     1      46.846 128.809  14.531  1.00  0.00    -0.361 N 
ATOM     20  C   UNL     1      47.949 130.539  13.587  1.00  0.00     0.028 A 
ATOM     21  C   UNL     1      47.849 129.155  13.691  1.00  0.00     0.083 A 
ATOM     22  H   UNL     1      46.551 127.841  14.791  1.00  0.00     0.166 HD
ENDBRANCH  11  13
ENDBRANCH   7  11
BRANCH   3  23
ATOM     23  O   UNL     1      44.438 131.482  22.664  1.00  0.00    -0.505 OA
ATOM     24  H   UNL     1      43.986 132.149  23.280  1.00  0.00     0.293 HD
ENDBRANCH   3  23
TORSDOF 4
ENDMDL
MODEL 6
REMARK VINA RESULT:      -8.4      1.733      2.323
REMARK SMILES Nc1cc(O)c(F)cc1Nc1ccc2cc[nH]c2c1
REMARK SMILES IDX 2 1 3 2 4 3 6 4 7 5 8 6 9 7 1 8 10 11 11 13 12 14 19 15
REMARK SMILES IDX 13 16 18 17 14 18 17 19 15 20 16 21 5 23
REMARK H PARENT 1 9 1 10 10 12 17 22 5 24
ROOT
ATOM      1  C   UNL     1      43.087 131.832  18.168  1.00  0.00     0.059 A 
ATOM      2  C   UNL     1      42.009 132.527  18.739  1.00  0.00     0.077 A 
ATOM      3  C   UNL     1      41.936 132.715  20.125  1.00  0.00     0.153 A 
ATOM      4  C   UNL     1      42.942 132.202  20.949  1.00  0.00     0.167 A 
ATOM      5  F   UNL     1      42.875 132.373  22.293  1.00  0.00    -0.203 F 
ATOM      6  C   UNL     1      44.023 131.515  20.391  1.00  0.00     0.071 A 
ATOM      7  C   UNL     1      44.118 131.345  19.003  1.00  0.00     0.065 A 
ENDROOT
BRANCH   1   8
ATOM      8  N   UNL     1      43.098 131.596  16.754  1.00  0.00    -0.397 N 
ATOM      9  H   UNL     1      43.894 131.088  16.308  1.00  0.00     0.156 HD
ATOM     10  H   UNL     1      42.353 131.972  16.129  1.00  0.00     0.156 HD
ENDBRANCH   1   8
BRANCH   7  11
ATOM     11  N   UNL     1      45.257 130.655  18.468  1.00  0.00    -0.354 N 
ATOM     12  H   UNL     1      45.819 130.070  19.127  1.00  0.00     0.167 HD
BRANCH  11  13
ATOM     13  C   UNL     1      45.768 130.865  17.139  1.00  0.00     0.041 A 
ATOM     14  C   UNL     1      45.647 132.124  16.488  1.00  0.00     0.027 A 
ATOM     15  C   UNL     1      46.424 129.803  16.480  1.00  0.00     0.052 A 
ATOM     16  C   UNL     1      46.157 132.314  15.190  1.00  0.00     0.012 A 
ATOM     17  C   UNL     1      46.918 130.025  15.197  1.00  0.00     0.047 A 
ATOM     18  C   UNL     1      46.787 131.237  14.574  1.00  0.00    -0.001 A 
ATOM     19  N   UNL     1      47.563 129.151  14.406  1.00  0.00    -0.361 N 
ATOM     20  C   UNL     1      47.374 131.130  13.334  1.00  0.00     0.028 A 
ATOM     21  C   UNL     1      47.843 129.822  13.264  1.00  0.00     0.083 A 
ATOM     22  H   UNL     1      47.799 128.157  14.624  1.00  0.00     0.166 HD
ENDBRANCH  11  13
ENDBRANCH   7  11
BRANCH   3  23
ATOM     23  O   UNL     1      40.866 133.404  20.691  1.00  0.00    -0.505 OA
ATOM     24  H   UNL     1      40.143 133.824  20.118  1.00  0.00     0.293 HD
ENDBRANCH   3  23
TORSDOF 4
ENDMDL
MODEL 7
REMARK VINA RESULT:      -8.2      1.304      1.951
REMARK SMILES Nc1cc(O)c(F)cc1Nc1ccc2cc[nH]c2c1
REMARK SMILES IDX 2 1 3 2 4 3 6 4 7 5 8 6 9 7 1 8 10 11 11 13 12 14 19 15
REMARK SMILES IDX 13 16 18 17 14 18 17 19 15 20 16 21 5 23
REMARK H PARENT 1 9 1 10 10 12 17 22 5 24
ROOT
ATOM      1  C   UNL     1      45.111 131.076  19.405  1.00  0.00     0.059 A 
ATOM      2  C   UNL     1      45.163 130.947  20.802  1.00  0.00     0.077 A 
ATOM      3  C   UNL     1      44.114 131.419  21.600  1.00  0.00     0.153 A 
ATOM      4  C   UNL     1      43.006 132.028  21.003  1.00  0.00     0.167 A 
ATOM      5  F   UNL     1      41.989 132.494  21.769  1.00  0.00    -0.203 F 
ATOM      6  C   UNL     1      42.940 132.154  19.613  1.00  0.00     0.071 A 
ATOM      7  C   UNL     1      43.974 131.662  18.804  1.00  0.00     0.065 A 
ENDROOT
BRANCH   1   8
ATOM      8  N   UNL     1      46.232 130.646  18.620  1.00  0.00    -0.397 N 
ATOM      9  H   UNL     1      46.578 131.229  17.826  1.00  0.00     0.156 HD
ATOM     10  H   UNL     1      46.690 129.723  18.777  1.00  0.00     0.156 HD
ENDBRANCH   1   8
BRANCH   7  11
ATOM     11  N   UNL     1      43.857 131.789  17.379  1.00  0.00    -0.354 N 
ATOM     12  H   UNL     1      43.004 132.265  17.007  1.00  0.00     0.167 HD
BRANCH  11  13
ATOM     13  C   UNL     1      44.743 131.148  16.443  1.00  0.00     0.041 A 
ATOM     14  C   UNL     1      44.758 129.735  16.284  1.00  0.00     0.027 A 
ATOM     15  C   UNL     1      45.597 131.945  15.650  1.00  0.00     0.052 A 
ATOM     16  C   UNL     1      45.627 129.124  15.361  1.00  0.00     0.012 A 
ATOM     17  C   UNL     1      46.443 131.309  14.745  1.00  0.00     0.047 A 
ATOM     18  C   UNL     1      46.458 129.947  14.607  1.00  0.00    -0.001 A 
ATOM     19  N   UNL     1      47.327 131.881  13.910  1.00  0.00    -0.361 N 
ATOM     20  C   UNL     1      47.391 129.639  13.643  1.00  0.00     0.028 A 
ATOM     21  C   UNL     1      47.910 130.864  13.235  1.00  0.00     0.083 A 
ATOM     22  H   UNL     1      47.526 132.901  13.804  1.00  0.00     0.166 HD
ENDBRANCH  11  13
ENDBRANCH   7  11
BRANCH   3  23
ATOM     23  O   UNL     1      44.165 131.292  22.987  1.00  0.00    -0.505 OA
ATOM     24  H   UNL     1      44.002 132.084  23.597  1.00  0.00     0.293 HD
ENDBRANCH   3  23
TORSDOF 4
ENDMDL
MODEL 8
REMARK VINA RESULT:      -8.1      2.997      6.598
REMARK SMILES Nc1cc(O)c(F)cc1Nc1ccc2cc[nH]c2c1
REMARK SMILES IDX 2 1 3 2 4 3 6 4 7 5 8 6 9 7 1 8 10 11 11 13 12 14 19 15
REMARK SMILES IDX 13 16 18 17 14 18 17 19 15 20 16 21 5 23
REMARK H PARENT 1 9 1 10 10 12 17 22 5 24
ROOT
ATOM      1  C   UNL     1      44.189 131.513  14.956  1.00  0.00     0.059 A 
ATOM      2  C   UNL     1      45.095 131.022  14.003  1.00  0.00     0.077 A 
ATOM      3  C   UNL     1      46.271 130.376  14.406  1.00  0.00     0.153 A 
ATOM      4  C   UNL     1      46.548 130.223  15.767  1.00  0.00     0.167 A 
ATOM      5  F   UNL     1      47.689 129.606  16.165  1.00  0.00    -0.203 F 
ATOM      6  C   UNL     1      45.650 130.702  16.724  1.00  0.00     0.071 A 
ATOM      7  C   UNL     1      44.458 131.327  16.331  1.00  0.00     0.065 A 
ENDROOT
BRANCH   1   8
ATOM      8  N   UNL     1      43.028 132.230  14.513  1.00  0.00    -0.397 N 
ATOM      9  H   UNL     1      42.275 132.488  15.189  1.00  0.00     0.156 HD
ATOM     10  H   UNL     1      42.875 132.459  13.508  1.00  0.00     0.156 HD
ENDBRANCH   1   8
BRANCH   7  11
ATOM     11  N   UNL     1      43.550 131.782  17.344  1.00  0.00    -0.354 N 
ATOM     12  H   UNL     1      42.732 132.355  17.036  1.00  0.00     0.167 HD
BRANCH  11  13
ATOM     13  C   UNL     1      43.796 131.651  18.757  1.00  0.00     0.041 A 
ATOM     14  C   UNL     1      45.075 131.279  19.256  1.00  0.00     0.027 A 
ATOM     15  C   UNL     1      42.748 131.923  19.664  1.00  0.00     0.052 A 
ATOM     16  C   UNL     1      45.300 131.161  20.640  1.00  0.00     0.012 A 
ATOM     17  C   UNL     1      43.006 131.797  21.027  1.00  0.00     0.047 A 
ATOM     18  C   UNL     1      44.237 131.428  21.497  1.00  0.00    -0.001 A 
ATOM     19  N   UNL     1      42.151 132.004  22.043  1.00  0.00    -0.361 N 
ATOM     20  C   UNL     1      44.163 131.398  22.872  1.00  0.00     0.028 A 
ATOM     21  C   UNL     1      42.854 131.760  23.174  1.00  0.00     0.083 A 
ATOM     22  H   UNL     1      41.149 132.292  21.977  1.00  0.00     0.166 HD
ENDBRANCH  11  13
ENDBRANCH   7  11
BRANCH   3  23
ATOM     23  O   UNL     1      47.171 129.889  13.461  1.00  0.00    -0.505 OA
ATOM     24  H   UNL     1      48.166 130.066  13.536  1.00  0.00     0.293 HD
ENDBRANCH   3  23
TORSDOF 4
ENDMDL
MODEL 9
REMARK VINA RESULT:      -8.0      2.021      2.783
REMARK SMILES Nc1cc(O)c(F)cc1Nc1ccc2cc[nH]c2c1
REMARK SMILES IDX 2 1 3 2 4 3 6 4 7 5 8 6 9 7 1 8 10 11 11 13 12 14 19 15
REMARK SMILES IDX 13 16 18 17 14 18 17 19 15 20 16 21 5 23
REMARK H PARENT 1 9 1 10 10 12 17 22 5 24
ROOT
ATOM      1  C   UNL     1      43.018 131.492  21.519  1.00  0.00     0.059 A 
ATOM      2  C   UNL     1      42.502 130.737  22.584  1.00  0.00     0.077 A 
ATOM      3  C   UNL     1      43.239 129.677  23.128  1.00  0.00     0.153 A 
ATOM      4  C   UNL     1      44.496 129.364  22.604  1.00  0.00     0.167 A 
ATOM      5  F   UNL     1      45.213 128.335  23.120  1.00  0.00    -0.203 F 
ATOM      6  C   UNL     1      45.023 130.114  21.548  1.00  0.00     0.071 A 
ATOM      7  C   UNL     1      44.304 131.193  21.014  1.00  0.00     0.065 A 
ENDROOT
BRANCH   1   8
ATOM      8  N   UNL     1      42.211 132.526  20.938  1.00  0.00    -0.397 N 
ATOM      9  H   UNL     1      42.419 133.531  21.131  1.00  0.00     0.156 HD
ATOM     10  H   UNL     1      41.368 132.307  20.365  1.00  0.00     0.156 HD
ENDBRANCH   1   8
BRANCH   7  11
ATOM     11  N   UNL     1      44.890 131.953  19.948  1.00  0.00    -0.354 N 
ATOM     12  H   UNL     1      45.203 132.926  20.166  1.00  0.00     0.167 HD
BRANCH  11  13
ATOM     13  C   UNL     1      44.905 131.524  18.573  1.00  0.00     0.041 A 
ATOM     14  C   UNL     1      43.836 131.834  17.688  1.00  0.00     0.027 A 
ATOM     15  C   UNL     1      46.018 130.800  18.092  1.00  0.00     0.052 A 
ATOM     16  C   UNL     1      43.869 131.412  16.346  1.00  0.00     0.012 A 
ATOM     17  C   UNL     1      46.018 130.398  16.759  1.00  0.00     0.047 A 
ATOM     18  C   UNL     1      44.980 130.693  15.917  1.00  0.00    -0.001 A 
ATOM     19  N   UNL     1      46.971 129.703  16.115  1.00  0.00    -0.361 N 
ATOM     20  C   UNL     1      45.285 130.162  14.684  1.00  0.00     0.028 A 
ATOM     21  C   UNL     1      46.527 129.555  14.845  1.00  0.00     0.083 A 
ATOM     22  H   UNL     1      47.870 129.348  16.510  1.00  0.00     0.166 HD
ENDBRANCH  11  13
ENDBRANCH   7  11
BRANCH   3  23
ATOM     23  O   UNL     1      42.727 128.927  24.184  1.00  0.00    -0.505 OA
ATOM     24  H   UNL     1      43.131 128.035  24.445  1.00  0.00     0.293 HD
ENDBRANCH   3  23
TORSDOF 4
ENDMDL


