REMARK SMILES CCC(=O)[N-]c1cc(F)c[nH]/c1=N\c1c[n-]c2nccc-2c1
REMARK SMILES IDX 5 1 6 2 12 3 11 4 7 5 10 6 8 7 9 9 13 10 14 11 19 12 18 13
REMARK SMILES IDX 20 14 17 15 21 16 16 17 22 18 15 19 3 20 4 21 2 22 1 23
REMARK H PARENT 11 8
ROOT
ATOM      1  N   UNL     1      -2.357  -0.067   0.550  1.00  0.00    -0.624 NA
ENDROOT
BRANCH   1   2
ATOM      2  C   UNL     1      -1.730   1.181   0.206  1.00  0.00    -0.088 A 
ATOM      3  C   UNL     1      -0.330   1.234   0.060  1.00  0.00     0.115 A 
ATOM      4  N   UNL     1       0.270   2.422  -0.272  1.00  0.00    -0.345 N 
ATOM      5  C   UNL     1      -2.471   2.366   0.083  1.00  0.00     0.028 A 
ATOM      6  C   UNL     1      -0.448   3.569  -0.415  1.00  0.00     0.123 A 
ATOM      7  C   UNL     1      -1.829   3.562  -0.230  1.00  0.00     0.138 A 
ATOM      8  H   UNL     1       1.294   2.479  -0.460  1.00  0.00     0.168 HD
ATOM      9  F   UNL     1      -2.541   4.709  -0.354  1.00  0.00    -0.205 F 
BRANCH   3  10
ATOM     10  N   UNL     1       0.358   0.133   0.200  1.00  0.00    -0.233 NA
BRANCH  10  11
ATOM     11  C   UNL     1       1.786  -0.008   0.191  1.00  0.00     0.062 A 
ATOM     12  C   UNL     1       5.880  -1.680  -0.639  1.00  0.00    -0.022 A 
ATOM     13  N   UNL     1       5.829  -0.641   0.236  1.00  0.00    -0.442 NA
ATOM     14  C   UNL     1       4.620  -2.041  -1.124  1.00  0.00     0.003 A 
ATOM     15  C   UNL     1       4.525  -0.333   0.306  1.00  0.00    -0.052 A 
ATOM     16  C   UNL     1       3.739  -1.180  -0.523  1.00  0.00    -0.025 A 
ATOM     17  N   UNL     1       3.964   0.629   1.075  1.00  0.00    -0.440 NA
ATOM     18  C   UNL     1       2.362  -1.037  -0.581  1.00  0.00     0.036 A 
ATOM     19  C   UNL     1       2.607   0.797   1.033  1.00  0.00     0.006 A 
ENDBRANCH  10  11
ENDBRANCH   3  10
ENDBRANCH   1   2
BRANCH   1  20
ATOM     20  C   UNL     1      -3.716  -0.439   0.290  1.00  0.00     0.054 C 
ATOM     21  O   UNL     1      -4.417   0.210  -0.533  1.00  0.00    -0.320 OA
BRANCH  20  22
ATOM     22  C   UNL     1      -4.273  -1.675   0.922  1.00  0.00     0.052 C 
ATOM     23  C   UNL     1      -3.940  -2.903   0.084  1.00  0.00     0.010 C 
ENDBRANCH  20  22
ENDBRANCH   1  20
TORSDOF 5


