MODEL 1
REMARK VINA RESULT:      -8.7      0.000      0.000
REMARK SMILES [O-]/C(=C\Cc1c(F)ccc2[n-]c(Nc3cn4ccccc4[nH+]3)cc12)c1ccccc1
REMARK SMILES IDX 5 1 6 2 7 3 8 4 9 5 10 6 11 7 12 8 23 9 24 10 4 11 3 12 2 13
REMARK SMILES IDX 1 14 25 15 26 16 30 17 27 18 29 19 28 20 13 21 14 23 15 24
REMARK SMILES IDX 22 25 16 26 21 27 17 28 20 29 18 30 19 31
REMARK H PARENT 13 22 22 32
ROOT
ATOM      1  C   UNL     1      45.219 132.037  21.424  1.00  0.00    -0.001 A 
ATOM      2  C   UNL     1      44.490 131.981  22.637  1.00  0.00     0.127 A 
ATOM      3  F   UNL     1      45.127 132.091  23.830  1.00  0.00    -0.207 F 
ATOM      4  C   UNL     1      43.090 131.805  22.625  1.00  0.00     0.040 A 
ATOM      5  C   UNL     1      42.395 131.684  21.410  1.00  0.00     0.007 A 
ATOM      6  C   UNL     1      43.126 131.740  20.228  1.00  0.00    -0.031 A 
ATOM      7  N   UNL     1      42.634 131.648  18.979  1.00  0.00    -0.404 NA
ATOM      8  C   UNL     1      43.726 131.756  18.185  1.00  0.00     0.087 A 
ATOM      9  C   UNL     1      44.894 131.930  18.917  1.00  0.00     0.047 A 
ATOM     10  C   UNL     1      44.488 131.911  20.232  1.00  0.00    -0.013 A 
ENDROOT
BRANCH   1  11
ATOM     11  C   UNL     1      46.715 132.237  21.409  1.00  0.00     0.066 C 
BRANCH  11  12
ATOM     12  C   UNL     1      47.062 133.700  21.379  1.00  0.00    -0.030 C 
BRANCH  12  13
ATOM     13  C   UNL     1      47.852 134.276  22.299  1.00  0.00    -0.105 C 
ATOM     14  O   UNL     1      47.813 133.824  23.616  1.00  0.00    -0.872 OA
BRANCH  13  15
ATOM     15  C   UNL     1      48.793 135.371  21.952  1.00  0.00    -0.034 A 
ATOM     16  C   UNL     1      50.042 135.509  22.592  1.00  0.00     0.007 A 
ATOM     17  C   UNL     1      48.450 136.278  20.932  1.00  0.00     0.007 A 
ATOM     18  C   UNL     1      50.908 136.547  22.236  1.00  0.00     0.001 A 
ATOM     19  C   UNL     1      49.321 137.314  20.581  1.00  0.00     0.001 A 
ATOM     20  C   UNL     1      50.547 137.451  21.233  1.00  0.00     0.000 A 
ENDBRANCH  13  15
ENDBRANCH  12  13
ENDBRANCH  11  12
ENDBRANCH   1  11
BRANCH   8  21
ATOM     21  N   UNL     1      43.676 131.756  16.752  1.00  0.00    -0.274 N 
ATOM     22  H   UNL     1      42.806 132.106  16.293  1.00  0.00     0.263 HD
BRANCH  21  23
ATOM     23  C   UNL     1      44.727 131.271  15.904  1.00  0.00     0.256 A 
ATOM     24  C   UNL     1      45.299 130.002  15.924  1.00  0.00     0.248 A 
ATOM     25  N   UNL     1      45.364 132.047  14.998  1.00  0.00    -0.243 N 
ATOM     26  N   UNL     1      46.284 130.008  15.008  1.00  0.00    -0.233 N 
ATOM     27  C   UNL     1      46.301 131.240  14.469  1.00  0.00     0.230 A 
ATOM     28  C   UNL     1      47.144 129.022  14.649  1.00  0.00     0.168 A 
ATOM     29  C   UNL     1      47.226 131.579  13.482  1.00  0.00     0.081 A 
ATOM     30  C   UNL     1      48.097 129.304  13.658  1.00  0.00     0.035 A 
ATOM     31  C   UNL     1      48.133 130.586  13.075  1.00  0.00     0.010 A 
ATOM     32  H   UNL     1      45.174 133.048  14.767  1.00  0.00     0.267 HD
ENDBRANCH  21  23
ENDBRANCH   8  21
TORSDOF 6
ENDMDL
MODEL 2
REMARK VINA RESULT:      -8.3      5.431      7.734
REMARK SMILES [O-]/C(=C\Cc1c(F)ccc2[n-]c(Nc3cn4ccccc4[nH+]3)cc12)c1ccccc1
REMARK SMILES IDX 5 1 6 2 7 3 8 4 9 5 10 6 11 7 12 8 23 9 24 10 4 11 3 12 2 13
REMARK SMILES IDX 1 14 25 15 26 16 30 17 27 18 29 19 28 20 13 21 14 23 15 24
REMARK SMILES IDX 22 25 16 26 21 27 17 28 20 29 18 30 19 31
REMARK H PARENT 13 22 22 32
ROOT
ATOM      1  C   UNL     1      44.893 130.434  21.029  1.00  0.00    -0.001 A 
ATOM      2  C   UNL     1      44.060 131.495  21.459  1.00  0.00     0.127 A 
ATOM      3  F   UNL     1      43.974 132.642  20.738  1.00  0.00    -0.207 F 
ATOM      4  C   UNL     1      43.309 131.379  22.649  1.00  0.00     0.040 A 
ATOM      5  C   UNL     1      43.372 130.210  23.424  1.00  0.00     0.007 A 
ATOM      6  C   UNL     1      44.197 129.178  22.986  1.00  0.00    -0.031 A 
ATOM      7  N   UNL     1      44.379 127.990  23.593  1.00  0.00    -0.404 NA
ATOM      8  C   UNL     1      45.261 127.344  22.793  1.00  0.00     0.087 A 
ATOM      9  C   UNL     1      45.623 128.102  21.686  1.00  0.00     0.047 A 
ATOM     10  C   UNL     1      44.930 129.284  21.832  1.00  0.00    -0.013 A 
ENDROOT
BRANCH   1  11
ATOM     11  C   UNL     1      45.697 130.528  19.755  1.00  0.00     0.066 C 
BRANCH  11  12
ATOM     12  C   UNL     1      45.206 131.655  18.890  1.00  0.00    -0.030 C 
BRANCH  12  13
ATOM     13  C   UNL     1      44.616 131.451  17.701  1.00  0.00    -0.105 C 
ATOM     14  O   UNL     1      43.248 131.673  17.567  1.00  0.00    -0.872 OA
BRANCH  13  15
ATOM     15  C   UNL     1      45.386 131.018  16.506  1.00  0.00    -0.034 A 
ATOM     16  C   UNL     1      45.525 129.657  16.165  1.00  0.00     0.007 A 
ATOM     17  C   UNL     1      45.966 131.989  15.669  1.00  0.00     0.007 A 
ATOM     18  C   UNL     1      46.250 129.283  15.029  1.00  0.00     0.001 A 
ATOM     19  C   UNL     1      46.690 131.609  14.535  1.00  0.00     0.001 A 
ATOM     20  C   UNL     1      46.834 130.257  14.217  1.00  0.00     0.000 A 
ENDBRANCH  13  15
ENDBRANCH  12  13
ENDBRANCH  11  12
ENDBRANCH   1  11
BRANCH   8  21
ATOM     21  N   UNL     1      45.721 126.006  23.026  1.00  0.00    -0.274 N 
ATOM     22  H   UNL     1      45.069 125.341  23.499  1.00  0.00     0.263 HD
BRANCH  21  23
ATOM     23  C   UNL     1      47.031 125.528  22.689  1.00  0.00     0.256 A 
ATOM     24  C   UNL     1      47.351 124.572  21.730  1.00  0.00     0.248 A 
ATOM     25  N   UNL     1      48.149 125.915  23.343  1.00  0.00    -0.243 N 
ATOM     26  N   UNL     1      48.682 124.389  21.797  1.00  0.00    -0.233 N 
ATOM     27  C   UNL     1      49.135 125.204  22.766  1.00  0.00     0.230 A 
ATOM     28  C   UNL     1      49.484 123.561  21.081  1.00  0.00     0.168 A 
ATOM     29  C   UNL     1      50.489 125.244  23.096  1.00  0.00     0.081 A 
ATOM     30  C   UNL     1      50.858 123.560  21.366  1.00  0.00     0.035 A 
ATOM     31  C   UNL     1      51.357 124.407  22.376  1.00  0.00     0.010 A 
ATOM     32  H   UNL     1      48.228 126.606  24.123  1.00  0.00     0.267 HD
ENDBRANCH  21  23
ENDBRANCH   8  21
TORSDOF 6
ENDMDL
MODEL 3
REMARK VINA RESULT:      -7.5      5.106      7.772
REMARK SMILES [O-]/C(=C\Cc1c(F)ccc2[n-]c(Nc3cn4ccccc4[nH+]3)cc12)c1ccccc1
REMARK SMILES IDX 5 1 6 2 7 3 8 4 9 5 10 6 11 7 12 8 23 9 24 10 4 11 3 12 2 13
REMARK SMILES IDX 1 14 25 15 26 16 30 17 27 18 29 19 28 20 13 21 14 23 15 24
REMARK SMILES IDX 22 25 16 26 21 27 17 28 20 29 18 30 19 31
REMARK H PARENT 13 22 22 32
ROOT
ATOM      1  C   UNL     1      44.527 131.168  20.490  1.00  0.00    -0.001 A 
ATOM      2  C   UNL     1      43.530 132.164  20.356  1.00  0.00     0.127 A 
ATOM      3  F   UNL     1      43.510 132.979  19.271  1.00  0.00    -0.207 F 
ATOM      4  C   UNL     1      42.541 132.329  21.350  1.00  0.00     0.040 A 
ATOM      5  C   UNL     1      42.528 131.507  22.489  1.00  0.00     0.007 A 
ATOM      6  C   UNL     1      43.517 130.534  22.606  1.00  0.00    -0.031 A 
ATOM      7  N   UNL     1      43.659 129.659  23.618  1.00  0.00    -0.404 NA
ATOM      8  C   UNL     1      44.752 128.934  23.275  1.00  0.00     0.087 A 
ATOM      9  C   UNL     1      45.287 129.332  22.057  1.00  0.00     0.047 A 
ATOM     10  C   UNL     1      44.481 130.369  21.643  1.00  0.00    -0.013 A 
ENDROOT
BRANCH   1  11
ATOM     11  C   UNL     1      45.587 130.964  19.436  1.00  0.00     0.066 C 
BRANCH  11  12
ATOM     12  C   UNL     1      45.013 130.295  18.218  1.00  0.00    -0.030 C 
BRANCH  12  13
ATOM     13  C   UNL     1      44.821 130.945  17.058  1.00  0.00    -0.105 C 
ATOM     14  O   UNL     1      43.711 131.772  16.911  1.00  0.00    -0.872 OA
BRANCH  13  15
ATOM     15  C   UNL     1      45.776 130.829  15.926  1.00  0.00    -0.034 A 
ATOM     16  C   UNL     1      45.953 131.871  14.993  1.00  0.00     0.007 A 
ATOM     17  C   UNL     1      46.554 129.663  15.796  1.00  0.00     0.007 A 
ATOM     18  C   UNL     1      46.866 131.733  13.944  1.00  0.00     0.001 A 
ATOM     19  C   UNL     1      47.465 129.531  14.744  1.00  0.00     0.001 A 
ATOM     20  C   UNL     1      47.619 130.563  13.817  1.00  0.00     0.000 A 
ENDBRANCH  13  15
ENDBRANCH  12  13
ENDBRANCH  11  12
ENDBRANCH   1  11
BRANCH   8  21
ATOM     21  N   UNL     1      45.261 127.839  24.050  1.00  0.00    -0.274 N 
ATOM     22  H   UNL     1      45.377 127.981  25.078  1.00  0.00     0.263 HD
BRANCH  21  23
ATOM     23  C   UNL     1      45.657 126.574  23.502  1.00  0.00     0.256 A 
ATOM     24  C   UNL     1      45.390 125.314  24.028  1.00  0.00     0.248 A 
ATOM     25  N   UNL     1      46.435 126.457  22.401  1.00  0.00    -0.243 N 
ATOM     26  N   UNL     1      46.002 124.424  23.227  1.00  0.00    -0.233 N 
ATOM     27  C   UNL     1      46.617 125.132  22.263  1.00  0.00     0.230 A 
ATOM     28  C   UNL     1      46.054 123.071  23.310  1.00  0.00     0.168 A 
ATOM     29  C   UNL     1      47.359 124.496  21.268  1.00  0.00     0.081 A 
ATOM     30  C   UNL     1      46.784 122.375  22.333  1.00  0.00     0.035 A 
ATOM     31  C   UNL     1      47.435 123.094  21.311  1.00  0.00     0.010 A 
ATOM     32  H   UNL     1      46.811 127.223  21.799  1.00  0.00     0.267 HD
ENDBRANCH  21  23
ENDBRANCH   8  21
TORSDOF 6
ENDMDL
MODEL 4
REMARK VINA RESULT:      -7.3      4.917      7.791
REMARK SMILES [O-]/C(=C\Cc1c(F)ccc2[n-]c(Nc3cn4ccccc4[nH+]3)cc12)c1ccccc1
REMARK SMILES IDX 5 1 6 2 7 3 8 4 9 5 10 6 11 7 12 8 23 9 24 10 4 11 3 12 2 13
REMARK SMILES IDX 1 14 25 15 26 16 30 17 27 18 29 19 28 20 13 21 14 23 15 24
REMARK SMILES IDX 22 25 16 26 21 27 17 28 20 29 18 30 19 31
REMARK H PARENT 13 22 22 32
ROOT
ATOM      1  C   UNL     1      44.690 130.976  19.976  1.00  0.00    -0.001 A 
ATOM      2  C   UNL     1      43.738 131.986  19.698  1.00  0.00     0.127 A 
ATOM      3  F   UNL     1      43.813 132.709  18.552  1.00  0.00    -0.207 F 
ATOM      4  C   UNL     1      42.695 132.259  20.609  1.00  0.00     0.040 A 
ATOM      5  C   UNL     1      42.583 131.534  21.806  1.00  0.00     0.007 A 
ATOM      6  C   UNL     1      43.528 130.545  22.065  1.00  0.00    -0.031 A 
ATOM      7  N   UNL     1      43.577 129.752  23.150  1.00  0.00    -0.404 NA
ATOM      8  C   UNL     1      44.663 128.971  22.939  1.00  0.00     0.087 A 
ATOM      9  C   UNL     1      45.288 129.253  21.730  1.00  0.00     0.047 A 
ATOM     10  C   UNL     1      44.544 130.275  21.183  1.00  0.00    -0.013 A 
ENDROOT
BRANCH   1  11
ATOM     11  C   UNL     1      45.807 130.655  19.013  1.00  0.00     0.066 C 
BRANCH  11  12
ATOM     12  C   UNL     1      45.286 130.524  17.609  1.00  0.00    -0.030 C 
BRANCH  12  13
ATOM     13  C   UNL     1      45.678 131.335  16.612  1.00  0.00    -0.105 C 
ATOM     14  O   UNL     1      45.379 132.694  16.676  1.00  0.00    -0.872 OA
BRANCH  13  15
ATOM     15  C   UNL     1      46.449 130.830  15.447  1.00  0.00    -0.034 A 
ATOM     16  C   UNL     1      46.656 131.618  14.296  1.00  0.00     0.007 A 
ATOM     17  C   UNL     1      47.019 129.545  15.501  1.00  0.00     0.007 A 
ATOM     18  C   UNL     1      47.393 131.116  13.219  1.00  0.00     0.001 A 
ATOM     19  C   UNL     1      47.754 129.048  14.421  1.00  0.00     0.001 A 
ATOM     20  C   UNL     1      47.939 129.831  13.280  1.00  0.00     0.000 A 
ENDBRANCH  13  15
ENDBRANCH  12  13
ENDBRANCH  11  12
ENDBRANCH   1  11
BRANCH   8  21
ATOM     21  N   UNL     1      45.085 127.929  23.830  1.00  0.00    -0.274 N 
ATOM     22  H   UNL     1      44.758 127.971  24.820  1.00  0.00     0.263 HD
BRANCH  21  23
ATOM     23  C   UNL     1      45.958 126.852  23.461  1.00  0.00     0.256 A 
ATOM     24  C   UNL     1      47.004 126.327  24.215  1.00  0.00     0.248 A 
ATOM     25  N   UNL     1      45.913 126.244  22.254  1.00  0.00    -0.243 N 
ATOM     26  N   UNL     1      47.588 125.381  23.460  1.00  0.00    -0.233 N 
ATOM     27  C   UNL     1      46.917 125.350  22.294  1.00  0.00     0.230 A 
ATOM     28  C   UNL     1      48.652 124.584  23.731  1.00  0.00     0.168 A 
ATOM     29  C   UNL     1      47.286 124.471  21.277  1.00  0.00     0.081 A 
ATOM     30  C   UNL     1      49.067 123.675  22.746  1.00  0.00     0.035 A 
ATOM     31  C   UNL     1      48.379 123.622  21.517  1.00  0.00     0.010 A 
ATOM     32  H   UNL     1      45.251 126.431  21.468  1.00  0.00     0.267 HD
ENDBRANCH  21  23
ENDBRANCH   8  21
TORSDOF 6
ENDMDL
MODEL 5
REMARK VINA RESULT:      -7.2      5.162      8.268
REMARK SMILES [O-]/C(=C\Cc1c(F)ccc2[n-]c(Nc3cn4ccccc4[nH+]3)cc12)c1ccccc1
REMARK SMILES IDX 5 1 6 2 7 3 8 4 9 5 10 6 11 7 12 8 23 9 24 10 4 11 3 12 2 13
REMARK SMILES IDX 1 14 25 15 26 16 30 17 27 18 29 19 28 20 13 21 14 23 15 24
REMARK SMILES IDX 22 25 16 26 21 27 17 28 20 29 18 30 19 31
REMARK H PARENT 13 22 22 32
ROOT
ATOM      1  C   UNL     1      43.133 131.407  18.814  1.00  0.00    -0.001 A 
ATOM      2  C   UNL     1      42.193 132.444  18.604  1.00  0.00     0.127 A 
ATOM      3  F   UNL     1      41.813 132.788  17.347  1.00  0.00    -0.207 F 
ATOM      4  C   UNL     1      41.638 133.142  19.698  1.00  0.00     0.040 A 
ATOM      5  C   UNL     1      42.006 132.818  21.014  1.00  0.00     0.007 A 
ATOM      6  C   UNL     1      42.932 131.796  21.203  1.00  0.00    -0.031 A 
ATOM      7  N   UNL     1      43.397 131.349  22.383  1.00  0.00    -0.404 NA
ATOM      8  C   UNL     1      44.264 130.364  22.044  1.00  0.00     0.087 A 
ATOM      9  C   UNL     1      44.338 130.178  20.669  1.00  0.00     0.047 A 
ATOM     10  C   UNL     1      43.476 131.115  20.143  1.00  0.00    -0.013 A 
ENDROOT
BRANCH   1  11
ATOM     11  C   UNL     1      43.732 130.638  17.663  1.00  0.00     0.066 C 
BRANCH  11  12
ATOM     12  C   UNL     1      44.593 131.528  16.810  1.00  0.00    -0.030 C 
BRANCH  12  13
ATOM     13  C   UNL     1      44.659 131.408  15.474  1.00  0.00    -0.105 C 
ATOM     14  O   UNL     1      43.577 131.811  14.695  1.00  0.00    -0.872 OA
BRANCH  13  15
ATOM     15  C   UNL     1      45.867 130.879  14.791  1.00  0.00    -0.034 A 
ATOM     16  C   UNL     1      46.434 129.636  15.140  1.00  0.00     0.007 A 
ATOM     17  C   UNL     1      46.448 131.619  13.744  1.00  0.00     0.007 A 
ATOM     18  C   UNL     1      47.567 129.163  14.472  1.00  0.00     0.001 A 
ATOM     19  C   UNL     1      47.582 131.141  13.081  1.00  0.00     0.001 A 
ATOM     20  C   UNL     1      48.143 129.916  13.446  1.00  0.00     0.000 A 
ENDBRANCH  13  15
ENDBRANCH  12  13
ENDBRANCH  11  12
ENDBRANCH   1  11
BRANCH   8  21
ATOM     21  N   UNL     1      44.977 129.563  22.996  1.00  0.00    -0.274 N 
ATOM     22  H   UNL     1      45.762 130.009  23.520  1.00  0.00     0.263 HD
BRANCH  21  23
ATOM     23  C   UNL     1      44.709 128.176  23.250  1.00  0.00     0.256 A 
ATOM     24  C   UNL     1      45.363 127.082  22.691  1.00  0.00     0.248 A 
ATOM     25  N   UNL     1      43.696 127.752  24.039  1.00  0.00    -0.243 N 
ATOM     26  N   UNL     1      44.746 125.983  23.160  1.00  0.00    -0.233 N 
ATOM     27  C   UNL     1      43.756 126.410  23.964  1.00  0.00     0.230 A 
ATOM     28  C   UNL     1      44.995 124.673  22.912  1.00  0.00     0.168 A 
ATOM     29  C   UNL     1      42.912 125.505  24.606  1.00  0.00     0.081 A 
ATOM     30  C   UNL     1      44.180 123.714  23.534  1.00  0.00     0.035 A 
ATOM     31  C   UNL     1      43.137 124.137  24.383  1.00  0.00     0.010 A 
ATOM     32  H   UNL     1      43.019 128.335  24.580  1.00  0.00     0.267 HD
ENDBRANCH  21  23
ENDBRANCH   8  21
TORSDOF 6
ENDMDL
MODEL 6
REMARK VINA RESULT:      -7.0      4.418      6.808
REMARK SMILES [O-]/C(=C\Cc1c(F)ccc2[n-]c(Nc3cn4ccccc4[nH+]3)cc12)c1ccccc1
REMARK SMILES IDX 5 1 6 2 7 3 8 4 9 5 10 6 11 7 12 8 23 9 24 10 4 11 3 12 2 13
REMARK SMILES IDX 1 14 25 15 26 16 30 17 27 18 29 19 28 20 13 21 14 23 15 24
REMARK SMILES IDX 22 25 16 26 21 27 17 28 20 29 18 30 19 31
REMARK H PARENT 13 22 22 32
ROOT
ATOM      1  C   UNL     1      44.655 129.742  22.231  1.00  0.00    -0.001 A 
ATOM      2  C   UNL     1      44.302 130.101  23.555  1.00  0.00     0.127 A 
ATOM      3  F   UNL     1      44.691 129.334  24.605  1.00  0.00    -0.207 F 
ATOM      4  C   UNL     1      43.537 131.260  23.804  1.00  0.00     0.040 A 
ATOM      5  C   UNL     1      43.114 132.080  22.745  1.00  0.00     0.007 A 
ATOM      6  C   UNL     1      43.468 131.712  21.450  1.00  0.00    -0.031 A 
ATOM      7  N   UNL     1      43.158 132.372  20.320  1.00  0.00    -0.404 NA
ATOM      8  C   UNL     1      43.719 131.626  19.338  1.00  0.00     0.087 A 
ATOM      9  C   UNL     1      44.389 130.516  19.837  1.00  0.00     0.047 A 
ATOM     10  C   UNL     1      44.211 130.585  21.201  1.00  0.00    -0.013 A 
ENDROOT
BRANCH   1  11
ATOM     11  C   UNL     1      45.482 128.515  21.939  1.00  0.00     0.066 C 
BRANCH  11  12
ATOM     12  C   UNL     1      45.311 127.480  23.016  1.00  0.00    -0.030 C 
BRANCH  12  13
ATOM     13  C   UNL     1      44.382 126.512  22.951  1.00  0.00    -0.105 C 
ATOM     14  O   UNL     1      43.057 126.812  23.257  1.00  0.00    -0.872 OA
BRANCH  13  15
ATOM     15  C   UNL     1      44.720 125.127  22.533  1.00  0.00    -0.034 A 
ATOM     16  C   UNL     1      46.053 124.674  22.470  1.00  0.00     0.007 A 
ATOM     17  C   UNL     1      43.683 124.228  22.224  1.00  0.00     0.007 A 
ATOM     18  C   UNL     1      46.337 123.362  22.080  1.00  0.00     0.001 A 
ATOM     19  C   UNL     1      43.972 122.917  21.835  1.00  0.00     0.001 A 
ATOM     20  C   UNL     1      45.298 122.484  21.760  1.00  0.00     0.000 A 
ENDBRANCH  13  15
ENDBRANCH  12  13
ENDBRANCH  11  12
ENDBRANCH   1  11
BRANCH   8  21
ATOM     21  N   UNL     1      43.681 131.975  17.947  1.00  0.00    -0.274 N 
ATOM     22  H   UNL     1      42.890 132.570  17.615  1.00  0.00     0.263 HD
BRANCH  21  23
ATOM     23  C   UNL     1      44.635 131.529  16.973  1.00  0.00     0.256 A 
ATOM     24  C   UNL     1      45.438 132.326  16.163  1.00  0.00     0.248 A 
ATOM     25  N   UNL     1      44.821 130.225  16.664  1.00  0.00    -0.243 N 
ATOM     26  N   UNL     1      46.127 131.493  15.363  1.00  0.00    -0.233 N 
ATOM     27  C   UNL     1      45.742 130.245  15.683  1.00  0.00     0.230 A 
ATOM     28  C   UNL     1      47.034 131.770  14.393  1.00  0.00     0.168 A 
ATOM     29  C   UNL     1      46.270 129.138  15.020  1.00  0.00     0.081 A 
ATOM     30  C   UNL     1      47.603 130.695  13.692  1.00  0.00     0.035 A 
ATOM     31  C   UNL     1      47.218 129.378  14.011  1.00  0.00     0.010 A 
ATOM     32  H   UNL     1      44.351 129.394  17.087  1.00  0.00     0.267 HD
ENDBRANCH  21  23
ENDBRANCH   8  21
TORSDOF 6
ENDMDL
MODEL 7
REMARK VINA RESULT:      -6.9      3.392      8.042
REMARK SMILES [O-]/C(=C\Cc1c(F)ccc2[n-]c(Nc3cn4ccccc4[nH+]3)cc12)c1ccccc1
REMARK SMILES IDX 5 1 6 2 7 3 8 4 9 5 10 6 11 7 12 8 23 9 24 10 4 11 3 12 2 13
REMARK SMILES IDX 1 14 25 15 26 16 30 17 27 18 29 19 28 20 13 21 14 23 15 24
REMARK SMILES IDX 22 25 16 26 21 27 17 28 20 29 18 30 19 31
REMARK H PARENT 13 22 22 32
ROOT
ATOM      1  C   UNL     1      44.432 131.817  18.266  1.00  0.00    -0.001 A 
ATOM      2  C   UNL     1      43.041 131.652  18.064  1.00  0.00     0.127 A 
ATOM      3  F   UNL     1      42.548 131.408  16.823  1.00  0.00    -0.207 F 
ATOM      4  C   UNL     1      42.142 131.742  19.148  1.00  0.00     0.040 A 
ATOM      5  C   UNL     1      42.612 131.996  20.448  1.00  0.00     0.007 A 
ATOM      6  C   UNL     1      43.983 132.156  20.629  1.00  0.00    -0.031 A 
ATOM      7  N   UNL     1      44.611 132.398  21.794  1.00  0.00    -0.404 NA
ATOM      8  C   UNL     1      45.920 132.474  21.453  1.00  0.00     0.087 A 
ATOM      9  C   UNL     1      46.123 132.267  20.094  1.00  0.00     0.047 A 
ATOM     10  C   UNL     1      44.862 132.070  19.578  1.00  0.00    -0.013 A 
ENDROOT
BRANCH   1  11
ATOM     11  C   UNL     1      45.415 131.713  17.126  1.00  0.00     0.066 C 
BRANCH  11  12
ATOM     12  C   UNL     1      45.871 130.293  16.937  1.00  0.00    -0.030 C 
BRANCH  12  13
ATOM     13  C   UNL     1      45.777 129.653  15.760  1.00  0.00    -0.105 C 
ATOM     14  O   UNL     1      44.776 128.702  15.574  1.00  0.00    -0.872 OA
BRANCH  13  15
ATOM     15  C   UNL     1      46.698 129.945  14.631  1.00  0.00    -0.034 A 
ATOM     16  C   UNL     1      46.543 131.091  13.824  1.00  0.00     0.007 A 
ATOM     17  C   UNL     1      47.776 129.077  14.377  1.00  0.00     0.007 A 
ATOM     18  C   UNL     1      47.432 131.341  12.774  1.00  0.00     0.001 A 
ATOM     19  C   UNL     1      48.661 129.333  13.325  1.00  0.00     0.001 A 
ATOM     20  C   UNL     1      48.488 130.461  12.523  1.00  0.00     0.000 A 
ENDBRANCH  13  15
ENDBRANCH  12  13
ENDBRANCH  11  12
ENDBRANCH   1  11
BRANCH   8  21
ATOM     21  N   UNL     1      46.981 132.679  22.395  1.00  0.00    -0.274 N 
ATOM     22  H   UNL     1      47.052 132.021  23.203  1.00  0.00     0.263 HD
BRANCH  21  23
ATOM     23  C   UNL     1      47.931 133.752  22.325  1.00  0.00     0.256 A 
ATOM     24  C   UNL     1      47.914 134.828  21.442  1.00  0.00     0.248 A 
ATOM     25  N   UNL     1      49.043 133.807  23.094  1.00  0.00    -0.243 N 
ATOM     26  N   UNL     1      49.022 135.548  21.690  1.00  0.00    -0.233 N 
ATOM     27  C   UNL     1      49.678 134.918  22.681  1.00  0.00     0.230 A 
ATOM     28  C   UNL     1      49.473 136.682  21.098  1.00  0.00     0.168 A 
ATOM     29  C   UNL     1      50.887 135.412  23.169  1.00  0.00     0.081 A 
ATOM     30  C   UNL     1      50.684 137.229  21.549  1.00  0.00     0.035 A 
ATOM     31  C   UNL     1      51.389 136.589  22.589  1.00  0.00     0.010 A 
ATOM     32  H   UNL     1      49.341 133.135  23.835  1.00  0.00     0.267 HD
ENDBRANCH  21  23
ENDBRANCH   8  21
TORSDOF 6
ENDMDL
MODEL 8
REMARK VINA RESULT:      -6.5      3.477      8.020
REMARK SMILES [O-]/C(=C\Cc1c(F)ccc2[n-]c(Nc3cn4ccccc4[nH+]3)cc12)c1ccccc1
REMARK SMILES IDX 5 1 6 2 7 3 8 4 9 5 10 6 11 7 12 8 23 9 24 10 4 11 3 12 2 13
REMARK SMILES IDX 1 14 25 15 26 16 30 17 27 18 29 19 28 20 13 21 14 23 15 24
REMARK SMILES IDX 22 25 16 26 21 27 17 28 20 29 18 30 19 31
REMARK H PARENT 13 22 22 32
ROOT
ATOM      1  C   UNL     1      44.404 131.869  18.763  1.00  0.00    -0.001 A 
ATOM      2  C   UNL     1      43.051 131.502  18.958  1.00  0.00     0.127 A 
ATOM      3  F   UNL     1      42.256 131.207  17.898  1.00  0.00    -0.207 F 
ATOM      4  C   UNL     1      42.505 131.440  20.258  1.00  0.00     0.040 A 
ATOM      5  C   UNL     1      43.294 131.739  21.380  1.00  0.00     0.007 A 
ATOM      6  C   UNL     1      44.622 132.099  21.170  1.00  0.00    -0.031 A 
ATOM      7  N   UNL     1      45.524 132.413  22.119  1.00  0.00    -0.404 NA
ATOM      8  C   UNL     1      46.653 132.688  21.422  1.00  0.00     0.087 A 
ATOM      9  C   UNL     1      46.477 132.536  20.052  1.00  0.00     0.047 A 
ATOM     10  C   UNL     1      45.159 132.161  19.909  1.00  0.00    -0.013 A 
ENDROOT
BRANCH   1  11
ATOM     11  C   UNL     1      45.016 131.930  17.385  1.00  0.00     0.066 C 
BRANCH  11  12
ATOM     12  C   UNL     1      44.045 131.448  16.343  1.00  0.00    -0.030 C 
BRANCH  12  13
ATOM     13  C   UNL     1      44.367 131.349  15.043  1.00  0.00    -0.105 C 
ATOM     14  O   UNL     1      43.481 131.824  14.079  1.00  0.00    -0.872 OA
BRANCH  13  15
ATOM     15  C   UNL     1      45.660 130.769  14.596  1.00  0.00    -0.034 A 
ATOM     16  C   UNL     1      46.564 131.497  13.796  1.00  0.00     0.007 A 
ATOM     17  C   UNL     1      46.012 129.470  15.007  1.00  0.00     0.007 A 
ATOM     18  C   UNL     1      47.776 130.925  13.399  1.00  0.00     0.001 A 
ATOM     19  C   UNL     1      47.225 128.903  14.605  1.00  0.00     0.001 A 
ATOM     20  C   UNL     1      48.105 129.628  13.800  1.00  0.00     0.000 A 
ENDBRANCH  13  15
ENDBRANCH  12  13
ENDBRANCH  11  12
ENDBRANCH   1  11
BRANCH   8  21
ATOM     21  N   UNL     1      47.904 133.034  22.031  1.00  0.00    -0.274 N 
ATOM     22  H   UNL     1      48.354 132.329  22.658  1.00  0.00     0.263 HD
BRANCH  21  23
ATOM     23  C   UNL     1      48.562 134.298  21.868  1.00  0.00     0.256 A 
ATOM     24  C   UNL     1      49.614 134.798  22.631  1.00  0.00     0.248 A 
ATOM     25  N   UNL     1      48.171 135.223  20.963  1.00  0.00    -0.243 N 
ATOM     26  N   UNL     1      49.870 136.035  22.170  1.00  0.00    -0.233 N 
ATOM     27  C   UNL     1      48.997 136.264  21.174  1.00  0.00     0.230 A 
ATOM     28  C   UNL     1      50.793 136.942  22.580  1.00  0.00     0.168 A 
ATOM     29  C   UNL     1      48.993 137.478  20.488  1.00  0.00     0.081 A 
ATOM     30  C   UNL     1      50.839 138.181  21.923  1.00  0.00     0.035 A 
ATOM     31  C   UNL     1      49.936 138.445  20.874  1.00  0.00     0.010 A 
ATOM     32  H   UNL     1      47.400 135.147  20.263  1.00  0.00     0.267 HD
ENDBRANCH  21  23
ENDBRANCH   8  21
TORSDOF 6
ENDMDL


