MODEL 1
REMARK VINA RESULT:      -8.8      0.000      0.000
REMARK SMILES Cc1ccc([NH2+]c2cccc(N)c2Oc2ncc(C=O)cc2C)cc1
REMARK SMILES IDX 7 1 8 2 9 3 10 4 11 5 13 6 6 7 5 10 2 11 3 12 25 13 4 14
REMARK SMILES IDX 24 15 1 16 14 17 15 18 16 19 22 20 17 21 21 22 18 23 23 24
REMARK SMILES IDX 19 25 20 26 12 27
REMARK H PARENT 6 8 6 9 12 28 12 29
ROOT
ATOM      1  C   UNL     1      44.206 131.421  18.848  1.00  0.00     0.179 A 
ATOM      2  C   UNL     1      43.330 131.595  17.762  1.00  0.00     0.072 A 
ATOM      3  C   UNL     1      42.044 132.098  17.960  1.00  0.00     0.009 A 
ATOM      4  C   UNL     1      41.612 132.431  19.244  1.00  0.00     0.030 A 
ATOM      5  C   UNL     1      42.464 132.270  20.344  1.00  0.00     0.081 A 
ATOM      6  C   UNL     1      43.769 131.773  20.147  1.00  0.00     0.213 A 
ENDROOT
BRANCH   1   7
ATOM      7  N   UNL     1      45.542 130.910  18.624  1.00  0.00    -0.278 N 
ATOM      8  H   UNL     1      46.214 131.496  19.172  1.00  0.00     0.358 HD
ATOM      9  H   UNL     1      45.633 129.929  18.977  1.00  0.00     0.358 HD
BRANCH   7  10
ATOM     10  C   UNL     1      45.874 130.916  17.217  1.00  0.00     0.134 A 
ATOM     11  C   UNL     1      46.635 130.945  14.503  1.00  0.00    -0.051 A 
ATOM     12  C   UNL     1      46.704 129.756  15.244  1.00  0.00     0.009 A 
ATOM     13  C   UNL     1      46.123 132.103  15.106  1.00  0.00     0.009 A 
ATOM     14  C   UNL     1      46.321 129.740  16.587  1.00  0.00     0.068 A 
ATOM     15  C   UNL     1      45.740 132.089  16.450  1.00  0.00     0.068 A 
ATOM     16  C   UNL     1      47.051 130.961  13.062  1.00  0.00     0.044 C 
ENDBRANCH   7  10
ENDBRANCH   1   7
BRANCH   6  17
ATOM     17  O   UNL     1      44.638 131.634  21.234  1.00  0.00    -0.430 OA
BRANCH  17  18
ATOM     18  C   UNL     1      44.701 130.461  21.997  1.00  0.00     0.222 A 
ATOM     19  N   UNL     1      45.110 129.293  21.428  1.00  0.00    -0.221 NA
ATOM     20  C   UNL     1      44.298 130.478  23.342  1.00  0.00     0.012 A 
ATOM     21  C   UNL     1      45.116 128.119  22.110  1.00  0.00     0.126 A 
ATOM     22  C   UNL     1      44.274 129.270  24.055  1.00  0.00     0.022 A 
ATOM     23  C   UNL     1      44.682 128.077  23.443  1.00  0.00     0.033 A 
ATOM     24  C   UNL     1      43.815 131.746  23.983  1.00  0.00     0.050 C 
BRANCH  23  25
ATOM     25  C   UNL     1      44.639 126.811  24.196  1.00  0.00     0.261 C 
ATOM     26  O   UNL     1      43.852 125.885  23.866  1.00  0.00    -0.298 OA
ENDBRANCH  23  25
ENDBRANCH  17  18
ENDBRANCH   6  17
BRANCH   5  27
ATOM     27  N   UNL     1      41.996 132.605  21.655  1.00  0.00    -0.396 N 
ATOM     28  H   UNL     1      42.586 132.448  22.502  1.00  0.00     0.156 HD
ATOM     29  H   UNL     1      41.039 132.996  21.794  1.00  0.00     0.156 HD
ENDBRANCH   5  27
TORSDOF 6
ENDMDL
MODEL 2
REMARK VINA RESULT:      -8.2      0.476      1.082
REMARK SMILES Cc1ccc([NH2+]c2cccc(N)c2Oc2ncc(C=O)cc2C)cc1
REMARK SMILES IDX 7 1 8 2 9 3 10 4 11 5 13 6 6 7 5 10 2 11 3 12 25 13 4 14
REMARK SMILES IDX 24 15 1 16 14 17 15 18 16 19 22 20 17 21 21 22 18 23 23 24
REMARK SMILES IDX 19 25 20 26 12 27
REMARK H PARENT 6 8 6 9 12 28 12 29
ROOT
ATOM      1  C   UNL     1      44.244 131.301  18.733  1.00  0.00     0.179 A 
ATOM      2  C   UNL     1      43.404 131.544  17.632  1.00  0.00     0.072 A 
ATOM      3  C   UNL     1      42.150 132.127  17.811  1.00  0.00     0.009 A 
ATOM      4  C   UNL     1      41.714 132.474  19.089  1.00  0.00     0.030 A 
ATOM      5  C   UNL     1      42.530 132.245  20.204  1.00  0.00     0.081 A 
ATOM      6  C   UNL     1      43.804 131.667  20.027  1.00  0.00     0.213 A 
ENDROOT
BRANCH   1   7
ATOM      7  N   UNL     1      45.548 130.708  18.529  1.00  0.00    -0.278 N 
ATOM      8  H   UNL     1      46.232 131.193  19.156  1.00  0.00     0.358 HD
ATOM      9  H   UNL     1      45.547 129.697  18.802  1.00  0.00     0.358 HD
BRANCH   7  10
ATOM     10  C   UNL     1      45.954 130.801  17.145  1.00  0.00     0.134 A 
ATOM     11  C   UNL     1      46.634 130.963  14.414  1.00  0.00    -0.051 A 
ATOM     12  C   UNL     1      46.149 132.092  15.089  1.00  0.00     0.009 A 
ATOM     13  C   UNL     1      46.840 129.771  15.124  1.00  0.00     0.009 A 
ATOM     14  C   UNL     1      45.818 132.014  16.444  1.00  0.00     0.068 A 
ATOM     15  C   UNL     1      46.508 129.691  16.480  1.00  0.00     0.068 A 
ATOM     16  C   UNL     1      46.985 131.048  12.959  1.00  0.00     0.044 C 
ENDBRANCH   7  10
ENDBRANCH   1   7
BRANCH   6  17
ATOM     17  O   UNL     1      44.640 131.460  21.129  1.00  0.00    -0.430 OA
BRANCH  17  18
ATOM     18  C   UNL     1      44.792 130.203  21.727  1.00  0.00     0.222 A 
ATOM     19  N   UNL     1      45.454 129.208  21.074  1.00  0.00    -0.221 NA
ATOM     20  C   UNL     1      44.221 129.952  22.986  1.00  0.00     0.012 A 
ATOM     21  C   UNL     1      45.561 127.954  21.585  1.00  0.00     0.126 A 
ATOM     22  C   UNL     1      44.301 128.657  23.517  1.00  0.00     0.022 A 
ATOM     23  C   UNL     1      44.971 127.644  22.818  1.00  0.00     0.033 A 
ATOM     24  C   UNL     1      43.461 131.024  23.712  1.00  0.00     0.050 C 
BRANCH  23  25
ATOM     25  C   UNL     1      45.036 126.282  23.379  1.00  0.00     0.261 C 
ATOM     26  O   UNL     1      44.551 126.022  24.512  1.00  0.00    -0.298 OA
ENDBRANCH  23  25
ENDBRANCH  17  18
ENDBRANCH   6  17
BRANCH   5  27
ATOM     27  N   UNL     1      42.058 132.596  21.510  1.00  0.00    -0.396 N 
ATOM     28  H   UNL     1      42.717 132.851  22.278  1.00  0.00     0.156 HD
ATOM     29  H   UNL     1      41.037 132.582  21.728  1.00  0.00     0.156 HD
ENDBRANCH   5  27
TORSDOF 6
ENDMDL
MODEL 3
REMARK VINA RESULT:      -6.8      1.086      1.796
REMARK SMILES Cc1ccc([NH2+]c2cccc(N)c2Oc2ncc(C=O)cc2C)cc1
REMARK SMILES IDX 7 1 8 2 9 3 10 4 11 5 13 6 6 7 5 10 2 11 3 12 25 13 4 14
REMARK SMILES IDX 24 15 1 16 14 17 15 18 16 19 22 20 17 21 21 22 18 23 23 24
REMARK SMILES IDX 19 25 20 26 12 27
REMARK H PARENT 6 8 6 9 12 28 12 29
ROOT
ATOM      1  C   UNL     1      44.160 131.507  18.372  1.00  0.00     0.179 A 
ATOM      2  C   UNL     1      43.414 131.789  17.213  1.00  0.00     0.072 A 
ATOM      3  C   UNL     1      42.168 132.409  17.304  1.00  0.00     0.009 A 
ATOM      4  C   UNL     1      41.646 132.754  18.551  1.00  0.00     0.030 A 
ATOM      5  C   UNL     1      42.368 132.487  19.721  1.00  0.00     0.081 A 
ATOM      6  C   UNL     1      43.633 131.870  19.633  1.00  0.00     0.213 A 
ENDROOT
BRANCH   1   7
ATOM      7  N   UNL     1      45.457 130.875  18.259  1.00  0.00    -0.278 N 
ATOM      8  H   UNL     1      46.120 131.369  18.901  1.00  0.00     0.358 HD
ATOM      9  H   UNL     1      45.416 129.876  18.569  1.00  0.00     0.358 HD
BRANCH   7  10
ATOM     10  C   UNL     1      45.936 130.904  16.895  1.00  0.00     0.134 A 
ATOM     11  C   UNL     1      46.763 130.924  14.201  1.00  0.00    -0.051 A 
ATOM     12  C   UNL     1      46.104 132.035  14.745  1.00  0.00     0.009 A 
ATOM     13  C   UNL     1      47.066 129.830  15.025  1.00  0.00     0.009 A 
ATOM     14  C   UNL     1      45.699 132.028  16.083  1.00  0.00     0.068 A 
ATOM     15  C   UNL     1      46.660 129.821  16.363  1.00  0.00     0.068 A 
ATOM     16  C   UNL     1      47.193 130.931  12.764  1.00  0.00     0.044 C 
ENDBRANCH   7  10
ENDBRANCH   1   7
BRANCH   6  17
ATOM     17  O   UNL     1      44.375 131.624  20.793  1.00  0.00    -0.430 OA
BRANCH  17  18
ATOM     18  C   UNL     1      44.083 130.561  21.656  1.00  0.00     0.222 A 
ATOM     19  N   UNL     1      43.015 130.634  22.498  1.00  0.00    -0.221 NA
ATOM     20  C   UNL     1      44.921 129.434  21.689  1.00  0.00     0.012 A 
ATOM     21  C   UNL     1      42.739 129.660  23.403  1.00  0.00     0.126 A 
ATOM     22  C   UNL     1      44.664 128.430  22.634  1.00  0.00     0.022 A 
ATOM     23  C   UNL     1      43.570 128.536  23.502  1.00  0.00     0.033 A 
ATOM     24  C   UNL     1      46.121 129.343  20.793  1.00  0.00     0.050 C 
BRANCH  23  25
ATOM     25  C   UNL     1      43.318 127.482  24.502  1.00  0.00     0.261 C 
ATOM     26  O   UNL     1      42.283 126.767  24.445  1.00  0.00    -0.298 OA
ENDBRANCH  23  25
ENDBRANCH  17  18
ENDBRANCH   6  17
BRANCH   5  27
ATOM     27  N   UNL     1      41.808 132.836  20.992  1.00  0.00    -0.396 N 
ATOM     28  H   UNL     1      41.135 133.627  21.093  1.00  0.00     0.156 HD
ATOM     29  H   UNL     1      42.083 132.316  21.855  1.00  0.00     0.156 HD
ENDBRANCH   5  27
TORSDOF 6
ENDMDL
MODEL 4
REMARK VINA RESULT:      -6.5      1.199      1.707
REMARK SMILES Cc1ccc([NH2+]c2cccc(N)c2Oc2ncc(C=O)cc2C)cc1
REMARK SMILES IDX 7 1 8 2 9 3 10 4 11 5 13 6 6 7 5 10 2 11 3 12 25 13 4 14
REMARK SMILES IDX 24 15 1 16 14 17 15 18 16 19 22 20 17 21 21 22 18 23 23 24
REMARK SMILES IDX 19 25 20 26 12 27
REMARK H PARENT 6 8 6 9 12 28 12 29
ROOT
ATOM      1  C   UNL     1      43.954 131.459  20.074  1.00  0.00     0.179 A 
ATOM      2  C   UNL     1      43.166 132.022  19.054  1.00  0.00     0.072 A 
ATOM      3  C   UNL     1      41.961 132.657  19.357  1.00  0.00     0.009 A 
ATOM      4  C   UNL     1      41.523 132.735  20.679  1.00  0.00     0.030 A 
ATOM      5  C   UNL     1      42.289 132.185  21.714  1.00  0.00     0.081 A 
ATOM      6  C   UNL     1      43.513 131.553  21.414  1.00  0.00     0.213 A 
ENDROOT
BRANCH   1   7
ATOM      7  N   UNL     1      45.209 130.816  19.744  1.00  0.00    -0.278 N 
ATOM      8  H   UNL     1      45.972 131.291  20.281  1.00  0.00     0.358 HD
ATOM      9  H   UNL     1      45.205 129.812  20.040  1.00  0.00     0.358 HD
BRANCH   7  10
ATOM     10  C   UNL     1      45.464 130.867  18.322  1.00  0.00     0.134 A 
ATOM     11  C   UNL     1      45.851 130.927  15.531  1.00  0.00    -0.051 A 
ATOM     12  C   UNL     1      45.288 132.029  16.190  1.00  0.00     0.009 A 
ATOM     13  C   UNL     1      46.281 129.822  16.280  1.00  0.00     0.009 A 
ATOM     14  C   UNL     1      45.101 132.002  17.574  1.00  0.00     0.068 A 
ATOM     15  C   UNL     1      46.094 129.793  17.665  1.00  0.00     0.068 A 
ATOM     16  C   UNL     1      46.047 130.957  14.044  1.00  0.00     0.044 C 
ENDBRANCH   7  10
ENDBRANCH   1   7
BRANCH   6  17
ATOM     17  O   UNL     1      44.300 131.024  22.443  1.00  0.00    -0.430 OA
BRANCH  17  18
ATOM     18  C   UNL     1      44.384 129.648  22.689  1.00  0.00     0.222 A 
ATOM     19  N   UNL     1      45.141 128.852  21.884  1.00  0.00    -0.221 NA
ATOM     20  C   UNL     1      43.650 129.078  23.742  1.00  0.00     0.012 A 
ATOM     21  C   UNL     1      45.192 127.504  22.041  1.00  0.00     0.126 A 
ATOM     22  C   UNL     1      43.672 127.685  23.904  1.00  0.00     0.022 A 
ATOM     23  C   UNL     1      44.443 126.884  23.051  1.00  0.00     0.033 A 
ATOM     24  C   UNL     1      42.785 129.931  24.624  1.00  0.00     0.050 C 
BRANCH  23  25
ATOM     25  C   UNL     1      44.447 125.420  23.221  1.00  0.00     0.261 C 
ATOM     26  O   UNL     1      44.801 124.659  22.283  1.00  0.00    -0.298 OA
ENDBRANCH  23  25
ENDBRANCH  17  18
ENDBRANCH   6  17
BRANCH   5  27
ATOM     27  N   UNL     1      41.815 132.264  23.063  1.00  0.00    -0.396 N 
ATOM     28  H   UNL     1      40.895 131.859  23.343  1.00  0.00     0.156 HD
ATOM     29  H   UNL     1      42.376 132.752  23.796  1.00  0.00     0.156 HD
ENDBRANCH   5  27
TORSDOF 6
ENDMDL
MODEL 5
REMARK VINA RESULT:      -6.0      0.939      1.065
REMARK SMILES Cc1ccc([NH2+]c2cccc(N)c2Oc2ncc(C=O)cc2C)cc1
REMARK SMILES IDX 7 1 8 2 9 3 10 4 11 5 13 6 6 7 5 10 2 11 3 12 25 13 4 14
REMARK SMILES IDX 24 15 1 16 14 17 15 18 16 19 22 20 17 21 21 22 18 23 23 24
REMARK SMILES IDX 19 25 20 26 12 27
REMARK H PARENT 6 8 6 9 12 28 12 29
ROOT
ATOM      1  C   UNL     1      44.774 131.258  17.908  1.00  0.00     0.179 A 
ATOM      2  C   UNL     1      43.919 131.478  16.812  1.00  0.00     0.072 A 
ATOM      3  C   UNL     1      42.610 131.916  17.010  1.00  0.00     0.009 A 
ATOM      4  C   UNL     1      42.133 132.138  18.302  1.00  0.00     0.030 A 
ATOM      5  C   UNL     1      42.962 131.929  19.411  1.00  0.00     0.081 A 
ATOM      6  C   UNL     1      44.290 131.497  19.215  1.00  0.00     0.213 A 
ENDROOT
BRANCH   1   7
ATOM      7  N   UNL     1      46.134 130.816  17.684  1.00  0.00    -0.278 N 
ATOM      8  H   UNL     1      46.776 131.444  18.223  1.00  0.00     0.358 HD
ATOM      9  H   UNL     1      46.277 129.845  18.050  1.00  0.00     0.358 HD
BRANCH   7  10
ATOM     10  C   UNL     1      46.461 130.821  16.277  1.00  0.00     0.134 A 
ATOM     11  C   UNL     1      47.213 130.844  13.560  1.00  0.00    -0.051 A 
ATOM     12  C   UNL     1      47.227 129.645  14.287  1.00  0.00     0.009 A 
ATOM     13  C   UNL     1      46.759 132.018  14.177  1.00  0.00     0.009 A 
ATOM     14  C   UNL     1      46.848 129.632  15.632  1.00  0.00     0.068 A 
ATOM     15  C   UNL     1      46.381 132.008  15.523  1.00  0.00     0.068 A 
ATOM     16  C   UNL     1      47.624 130.856  12.118  1.00  0.00     0.044 C 
ENDBRANCH   7  10
ENDBRANCH   1   7
BRANCH   6  17
ATOM     17  O   UNL     1      45.136 131.312  20.313  1.00  0.00    -0.430 OA
BRANCH  17  18
ATOM     18  C   UNL     1      45.078 130.167  21.118  1.00  0.00     0.222 A 
ATOM     19  N   UNL     1      45.568 128.981  20.662  1.00  0.00    -0.221 NA
ATOM     20  C   UNL     1      44.471 130.230  22.384  1.00  0.00     0.012 A 
ATOM     21  C   UNL     1      45.466 127.833  21.378  1.00  0.00     0.126 A 
ATOM     22  C   UNL     1      44.336 129.049  23.127  1.00  0.00     0.022 A 
ATOM     23  C   UNL     1      44.831 127.836  22.628  1.00  0.00     0.033 A 
ATOM     24  C   UNL     1      43.897 131.519  22.896  1.00  0.00     0.050 C 
BRANCH  23  25
ATOM     25  C   UNL     1      44.669 126.598  23.411  1.00  0.00     0.261 C 
ATOM     26  O   UNL     1      44.308 126.634  24.616  1.00  0.00    -0.298 OA
ENDBRANCH  23  25
ENDBRANCH  17  18
ENDBRANCH   6  17
BRANCH   5  27
ATOM     27  N   UNL     1      42.448 132.149  20.729  1.00  0.00    -0.396 N 
ATOM     28  H   UNL     1      41.665 132.816  20.906  1.00  0.00     0.156 HD
ATOM     29  H   UNL     1      42.866 131.659  21.551  1.00  0.00     0.156 HD
ENDBRANCH   5  27
TORSDOF 6
ENDMDL
MODEL 6
REMARK VINA RESULT:      -5.9      1.081      1.550
REMARK SMILES Cc1ccc([NH2+]c2cccc(N)c2Oc2ncc(C=O)cc2C)cc1
REMARK SMILES IDX 7 1 8 2 9 3 10 4 11 5 13 6 6 7 5 10 2 11 3 12 25 13 4 14
REMARK SMILES IDX 24 15 1 16 14 17 15 18 16 19 22 20 17 21 21 22 18 23 23 24
REMARK SMILES IDX 19 25 20 26 12 27
REMARK H PARENT 6 8 6 9 12 28 12 29
ROOT
ATOM      1  C   UNL     1      44.251 131.384  18.770  1.00  0.00     0.179 A 
ATOM      2  C   UNL     1      43.511 131.945  17.714  1.00  0.00     0.072 A 
ATOM      3  C   UNL     1      42.294 132.582  17.960  1.00  0.00     0.009 A 
ATOM      4  C   UNL     1      41.797 132.666  19.260  1.00  0.00     0.030 A 
ATOM      5  C   UNL     1      42.514 132.117  20.331  1.00  0.00     0.081 A 
ATOM      6  C   UNL     1      43.749 131.483  20.090  1.00  0.00     0.213 A 
ENDROOT
BRANCH   1   7
ATOM      7  N   UNL     1      45.518 130.738  18.500  1.00  0.00    -0.278 N 
ATOM      8  H   UNL     1      46.259 131.222  19.060  1.00  0.00     0.358 HD
ATOM      9  H   UNL     1      45.503 129.738  18.811  1.00  0.00     0.358 HD
BRANCH   7  10
ATOM     10  C   UNL     1      45.829 130.768  17.089  1.00  0.00     0.134 A 
ATOM     11  C   UNL     1      46.544 130.871  14.365  1.00  0.00    -0.051 A 
ATOM     12  C   UNL     1      46.890 129.759  15.144  1.00  0.00     0.009 A 
ATOM     13  C   UNL     1      45.783 131.902  14.935  1.00  0.00     0.009 A 
ATOM     14  C   UNL     1      46.531 129.704  16.493  1.00  0.00     0.068 A 
ATOM     15  C   UNL     1      45.424 131.850  16.285  1.00  0.00     0.068 A 
ATOM     16  C   UNL     1      46.935 130.929  12.918  1.00  0.00     0.044 C 
ENDBRANCH   7  10
ENDBRANCH   1   7
BRANCH   6  17
ATOM     17  O   UNL     1      44.488 130.957  21.154  1.00  0.00    -0.430 OA
BRANCH  17  18
ATOM     18  C   UNL     1      44.012 129.905  21.947  1.00  0.00     0.222 A 
ATOM     19  N   UNL     1      42.856 130.046  22.654  1.00  0.00    -0.221 NA
ATOM     20  C   UNL     1      44.752 128.716  22.052  1.00  0.00     0.012 A 
ATOM     21  C   UNL     1      42.398 129.081  23.491  1.00  0.00     0.126 A 
ATOM     22  C   UNL     1      44.307 127.718  22.931  1.00  0.00     0.022 A 
ATOM     23  C   UNL     1      43.124 127.894  23.662  1.00  0.00     0.033 A 
ATOM     24  C   UNL     1      46.045 128.548  21.307  1.00  0.00     0.050 C 
BRANCH  23  25
ATOM     25  C   UNL     1      42.672 126.846  24.595  1.00  0.00     0.261 C 
ATOM     26  O   UNL     1      42.325 125.710  24.176  1.00  0.00    -0.298 OA
ENDBRANCH  23  25
ENDBRANCH  17  18
ENDBRANCH   6  17
BRANCH   5  27
ATOM     27  N   UNL     1      41.979 132.202  21.657  1.00  0.00    -0.396 N 
ATOM     28  H   UNL     1      42.140 131.448  22.360  1.00  0.00     0.156 HD
ATOM     29  H   UNL     1      41.393 133.017  21.943  1.00  0.00     0.156 HD
ENDBRANCH   5  27
TORSDOF 6
ENDMDL


