MODEL 1
REMARK VINA RESULT:      -7.0      0.000      0.000
REMARK SMILES C=C(/C=C(\O)N(N)c1ccccc1-c1nc2ccccc2[nH]1)C(C)=O
REMARK SMILES IDX 4 1 5 2 3 4 2 5 1 6 23 7 25 8 24 9 6 10 8 11 9 12 13 13
REMARK SMILES IDX 10 14 12 15 11 16 14 17 15 18 22 19 16 20 21 21 17 22 20 23
REMARK SMILES IDX 18 24 19 25 7 27
REMARK H PARENT 5 3 22 26 7 28 7 29
ROOT
ATOM      1  C   UNL     1      45.251 129.278  21.653  1.00  0.00     0.206 C 
ENDROOT
BRANCH   1   2
ATOM      2  O   UNL     1      45.866 128.175  21.056  1.00  0.00    -0.494 OA
ATOM      3  H   UNL     1      46.134 128.169  20.079  1.00  0.00     0.295 HD
ENDBRANCH   1   2
BRANCH   1   4
ATOM      4  C   UNL     1      44.683 129.139  22.864  1.00  0.00     0.079 C 
BRANCH   4   5
ATOM      5  C   UNL     1      44.479 127.828  23.520  1.00  0.00     0.015 C 
ATOM      6  C   UNL     1      45.508 127.288  24.184  1.00  0.00     0.021 C 
BRANCH   5   7
ATOM      7  C   UNL     1      43.146 127.170  23.504  1.00  0.00     0.159 C 
ATOM      8  O   UNL     1      43.047 125.980  23.098  1.00  0.00    -0.295 OA
ATOM      9  C   UNL     1      41.899 127.892  23.918  1.00  0.00     0.093 C 
ENDBRANCH   5   7
ENDBRANCH   4   5
ENDBRANCH   1   4
BRANCH   1  10
ATOM     10  N   UNL     1      45.258 130.559  20.975  1.00  0.00    -0.248 N 
BRANCH  10  11
ATOM     11  C   UNL     1      44.055 131.321  20.757  1.00  0.00     0.072 A 
ATOM     12  C   UNL     1      43.229 131.605  21.857  1.00  0.00     0.029 A 
ATOM     13  C   UNL     1      43.700 131.816  19.475  1.00  0.00     0.043 A 
ATOM     14  C   UNL     1      42.089 132.396  21.705  1.00  0.00     0.002 A 
ATOM     15  C   UNL     1      42.557 132.625  19.343  1.00  0.00     0.014 A 
ATOM     16  C   UNL     1      41.759 132.912  20.451  1.00  0.00     0.001 A 
BRANCH  13  17
ATOM     17  C   UNL     1      44.484 131.487  18.266  1.00  0.00     0.140 A 
ATOM     18  N   UNL     1      45.079 130.278  18.070  1.00  0.00    -0.228 NA
ATOM     19  N   UNL     1      44.709 132.370  17.259  1.00  0.00    -0.338 N 
ATOM     20  C   UNL     1      45.705 130.441  16.892  1.00  0.00     0.089 A 
ATOM     21  C   UNL     1      45.486 131.694  16.406  1.00  0.00     0.066 A 
ATOM     22  C   UNL     1      46.500 129.519  16.215  1.00  0.00     0.030 A 
ATOM     23  C   UNL     1      46.043 132.135  15.207  1.00  0.00     0.028 A 
ATOM     24  C   UNL     1      47.078 129.925  14.996  1.00  0.00     0.002 A 
ATOM     25  C   UNL     1      46.850 131.228  14.495  1.00  0.00     0.002 A 
ATOM     26  H   UNL     1      44.387 133.361  17.183  1.00  0.00     0.168 HD
ENDBRANCH  13  17
ENDBRANCH  10  11
BRANCH  10  27
ATOM     27  N   UNL     1      46.468 131.104  20.510  1.00  0.00    -0.240 NA
ATOM     28  H   UNL     1      46.978 131.523  21.321  1.00  0.00     0.144 HD
ATOM     29  H   UNL     1      46.235 131.868  19.835  1.00  0.00     0.144 HD
ENDBRANCH  10  27
ENDBRANCH   1  10
TORSDOF 8
ENDMDL
MODEL 2
REMARK VINA RESULT:      -6.8      0.743      1.193
REMARK SMILES C=C(/C=C(\O)N(N)c1ccccc1-c1nc2ccccc2[nH]1)C(C)=O
REMARK SMILES IDX 4 1 5 2 3 4 2 5 1 6 23 7 25 8 24 9 6 10 8 11 9 12 13 13
REMARK SMILES IDX 10 14 12 15 11 16 14 17 15 18 22 19 16 20 21 21 17 22 20 23
REMARK SMILES IDX 18 24 19 25 7 27
REMARK H PARENT 5 3 22 26 7 28 7 29
ROOT
ATOM      1  C   UNL     1      45.299 129.567  21.376  1.00  0.00     0.206 C 
ENDROOT
BRANCH   1   2
ATOM      2  O   UNL     1      45.975 128.418  20.960  1.00  0.00    -0.494 OA
ATOM      3  H   UNL     1      46.149 128.217  19.982  1.00  0.00     0.295 HD
ENDBRANCH   1   2
BRANCH   1   4
ATOM      4  C   UNL     1      44.743 129.597  22.600  1.00  0.00     0.079 C 
BRANCH   4   5
ATOM      5  C   UNL     1      43.934 128.487  23.151  1.00  0.00     0.015 C 
ATOM      6  C   UNL     1      42.648 128.725  23.435  1.00  0.00     0.021 C 
BRANCH   5   7
ATOM      7  C   UNL     1      44.516 127.128  23.309  1.00  0.00     0.159 C 
ATOM      8  O   UNL     1      44.404 126.293  22.371  1.00  0.00    -0.295 OA
ATOM      9  C   UNL     1      45.201 126.700  24.572  1.00  0.00     0.093 C 
ENDBRANCH   5   7
ENDBRANCH   4   5
ENDBRANCH   1   4
BRANCH   1  10
ATOM     10  N   UNL     1      45.231 130.718  20.497  1.00  0.00    -0.248 N 
BRANCH  10  11
ATOM     11  C   UNL     1      44.000 131.426  20.251  1.00  0.00     0.072 A 
ATOM     12  C   UNL     1      43.177 131.747  21.342  1.00  0.00     0.029 A 
ATOM     13  C   UNL     1      43.615 131.833  18.946  1.00  0.00     0.043 A 
ATOM     14  C   UNL     1      42.010 132.490  21.159  1.00  0.00     0.002 A 
ATOM     15  C   UNL     1      42.444 132.594  18.782  1.00  0.00     0.014 A 
ATOM     16  C   UNL     1      41.648 132.919  19.881  1.00  0.00     0.001 A 
BRANCH  13  17
ATOM     17  C   UNL     1      44.397 131.458  17.749  1.00  0.00     0.140 A 
ATOM     18  N   UNL     1      44.594 130.168  17.361  1.00  0.00    -0.228 NA
ATOM     19  N   UNL     1      45.014 132.365  16.948  1.00  0.00    -0.338 N 
ATOM     20  C   UNL     1      45.380 130.299  16.278  1.00  0.00     0.089 A 
ATOM     21  C   UNL     1      45.634 131.614  16.032  1.00  0.00     0.066 A 
ATOM     22  C   UNL     1      45.917 129.286  15.488  1.00  0.00     0.030 A 
ATOM     23  C   UNL     1      46.447 132.029  14.979  1.00  0.00     0.028 A 
ATOM     24  C   UNL     1      46.741 129.665  14.410  1.00  0.00     0.002 A 
ATOM     25  C   UNL     1      47.004 131.032  14.157  1.00  0.00     0.002 A 
ATOM     26  H   UNL     1      45.037 133.404  17.045  1.00  0.00     0.168 HD
ENDBRANCH  13  17
ENDBRANCH  10  11
BRANCH  10  27
ATOM     27  N   UNL     1      46.392 131.187  19.856  1.00  0.00    -0.240 NA
ATOM     28  H   UNL     1      46.200 131.258  18.831  1.00  0.00     0.144 HD
ATOM     29  H   UNL     1      47.145 130.477  20.004  1.00  0.00     0.144 HD
ENDBRANCH  10  27
ENDBRANCH   1  10
TORSDOF 8
ENDMDL
MODEL 3
REMARK VINA RESULT:      -6.3      1.480      1.614
REMARK SMILES C=C(/C=C(\O)N(N)c1ccccc1-c1nc2ccccc2[nH]1)C(C)=O
REMARK SMILES IDX 4 1 5 2 3 4 2 5 1 6 23 7 25 8 24 9 6 10 8 11 9 12 13 13
REMARK SMILES IDX 10 14 12 15 11 16 14 17 15 18 22 19 16 20 21 21 17 22 20 23
REMARK SMILES IDX 18 24 19 25 7 27
REMARK H PARENT 5 3 22 26 7 28 7 29
ROOT
ATOM      1  C   UNL     1      45.697 130.104  20.318  1.00  0.00     0.206 C 
ENDROOT
BRANCH   1   2
ATOM      2  O   UNL     1      45.886 129.403  19.126  1.00  0.00    -0.494 OA
ATOM      3  H   UNL     1      46.066 128.407  19.108  1.00  0.00     0.295 HD
ENDBRANCH   1   2
BRANCH   1   4
ATOM      4  C   UNL     1      45.955 129.494  21.489  1.00  0.00     0.079 C 
BRANCH   4   5
ATOM      5  C   UNL     1      44.945 128.708  22.234  1.00  0.00     0.015 C 
ATOM      6  C   UNL     1      44.976 127.375  22.121  1.00  0.00     0.021 C 
BRANCH   5   7
ATOM      7  C   UNL     1      43.977 129.380  23.140  1.00  0.00     0.159 C 
ATOM      8  O   UNL     1      44.254 130.516  23.610  1.00  0.00    -0.295 OA
ATOM      9  C   UNL     1      42.690 128.729  23.550  1.00  0.00     0.093 C 
ENDBRANCH   5   7
ENDBRANCH   4   5
ENDBRANCH   1   4
BRANCH   1  10
ATOM     10  N   UNL     1      45.255 131.484  20.278  1.00  0.00    -0.248 N 
BRANCH  10  11
ATOM     11  C   UNL     1      43.893 131.848  19.979  1.00  0.00     0.072 A 
ATOM     12  C   UNL     1      43.027 132.150  21.043  1.00  0.00     0.029 A 
ATOM     13  C   UNL     1      43.414 131.938  18.645  1.00  0.00     0.043 A 
ATOM     14  C   UNL     1      41.719 132.572  20.797  1.00  0.00     0.002 A 
ATOM     15  C   UNL     1      42.099 132.379  18.417  1.00  0.00     0.014 A 
ATOM     16  C   UNL     1      41.259 132.694  19.486  1.00  0.00     0.001 A 
BRANCH  13  17
ATOM     17  C   UNL     1      44.251 131.558  17.488  1.00  0.00     0.140 A 
ATOM     18  N   UNL     1      44.302 130.292  16.989  1.00  0.00    -0.228 NA
ATOM     19  N   UNL     1      45.068 132.429  16.840  1.00  0.00    -0.338 N 
ATOM     20  C   UNL     1      45.203 130.398  15.997  1.00  0.00     0.089 A 
ATOM     21  C   UNL     1      45.664 131.677  15.909  1.00  0.00     0.066 A 
ATOM     22  C   UNL     1      45.668 129.390  15.157  1.00  0.00     0.030 A 
ATOM     23  C   UNL     1      46.628 132.057  14.977  1.00  0.00     0.028 A 
ATOM     24  C   UNL     1      46.641 129.734  14.198  1.00  0.00     0.002 A 
ATOM     25  C   UNL     1      47.118 131.063  14.109  1.00  0.00     0.002 A 
ATOM     26  H   UNL     1      45.227 133.440  17.044  1.00  0.00     0.168 HD
ENDBRANCH  13  17
ENDBRANCH  10  11
BRANCH  10  27
ATOM     27  N   UNL     1      46.163 132.524  20.544  1.00  0.00    -0.240 NA
ATOM     28  H   UNL     1      46.782 132.231  21.334  1.00  0.00     0.144 HD
ATOM     29  H   UNL     1      45.612 133.359  20.847  1.00  0.00     0.144 HD
ENDBRANCH  10  27
ENDBRANCH   1  10
TORSDOF 8
ENDMDL
MODEL 4
REMARK VINA RESULT:      -6.3      3.035      4.594
REMARK SMILES C=C(/C=C(\O)N(N)c1ccccc1-c1nc2ccccc2[nH]1)C(C)=O
REMARK SMILES IDX 4 1 5 2 3 4 2 5 1 6 23 7 25 8 24 9 6 10 8 11 9 12 13 13
REMARK SMILES IDX 10 14 12 15 11 16 14 17 15 18 22 19 16 20 21 21 17 22 20 23
REMARK SMILES IDX 18 24 19 25 7 27
REMARK H PARENT 5 3 22 26 7 28 7 29
ROOT
ATOM      1  C   UNL     1      46.924 132.183  20.956  1.00  0.00     0.206 C 
ENDROOT
BRANCH   1   2
ATOM      2  O   UNL     1      48.271 131.850  20.797  1.00  0.00    -0.494 OA
ATOM      3  H   UNL     1      48.614 130.907  20.935  1.00  0.00     0.295 HD
ENDBRANCH   1   2
BRANCH   1   4
ATOM      4  C   UNL     1      46.596 133.414  21.387  1.00  0.00     0.079 C 
BRANCH   4   5
ATOM      5  C   UNL     1      47.378 134.152  22.404  1.00  0.00     0.015 C 
ATOM      6  C   UNL     1      47.066 133.971  23.693  1.00  0.00     0.021 C 
BRANCH   5   7
ATOM      7  C   UNL     1      48.527 135.008  22.005  1.00  0.00     0.159 C 
ATOM      8  O   UNL     1      49.644 134.845  22.566  1.00  0.00    -0.295 OA
ATOM      9  C   UNL     1      48.390 136.094  20.980  1.00  0.00     0.093 C 
ENDBRANCH   5   7
ENDBRANCH   4   5
ENDBRANCH   1   4
BRANCH   1  10
ATOM     10  N   UNL     1      45.900 131.211  20.626  1.00  0.00    -0.248 N 
BRANCH  10  11
ATOM     11  C   UNL     1      44.537 131.592  20.354  1.00  0.00     0.072 A 
ATOM     12  C   UNL     1      43.679 131.846  21.437  1.00  0.00     0.029 A 
ATOM     13  C   UNL     1      44.048 131.744  19.029  1.00  0.00     0.043 A 
ATOM     14  C   UNL     1      42.371 132.281  21.221  1.00  0.00     0.002 A 
ATOM     15  C   UNL     1      42.733 132.199  18.831  1.00  0.00     0.014 A 
ATOM     16  C   UNL     1      41.901 132.465  19.920  1.00  0.00     0.001 A 
BRANCH  13  17
ATOM     17  C   UNL     1      44.876 131.416  17.849  1.00  0.00     0.140 A 
ATOM     18  N   UNL     1      45.131 132.303  16.848  1.00  0.00    -0.228 NA
ATOM     19  N   UNL     1      45.428 130.193  17.643  1.00  0.00    -0.338 N 
ATOM     20  C   UNL     1      45.864 131.578  15.987  1.00  0.00     0.089 A 
ATOM     21  C   UNL     1      46.041 130.313  16.461  1.00  0.00     0.066 A 
ATOM     22  C   UNL     1      46.381 131.981  14.758  1.00  0.00     0.030 A 
ATOM     23  C   UNL     1      46.746 129.344  15.749  1.00  0.00     0.028 A 
ATOM     24  C   UNL     1      47.104 131.032  14.010  1.00  0.00     0.002 A 
ATOM     25  C   UNL     1      47.285 129.719  14.504  1.00  0.00     0.002 A 
ATOM     26  H   UNL     1      45.359 129.342  18.244  1.00  0.00     0.168 HD
ENDBRANCH  13  17
ENDBRANCH  10  11
BRANCH  10  27
ATOM     27  N   UNL     1      46.221 129.844  20.554  1.00  0.00    -0.240 NA
ATOM     28  H   UNL     1      45.362 129.315  20.281  1.00  0.00     0.144 HD
ATOM     29  H   UNL     1      46.512 129.535  21.509  1.00  0.00     0.144 HD
ENDBRANCH  10  27
ENDBRANCH   1  10
TORSDOF 8
ENDMDL
MODEL 5
REMARK VINA RESULT:      -6.2      3.002      4.208
REMARK SMILES C=C(/C=C(\O)N(N)c1ccccc1-c1nc2ccccc2[nH]1)C(C)=O
REMARK SMILES IDX 4 1 5 2 3 4 2 5 1 6 23 7 25 8 24 9 6 10 8 11 9 12 13 13
REMARK SMILES IDX 10 14 12 15 11 16 14 17 15 18 22 19 16 20 21 21 17 22 20 23
REMARK SMILES IDX 18 24 19 25 7 27
REMARK H PARENT 5 3 22 26 7 28 7 29
ROOT
ATOM      1  C   UNL     1      46.815 132.174  20.993  1.00  0.00     0.206 C 
ENDROOT
BRANCH   1   2
ATOM      2  O   UNL     1      48.137 131.822  20.712  1.00  0.00    -0.494 OA
ATOM      3  H   UNL     1      48.652 131.160  21.280  1.00  0.00     0.295 HD
ENDBRANCH   1   2
BRANCH   1   4
ATOM      4  C   UNL     1      46.550 133.392  21.498  1.00  0.00     0.079 C 
BRANCH   4   5
ATOM      5  C   UNL     1      47.585 134.265  22.096  1.00  0.00     0.015 C 
ATOM      6  C   UNL     1      48.139 135.206  21.322  1.00  0.00     0.021 C 
BRANCH   5   7
ATOM      7  C   UNL     1      47.940 134.146  23.535  1.00  0.00     0.159 C 
ATOM      8  O   UNL     1      47.028 134.191  24.403  1.00  0.00    -0.295 OA
ATOM      9  C   UNL     1      49.362 134.017  23.994  1.00  0.00     0.093 C 
ENDBRANCH   5   7
ENDBRANCH   4   5
ENDBRANCH   1   4
BRANCH   1  10
ATOM     10  N   UNL     1      45.747 131.235  20.710  1.00  0.00    -0.248 N 
BRANCH  10  11
ATOM     11  C   UNL     1      44.370 131.646  20.603  1.00  0.00     0.072 A 
ATOM     12  C   UNL     1      43.658 131.931  21.779  1.00  0.00     0.029 A 
ATOM     13  C   UNL     1      43.726 131.799  19.346  1.00  0.00     0.043 A 
ATOM     14  C   UNL     1      42.343 132.396  21.720  1.00  0.00     0.002 A 
ATOM     15  C   UNL     1      42.407 132.284  19.305  1.00  0.00     0.014 A 
ATOM     16  C   UNL     1      41.722 132.579  20.484  1.00  0.00     0.001 A 
BRANCH  13  17
ATOM     17  C   UNL     1      44.395 131.441  18.078  1.00  0.00     0.140 A 
ATOM     18  N   UNL     1      45.487 130.630  18.015  1.00  0.00    -0.228 NA
ATOM     19  N   UNL     1      44.001 131.915  16.868  1.00  0.00    -0.338 N 
ATOM     20  C   UNL     1      45.776 130.621  16.702  1.00  0.00     0.089 A 
ATOM     21  C   UNL     1      44.888 131.392  16.014  1.00  0.00     0.066 A 
ATOM     22  C   UNL     1      46.827 129.965  16.065  1.00  0.00     0.030 A 
ATOM     23  C   UNL     1      44.975 131.576  14.636  1.00  0.00     0.028 A 
ATOM     24  C   UNL     1      46.946 130.122  14.671  1.00  0.00     0.002 A 
ATOM     25  C   UNL     1      46.024 130.924  13.959  1.00  0.00     0.002 A 
ATOM     26  H   UNL     1      43.216 132.568  16.653  1.00  0.00     0.168 HD
ENDBRANCH  13  17
ENDBRANCH  10  11
BRANCH  10  27
ATOM     27  N   UNL     1      46.036 129.872  20.522  1.00  0.00    -0.240 NA
ATOM     28  H   UNL     1      45.799 129.615  19.537  1.00  0.00     0.144 HD
ATOM     29  H   UNL     1      45.421 129.324  21.166  1.00  0.00     0.144 HD
ENDBRANCH  10  27
ENDBRANCH   1  10
TORSDOF 8
ENDMDL
MODEL 6
REMARK VINA RESULT:      -6.1      1.144      1.735
REMARK SMILES C=C(/C=C(\O)N(N)c1ccccc1-c1nc2ccccc2[nH]1)C(C)=O
REMARK SMILES IDX 4 1 5 2 3 4 2 5 1 6 23 7 25 8 24 9 6 10 8 11 9 12 13 13
REMARK SMILES IDX 10 14 12 15 11 16 14 17 15 18 22 19 16 20 21 21 17 22 20 23
REMARK SMILES IDX 18 24 19 25 7 27
REMARK H PARENT 5 3 22 26 7 28 7 29
ROOT
ATOM      1  C   UNL     1      45.091 129.061  22.079  1.00  0.00     0.206 C 
ENDROOT
BRANCH   1   2
ATOM      2  O   UNL     1      44.538 129.118  23.360  1.00  0.00    -0.494 OA
ATOM      3  H   UNL     1      44.728 129.883  23.996  1.00  0.00     0.295 HD
ENDBRANCH   1   2
BRANCH   1   4
ATOM      4  C   UNL     1      45.554 127.886  21.613  1.00  0.00     0.079 C 
BRANCH   4   5
ATOM      5  C   UNL     1      45.441 126.615  22.364  1.00  0.00     0.015 C 
ATOM      6  C   UNL     1      46.570 126.006  22.744  1.00  0.00     0.021 C 
BRANCH   5   7
ATOM      7  C   UNL     1      44.110 126.076  22.749  1.00  0.00     0.159 C 
ATOM      8  O   UNL     1      43.518 126.550  23.756  1.00  0.00    -0.295 OA
ATOM      9  C   UNL     1      43.462 124.950  22.000  1.00  0.00     0.093 C 
ENDBRANCH   5   7
ENDBRANCH   4   5
ENDBRANCH   1   4
BRANCH   1  10
ATOM     10  N   UNL     1      45.133 130.256  21.260  1.00  0.00    -0.248 N 
BRANCH  10  11
ATOM     11  C   UNL     1      43.983 131.104  21.076  1.00  0.00     0.072 A 
ATOM     12  C   UNL     1      43.159 131.371  22.182  1.00  0.00     0.029 A 
ATOM     13  C   UNL     1      43.678 131.698  19.823  1.00  0.00     0.043 A 
ATOM     14  C   UNL     1      42.073 132.240  22.067  1.00  0.00     0.002 A 
ATOM     15  C   UNL     1      42.590 132.583  19.730  1.00  0.00     0.014 A 
ATOM     16  C   UNL     1      41.794 132.851  20.844  1.00  0.00     0.001 A 
BRANCH  13  17
ATOM     17  C   UNL     1      44.459 131.395  18.605  1.00  0.00     0.140 A 
ATOM     18  N   UNL     1      44.871 132.351  17.727  1.00  0.00    -0.228 NA
ATOM     19  N   UNL     1      44.806 130.135  18.237  1.00  0.00    -0.338 N 
ATOM     20  C   UNL     1      45.489 131.632  16.774  1.00  0.00     0.089 A 
ATOM     21  C   UNL     1      45.448 130.305  17.076  1.00  0.00     0.066 A 
ATOM     22  C   UNL     1      46.084 132.102  15.605  1.00  0.00     0.030 A 
ATOM     23  C   UNL     1      45.995 129.335  16.239  1.00  0.00     0.028 A 
ATOM     24  C   UNL     1      46.653 131.152  14.734  1.00  0.00     0.002 A 
ATOM     25  C   UNL     1      46.608 129.774  15.050  1.00  0.00     0.002 A 
ATOM     26  H   UNL     1      44.588 129.236  18.721  1.00  0.00     0.168 HD
ENDBRANCH  13  17
ENDBRANCH  10  11
BRANCH  10  27
ATOM     27  N   UNL     1      46.326 130.628  20.616  1.00  0.00    -0.240 NA
ATOM     28  H   UNL     1      46.358 130.165  19.680  1.00  0.00     0.144 HD
ATOM     29  H   UNL     1      47.123 130.271  21.191  1.00  0.00     0.144 HD
ENDBRANCH  10  27
ENDBRANCH   1  10
TORSDOF 8
ENDMDL
MODEL 7
REMARK VINA RESULT:      -6.1      1.206      1.975
REMARK SMILES C=C(/C=C(\O)N(N)c1ccccc1-c1nc2ccccc2[nH]1)C(C)=O
REMARK SMILES IDX 4 1 5 2 3 4 2 5 1 6 23 7 25 8 24 9 6 10 8 11 9 12 13 13
REMARK SMILES IDX 10 14 12 15 11 16 14 17 15 18 22 19 16 20 21 21 17 22 20 23
REMARK SMILES IDX 18 24 19 25 7 27
REMARK H PARENT 5 3 22 26 7 28 7 29
ROOT
ATOM      1  C   UNL     1      45.150 130.294  21.642  1.00  0.00     0.206 C 
ENDROOT
BRANCH   1   2
ATOM      2  O   UNL     1      45.269 131.089  22.783  1.00  0.00    -0.494 OA
ATOM      3  H   UNL     1      45.487 130.700  23.692  1.00  0.00     0.295 HD
ENDBRANCH   1   2
BRANCH   1   4
ATOM      4  C   UNL     1      45.130 128.955  21.771  1.00  0.00     0.079 C 
BRANCH   4   5
ATOM      5  C   UNL     1      44.409 128.255  22.858  1.00  0.00     0.015 C 
ATOM      6  C   UNL     1      43.265 128.789  23.300  1.00  0.00     0.021 C 
BRANCH   5   7
ATOM      7  C   UNL     1      44.905 126.957  23.386  1.00  0.00     0.159 C 
ATOM      8  O   UNL     1      44.114 126.197  24.007  1.00  0.00    -0.295 OA
ATOM      9  C   UNL     1      46.337 126.535  23.241  1.00  0.00     0.093 C 
ENDBRANCH   5   7
ENDBRANCH   4   5
ENDBRANCH   1   4
BRANCH   1  10
ATOM     10  N   UNL     1      45.019 130.919  20.341  1.00  0.00    -0.248 N 
BRANCH  10  11
ATOM     11  C   UNL     1      43.794 131.540  19.905  1.00  0.00     0.072 A 
ATOM     12  C   UNL     1      42.847 131.914  20.872  1.00  0.00     0.029 A 
ATOM     13  C   UNL     1      43.534 131.811  18.535  1.00  0.00     0.043 A 
ATOM     14  C   UNL     1      41.676 132.578  20.501  1.00  0.00     0.002 A 
ATOM     15  C   UNL     1      42.357 132.495  18.182  1.00  0.00     0.014 A 
ATOM     16  C   UNL     1      41.436 132.875  19.159  1.00  0.00     0.001 A 
BRANCH  13  17
ATOM     17  C   UNL     1      44.453 131.373  17.464  1.00  0.00     0.140 A 
ATOM     18  N   UNL     1      45.196 132.238  16.719  1.00  0.00    -0.228 NA
ATOM     19  N   UNL     1      44.615 130.073  17.106  1.00  0.00    -0.338 N 
ATOM     20  C   UNL     1      45.830 131.422  15.860  1.00  0.00     0.089 A 
ATOM     21  C   UNL     1      45.482 130.126  16.089  1.00  0.00     0.066 A 
ATOM     22  C   UNL     1      46.709 131.777  14.840  1.00  0.00     0.030 A 
ATOM     23  C   UNL     1      45.978 129.075  15.320  1.00  0.00     0.028 A 
ATOM     24  C   UNL     1      47.237 130.744  14.042  1.00  0.00     0.002 A 
ATOM     25  C   UNL     1      46.873 129.398  14.282  1.00  0.00     0.002 A 
ATOM     26  H   UNL     1      44.145 129.229  17.502  1.00  0.00     0.168 HD
ENDBRANCH  13  17
ENDBRANCH  10  11
BRANCH  10  27
ATOM     27  N   UNL     1      46.112 130.942  19.456  1.00  0.00    -0.240 NA
ATOM     28  H   UNL     1      46.523 131.903  19.461  1.00  0.00     0.144 HD
ATOM     29  H   UNL     1      45.748 130.742  18.496  1.00  0.00     0.144 HD
ENDBRANCH  10  27
ENDBRANCH   1  10
TORSDOF 8
ENDMDL
MODEL 8
REMARK VINA RESULT:      -6.0      3.474      6.814
REMARK SMILES C=C(/C=C(\O)N(N)c1ccccc1-c1nc2ccccc2[nH]1)C(C)=O
REMARK SMILES IDX 4 1 5 2 3 4 2 5 1 6 23 7 25 8 24 9 6 10 8 11 9 12 13 13
REMARK SMILES IDX 10 14 12 15 11 16 14 17 15 18 22 19 16 20 21 21 17 22 20 23
REMARK SMILES IDX 18 24 19 25 7 27
REMARK H PARENT 5 3 22 26 7 28 7 29
ROOT
ATOM      1  C   UNL     1      44.387 129.959  22.246  1.00  0.00     0.206 C 
ENDROOT
BRANCH   1   2
ATOM      2  O   UNL     1      45.305 129.362  21.379  1.00  0.00    -0.494 OA
ATOM      3  H   UNL     1      45.078 129.149  20.415  1.00  0.00     0.295 HD
ENDBRANCH   1   2
BRANCH   1   4
ATOM      4  C   UNL     1      43.721 131.057  21.846  1.00  0.00     0.079 C 
BRANCH   4   5
ATOM      5  C   UNL     1      44.034 131.785  20.595  1.00  0.00     0.015 C 
ATOM      6  C   UNL     1      45.317 132.050  20.325  1.00  0.00     0.021 C 
BRANCH   5   7
ATOM      7  C   UNL     1      42.957 132.139  19.633  1.00  0.00     0.159 C 
ATOM      8  O   UNL     1      43.072 131.803  18.424  1.00  0.00    -0.295 OA
ATOM      9  C   UNL     1      41.750 132.927  20.047  1.00  0.00     0.093 C 
ENDBRANCH   5   7
ENDBRANCH   4   5
ENDBRANCH   1   4
BRANCH   1  10
ATOM     10  N   UNL     1      44.144 129.373  23.549  1.00  0.00    -0.248 N 
BRANCH  10  11
ATOM     11  C   UNL     1      43.037 128.484  23.798  1.00  0.00     0.072 A 
ATOM     12  C   UNL     1      41.789 129.038  24.130  1.00  0.00     0.029 A 
ATOM     13  C   UNL     1      43.165 127.074  23.689  1.00  0.00     0.043 A 
ATOM     14  C   UNL     1      40.674 128.219  24.315  1.00  0.00     0.002 A 
ATOM     15  C   UNL     1      42.027 126.266  23.863  1.00  0.00     0.014 A 
ATOM     16  C   UNL     1      40.792 126.836  24.173  1.00  0.00     0.001 A 
BRANCH  13  17
ATOM     17  C   UNL     1      44.466 126.427  23.421  1.00  0.00     0.140 A 
ATOM     18  N   UNL     1      44.602 125.325  22.632  1.00  0.00    -0.228 NA
ATOM     19  N   UNL     1      45.637 126.853  23.962  1.00  0.00    -0.338 N 
ATOM     20  C   UNL     1      45.919 125.064  22.709  1.00  0.00     0.089 A 
ATOM     21  C   UNL     1      46.538 125.977  23.507  1.00  0.00     0.066 A 
ATOM     22  C   UNL     1      46.616 124.017  22.111  1.00  0.00     0.030 A 
ATOM     23  C   UNL     1      47.904 125.922  23.778  1.00  0.00     0.028 A 
ATOM     24  C   UNL     1      48.000 123.929  22.356  1.00  0.00     0.002 A 
ATOM     25  C   UNL     1      48.641 124.878  23.186  1.00  0.00     0.002 A 
ATOM     26  H   UNL     1      45.794 127.653  24.615  1.00  0.00     0.168 HD
ENDBRANCH  13  17
ENDBRANCH  10  11
BRANCH  10  27
ATOM     27  N   UNL     1      45.005 129.657  24.623  1.00  0.00    -0.240 NA
ATOM     28  H   UNL     1      44.945 130.678  24.836  1.00  0.00     0.144 HD
ATOM     29  H   UNL     1      45.981 129.440  24.314  1.00  0.00     0.144 HD
ENDBRANCH  10  27
ENDBRANCH   1  10
TORSDOF 8
ENDMDL
MODEL 9
REMARK VINA RESULT:      -5.9      1.524      2.342
REMARK SMILES C=C(/C=C(\O)N(N)c1ccccc1-c1nc2ccccc2[nH]1)C(C)=O
REMARK SMILES IDX 4 1 5 2 3 4 2 5 1 6 23 7 25 8 24 9 6 10 8 11 9 12 13 13
REMARK SMILES IDX 10 14 12 15 11 16 14 17 15 18 22 19 16 20 21 21 17 22 20 23
REMARK SMILES IDX 18 24 19 25 7 27
REMARK H PARENT 5 3 22 26 7 28 7 29
ROOT
ATOM      1  C   UNL     1      45.343 130.533  21.124  1.00  0.00     0.206 C 
ENDROOT
BRANCH   1   2
ATOM      2  O   UNL     1      45.903 129.282  21.392  1.00  0.00    -0.494 OA
ATOM      3  H   UNL     1      46.609 128.868  20.796  1.00  0.00     0.295 HD
ENDBRANCH   1   2
BRANCH   1   4
ATOM      4  C   UNL     1      44.971 131.322  22.148  1.00  0.00     0.079 C 
BRANCH   4   5
ATOM      5  C   UNL     1      44.218 130.826  23.322  1.00  0.00     0.015 C 
ATOM      6  C   UNL     1      44.188 131.590  24.420  1.00  0.00     0.021 C 
BRANCH   5   7
ATOM      7  C   UNL     1      43.454 129.552  23.252  1.00  0.00     0.159 C 
ATOM      8  O   UNL     1      42.310 129.544  22.722  1.00  0.00    -0.295 OA
ATOM      9  C   UNL     1      43.984 128.275  23.832  1.00  0.00     0.093 C 
ENDBRANCH   5   7
ENDBRANCH   4   5
ENDBRANCH   1   4
BRANCH   1  10
ATOM     10  N   UNL     1      45.196 130.975  19.751  1.00  0.00    -0.248 N 
BRANCH  10  11
ATOM     11  C   UNL     1      43.945 131.463  19.229  1.00  0.00     0.072 A 
ATOM     12  C   UNL     1      42.921 131.793  20.132  1.00  0.00     0.029 A 
ATOM     13  C   UNL     1      43.731 131.646  17.837  1.00  0.00     0.043 A 
ATOM     14  C   UNL     1      41.717 132.332  19.675  1.00  0.00     0.002 A 
ATOM     15  C   UNL     1      42.518 132.204  17.397  1.00  0.00     0.014 A 
ATOM     16  C   UNL     1      41.519 132.544  18.311  1.00  0.00     0.001 A 
BRANCH  13  17
ATOM     17  C   UNL     1      44.738 131.244  16.833  1.00  0.00     0.140 A 
ATOM     18  N   UNL     1      45.453 132.138  16.095  1.00  0.00    -0.228 NA
ATOM     19  N   UNL     1      45.017 129.949  16.534  1.00  0.00    -0.338 N 
ATOM     20  C   UNL     1      46.193 131.345  15.302  1.00  0.00     0.089 A 
ATOM     21  C   UNL     1      45.931 130.034  15.561  1.00  0.00     0.066 A 
ATOM     22  C   UNL     1      47.097 131.732  14.316  1.00  0.00     0.030 A 
ATOM     23  C   UNL     1      46.546 129.000  14.859  1.00  0.00     0.028 A 
ATOM     24  C   UNL     1      47.745 130.716  13.587  1.00  0.00     0.002 A 
ATOM     25  C   UNL     1      47.470 129.355  13.858  1.00  0.00     0.002 A 
ATOM     26  H   UNL     1      44.590 129.085  16.936  1.00  0.00     0.168 HD
ENDBRANCH  13  17
ENDBRANCH  10  11
BRANCH  10  27
ATOM     27  N   UNL     1      46.299 130.946  18.879  1.00  0.00    -0.240 NA
ATOM     28  H   UNL     1      46.021 131.396  17.977  1.00  0.00     0.144 HD
ATOM     29  H   UNL     1      46.530 129.943  18.692  1.00  0.00     0.144 HD
ENDBRANCH  10  27
ENDBRANCH   1  10
TORSDOF 8
ENDMDL


