REMARK SMILES NNc1ccccc1-c1nc2ccccc2[nH]1
REMARK SMILES IDX 3 1 4 2 5 3 6 4 7 5 8 6 2 7 1 9 9 12 10 13 17 14 11 15 16 16
REMARK SMILES IDX 12 17 15 18 13 19 14 20
REMARK H PARENT 2 8 1 10 1 11 17 21
ROOT
ATOM      1  C   UNL     1       1.799  -1.021  -1.853  1.00  0.00     0.059 A 
ATOM      2  C   UNL     1       1.713  -1.045  -3.259  1.00  0.00     0.028 A 
ATOM      3  C   UNL     1       0.521  -0.715  -3.906  1.00  0.00     0.002 A 
ATOM      4  C   UNL     1      -0.601  -0.354  -3.163  1.00  0.00     0.001 A 
ATOM      5  C   UNL     1      -0.542  -0.341  -1.770  1.00  0.00     0.014 A 
ATOM      6  C   UNL     1       0.642  -0.693  -1.099  1.00  0.00     0.042 A 
ENDROOT
BRANCH   1   7
ATOM      7  N   UNL     1       3.065  -1.261  -1.207  1.00  0.00    -0.323 N 
ATOM      8  H   UNL     1       3.205  -0.980  -0.210  1.00  0.00     0.181 HD
BRANCH   7   9
ATOM      9  N   UNL     1       4.141  -1.845  -1.895  1.00  0.00    -0.250 NA
ATOM     10  H   UNL     1       4.560  -1.101  -2.499  1.00  0.00     0.143 HD
ATOM     11  H   UNL     1       4.872  -2.094  -1.190  1.00  0.00     0.143 HD
ENDBRANCH   7   9
ENDBRANCH   1   7
BRANCH   6  12
ATOM     12  C   UNL     1       0.619  -0.743   0.378  1.00  0.00     0.140 A 
ATOM     13  N   UNL     1      -0.020   0.191   1.136  1.00  0.00    -0.228 NA
ATOM     14  N   UNL     1       1.154  -1.757   1.106  1.00  0.00    -0.338 N 
ATOM     15  C   UNL     1       0.157  -0.269   2.387  1.00  0.00     0.089 A 
ATOM     16  C   UNL     1       0.859  -1.436   2.371  1.00  0.00     0.066 A 
ATOM     17  C   UNL     1      -0.297   0.298   3.576  1.00  0.00     0.030 A 
ATOM     18  C   UNL     1       1.163  -2.137   3.535  1.00  0.00     0.028 A 
ATOM     19  C   UNL     1      -0.004  -0.378   4.776  1.00  0.00     0.002 A 
ATOM     20  C   UNL     1       0.723  -1.591   4.756  1.00  0.00     0.002 A 
ATOM     21  H   UNL     1       1.649  -2.610   0.762  1.00  0.00     0.168 HD
ENDBRANCH   6  12
TORSDOF 3


