REMARK SMILES Cc1ccc([NH2+]c2ccc([C@@H]3O[C@H]3c3ccccc3)c(N)c2[O-])cc1F
REMARK SMILES IDX 7 1 8 2 9 3 10 4 20 5 22 6 23 7 6 8 5 11 2 12 3 13 25 14
REMARK SMILES IDX 4 15 24 16 1 17 26 18 21 19 11 22 12 23 13 24 14 25 15 26
REMARK SMILES IDX 19 27 16 28 18 29 17 30
REMARK H PARENT 6 9 6 10 21 20 21 21
ROOT
ATOM      1  C   UNL     1      -2.315  -0.510   1.523  1.00  0.00     0.128 A 
ATOM      2  C   UNL     1      -1.665   0.437   2.327  1.00  0.00     0.068 A 
ATOM      3  C   UNL     1      -0.283   0.390   2.505  1.00  0.00     0.015 A 
ATOM      4  C   UNL     1       0.488  -0.591   1.864  1.00  0.00     0.007 A 
ATOM      5  C   UNL     1      -0.154  -1.571   1.072  1.00  0.00     0.035 A 
ATOM      6  C   UNL     1      -1.552  -1.518   0.899  1.00  0.00    -0.021 A 
ATOM      7  O   UNL     1      -2.185  -2.475   0.110  1.00  0.00    -0.867 OA
ENDROOT
BRANCH   1   8
ATOM      8  N   UNL     1      -3.742  -0.423   1.318  1.00  0.00    -0.282 N 
ATOM      9  H   UNL     1      -4.197   0.059   2.127  1.00  0.00     0.358 HD
ATOM     10  H   UNL     1      -4.159  -1.383   1.275  1.00  0.00     0.358 HD
BRANCH   8  11
ATOM     11  C   UNL     1      -4.020   0.312   0.107  1.00  0.00     0.137 A 
ATOM     12  C   UNL     1      -4.502   1.753  -2.269  1.00  0.00    -0.015 A 
ATOM     13  C   UNL     1      -4.228   2.432  -1.071  1.00  0.00     0.012 A 
ATOM     14  C   UNL     1      -4.553   0.348  -2.268  1.00  0.00     0.132 A 
ATOM     15  C   UNL     1      -3.980   1.718   0.104  1.00  0.00     0.068 A 
ATOM     16  C   UNL     1      -4.309  -0.364  -1.091  1.00  0.00     0.107 A 
ATOM     17  C   UNL     1      -4.796   2.520  -3.525  1.00  0.00     0.047 C 
ATOM     18  F   UNL     1      -4.838  -0.329  -3.409  1.00  0.00    -0.206 F 
ENDBRANCH   8  11
ENDBRANCH   1   8
BRANCH   5  19
ATOM     19  N   UNL     1       0.598  -2.625   0.452  1.00  0.00    -0.399 N 
ATOM     20  H   UNL     1       1.612  -2.764   0.649  1.00  0.00     0.156 HD
ATOM     21  H   UNL     1       0.140  -3.317  -0.181  1.00  0.00     0.156 HD
ENDBRANCH   5  19
BRANCH   4  22
ATOM     22  C   UNL     1       1.983  -0.611   2.058  1.00  0.00     0.185 C 
ATOM     23  O   UNL     1       2.525   0.683   2.208  1.00  0.00    -0.359 OA
ATOM     24  C   UNL     1       2.770   0.039   0.978  1.00  0.00     0.183 C 
BRANCH  24  25
ATOM     25  C   UNL     1       4.198  -0.411   0.849  1.00  0.00    -0.016 A 
ATOM     26  C   UNL     1       5.250   0.346   1.394  1.00  0.00     0.006 A 
ATOM     27  C   UNL     1       4.493  -1.572   0.117  1.00  0.00     0.006 A 
ATOM     28  C   UNL     1       6.575  -0.074   1.234  1.00  0.00     0.000 A 
ATOM     29  C   UNL     1       5.819  -1.984  -0.046  1.00  0.00     0.000 A 
ATOM     30  C   UNL     1       6.859  -1.240   0.518  1.00  0.00     0.000 A 
ENDBRANCH  24  25
ENDBRANCH   4  22
TORSDOF 5


