REMARK SMILES CC(C)C[C@H](C)OC(=O)n1[n-]c(-c2ccc3[nH]ccc3c2)c/c(=N\N)c1=O
REMARK SMILES IDX 8 1 9 2 10 3 12 4 11 5 22 6 23 7 26 8 27 9 13 10 14 11 15 12
REMARK SMILES IDX 21 13 16 14 20 15 17 16 19 17 18 18 24 20 25 21 7 24 5 25
REMARK SMILES IDX 6 26 4 27 2 28 1 29 3 30
REMARK H PARENT 17 19 25 22 25 23
ROOT
ATOM      1  C   UNL     1       1.628  -0.409  -0.712  1.00  0.00     0.403 C 
ATOM      2  O   UNL     1       2.564  -0.757   0.060  1.00  0.00    -0.225 OA
ENDROOT
BRANCH   1   3
ATOM      3  N   UNL     1       0.282  -0.854  -0.441  1.00  0.00    -0.315 N 
ATOM      4  C   UNL     1      -1.131  -2.068   1.019  1.00  0.00    -0.114 A 
ATOM      5  N   UNL     1       0.087  -1.590   0.655  1.00  0.00    -0.582 NA
ATOM      6  C   UNL     1      -2.240  -1.762   0.224  1.00  0.00     0.021 A 
ATOM      7  C   UNL     1      -2.069  -0.990  -0.938  1.00  0.00     0.146 A 
ATOM      8  C   UNL     1      -0.775  -0.545  -1.260  1.00  0.00     0.270 A 
ATOM      9  O   UNL     1      -0.603   0.139  -2.308  1.00  0.00    -0.268 OA
BRANCH   4  10
ATOM     10  C   UNL     1      -1.250  -2.878   2.258  1.00  0.00    -0.039 A 
ATOM     11  C   UNL     1      -2.233  -3.900   2.379  1.00  0.00     0.009 A 
ATOM     12  C   UNL     1      -2.332  -4.670   3.553  1.00  0.00     0.027 A 
ATOM     13  C   UNL     1      -0.353  -2.650   3.329  1.00  0.00     0.017 A 
ATOM     14  C   UNL     1      -1.437  -4.403   4.585  1.00  0.00     0.045 A 
ATOM     15  C   UNL     1      -0.483  -3.430   4.475  1.00  0.00    -0.000 A 
ATOM     16  N   UNL     1      -1.359  -5.017   5.777  1.00  0.00    -0.361 N 
ATOM     17  C   UNL     1       0.235  -3.423   5.651  1.00  0.00     0.028 A 
ATOM     18  C   UNL     1      -0.338  -4.420   6.433  1.00  0.00     0.083 A 
ATOM     19  H   UNL     1      -1.959  -5.796   6.128  1.00  0.00     0.166 HD
ENDBRANCH   4  10
BRANCH   7  20
ATOM     20  N   UNL     1      -3.057  -0.669  -1.732  1.00  0.00    -0.178 NA
BRANCH  20  21
ATOM     21  N   UNL     1      -4.410  -1.013  -1.564  1.00  0.00    -0.323 N 
ATOM     22  H   UNL     1      -5.098  -0.710  -2.287  1.00  0.00     0.179 HD
ATOM     23  H   UNL     1      -4.779  -1.519  -0.733  1.00  0.00     0.179 HD
ENDBRANCH  20  21
ENDBRANCH   7  20
ENDBRANCH   1   3
BRANCH   1  24
ATOM     24  O   UNL     1       1.904   0.417  -1.810  1.00  0.00    -0.447 OA
BRANCH  24  25
ATOM     25  C   UNL     1       3.211   0.885  -2.143  1.00  0.00     0.175 C 
ATOM     26  C   UNL     1       3.996  -0.241  -2.824  1.00  0.00     0.053 C 
BRANCH  25  27
ATOM     27  C   UNL     1       3.103   2.101  -3.088  1.00  0.00     0.048 C 
BRANCH  27  28
ATOM     28  C   UNL     1       2.534   3.395  -2.453  1.00  0.00    -0.014 C 
ATOM     29  C   UNL     1       3.403   3.923  -1.304  1.00  0.00     0.007 C 
ATOM     30  C   UNL     1       1.070   3.258  -2.014  1.00  0.00     0.007 C 
ENDBRANCH  27  28
ENDBRANCH  25  27
ENDBRANCH  24  25
ENDBRANCH   1  24
TORSDOF 8


