REMARK SMILES Cc1ccc(-c2ccc([NH2+]CC(C)(C)F)c(C=O)c2)cc1
REMARK SMILES IDX 10 1 9 4 6 5 7 6 19 7 8 8 16 9 5 10 2 11 3 12 21 13 4 14
REMARK SMILES IDX 20 15 1 16 17 17 18 18 11 19 12 20 13 21 14 22 15 23
REMARK H PARENT 10 2 10 3
ROOT
ATOM      1  N   UNL     1       0.883   1.799   1.966  1.00  0.00    -0.311 N 
ATOM      2  H   UNL     1       0.228   1.979   2.759  1.00  0.00     0.352 HD
ATOM      3  H   UNL     1       1.766   1.440   2.399  1.00  0.00     0.352 HD
ENDROOT
BRANCH   1   4
ATOM      4  C   UNL     1       0.354   0.784   1.081  1.00  0.00     0.140 A 
ATOM      5  C   UNL     1      -0.565  -1.282  -0.624  1.00  0.00    -0.017 A 
ATOM      6  C   UNL     1       0.806  -1.098  -0.403  1.00  0.00     0.015 A 
ATOM      7  C   UNL     1      -1.476  -0.415  -0.001  1.00  0.00     0.026 A 
ATOM      8  C   UNL     1       1.257  -0.080   0.435  1.00  0.00     0.069 A 
ATOM      9  C   UNL     1      -1.042   0.630   0.834  1.00  0.00     0.076 A 
BRANCH   5  10
ATOM     10  C   UNL     1      -1.044  -2.372  -1.512  1.00  0.00    -0.018 A 
ATOM     11  C   UNL     1      -1.942  -4.440  -3.207  1.00  0.00    -0.051 A 
ATOM     12  C   UNL     1      -0.905  -4.675  -2.293  1.00  0.00     0.004 A 
ATOM     13  C   UNL     1      -2.544  -3.175  -3.254  1.00  0.00     0.004 A 
ATOM     14  C   UNL     1      -0.454  -3.648  -1.458  1.00  0.00     0.009 A 
ATOM     15  C   UNL     1      -2.096  -2.147  -2.419  1.00  0.00     0.009 A 
ATOM     16  C   UNL     1      -2.451  -5.552  -4.075  1.00  0.00     0.044 C 
ENDBRANCH   5  10
BRANCH   9  17
ATOM     17  C   UNL     1      -2.092   1.507   1.409  1.00  0.00     0.266 C 
ATOM     18  O   UNL     1      -1.845   2.661   1.843  1.00  0.00    -0.298 OA
ENDBRANCH   9  17
ENDBRANCH   1   4
BRANCH   1  19
ATOM     19  C   UNL     1       1.187   3.028   1.211  1.00  0.00     0.307 C 
BRANCH  19  20
ATOM     20  C   UNL     1       1.506   4.230   2.135  1.00  0.00     0.154 C 
ATOM     21  C   UNL     1       2.750   3.968   2.998  1.00  0.00     0.054 C 
ATOM     22  C   UNL     1       1.728   5.488   1.283  1.00  0.00     0.054 C 
ATOM     23  F   UNL     1       0.427   4.464   2.972  1.00  0.00    -0.238 F 
ENDBRANCH  19  20
ENDBRANCH   1  19
TORSDOF 5


