REMARK SMILES [H]/N=c1\c(Nc2ccc3c(c2)[nH+]nn3C)cccn1C(=O)OCc1ccccc1
REMARK SMILES IDX 3 1 4 2 16 3 17 4 18 5 19 6 2 7 1 8 5 9 6 11 7 12 11 13 8 14
REMARK SMILES IDX 10 15 9 16 12 17 14 18 13 19 15 21 20 22 21 23 22 24 23 25
REMARK SMILES IDX 24 26 25 27 29 28 26 29 28 30 27 31
REMARK H PARENT 5 10 12 20
ROOT
ATOM      1  C   UNL     1      -0.310  -0.484   0.639  1.00  0.00     0.158 A 
ATOM      2  C   UNL     1      -1.552  -0.571   1.320  1.00  0.00     0.082 A 
ATOM      3  C   UNL     1      -2.547  -1.407   0.815  1.00  0.00     0.031 A 
ATOM      4  C   UNL     1      -2.337  -2.106  -0.365  1.00  0.00     0.021 A 
ATOM      5  C   UNL     1      -1.127  -1.968  -1.039  1.00  0.00     0.100 A 
ATOM      6  N   UNL     1      -0.132  -1.165  -0.548  1.00  0.00    -0.235 N 
ENDROOT
BRANCH   1   7
ATOM      7  N   UNL     1       0.674   0.193   1.155  1.00  0.00    -0.282 NA
ATOM      8  H   UNL     1       0.626   0.702   2.065  1.00  0.00     0.189 HD
ENDBRANCH   1   7
BRANCH   2   9
ATOM      9  N   UNL     1      -1.810   0.154   2.532  1.00  0.00    -0.352 N 
ATOM     10  H   UNL     1      -2.130  -0.395   3.362  1.00  0.00     0.167 HD
BRANCH   9  11
ATOM     11  C   UNL     1      -1.849   1.591   2.608  1.00  0.00     0.043 A 
ATOM     12  C   UNL     1      -1.948   2.214   3.883  1.00  0.00     0.031 A 
ATOM     13  C   UNL     1      -1.811   2.394   1.438  1.00  0.00     0.084 A 
ATOM     14  C   UNL     1      -1.994   3.617   4.003  1.00  0.00     0.061 A 
ATOM     15  C   UNL     1      -1.857   3.774   1.604  1.00  0.00     0.197 A 
ATOM     16  C   UNL     1      -1.943   4.359   2.828  1.00  0.00     0.197 A 
ATOM     17  N   UNL     1      -1.842   4.746   0.676  1.00  0.00    -0.143 N 
ATOM     18  N   UNL     1      -1.975   5.690   2.638  1.00  0.00    -0.133 N 
ATOM     19  N   UNL     1      -1.917   5.904   1.326  1.00  0.00     0.088 NA
ATOM     20  H   UNL     1      -1.787   4.639  -0.361  1.00  0.00     0.342 HD
ATOM     21  C   UNL     1      -2.087   6.733   3.648  1.00  0.00     0.327 C 
ENDBRANCH   9  11
ENDBRANCH   2   9
BRANCH   6  22
ATOM     22  C   UNL     1       1.097  -1.072  -1.308  1.00  0.00     0.420 C 
ATOM     23  O   UNL     1       1.833  -0.050  -1.216  1.00  0.00    -0.223 OA
BRANCH  22  24
ATOM     24  O   UNL     1       1.460  -2.111  -2.173  1.00  0.00    -0.444 OA
BRANCH  24  25
ATOM     25  C   UNL     1       2.644  -2.080  -2.963  1.00  0.00     0.270 C 
BRANCH  25  26
ATOM     26  C   UNL     1       2.728  -3.339  -3.775  1.00  0.00    -0.011 A 
ATOM     27  C   UNL     1       3.370  -4.475  -3.256  1.00  0.00     0.007 A 
ATOM     28  C   UNL     1       2.106  -3.413  -5.032  1.00  0.00     0.007 A 
ATOM     29  C   UNL     1       3.413  -5.660  -3.998  1.00  0.00     0.000 A 
ATOM     30  C   UNL     1       2.151  -4.599  -5.771  1.00  0.00     0.000 A 
ATOM     31  C   UNL     1       2.807  -5.721  -5.256  1.00  0.00     0.000 A 
ENDBRANCH  25  26
ENDBRANCH  24  25
ENDBRANCH  22  24
ENDBRANCH   6  22
TORSDOF 7


