MODEL 1
REMARK VINA RESULT:      -4.0      0.000      0.000
REMARK SMILES CCC[C@H](C)/N=C(\O)N(c1ccc(C)cc1)c1ccc2cc[nH]c2c1O
REMARK SMILES IDX 7 1 8 2 6 4 4 5 5 6 3 7 2 8 1 9 9 10 10 11 11 12 16 13 12 14
REMARK SMILES IDX 15 15 13 16 14 17 17 18 18 19 25 20 19 21 24 22 20 23 23 24
REMARK SMILES IDX 21 25 22 26 26 28
REMARK H PARENT 8 3 23 27 26 29
ROOT
ATOM      1  C   UNL     1      46.641 132.010  20.850  1.00  0.00     0.294 C 
ENDROOT
BRANCH   1   2
ATOM      2  O   UNL     1      47.959 131.554  20.765  1.00  0.00    -0.480 OA
ATOM      3  H   UNL     1      48.306 130.808  21.356  1.00  0.00     0.296 HD
ENDBRANCH   1   2
BRANCH   1   4
ATOM      4  N   UNL     1      46.395 133.197  21.321  1.00  0.00    -0.232 NA
BRANCH   4   5
ATOM      5  C   UNL     1      47.332 133.995  22.112  1.00  0.00     0.108 C 
ATOM      6  C   UNL     1      48.703 133.307  22.173  1.00  0.00     0.033 C 
BRANCH   5   7
ATOM      7  C   UNL     1      47.421 135.419  21.529  1.00  0.00     0.027 C 
BRANCH   7   8
ATOM      8  C   UNL     1      48.862 135.937  21.374  1.00  0.00    -0.001 C 
ATOM      9  C   UNL     1      48.955 136.969  20.253  1.00  0.00     0.004 C 
ENDBRANCH   7   8
ENDBRANCH   5   7
ENDBRANCH   4   5
ENDBRANCH   1   4
BRANCH   1  10
ATOM     10  N   UNL     1      45.548 131.170  20.421  1.00  0.00    -0.261 N 
BRANCH  10  11
ATOM     11  C   UNL     1      45.194 131.092  19.022  1.00  0.00     0.051 A 
ATOM     12  C   UNL     1      45.977 130.340  18.129  1.00  0.00     0.027 A 
ATOM     13  C   UNL     1      44.064 131.771  18.534  1.00  0.00     0.027 A 
ATOM     14  C   UNL     1      45.633 130.264  16.776  1.00  0.00     0.005 A 
ATOM     15  C   UNL     1      43.722 131.695  17.181  1.00  0.00     0.005 A 
ATOM     16  C   UNL     1      44.511 130.953  16.291  1.00  0.00    -0.051 A 
ATOM     17  C   UNL     1      44.121 130.838  14.848  1.00  0.00     0.044 C 
ENDBRANCH  10  11
BRANCH  10  18
ATOM     18  C   UNL     1      44.870 130.334  21.378  1.00  0.00     0.095 A 
ATOM     19  C   UNL     1      45.381 129.044  21.675  1.00  0.00     0.031 A 
ATOM     20  C   UNL     1      43.688 130.786  22.016  1.00  0.00     0.164 A 
ATOM     21  C   UNL     1      44.727 128.204  22.590  1.00  0.00     0.013 A 
ATOM     22  C   UNL     1      43.059 129.920  22.922  1.00  0.00     0.090 A 
ATOM     23  C   UNL     1      43.567 128.677  23.193  1.00  0.00     0.003 A 
ATOM     24  N   UNL     1      41.937 130.135  23.634  1.00  0.00    -0.358 N 
ATOM     25  C   UNL     1      42.736 128.078  24.114  1.00  0.00     0.028 A 
ATOM     26  C   UNL     1      41.737 129.013  24.362  1.00  0.00     0.083 A 
ATOM     27  H   UNL     1      41.332 130.985  23.637  1.00  0.00     0.166 HD
BRANCH  20  28
ATOM     28  O   UNL     1      43.185 132.060  21.747  1.00  0.00    -0.504 OA
ATOM     29  H   UNL     1      42.690 132.605  22.440  1.00  0.00     0.293 HD
ENDBRANCH  20  28
ENDBRANCH  10  18
ENDBRANCH   1  10
TORSDOF 9
ENDMDL
MODEL 2
REMARK VINA RESULT:      -4.0      1.622      5.431
REMARK SMILES CCC[C@H](C)/N=C(\O)N(c1ccc(C)cc1)c1ccc2cc[nH]c2c1O
REMARK SMILES IDX 7 1 8 2 6 4 4 5 5 6 3 7 2 8 1 9 9 10 10 11 11 12 16 13 12 14
REMARK SMILES IDX 15 15 13 16 14 17 17 18 18 19 25 20 19 21 24 22 20 23 23 24
REMARK SMILES IDX 21 25 22 26 26 28
REMARK H PARENT 8 3 23 27 26 29
ROOT
ATOM      1  C   UNL     1      46.033 132.741  20.813  1.00  0.00     0.294 C 
ENDROOT
BRANCH   1   2
ATOM      2  O   UNL     1      45.643 133.965  20.261  1.00  0.00    -0.480 OA
ATOM      3  H   UNL     1      44.779 134.421  20.528  1.00  0.00     0.296 HD
ENDBRANCH   1   2
BRANCH   1   4
ATOM      4  N   UNL     1      46.979 132.703  21.704  1.00  0.00    -0.232 NA
BRANCH   4   5
ATOM      5  C   UNL     1      47.467 133.859  22.457  1.00  0.00     0.108 C 
ATOM      6  C   UNL     1      46.742 133.966  23.805  1.00  0.00     0.033 C 
BRANCH   5   7
ATOM      7  C   UNL     1      48.996 133.761  22.624  1.00  0.00     0.027 C 
BRANCH   7   8
ATOM      8  C   UNL     1      49.706 135.126  22.646  1.00  0.00    -0.001 C 
ATOM      9  C   UNL     1      50.825 135.144  23.685  1.00  0.00     0.004 C 
ENDBRANCH   7   8
ENDBRANCH   5   7
ENDBRANCH   4   5
ENDBRANCH   1   4
BRANCH   1  10
ATOM     10  N   UNL     1      45.393 131.516  20.397  1.00  0.00    -0.261 N 
BRANCH  10  11
ATOM     11  C   UNL     1      44.767 130.653  21.372  1.00  0.00     0.051 A 
ATOM     12  C   UNL     1      43.637 131.085  22.087  1.00  0.00     0.027 A 
ATOM     13  C   UNL     1      45.284 129.370  21.624  1.00  0.00     0.027 A 
ATOM     14  C   UNL     1      43.031 130.249  23.029  1.00  0.00     0.005 A 
ATOM     15  C   UNL     1      44.679 128.535  22.567  1.00  0.00     0.005 A 
ATOM     16  C   UNL     1      43.557 128.974  23.286  1.00  0.00    -0.051 A 
ATOM     17  C   UNL     1      42.884 128.062  24.268  1.00  0.00     0.044 C 
ENDBRANCH  10  11
BRANCH  10  18
ATOM     18  C   UNL     1      45.294 131.200  18.994  1.00  0.00     0.095 A 
ATOM     19  C   UNL     1      46.234 130.317  18.404  1.00  0.00     0.031 A 
ATOM     20  C   UNL     1      44.273 131.777  18.199  1.00  0.00     0.164 A 
ATOM     21  C   UNL     1      46.170 130.009  17.035  1.00  0.00     0.013 A 
ATOM     22  C   UNL     1      44.241 131.450  16.836  1.00  0.00     0.090 A 
ATOM     23  C   UNL     1      45.159 130.597  16.283  1.00  0.00     0.003 A 
ATOM     24  N   UNL     1      43.373 131.876  15.900  1.00  0.00    -0.358 N 
ATOM     25  C   UNL     1      44.862 130.475  14.943  1.00  0.00     0.028 A 
ATOM     26  C   UNL     1      43.750 131.284  14.744  1.00  0.00     0.083 A 
ATOM     27  H   UNL     1      42.568 132.530  16.021  1.00  0.00     0.166 HD
BRANCH  20  28
ATOM     28  O   UNL     1      43.332 132.633  18.772  1.00  0.00    -0.504 OA
ATOM     29  H   UNL     1      43.099 133.532  18.369  1.00  0.00     0.293 HD
ENDBRANCH  20  28
ENDBRANCH  10  18
ENDBRANCH   1  10
TORSDOF 9
ENDMDL
MODEL 3
REMARK VINA RESULT:      -3.9      1.052      1.585
REMARK SMILES CCC[C@H](C)/N=C(\O)N(c1ccc(C)cc1)c1ccc2cc[nH]c2c1O
REMARK SMILES IDX 7 1 8 2 6 4 4 5 5 6 3 7 2 8 1 9 9 10 10 11 11 12 16 13 12 14
REMARK SMILES IDX 15 15 13 16 14 17 17 18 18 19 25 20 19 21 24 22 20 23 23 24
REMARK SMILES IDX 21 25 22 26 26 28
REMARK H PARENT 8 3 23 27 26 29
ROOT
ATOM      1  C   UNL     1      45.811 132.697  21.007  1.00  0.00     0.294 C 
ENDROOT
BRANCH   1   2
ATOM      2  O   UNL     1      45.822 133.877  20.258  1.00  0.00    -0.480 OA
ATOM      3  H   UNL     1      46.160 133.902  19.303  1.00  0.00     0.296 HD
ENDBRANCH   1   2
BRANCH   1   4
ATOM      4  N   UNL     1      46.458 132.638  22.133  1.00  0.00    -0.232 NA
BRANCH   4   5
ATOM      5  C   UNL     1      46.517 133.713  23.122  1.00  0.00     0.108 C 
ATOM      6  C   UNL     1      45.762 133.312  24.397  1.00  0.00     0.033 C 
BRANCH   5   7
ATOM      7  C   UNL     1      47.988 134.076  23.408  1.00  0.00     0.027 C 
BRANCH   7   8
ATOM      8  C   UNL     1      48.790 134.449  22.148  1.00  0.00    -0.001 C 
ATOM      9  C   UNL     1      48.242 135.722  21.507  1.00  0.00     0.004 C 
ENDBRANCH   7   8
ENDBRANCH   5   7
ENDBRANCH   4   5
ENDBRANCH   1   4
BRANCH   1  10
ATOM     10  N   UNL     1      45.088 131.540  20.535  1.00  0.00    -0.261 N 
BRANCH  10  11
ATOM     11  C   UNL     1      44.980 131.274  19.119  1.00  0.00     0.051 A 
ATOM     12  C   UNL     1      43.912 131.801  18.373  1.00  0.00     0.027 A 
ATOM     13  C   UNL     1      45.940 130.480  18.469  1.00  0.00     0.027 A 
ATOM     14  C   UNL     1      43.809 131.544  17.003  1.00  0.00     0.005 A 
ATOM     15  C   UNL     1      45.837 130.222  17.099  1.00  0.00     0.005 A 
ATOM     16  C   UNL     1      44.763 130.741  16.360  1.00  0.00    -0.051 A 
ATOM     17  C   UNL     1      44.674 130.498  14.883  1.00  0.00     0.044 C 
ENDBRANCH  10  11
BRANCH  10  18
ATOM     18  C   UNL     1      44.552 130.596  21.483  1.00  0.00     0.095 A 
ATOM     19  C   UNL     1      45.263 129.401  21.765  1.00  0.00     0.031 A 
ATOM     20  C   UNL     1      43.314 130.847  22.126  1.00  0.00     0.164 A 
ATOM     21  C   UNL     1      44.752 128.457  22.671  1.00  0.00     0.013 A 
ATOM     22  C   UNL     1      42.833 129.882  23.021  1.00  0.00     0.090 A 
ATOM     23  C   UNL     1      43.533 128.733  23.279  1.00  0.00     0.003 A 
ATOM     24  N   UNL     1      41.693 129.907  23.736  1.00  0.00    -0.358 N 
ATOM     25  C   UNL     1      42.809 127.999  24.193  1.00  0.00     0.028 A 
ATOM     26  C   UNL     1      41.675 128.759  24.451  1.00  0.00     0.083 A 
ATOM     27  H   UNL     1      40.960 130.650  23.749  1.00  0.00     0.166 HD
BRANCH  20  28
ATOM     28  O   UNL     1      42.615 132.027  21.871  1.00  0.00    -0.504 OA
ATOM     29  H   UNL     1      42.874 132.663  21.127  1.00  0.00     0.293 HD
ENDBRANCH  20  28
ENDBRANCH  10  18
ENDBRANCH   1  10
TORSDOF 9
ENDMDL
MODEL 4
REMARK VINA RESULT:      -3.8      0.819      1.624
REMARK SMILES CCC[C@H](C)/N=C(\O)N(c1ccc(C)cc1)c1ccc2cc[nH]c2c1O
REMARK SMILES IDX 7 1 8 2 6 4 4 5 5 6 3 7 2 8 1 9 9 10 10 11 11 12 16 13 12 14
REMARK SMILES IDX 15 15 13 16 14 17 17 18 18 19 25 20 19 21 24 22 20 23 23 24
REMARK SMILES IDX 21 25 22 26 26 28
REMARK H PARENT 8 3 23 27 26 29
ROOT
ATOM      1  C   UNL     1      46.770 131.954  20.880  1.00  0.00     0.294 C 
ENDROOT
BRANCH   1   2
ATOM      2  O   UNL     1      48.028 131.420  20.589  1.00  0.00    -0.480 OA
ATOM      3  H   UNL     1      48.175 130.794  19.807  1.00  0.00     0.296 HD
ENDBRANCH   1   2
BRANCH   1   4
ATOM      4  N   UNL     1      46.677 133.098  21.492  1.00  0.00    -0.232 NA
BRANCH   4   5
ATOM      5  C   UNL     1      47.804 133.980  21.794  1.00  0.00     0.108 C 
ATOM      6  C   UNL     1      47.356 135.448  21.777  1.00  0.00     0.033 C 
BRANCH   5   7
ATOM      7  C   UNL     1      48.430 133.578  23.144  1.00  0.00     0.027 C 
BRANCH   7   8
ATOM      8  C   UNL     1      49.124 134.740  23.876  1.00  0.00    -0.001 C 
ATOM      9  C   UNL     1      50.642 134.582  23.839  1.00  0.00     0.004 C 
ENDBRANCH   7   8
ENDBRANCH   5   7
ENDBRANCH   4   5
ENDBRANCH   1   4
BRANCH   1  10
ATOM     10  N   UNL     1      45.571 131.242  20.508  1.00  0.00    -0.261 N 
BRANCH  10  11
ATOM     11  C   UNL     1      45.099 131.271  19.142  1.00  0.00     0.051 A 
ATOM     12  C   UNL     1      43.833 131.798  18.836  1.00  0.00     0.027 A 
ATOM     13  C   UNL     1      45.898 130.767  18.102  1.00  0.00     0.027 A 
ATOM     14  C   UNL     1      43.378 131.827  17.515  1.00  0.00     0.005 A 
ATOM     15  C   UNL     1      45.442 130.794  16.781  1.00  0.00     0.005 A 
ATOM     16  C   UNL     1      44.174 131.312  16.481  1.00  0.00    -0.051 A 
ATOM     17  C   UNL     1      43.702 131.379  15.059  1.00  0.00     0.044 C 
ENDBRANCH  10  11
BRANCH  10  18
ATOM     18  C   UNL     1      44.894 130.422  21.481  1.00  0.00     0.095 A 
ATOM     19  C   UNL     1      45.324 129.088  21.699  1.00  0.00     0.031 A 
ATOM     20  C   UNL     1      43.794 130.936  22.212  1.00  0.00     0.164 A 
ATOM     21  C   UNL     1      44.669 128.264  22.629  1.00  0.00     0.013 A 
ATOM     22  C   UNL     1      43.162 130.084  23.129  1.00  0.00     0.090 A 
ATOM     23  C   UNL     1      43.590 128.798  23.324  1.00  0.00     0.003 A 
ATOM     24  N   UNL     1      42.108 130.353  23.922  1.00  0.00    -0.358 N 
ATOM     25  C   UNL     1      42.778 128.227  24.279  1.00  0.00     0.028 A 
ATOM     26  C   UNL     1      41.871 129.222  24.625  1.00  0.00     0.083 A 
ATOM     27  H   UNL     1      41.571 131.245  23.995  1.00  0.00     0.166 HD
BRANCH  20  28
ATOM     28  O   UNL     1      43.373 132.252  22.020  1.00  0.00    -0.504 OA
ATOM     29  H   UNL     1      43.951 132.946  21.563  1.00  0.00     0.293 HD
ENDBRANCH  20  28
ENDBRANCH  10  18
ENDBRANCH   1  10
TORSDOF 9
ENDMDL
MODEL 5
REMARK VINA RESULT:      -3.7      1.406      2.114
REMARK SMILES CCC[C@H](C)/N=C(\O)N(c1ccc(C)cc1)c1ccc2cc[nH]c2c1O
REMARK SMILES IDX 7 1 8 2 6 4 4 5 5 6 3 7 2 8 1 9 9 10 10 11 11 12 16 13 12 14
REMARK SMILES IDX 15 15 13 16 14 17 17 18 18 19 25 20 19 21 24 22 20 23 23 24
REMARK SMILES IDX 21 25 22 26 26 28
REMARK H PARENT 8 3 23 27 26 29
ROOT
ATOM      1  C   UNL     1      45.910 132.964  20.973  1.00  0.00     0.294 C 
ENDROOT
BRANCH   1   2
ATOM      2  O   UNL     1      46.023 134.104  20.173  1.00  0.00    -0.480 OA
ATOM      3  H   UNL     1      46.792 134.229  19.526  1.00  0.00     0.296 HD
ENDBRANCH   1   2
BRANCH   1   4
ATOM      4  N   UNL     1      46.587 132.880  22.081  1.00  0.00    -0.232 NA
BRANCH   4   5
ATOM      5  C   UNL     1      47.266 133.999  22.734  1.00  0.00     0.108 C 
ATOM      6  C   UNL     1      46.990 133.985  24.244  1.00  0.00     0.033 C 
BRANCH   5   7
ATOM      7  C   UNL     1      48.773 133.948  22.417  1.00  0.00     0.027 C 
BRANCH   7   8
ATOM      8  C   UNL     1      49.417 135.335  22.243  1.00  0.00    -0.001 C 
ATOM      9  C   UNL     1      48.776 136.095  21.084  1.00  0.00     0.004 C 
ENDBRANCH   7   8
ENDBRANCH   5   7
ENDBRANCH   4   5
ENDBRANCH   1   4
BRANCH   1  10
ATOM     10  N   UNL     1      45.049 131.875  20.577  1.00  0.00    -0.261 N 
BRANCH  10  11
ATOM     11  C   UNL     1      44.931 131.509  19.184  1.00  0.00     0.051 A 
ATOM     12  C   UNL     1      43.793 131.876  18.445  1.00  0.00     0.027 A 
ATOM     13  C   UNL     1      45.949 130.775  18.552  1.00  0.00     0.027 A 
ATOM     14  C   UNL     1      43.680 131.521  17.097  1.00  0.00     0.005 A 
ATOM     15  C   UNL     1      45.834 130.420  17.205  1.00  0.00     0.005 A 
ATOM     16  C   UNL     1      44.693 130.779  16.473  1.00  0.00    -0.051 A 
ATOM     17  C   UNL     1      44.589 130.434  15.017  1.00  0.00     0.044 C 
ENDBRANCH  10  11
BRANCH  10  18
ATOM     18  C   UNL     1      44.380 131.090  21.583  1.00  0.00     0.095 A 
ATOM     19  C   UNL     1      43.278 131.639  22.288  1.00  0.00     0.031 A 
ATOM     20  C   UNL     1      44.823 129.778  21.883  1.00  0.00     0.164 A 
ATOM     21  C   UNL     1      42.621 130.900  23.285  1.00  0.00     0.013 A 
ATOM     22  C   UNL     1      44.147 129.070  22.886  1.00  0.00     0.090 A 
ATOM     23  C   UNL     1      43.086 129.618  23.557  1.00  0.00     0.003 A 
ATOM     24  N   UNL     1      44.393 127.825  23.334  1.00  0.00    -0.358 N 
ATOM     25  C   UNL     1      42.640 128.686  24.467  1.00  0.00     0.028 A 
ATOM     26  C   UNL     1      43.476 127.588  24.299  1.00  0.00     0.083 A 
ATOM     27  H   UNL     1      45.134 127.163  23.016  1.00  0.00     0.166 HD
BRANCH  20  28
ATOM     28  O   UNL     1      45.894 129.219  21.184  1.00  0.00    -0.504 OA
ATOM     29  H   UNL     1      46.073 128.223  21.169  1.00  0.00     0.293 HD
ENDBRANCH  20  28
ENDBRANCH  10  18
ENDBRANCH   1  10
TORSDOF 9
ENDMDL
MODEL 6
REMARK VINA RESULT:      -3.7      1.091      1.544
REMARK SMILES CCC[C@H](C)/N=C(\O)N(c1ccc(C)cc1)c1ccc2cc[nH]c2c1O
REMARK SMILES IDX 7 1 8 2 6 4 4 5 5 6 3 7 2 8 1 9 9 10 10 11 11 12 16 13 12 14
REMARK SMILES IDX 15 15 13 16 14 17 17 18 18 19 25 20 19 21 24 22 20 23 23 24
REMARK SMILES IDX 21 25 22 26 26 28
REMARK H PARENT 8 3 23 27 26 29
ROOT
ATOM      1  C   UNL     1      45.858 132.787  20.749  1.00  0.00     0.294 C 
ENDROOT
BRANCH   1   2
ATOM      2  O   UNL     1      45.566 134.023  20.164  1.00  0.00    -0.480 OA
ATOM      3  H   UNL     1      45.006 134.720  20.639  1.00  0.00     0.296 HD
ENDBRANCH   1   2
BRANCH   1   4
ATOM      4  N   UNL     1      46.765 132.707  21.678  1.00  0.00    -0.232 NA
BRANCH   4   5
ATOM      5  C   UNL     1      47.968 133.536  21.747  1.00  0.00     0.108 C 
ATOM      6  C   UNL     1      47.594 135.024  21.760  1.00  0.00     0.033 C 
BRANCH   5   7
ATOM      7  C   UNL     1      48.805 133.135  22.977  1.00  0.00     0.027 C 
BRANCH   7   8
ATOM      8  C   UNL     1      49.279 134.332  23.821  1.00  0.00    -0.001 C 
ATOM      9  C   UNL     1      50.798 134.475  23.762  1.00  0.00     0.004 C 
ENDBRANCH   7   8
ENDBRANCH   5   7
ENDBRANCH   4   5
ENDBRANCH   1   4
BRANCH   1  10
ATOM     10  N   UNL     1      45.161 131.596  20.326  1.00  0.00    -0.261 N 
BRANCH  10  11
ATOM     11  C   UNL     1      45.063 131.268  18.922  1.00  0.00     0.051 A 
ATOM     12  C   UNL     1      46.009 130.422  18.319  1.00  0.00     0.027 A 
ATOM     13  C   UNL     1      44.022 131.796  18.138  1.00  0.00     0.027 A 
ATOM     14  C   UNL     1      45.913 130.105  16.961  1.00  0.00     0.005 A 
ATOM     15  C   UNL     1      43.927 131.480  16.780  1.00  0.00     0.005 A 
ATOM     16  C   UNL     1      44.880 130.643  16.180  1.00  0.00    -0.051 A 
ATOM     17  C   UNL     1      44.754 130.271  14.733  1.00  0.00     0.044 C 
ENDBRANCH  10  11
BRANCH  10  18
ATOM     18  C   UNL     1      44.643 130.681  21.312  1.00  0.00     0.095 A 
ATOM     19  C   UNL     1      45.380 129.515  21.646  1.00  0.00     0.031 A 
ATOM     20  C   UNL     1      43.398 130.932  21.939  1.00  0.00     0.164 A 
ATOM     21  C   UNL     1      44.887 128.600  22.590  1.00  0.00     0.013 A 
ATOM     22  C   UNL     1      42.935 129.995  22.874  1.00  0.00     0.090 A 
ATOM     23  C   UNL     1      43.659 128.874  23.182  1.00  0.00     0.003 A 
ATOM     24  N   UNL     1      41.792 130.025  23.584  1.00  0.00    -0.358 N 
ATOM     25  C   UNL     1      42.949 128.163  24.124  1.00  0.00     0.028 A 
ATOM     26  C   UNL     1      41.797 128.908  24.347  1.00  0.00     0.083 A 
ATOM     27  H   UNL     1      41.042 130.751  23.563  1.00  0.00     0.166 HD
BRANCH  20  28
ATOM     28  O   UNL     1      42.673 132.084  21.633  1.00  0.00    -0.504 OA
ATOM     29  H   UNL     1      42.936 132.706  20.879  1.00  0.00     0.293 HD
ENDBRANCH  20  28
ENDBRANCH  10  18
ENDBRANCH   1  10
TORSDOF 9
ENDMDL
MODEL 7
REMARK VINA RESULT:      -3.5      3.170      7.034
REMARK SMILES CCC[C@H](C)/N=C(\O)N(c1ccc(C)cc1)c1ccc2cc[nH]c2c1O
REMARK SMILES IDX 7 1 8 2 6 4 4 5 5 6 3 7 2 8 1 9 9 10 10 11 11 12 16 13 12 14
REMARK SMILES IDX 15 15 13 16 14 17 17 18 18 19 25 20 19 21 24 22 20 23 23 24
REMARK SMILES IDX 21 25 22 26 26 28
REMARK H PARENT 8 3 23 27 26 29
ROOT
ATOM      1  C   UNL     1      45.893 130.164  20.068  1.00  0.00     0.294 C 
ENDROOT
BRANCH   1   2
ATOM      2  O   UNL     1      47.103 130.681  20.539  1.00  0.00    -0.480 OA
ATOM      3  H   UNL     1      47.441 130.484  21.473  1.00  0.00     0.296 HD
ENDBRANCH   1   2
BRANCH   1   4
ATOM      4  N   UNL     1      45.508 128.977  20.435  1.00  0.00    -0.232 NA
BRANCH   4   5
ATOM      5  C   UNL     1      45.544 128.474  21.808  1.00  0.00     0.108 C 
ATOM      6  C   UNL     1      44.467 129.160  22.659  1.00  0.00     0.033 C 
BRANCH   5   7
ATOM      7  C   UNL     1      45.391 126.940  21.802  1.00  0.00     0.027 C 
BRANCH   7   8
ATOM      8  C   UNL     1      46.611 126.193  22.368  1.00  0.00    -0.001 C 
ATOM      9  C   UNL     1      46.236 125.394  23.614  1.00  0.00     0.004 C 
ENDBRANCH   7   8
ENDBRANCH   5   7
ENDBRANCH   4   5
ENDBRANCH   1   4
BRANCH   1  10
ATOM     10  N   UNL     1      45.069 130.938  19.171  1.00  0.00    -0.261 N 
BRANCH  10  11
ATOM     11  C   UNL     1      43.897 131.623  19.666  1.00  0.00     0.051 A 
ATOM     12  C   UNL     1      42.940 132.137  18.773  1.00  0.00     0.027 A 
ATOM     13  C   UNL     1      43.700 131.791  21.047  1.00  0.00     0.027 A 
ATOM     14  C   UNL     1      41.807 132.799  19.253  1.00  0.00     0.005 A 
ATOM     15  C   UNL     1      42.567 132.454  21.526  1.00  0.00     0.005 A 
ATOM     16  C   UNL     1      41.620 132.974  20.632  1.00  0.00    -0.051 A 
ATOM     17  C   UNL     1      40.384 133.650  21.147  1.00  0.00     0.044 C 
ENDBRANCH  10  11
BRANCH  10  18
ATOM     18  C   UNL     1      45.468 131.105  17.796  1.00  0.00     0.095 A 
ATOM     19  C   UNL     1      45.252 132.348  17.146  1.00  0.00     0.031 A 
ATOM     20  C   UNL     1      46.064 130.033  17.086  1.00  0.00     0.164 A 
ATOM     21  C   UNL     1      45.616 132.529  15.802  1.00  0.00     0.013 A 
ATOM     22  C   UNL     1      46.411 130.249  15.745  1.00  0.00     0.090 A 
ATOM     23  C   UNL     1      46.192 131.455  15.133  1.00  0.00     0.003 A 
ATOM     24  N   UNL     1      46.980 129.383  14.885  1.00  0.00    -0.358 N 
ATOM     25  C   UNL     1      46.639 131.353  13.835  1.00  0.00     0.028 A 
ATOM     26  C   UNL     1      47.120 130.053  13.719  1.00  0.00     0.083 A 
ATOM     27  H   UNL     1      47.262 128.394  15.063  1.00  0.00     0.166 HD
BRANCH  20  28
ATOM     28  O   UNL     1      46.299 128.813  17.719  1.00  0.00    -0.504 OA
ATOM     29  H   UNL     1      47.228 128.426  17.824  1.00  0.00     0.293 HD
ENDBRANCH  20  28
ENDBRANCH  10  18
ENDBRANCH   1  10
TORSDOF 9
ENDMDL
MODEL 8
REMARK VINA RESULT:      -3.3      1.676      2.231
REMARK SMILES CCC[C@H](C)/N=C(\O)N(c1ccc(C)cc1)c1ccc2cc[nH]c2c1O
REMARK SMILES IDX 7 1 8 2 6 4 4 5 5 6 3 7 2 8 1 9 9 10 10 11 11 12 16 13 12 14
REMARK SMILES IDX 15 15 13 16 14 17 17 18 18 19 25 20 19 21 24 22 20 23 23 24
REMARK SMILES IDX 21 25 22 26 26 28
REMARK H PARENT 8 3 23 27 26 29
ROOT
ATOM      1  C   UNL     1      45.900 132.941  21.024  1.00  0.00     0.294 C 
ENDROOT
BRANCH   1   2
ATOM      2  O   UNL     1      46.015 134.090  20.238  1.00  0.00    -0.480 OA
ATOM      3  H   UNL     1      46.574 134.107  19.394  1.00  0.00     0.296 HD
ENDBRANCH   1   2
BRANCH   1   4
ATOM      4  N   UNL     1      46.589 132.832  22.121  1.00  0.00    -0.232 NA
BRANCH   4   5
ATOM      5  C   UNL     1      47.308 133.929  22.769  1.00  0.00     0.108 C 
ATOM      6  C   UNL     1      46.917 134.025  24.250  1.00  0.00     0.033 C 
BRANCH   5   7
ATOM      7  C   UNL     1      48.825 133.739  22.579  1.00  0.00     0.027 C 
BRANCH   7   8
ATOM      8  C   UNL     1      49.679 134.480  23.624  1.00  0.00    -0.001 C 
ATOM      9  C   UNL     1      50.815 133.595  24.130  1.00  0.00     0.004 C 
ENDBRANCH   7   8
ENDBRANCH   5   7
ENDBRANCH   4   5
ENDBRANCH   1   4
BRANCH   1  10
ATOM     10  N   UNL     1      45.021 131.868  20.623  1.00  0.00    -0.261 N 
BRANCH  10  11
ATOM     11  C   UNL     1      44.903 131.503  19.230  1.00  0.00     0.051 A 
ATOM     12  C   UNL     1      45.922 130.774  18.594  1.00  0.00     0.027 A 
ATOM     13  C   UNL     1      43.769 131.878  18.489  1.00  0.00     0.027 A 
ATOM     14  C   UNL     1      45.807 130.421  17.247  1.00  0.00     0.005 A 
ATOM     15  C   UNL     1      43.654 131.526  17.141  1.00  0.00     0.005 A 
ATOM     16  C   UNL     1      44.678 130.807  16.508  1.00  0.00    -0.051 A 
ATOM     17  C   UNL     1      44.537 130.394  15.073  1.00  0.00     0.044 C 
ENDBRANCH  10  11
BRANCH  10  18
ATOM     18  C   UNL     1      44.331 131.095  21.626  1.00  0.00     0.095 A 
ATOM     19  C   UNL     1      43.234 131.663  22.322  1.00  0.00     0.031 A 
ATOM     20  C   UNL     1      44.751 129.776  21.929  1.00  0.00     0.164 A 
ATOM     21  C   UNL     1      42.558 130.937  23.316  1.00  0.00     0.013 A 
ATOM     22  C   UNL     1      44.056 129.081  22.929  1.00  0.00     0.090 A 
ATOM     23  C   UNL     1      43.000 129.648  23.593  1.00  0.00     0.003 A 
ATOM     24  N   UNL     1      44.278 127.833  23.381  1.00  0.00    -0.358 N 
ATOM     25  C   UNL     1      42.532 128.724  24.501  1.00  0.00     0.028 A 
ATOM     26  C   UNL     1      43.351 127.612  24.340  1.00  0.00     0.083 A 
ATOM     27  H   UNL     1      45.011 127.158  23.068  1.00  0.00     0.166 HD
BRANCH  20  28
ATOM     28  O   UNL     1      45.817 129.199  21.239  1.00  0.00    -0.504 OA
ATOM     29  H   UNL     1      45.948 129.319  20.243  1.00  0.00     0.293 HD
ENDBRANCH  20  28
ENDBRANCH  10  18
ENDBRANCH   1  10
TORSDOF 9
ENDMDL
MODEL 9
REMARK VINA RESULT:      -3.3      1.751      5.660
REMARK SMILES CCC[C@H](C)/N=C(\O)N(c1ccc(C)cc1)c1ccc2cc[nH]c2c1O
REMARK SMILES IDX 7 1 8 2 6 4 4 5 5 6 3 7 2 8 1 9 9 10 10 11 11 12 16 13 12 14
REMARK SMILES IDX 15 15 13 16 14 17 17 18 18 19 25 20 19 21 24 22 20 23 23 24
REMARK SMILES IDX 21 25 22 26 26 28
REMARK H PARENT 8 3 23 27 26 29
ROOT
ATOM      1  C   UNL     1      45.987 132.968  20.952  1.00  0.00     0.294 C 
ENDROOT
BRANCH   1   2
ATOM      2  O   UNL     1      45.739 134.229  20.402  1.00  0.00    -0.480 OA
ATOM      3  H   UNL     1      44.799 134.592  20.301  1.00  0.00     0.296 HD
ENDBRANCH   1   2
BRANCH   1   4
ATOM      4  N   UNL     1      46.966 132.808  21.793  1.00  0.00    -0.232 NA
BRANCH   4   5
ATOM      5  C   UNL     1      47.574 133.879  22.583  1.00  0.00     0.108 C 
ATOM      6  C   UNL     1      46.852 134.028  23.929  1.00  0.00     0.033 C 
BRANCH   5   7
ATOM      7  C   UNL     1      49.081 133.603  22.758  1.00  0.00     0.027 C 
BRANCH   7   8
ATOM      8  C   UNL     1      49.764 134.522  23.786  1.00  0.00    -0.001 C 
ATOM      9  C   UNL     1      51.151 133.999  24.152  1.00  0.00     0.004 C 
ENDBRANCH   7   8
ENDBRANCH   5   7
ENDBRANCH   4   5
ENDBRANCH   1   4
BRANCH   1  10
ATOM     10  N   UNL     1      45.164 131.839  20.589  1.00  0.00    -0.261 N 
BRANCH  10  11
ATOM     11  C   UNL     1      44.423 131.122  21.601  1.00  0.00     0.051 A 
ATOM     12  C   UNL     1      43.306 131.710  22.220  1.00  0.00     0.027 A 
ATOM     13  C   UNL     1      44.812 129.827  21.986  1.00  0.00     0.027 A 
ATOM     14  C   UNL     1      42.589 131.016  23.197  1.00  0.00     0.005 A 
ATOM     15  C   UNL     1      44.095 129.133  22.964  1.00  0.00     0.005 A 
ATOM     16  C   UNL     1      42.987 129.728  23.586  1.00  0.00    -0.051 A 
ATOM     17  C   UNL     1      42.194 128.968  24.607  1.00  0.00     0.044 C 
ENDBRANCH  10  11
BRANCH  10  18
ATOM     18  C   UNL     1      45.007 131.484  19.201  1.00  0.00     0.095 A 
ATOM     19  C   UNL     1      43.848 131.899  18.495  1.00  0.00     0.031 A 
ATOM     20  C   UNL     1      45.995 130.713  18.541  1.00  0.00     0.164 A 
ATOM     21  C   UNL     1      43.664 131.551  17.148  1.00  0.00     0.013 A 
ATOM     22  C   UNL     1      45.776 130.380  17.197  1.00  0.00     0.090 A 
ATOM     23  C   UNL     1      44.650 130.788  16.532  1.00  0.00     0.003 A 
ATOM     24  N   UNL     1      46.569 129.662  16.380  1.00  0.00    -0.358 N 
ATOM     25  C   UNL     1      44.730 130.311  15.243  1.00  0.00     0.028 A 
ATOM     26  C   UNL     1      45.933 129.617  15.187  1.00  0.00     0.083 A 
ATOM     27  H   UNL     1      47.489 129.221  16.602  1.00  0.00     0.166 HD
BRANCH  20  28
ATOM     28  O   UNL     1      47.147 130.314  19.219  1.00  0.00    -0.504 OA
ATOM     29  H   UNL     1      48.016 130.111  18.741  1.00  0.00     0.293 HD
ENDBRANCH  20  28
ENDBRANCH  10  18
ENDBRANCH   1  10
TORSDOF 9
ENDMDL


