REMARK SMILES NN[C@H]1CCC[C@H]2C=c3ccccc3=C[C@]21c1cc(F)cc(F)c1O
REMARK SMILES IDX 3 1 4 2 5 3 6 4 7 5 8 6 9 7 10 8 11 9 12 10 13 11 14 12
REMARK SMILES IDX 15 13 16 14 2 15 1 17 17 20 18 21 24 22 19 23 22 24 21 25
REMARK SMILES IDX 20 26 23 27 25 28
REMARK H PARENT 2 16 1 18 1 19 25 29
ROOT
ATOM      1  C   UNL     1       2.057   0.416  -0.161  1.00  0.00     0.084 C 
ATOM      2  C   UNL     1       3.086  -0.571  -0.786  1.00  0.00     0.022 C 
ATOM      3  C   UNL     1       2.471  -1.570  -1.785  1.00  0.00     0.002 C 
ATOM      4  C   UNL     1       1.187  -1.030  -2.412  1.00  0.00     0.009 C 
ATOM      5  C   UNL     1       0.088  -0.760  -1.353  1.00  0.00     0.028 C 
ATOM      6  C   UNL     1      -0.816  -1.962  -1.225  1.00  0.00    -0.014 C 
ATOM      7  C   UNL     1      -0.694  -2.852  -0.229  1.00  0.00    -0.022 A 
ATOM      8  C   UNL     1      -1.454  -4.036  -0.260  1.00  0.00     0.008 A 
ATOM      9  C   UNL     1      -1.298  -5.005   0.733  1.00  0.00     0.001 A 
ATOM     10  C   UNL     1      -0.385  -4.806   1.767  1.00  0.00     0.001 A 
ATOM     11  C   UNL     1       0.362  -3.627   1.825  1.00  0.00     0.008 A 
ATOM     12  C   UNL     1       0.203  -2.630   0.844  1.00  0.00    -0.022 A 
ATOM     13  C   UNL     1       0.882  -1.475   0.959  1.00  0.00    -0.004 C 
ATOM     14  C   UNL     1       0.650  -0.271   0.040  1.00  0.00     0.041 C 
ENDROOT
BRANCH   1  15
ATOM     15  N   UNL     1       2.586   0.959   1.109  1.00  0.00    -0.256 NA
ATOM     16  H   UNL     1       1.867   1.597   1.522  1.00  0.00     0.141 HD
BRANCH  15  17
ATOM     17  N   UNL     1       3.720   1.747   0.831  1.00  0.00    -0.271 NA
ATOM     18  H   UNL     1       4.551   1.115   0.871  1.00  0.00     0.137 HD
ATOM     19  H   UNL     1       3.851   2.420   1.622  1.00  0.00     0.137 HD
ENDBRANCH  15  17
ENDBRANCH   1  15
BRANCH  14  20
ATOM     20  C   UNL     1      -0.377   0.717   0.675  1.00  0.00     0.012 A 
ATOM     21  C   UNL     1      -1.051   0.403   1.885  1.00  0.00     0.048 A 
ATOM     22  C   UNL     1      -0.690   1.964   0.057  1.00  0.00     0.155 A 
ATOM     23  C   UNL     1      -1.964   1.287   2.460  1.00  0.00     0.126 A 
ATOM     24  C   UNL     1      -1.610   2.843   0.654  1.00  0.00     0.168 A 
ATOM     25  C   UNL     1      -2.240   2.505   1.849  1.00  0.00     0.082 A 
ATOM     26  F   UNL     1      -2.586   0.958   3.619  1.00  0.00    -0.207 F 
ATOM     27  F   UNL     1      -1.903   4.032   0.071  1.00  0.00    -0.203 F 
BRANCH  22  28
ATOM     28  O   UNL     1      -0.101   2.331  -1.153  1.00  0.00    -0.505 OA
ATOM     29  H   UNL     1      -0.309   3.208  -1.615  1.00  0.00     0.293 HD
ENDBRANCH  22  28
ENDBRANCH  14  20
TORSDOF 4


