REMARK SMILES Cc1n[nH+]c(-c2cc3ccc(F)cc3[nH]2)o1
REMARK SMILES IDX 6 1 7 2 8 3 9 4 10 5 11 6 12 7 13 8 14 9 15 10 5 12 2 13
REMARK SMILES IDX 3 14 16 15 4 16 1 17
REMARK H PARENT 15 11 4 18
ROOT
ATOM      1  C   UNL     1       0.681   0.232  -0.977  1.00  0.00     0.156 A 
ATOM      2  C   UNL     1       1.569  -0.782  -0.622  1.00  0.00     0.047 A 
ATOM      3  C   UNL     1       0.873  -1.562   0.276  1.00  0.00     0.001 A 
ATOM      4  C   UNL     1       1.254  -2.713   0.963  1.00  0.00     0.013 A 
ATOM      5  C   UNL     1       0.314  -3.302   1.829  1.00  0.00     0.040 A 
ATOM      6  C   UNL     1      -0.970  -2.732   1.986  1.00  0.00     0.125 A 
ATOM      7  F   UNL     1      -1.866  -3.310   2.823  1.00  0.00    -0.207 F 
ATOM      8  C   UNL     1      -1.324  -1.569   1.277  1.00  0.00     0.066 A 
ATOM      9  C   UNL     1      -0.372  -1.008   0.427  1.00  0.00     0.049 A 
ATOM     10  N   UNL     1      -0.503   0.090  -0.334  1.00  0.00    -0.346 N 
ATOM     11  H   UNL     1      -1.343   0.706  -0.412  1.00  0.00     0.167 HD
ENDROOT
BRANCH   1  12
ATOM     12  C   UNL     1       0.962   1.324  -1.919  1.00  0.00     0.422 A 
ATOM     13  C   UNL     1       0.746   3.032  -3.093  1.00  0.00     0.262 A 
ATOM     14  N   UNL     1       1.994   2.580  -3.329  1.00  0.00     0.035 NA
ATOM     15  O   UNL     1       0.107   2.267  -2.236  1.00  0.00    -0.381 OA
ATOM     16  N   UNL     1       2.122   1.500  -2.578  1.00  0.00    -0.061 N 
ATOM     17  C   UNL     1       0.153   4.230  -3.753  1.00  0.00     0.118 C 
ATOM     18  H   UNL     1       2.981   0.909  -2.530  1.00  0.00     0.495 HD
ENDBRANCH   1  12
TORSDOF 1


