REMARK SMILES Cc1n[nH+]c(-c2cc3c(N)cc(F)c(F)c3[nH]2)o1
REMARK SMILES IDX 6 1 7 2 8 3 9 4 11 5 12 6 13 7 14 8 15 9 16 10 17 11 5 13
REMARK SMILES IDX 2 14 3 15 18 16 4 17 1 18 10 20
REMARK H PARENT 17 12 4 19 10 21 10 22
ROOT
ATOM      1  C   UNL     1       0.257  -0.091  -0.797  1.00  0.00     0.156 A 
ATOM      2  C   UNL     1       0.688   0.747   0.227  1.00  0.00     0.049 A 
ATOM      3  C   UNL     1       0.613   2.023  -0.296  1.00  0.00     0.027 A 
ATOM      4  C   UNL     1       0.916   3.270   0.265  1.00  0.00     0.044 A 
ATOM      5  C   UNL     1       0.730   4.412  -0.541  1.00  0.00     0.068 A 
ATOM      6  C   UNL     1       0.255   4.288  -1.865  1.00  0.00     0.163 A 
ATOM      7  F   UNL     1       0.082   5.398  -2.624  1.00  0.00    -0.204 F 
ATOM      8  C   UNL     1      -0.041   3.021  -2.399  1.00  0.00     0.182 A 
ATOM      9  F   UNL     1      -0.498   2.889  -3.669  1.00  0.00    -0.201 F 
ATOM     10  C   UNL     1       0.151   1.906  -1.584  1.00  0.00     0.088 A 
ATOM     11  N   UNL     1      -0.070   0.619  -1.902  1.00  0.00    -0.344 N 
ATOM     12  H   UNL     1      -0.422   0.252  -2.814  1.00  0.00     0.167 HD
ENDROOT
BRANCH   1  13
ATOM     13  C   UNL     1       0.168  -1.555  -0.698  1.00  0.00     0.422 A 
ATOM     14  C   UNL     1       0.262  -3.499   0.047  1.00  0.00     0.262 A 
ATOM     15  N   UNL     1      -0.187  -3.612  -1.220  1.00  0.00     0.035 NA
ATOM     16  O   UNL     1       0.486  -2.245   0.371  1.00  0.00    -0.381 OA
ATOM     17  N   UNL     1      -0.246  -2.374  -1.681  1.00  0.00    -0.061 N 
ATOM     18  C   UNL     1       0.508  -4.658   0.951  1.00  0.00     0.118 C 
ATOM     19  H   UNL     1      -0.559  -2.115  -2.642  1.00  0.00     0.495 HD
ENDBRANCH   1  13
BRANCH   4  20
ATOM     20  N   UNL     1       1.398   3.394   1.607  1.00  0.00    -0.398 N 
ATOM     21  H   UNL     1       1.618   4.333   2.006  1.00  0.00     0.156 HD
ATOM     22  H   UNL     1       1.540   2.556   2.212  1.00  0.00     0.156 HD
ENDBRANCH   4  20
TORSDOF 2


