REMARK SMILES N[NH2+][C@@H]1CCC[C@@H]2OC=C[C@@]21c1nc2ccccc2[nH]1
REMARK SMILES IDX 3 1 4 2 5 3 6 4 7 5 8 6 9 7 10 8 11 9 2 10 1 13 12 16 13 17
REMARK SMILES IDX 20 18 14 19 19 20 15 21 18 22 16 23 17 24
REMARK H PARENT 2 11 2 12 1 14 1 15 20 25
ROOT
ATOM      1  C   UNL     1      -1.626  -0.486   1.784  1.00  0.00     0.223 C 
ATOM      2  C   UNL     1      -2.980  -0.904   2.415  1.00  0.00     0.068 C 
ATOM      3  C   UNL     1      -4.210  -0.242   1.758  1.00  0.00     0.010 C 
ATOM      4  C   UNL     1      -3.875   0.609   0.527  1.00  0.00     0.047 C 
ATOM      5  C   UNL     1      -2.944  -0.129  -0.442  1.00  0.00     0.196 C 
ATOM      6  O   UNL     1      -3.592  -1.278  -0.971  1.00  0.00    -0.497 OA
ATOM      7  C   UNL     1      -2.831  -2.413  -0.777  1.00  0.00     0.184 C 
ATOM      8  C   UNL     1      -1.723  -2.147  -0.120  1.00  0.00     0.036 C 
ATOM      9  C   UNL     1      -1.643  -0.684   0.226  1.00  0.00     0.139 C 
ENDROOT
BRANCH   1  10
ATOM     10  N   UNL     1      -0.501  -1.216   2.415  1.00  0.00    -0.268 N 
ATOM     11  H   UNL     1       0.372  -1.083   1.853  1.00  0.00     0.370 HD
ATOM     12  H   UNL     1      -0.701  -2.243   2.482  1.00  0.00     0.370 HD
BRANCH  10  13
ATOM     13  N   UNL     1      -0.266  -0.698   3.708  1.00  0.00    -0.183 NA
ATOM     14  H   UNL     1       0.702  -0.971   3.998  1.00  0.00     0.183 HD
ATOM     15  H   UNL     1      -0.908  -1.176   4.383  1.00  0.00     0.183 HD
ENDBRANCH  10  13
ENDBRANCH   1  10
BRANCH   9  16
ATOM     16  C   UNL     1      -0.425  -0.051  -0.430  1.00  0.00     0.127 A 
ATOM     17  N   UNL     1       0.168   1.078   0.048  1.00  0.00    -0.232 NA
ATOM     18  N   UNL     1       0.102  -0.475  -1.609  1.00  0.00    -0.341 N 
ATOM     19  C   UNL     1       1.118   1.332  -0.869  1.00  0.00     0.089 A 
ATOM     20  C   UNL     1       1.078   0.403  -1.863  1.00  0.00     0.066 A 
ATOM     21  C   UNL     1       2.032   2.383  -0.880  1.00  0.00     0.030 A 
ATOM     22  C   UNL     1       1.944   0.445  -2.953  1.00  0.00     0.028 A 
ATOM     23  C   UNL     1       2.929   2.456  -1.964  1.00  0.00     0.002 A 
ATOM     24  C   UNL     1       2.885   1.491  -2.996  1.00  0.00     0.002 A 
ATOM     25  H   UNL     1      -0.195  -1.284  -2.201  1.00  0.00     0.168 HD
ENDBRANCH   9  16
TORSDOF 3


