MODEL 1
REMARK VINA RESULT:      -6.2      0.000      0.000
REMARK SMILES O=C1c2cc(-c3ccc4[nH]ccc4c3)c[nH+]c2C/[N+]1=C(\O)OCCOCC(F)(F)F
REMARK SMILES IDX 23 1 22 2 20 3 21 4 19 6 2 7 18 8 3 9 17 10 4 11 16 12 5 13
REMARK SMILES IDX 15 14 1 15 6 17 7 18 14 19 8 20 13 21 9 22 12 23 10 24 11 25
REMARK SMILES IDX 24 27 25 28 26 29 27 30 28 31 29 32 30 33
REMARK H PARENT 21 5 16 16 10 26
ROOT
ATOM      1  C   UNL     1      43.825 128.491  23.974  1.00  0.00     0.268 C 
ENDROOT
BRANCH   1   2
ATOM      2  O   UNL     1      44.582 129.697  23.970  1.00  0.00    -0.412 OA
BRANCH   2   3
ATOM      3  C   UNL     1      44.100 130.885  23.412  1.00  0.00     0.556 C 
BRANCH   3   4
ATOM      4  O   UNL     1      43.666 131.907  24.260  1.00  0.00    -0.430 OA
ATOM      5  H   UNL     1      42.796 131.865  24.774  1.00  0.00     0.303 HD
ENDBRANCH   3   4
BRANCH   3   6
ATOM      6  N   UNL     1      44.064 131.026  22.113  1.00  0.00    -0.078 N 
ATOM      7  C   UNL     1      45.113 130.689  21.199  1.00  0.00     0.432 C 
ATOM      8  C   UNL     1      42.932 131.562  21.339  1.00  0.00     0.477 C 
ATOM      9  C   UNL     1      44.697 130.994  19.852  1.00  0.00     0.165 A 
ATOM     10  C   UNL     1      43.429 131.508  19.924  1.00  0.00     0.264 A 
ATOM     11  C   UNL     1      45.354 130.853  18.636  1.00  0.00     0.041 A 
ATOM     12  N   UNL     1      42.767 131.903  18.808  1.00  0.00    -0.208 N 
ATOM     13  C   UNL     1      44.679 131.261  17.466  1.00  0.00     0.047 A 
ATOM     14  C   UNL     1      43.368 131.791  17.585  1.00  0.00     0.315 A 
ATOM     15  O   UNL     1      46.228 130.201  21.524  1.00  0.00    -0.214 OA
ATOM     16  H   UNL     1      41.801 132.292  18.881  1.00  0.00     0.453 HD
BRANCH  13  17
ATOM     17  C   UNL     1      45.325 131.133  16.136  1.00  0.00    -0.012 A 
ATOM     18  C   UNL     1      44.749 131.755  14.994  1.00  0.00     0.011 A 
ATOM     19  C   UNL     1      46.519 130.386  15.993  1.00  0.00     0.019 A 
ATOM     20  C   UNL     1      45.349 131.634  13.728  1.00  0.00     0.027 A 
ATOM     21  C   UNL     1      47.081 130.284  14.724  1.00  0.00    -0.000 A 
ATOM     22  C   UNL     1      46.519 130.886  13.631  1.00  0.00     0.045 A 
ATOM     23  C   UNL     1      48.214 129.629  14.295  1.00  0.00     0.028 A 
ATOM     24  N   UNL     1      47.244 130.647  12.526  1.00  0.00    -0.361 N 
ATOM     25  C   UNL     1      48.282 129.878  12.927  1.00  0.00     0.083 A 
ATOM     26  H   UNL     1      47.050 130.981  11.556  1.00  0.00     0.166 HD
ENDBRANCH  13  17
ENDBRANCH   3   6
ENDBRANCH   2   3
ENDBRANCH   1   2
BRANCH   1  27
ATOM     27  C   UNL     1      44.762 127.298  23.844  1.00  0.00     0.202 C 
BRANCH  27  28
ATOM     28  O   UNL     1      45.323 127.283  22.548  1.00  0.00    -0.368 OA
BRANCH  28  29
ATOM     29  C   UNL     1      45.854 126.002  22.281  1.00  0.00     0.275 C 
BRANCH  29  30
ATOM     30  C   UNL     1      45.045 124.953  23.037  1.00  0.00     0.411 C 
ATOM     31  F   UNL     1      45.589 123.696  22.831  1.00  0.00    -0.168 F 
ATOM     32  F   UNL     1      45.063 125.238  24.390  1.00  0.00    -0.168 F 
ATOM     33  F   UNL     1      43.734 124.959  22.591  1.00  0.00    -0.168 F 
ENDBRANCH  29  30
ENDBRANCH  28  29
ENDBRANCH  27  28
ENDBRANCH   1  27
TORSDOF 9
ENDMDL
MODEL 2
REMARK VINA RESULT:      -5.2      1.337      1.538
REMARK SMILES O=C1c2cc(-c3ccc4[nH]ccc4c3)c[nH+]c2C/[N+]1=C(\O)OCCOCC(F)(F)F
REMARK SMILES IDX 23 1 22 2 20 3 21 4 19 6 2 7 18 8 3 9 17 10 4 11 16 12 5 13
REMARK SMILES IDX 15 14 1 15 6 17 7 18 14 19 8 20 13 21 9 22 12 23 10 24 11 25
REMARK SMILES IDX 24 27 25 28 26 29 27 30 28 31 29 32 30 33
REMARK H PARENT 21 5 16 16 10 26
ROOT
ATOM      1  C   UNL     1      43.011 127.809  24.459  1.00  0.00     0.268 C 
ENDROOT
BRANCH   1   2
ATOM      2  O   UNL     1      43.275 129.207  24.480  1.00  0.00    -0.412 OA
BRANCH   2   3
ATOM      3  C   UNL     1      44.399 129.770  23.869  1.00  0.00     0.556 C 
BRANCH   3   4
ATOM      4  O   UNL     1      45.564 129.949  24.622  1.00  0.00    -0.430 OA
ATOM      5  H   UNL     1      46.173 130.748  24.513  1.00  0.00     0.303 HD
ENDBRANCH   3   4
BRANCH   3   6
ATOM      6  N   UNL     1      44.351 130.118  22.611  1.00  0.00    -0.078 N 
ATOM      7  C   UNL     1      45.322 129.797  21.609  1.00  0.00     0.432 C 
ATOM      8  C   UNL     1      43.284 130.912  21.979  1.00  0.00     0.477 C 
ATOM      9  C   UNL     1      44.920 130.361  20.346  1.00  0.00     0.165 A 
ATOM     10  C   UNL     1      43.735 131.018  20.552  1.00  0.00     0.264 A 
ATOM     11  C   UNL     1      45.523 130.331  19.094  1.00  0.00     0.041 A 
ATOM     12  N   UNL     1      43.106 131.667  19.541  1.00  0.00    -0.208 N 
ATOM     13  C   UNL     1      44.881 131.002  18.031  1.00  0.00     0.047 A 
ATOM     14  C   UNL     1      43.656 131.673  18.289  1.00  0.00     0.315 A 
ATOM     15  O   UNL     1      46.368 129.122  21.806  1.00  0.00    -0.214 OA
ATOM     16  H   UNL     1      42.203 132.162  19.716  1.00  0.00     0.453 HD
BRANCH  13  17
ATOM     17  C   UNL     1      45.472 131.003  16.671  1.00  0.00    -0.012 A 
ATOM     18  C   UNL     1      45.259 132.103  15.795  1.00  0.00     0.011 A 
ATOM     19  C   UNL     1      46.248 129.904  16.230  1.00  0.00     0.019 A 
ATOM     20  C   UNL     1      45.808 132.111  14.501  1.00  0.00     0.027 A 
ATOM     21  C   UNL     1      46.771 129.945  14.941  1.00  0.00    -0.000 A 
ATOM     22  C   UNL     1      46.561 131.009  14.106  1.00  0.00     0.045 A 
ATOM     23  C   UNL     1      47.544 129.033  14.258  1.00  0.00     0.028 A 
ATOM     24  N   UNL     1      47.167 130.817  12.923  1.00  0.00    -0.361 N 
ATOM     25  C   UNL     1      47.770 129.609  13.011  1.00  0.00     0.083 A 
ATOM     26  H   UNL     1      47.173 131.462  12.102  1.00  0.00     0.166 HD
ENDBRANCH  13  17
ENDBRANCH   3   6
ENDBRANCH   2   3
ENDBRANCH   1   2
BRANCH   1  27
ATOM     27  C   UNL     1      43.741 127.168  23.287  1.00  0.00     0.202 C 
BRANCH  27  28
ATOM     28  O   UNL     1      43.000 126.057  22.827  1.00  0.00    -0.368 OA
BRANCH  28  29
ATOM     29  C   UNL     1      43.550 124.872  23.363  1.00  0.00     0.275 C 
BRANCH  29  30
ATOM     30  C   UNL     1      43.520 123.777  22.301  1.00  0.00     0.411 C 
ATOM     31  F   UNL     1      42.960 124.265  21.133  1.00  0.00    -0.168 F 
ATOM     32  F   UNL     1      44.808 123.347  22.040  1.00  0.00    -0.168 F 
ATOM     33  F   UNL     1      42.768 122.705  22.753  1.00  0.00    -0.168 F 
ENDBRANCH  29  30
ENDBRANCH  28  29
ENDBRANCH  27  28
ENDBRANCH   1  27
TORSDOF 9
ENDMDL
MODEL 3
REMARK VINA RESULT:      -4.4      2.218      2.748
REMARK SMILES O=C1c2cc(-c3ccc4[nH]ccc4c3)c[nH+]c2C/[N+]1=C(\O)OCCOCC(F)(F)F
REMARK SMILES IDX 23 1 22 2 20 3 21 4 19 6 2 7 18 8 3 9 17 10 4 11 16 12 5 13
REMARK SMILES IDX 15 14 1 15 6 17 7 18 14 19 8 20 13 21 9 22 12 23 10 24 11 25
REMARK SMILES IDX 24 27 25 28 26 29 27 30 28 31 29 32 30 33
REMARK H PARENT 21 5 16 16 10 26
ROOT
ATOM      1  C   UNL     1      41.292 130.026  23.491  1.00  0.00     0.268 C 
ENDROOT
BRANCH   1   2
ATOM      2  O   UNL     1      42.707 130.010  23.337  1.00  0.00    -0.412 OA
BRANCH   2   3
ATOM      3  C   UNL     1      43.421 131.102  22.836  1.00  0.00     0.556 C 
BRANCH   3   4
ATOM      4  O   UNL     1      43.845 132.100  23.720  1.00  0.00    -0.430 OA
ATOM      5  H   UNL     1      43.355 132.324  24.575  1.00  0.00     0.303 HD
ENDBRANCH   3   4
BRANCH   3   6
ATOM      6  N   UNL     1      43.684 131.179  21.559  1.00  0.00    -0.078 N 
ATOM      7  C   UNL     1      44.733 130.488  20.871  1.00  0.00     0.432 C 
ATOM      8  C   UNL     1      42.949 131.994  20.577  1.00  0.00     0.477 C 
ATOM      9  C   UNL     1      44.704 130.833  19.472  1.00  0.00     0.165 A 
ATOM     10  C   UNL     1      43.671 131.714  19.292  1.00  0.00     0.264 A 
ATOM     11  C   UNL     1      45.509 130.433  18.412  1.00  0.00     0.041 A 
ATOM     12  N   UNL     1      43.396 132.234  18.069  1.00  0.00    -0.208 N 
ATOM     13  C   UNL     1      45.236 130.965  17.134  1.00  0.00     0.047 A 
ATOM     14  C   UNL     1      44.158 131.878  16.991  1.00  0.00     0.315 A 
ATOM     15  O   UNL     1      45.554 129.699  21.410  1.00  0.00    -0.214 OA
ATOM     16  H   UNL     1      42.604 132.904  17.950  1.00  0.00     0.453 HD
BRANCH  13  17
ATOM     17  C   UNL     1      46.056 130.574  15.961  1.00  0.00    -0.012 A 
ATOM     18  C   UNL     1      46.409 129.213  15.753  1.00  0.00     0.011 A 
ATOM     19  C   UNL     1      46.500 131.556  15.043  1.00  0.00     0.019 A 
ATOM     20  C   UNL     1      47.193 128.832  14.649  1.00  0.00     0.027 A 
ATOM     21  C   UNL     1      47.278 131.142  13.965  1.00  0.00    -0.000 A 
ATOM     22  C   UNL     1      47.612 129.829  13.773  1.00  0.00     0.045 A 
ATOM     23  C   UNL     1      47.842 131.865  12.937  1.00  0.00     0.028 A 
ATOM     24  N   UNL     1      48.362 129.682  12.669  1.00  0.00    -0.361 N 
ATOM     25  C   UNL     1      48.506 130.925  12.154  1.00  0.00     0.083 A 
ATOM     26  H   UNL     1      48.755 128.795  12.284  1.00  0.00     0.166 HD
ENDBRANCH  13  17
ENDBRANCH   3   6
ENDBRANCH   2   3
ENDBRANCH   1   2
BRANCH   1  27
ATOM     27  C   UNL     1      40.808 128.648  23.922  1.00  0.00     0.202 C 
BRANCH  27  28
ATOM     28  O   UNL     1      41.844 127.708  23.730  1.00  0.00    -0.368 OA
BRANCH  28  29
ATOM     29  C   UNL     1      41.525 126.512  24.411  1.00  0.00     0.275 C 
BRANCH  29  30
ATOM     30  C   UNL     1      40.328 125.852  23.736  1.00  0.00     0.411 C 
ATOM     31  F   UNL     1      39.265 125.780  24.621  1.00  0.00    -0.168 F 
ATOM     32  F   UNL     1      39.948 126.594  22.632  1.00  0.00    -0.168 F 
ATOM     33  F   UNL     1      40.665 124.572  23.327  1.00  0.00    -0.168 F 
ENDBRANCH  29  30
ENDBRANCH  28  29
ENDBRANCH  27  28
ENDBRANCH   1  27
TORSDOF 9
ENDMDL
MODEL 4
REMARK VINA RESULT:      -3.8      3.557      4.646
REMARK SMILES O=C1c2cc(-c3ccc4[nH]ccc4c3)c[nH+]c2C/[N+]1=C(\O)OCCOCC(F)(F)F
REMARK SMILES IDX 23 1 22 2 20 3 21 4 19 6 2 7 18 8 3 9 17 10 4 11 16 12 5 13
REMARK SMILES IDX 15 14 1 15 6 17 7 18 14 19 8 20 13 21 9 22 12 23 10 24 11 25
REMARK SMILES IDX 24 27 25 28 26 29 27 30 28 31 29 32 30 33
REMARK H PARENT 21 5 16 16 10 26
ROOT
ATOM      1  C   UNL     1      44.059 133.406  24.218  1.00  0.00     0.268 C 
ENDROOT
BRANCH   1   2
ATOM      2  O   UNL     1      44.353 132.071  23.823  1.00  0.00    -0.412 OA
BRANCH   2   3
ATOM      3  C   UNL     1      43.542 131.351  22.942  1.00  0.00     0.556 C 
BRANCH   3   4
ATOM      4  O   UNL     1      42.474 130.608  23.455  1.00  0.00    -0.430 OA
ATOM      5  H   UNL     1      42.307 130.492  24.445  1.00  0.00     0.303 HD
ENDBRANCH   3   4
BRANCH   3   6
ATOM      6  N   UNL     1      43.786 131.381  21.659  1.00  0.00    -0.078 N 
ATOM      7  C   UNL     1      44.804 130.641  20.977  1.00  0.00     0.432 C 
ATOM      8  C   UNL     1      43.058 132.186  20.664  1.00  0.00     0.477 C 
ATOM      9  C   UNL     1      44.762 130.943  19.568  1.00  0.00     0.165 A 
ATOM     10  C   UNL     1      43.750 131.847  19.377  1.00  0.00     0.264 A 
ATOM     11  C   UNL     1      45.538 130.489  18.509  1.00  0.00     0.041 A 
ATOM     12  N   UNL     1      43.469 132.337  18.143  1.00  0.00    -0.208 N 
ATOM     13  C   UNL     1      45.259 130.990  17.219  1.00  0.00     0.047 A 
ATOM     14  C   UNL     1      44.204 131.927  17.065  1.00  0.00     0.315 A 
ATOM     15  O   UNL     1      45.612 129.846  21.527  1.00  0.00    -0.214 OA
ATOM     16  H   UNL     1      42.694 133.024  18.015  1.00  0.00     0.453 HD
BRANCH  13  17
ATOM     17  C   UNL     1      46.049 130.540  16.047  1.00  0.00    -0.012 A 
ATOM     18  C   UNL     1      46.575 129.220  15.997  1.00  0.00     0.011 A 
ATOM     19  C   UNL     1      46.292 131.426  14.969  1.00  0.00     0.019 A 
ATOM     20  C   UNL     1      47.332 128.786  14.895  1.00  0.00     0.027 A 
ATOM     21  C   UNL     1      47.050 130.963  13.897  1.00  0.00    -0.000 A 
ATOM     22  C   UNL     1      47.551 129.690  13.859  1.00  0.00     0.045 A 
ATOM     23  C   UNL     1      47.441 131.594  12.737  1.00  0.00     0.028 A 
ATOM     24  N   UNL     1      48.241 129.481  12.726  1.00  0.00    -0.361 N 
ATOM     25  C   UNL     1      48.177 130.642  12.036  1.00  0.00     0.083 A 
ATOM     26  H   UNL     1      48.729 128.605  12.435  1.00  0.00     0.166 HD
ENDBRANCH  13  17
ENDBRANCH   3   6
ENDBRANCH   2   3
ENDBRANCH   1   2
BRANCH   1  27
ATOM     27  C   UNL     1      45.344 134.116  24.623  1.00  0.00     0.202 C 
BRANCH  27  28
ATOM     28  O   UNL     1      46.212 134.181  23.512  1.00  0.00    -0.368 OA
BRANCH  28  29
ATOM     29  C   UNL     1      47.433 133.548  23.832  1.00  0.00     0.275 C 
BRANCH  29  30
ATOM     30  C   UNL     1      48.443 133.807  22.718  1.00  0.00     0.411 C 
ATOM     31  F   UNL     1      48.138 133.032  21.613  1.00  0.00    -0.168 F 
ATOM     32  F   UNL     1      48.406 135.142  22.359  1.00  0.00    -0.168 F 
ATOM     33  F   UNL     1      49.718 133.492  23.158  1.00  0.00    -0.168 F 
ENDBRANCH  29  30
ENDBRANCH  28  29
ENDBRANCH  27  28
ENDBRANCH   1  27
TORSDOF 9
ENDMDL
MODEL 5
REMARK VINA RESULT:      -3.6      1.247      1.589
REMARK SMILES O=C1c2cc(-c3ccc4[nH]ccc4c3)c[nH+]c2C/[N+]1=C(\O)OCCOCC(F)(F)F
REMARK SMILES IDX 23 1 22 2 20 3 21 4 19 6 2 7 18 8 3 9 17 10 4 11 16 12 5 13
REMARK SMILES IDX 15 14 1 15 6 17 7 18 14 19 8 20 13 21 9 22 12 23 10 24 11 25
REMARK SMILES IDX 24 27 25 28 26 29 27 30 28 31 29 32 30 33
REMARK H PARENT 21 5 16 16 10 26
ROOT
ATOM      1  C   UNL     1      44.351 127.959  22.968  1.00  0.00     0.268 C 
ENDROOT
BRANCH   1   2
ATOM      2  O   UNL     1      44.364 129.152  23.744  1.00  0.00    -0.412 OA
BRANCH   2   3
ATOM      3  C   UNL     1      44.048 130.402  23.205  1.00  0.00     0.556 C 
BRANCH   3   4
ATOM      4  O   UNL     1      43.590 131.413  24.056  1.00  0.00    -0.430 OA
ATOM      5  H   UNL     1      44.129 131.763  24.837  1.00  0.00     0.303 HD
ENDBRANCH   3   4
BRANCH   3   6
ATOM      6  N   UNL     1      44.184 130.613  21.923  1.00  0.00    -0.078 N 
ATOM      7  C   UNL     1      45.147 129.992  21.064  1.00  0.00     0.432 C 
ATOM      8  C   UNL     1      43.371 131.534  21.112  1.00  0.00     0.477 C 
ATOM      9  C   UNL     1      44.986 130.484  19.719  1.00  0.00     0.165 A 
ATOM     10  C   UNL     1      43.956 131.388  19.738  1.00  0.00     0.264 A 
ATOM     11  C   UNL     1      45.674 130.194  18.547  1.00  0.00     0.041 A 
ATOM     12  N   UNL     1      43.570 132.037  18.611  1.00  0.00    -0.208 N 
ATOM     13  C   UNL     1      45.285 130.862  17.366  1.00  0.00     0.047 A 
ATOM     14  C   UNL     1      44.215 131.792  17.430  1.00  0.00     0.315 A 
ATOM     15  O   UNL     1      46.003 129.143  21.431  1.00  0.00    -0.214 OA
ATOM     16  H   UNL     1      42.782 132.722  18.643  1.00  0.00     0.453 HD
BRANCH  13  17
ATOM     17  C   UNL     1      45.978 130.592  16.083  1.00  0.00    -0.012 A 
ATOM     18  C   UNL     1      46.129 129.258  15.613  1.00  0.00     0.011 A 
ATOM     19  C   UNL     1      46.500 131.662  15.316  1.00  0.00     0.019 A 
ATOM     20  C   UNL     1      46.790 128.991  14.402  1.00  0.00     0.027 A 
ATOM     21  C   UNL     1      47.153 131.358  14.125  1.00  0.00    -0.000 A 
ATOM     22  C   UNL     1      47.293 130.071  13.682  1.00  0.00     0.045 A 
ATOM     23  C   UNL     1      47.752 132.180  13.196  1.00  0.00     0.028 A 
ATOM     24  N   UNL     1      47.952 130.036  12.513  1.00  0.00    -0.361 N 
ATOM     25  C   UNL     1      48.236 131.323  12.211  1.00  0.00     0.083 A 
ATOM     26  H   UNL     1      48.199 129.192  11.950  1.00  0.00     0.166 HD
ENDBRANCH  13  17
ENDBRANCH   3   6
ENDBRANCH   2   3
ENDBRANCH   1   2
BRANCH   1  27
ATOM     27  C   UNL     1      44.460 126.749  23.886  1.00  0.00     0.202 C 
BRANCH  27  28
ATOM     28  O   UNL     1      45.816 126.535  24.217  1.00  0.00    -0.368 OA
BRANCH  28  29
ATOM     29  C   UNL     1      46.526 126.145  23.061  1.00  0.00     0.275 C 
BRANCH  29  30
ATOM     30  C   UNL     1      47.150 124.772  23.291  1.00  0.00     0.411 C 
ATOM     31  F   UNL     1      48.491 124.798  22.949  1.00  0.00    -0.168 F 
ATOM     32  F   UNL     1      47.028 124.424  24.624  1.00  0.00    -0.168 F 
ATOM     33  F   UNL     1      46.502 123.826  22.514  1.00  0.00    -0.168 F 
ENDBRANCH  29  30
ENDBRANCH  28  29
ENDBRANCH  27  28
ENDBRANCH   1  27
TORSDOF 9
ENDMDL
MODEL 6
REMARK VINA RESULT:      -3.6      1.069      1.376
REMARK SMILES O=C1c2cc(-c3ccc4[nH]ccc4c3)c[nH+]c2C/[N+]1=C(\O)OCCOCC(F)(F)F
REMARK SMILES IDX 23 1 22 2 20 3 21 4 19 6 2 7 18 8 3 9 17 10 4 11 16 12 5 13
REMARK SMILES IDX 15 14 1 15 6 17 7 18 14 19 8 20 13 21 9 22 12 23 10 24 11 25
REMARK SMILES IDX 24 27 25 28 26 29 27 30 28 31 29 32 30 33
REMARK H PARENT 21 5 16 16 10 26
ROOT
ATOM      1  C   UNL     1      43.567 129.204  23.582  1.00  0.00     0.268 C 
ENDROOT
BRANCH   1   2
ATOM      2  O   UNL     1      42.977 130.499  23.564  1.00  0.00    -0.412 OA
BRANCH   2   3
ATOM      3  C   UNL     1      43.571 131.588  22.920  1.00  0.00     0.556 C 
BRANCH   3   4
ATOM      4  O   UNL     1      44.012 132.672  23.685  1.00  0.00    -0.430 OA
ATOM      5  H   UNL     1      44.758 133.288  23.390  1.00  0.00     0.303 HD
ENDBRANCH   3   4
BRANCH   3   6
ATOM      6  N   UNL     1      43.710 131.580  21.621  1.00  0.00    -0.078 N 
ATOM      7  C   UNL     1      44.949 131.535  20.905  1.00  0.00     0.432 C 
ATOM      8  C   UNL     1      42.613 131.617  20.639  1.00  0.00     0.477 C 
ATOM      9  C   UNL     1      44.691 131.545  19.487  1.00  0.00     0.165 A 
ATOM     10  C   UNL     1      43.331 131.598  19.322  1.00  0.00     0.264 A 
ATOM     11  C   UNL     1      45.552 131.520  18.397  1.00  0.00     0.041 A 
ATOM     12  N   UNL     1      42.774 131.632  18.085  1.00  0.00    -0.208 N 
ATOM     13  C   UNL     1      44.988 131.555  17.104  1.00  0.00     0.047 A 
ATOM     14  C   UNL     1      43.576 131.613  16.977  1.00  0.00     0.315 A 
ATOM     15  O   UNL     1      46.091 131.493  21.437  1.00  0.00    -0.214 OA
ATOM     16  H   UNL     1      41.736 131.671  17.978  1.00  0.00     0.453 HD
BRANCH  13  17
ATOM     17  C   UNL     1      45.855 131.527  15.900  1.00  0.00    -0.012 A 
ATOM     18  C   UNL     1      46.295 132.741  15.303  1.00  0.00     0.011 A 
ATOM     19  C   UNL     1      46.247 130.291  15.333  1.00  0.00     0.019 A 
ATOM     20  C   UNL     1      47.110 132.726  14.157  1.00  0.00     0.027 A 
ATOM     21  C   UNL     1      47.050 130.316  14.196  1.00  0.00    -0.000 A 
ATOM     22  C   UNL     1      47.468 131.489  13.629  1.00  0.00     0.045 A 
ATOM     23  C   UNL     1      47.570 129.287  13.443  1.00  0.00     0.028 A 
ATOM     24  N   UNL     1      48.232 131.254  12.549  1.00  0.00    -0.361 N 
ATOM     25  C   UNL     1      48.297 129.908  12.431  1.00  0.00     0.083 A 
ATOM     26  H   UNL     1      48.683 131.960  11.927  1.00  0.00     0.166 HD
ENDBRANCH  13  17
ENDBRANCH   3   6
ENDBRANCH   2   3
ENDBRANCH   1   2
BRANCH   1  27
ATOM     27  C   UNL     1      44.598 129.095  22.466  1.00  0.00     0.202 C 
BRANCH  27  28
ATOM     28  O   UNL     1      44.992 127.747  22.324  1.00  0.00    -0.368 OA
BRANCH  28  29
ATOM     29  C   UNL     1      44.721 127.050  23.522  1.00  0.00     0.275 C 
BRANCH  29  30
ATOM     30  C   UNL     1      44.299 125.622  23.191  1.00  0.00     0.411 C 
ATOM     31  F   UNL     1      42.919 125.516  23.221  1.00  0.00    -0.168 F 
ATOM     32  F   UNL     1      44.751 125.285  21.928  1.00  0.00    -0.168 F 
ATOM     33  F   UNL     1      44.843 124.745  24.115  1.00  0.00    -0.168 F 
ENDBRANCH  29  30
ENDBRANCH  28  29
ENDBRANCH  27  28
ENDBRANCH   1  27
TORSDOF 9
ENDMDL


