REMARK SMILES C=C[C@H]1CC[C@H](c2cccc3ccoc23)N(C(=O)[C@@H](C)c2[nH]cc[nH+]2)C1
REMARK SMILES IDX 17 1 18 2 16 3 3 4 4 5 26 6 5 7 6 8 2 9 1 10 7 11 8 12 15 13
REMARK SMILES IDX 9 14 14 15 11 16 10 17 13 18 12 19 19 20 20 21 21 22 22 23
REMARK SMILES IDX 25 24 23 25 24 26
REMARK H PARENT 22 27 25 28
ROOT
ATOM      1  C   UNL     1       0.301   0.424   0.016  1.00  0.00     0.238 C 
ATOM      2  O   UNL     1       0.163   0.568  -1.231  1.00  0.00    -0.274 OA
ENDROOT
BRANCH   1   3
ATOM      3  N   UNL     1       0.357  -0.915   0.569  1.00  0.00    -0.334 N 
ATOM      4  C   UNL     1      -1.039  -2.169   2.178  1.00  0.00     0.031 C 
ATOM      5  C   UNL     1      -0.978  -3.368   1.188  1.00  0.00     0.012 C 
ATOM      6  C   UNL     1       0.137  -1.190   2.000  1.00  0.00     0.127 C 
ATOM      7  C   UNL     1       0.319  -3.406   0.369  1.00  0.00     0.031 C 
ATOM      8  C   UNL     1       0.539  -2.060  -0.348  1.00  0.00     0.119 C 
BRANCH   4   9
ATOM      9  C   UNL     1      -2.344  -1.419   2.020  1.00  0.00    -0.030 C 
ATOM     10  C   UNL     1      -3.112  -1.102   3.066  1.00  0.00     0.004 C 
ENDBRANCH   4   9
BRANCH   8  11
ATOM     11  C   UNL     1       1.913  -2.025  -0.981  1.00  0.00     0.018 A 
ATOM     12  C   UNL     1       3.080  -1.812  -0.210  1.00  0.00     0.010 A 
ATOM     13  C   UNL     1       2.086  -2.240  -2.354  1.00  0.00     0.139 A 
ATOM     14  C   UNL     1       4.354  -1.801  -0.818  1.00  0.00     0.001 A 
ATOM     15  O   UNL     1       1.164  -2.472  -3.257  1.00  0.00    -0.464 OA
ATOM     16  C   UNL     1       3.325  -2.229  -2.936  1.00  0.00     0.021 A 
ATOM     17  C   UNL     1       4.487  -2.011  -2.201  1.00  0.00     0.012 A 
ATOM     18  C   UNL     1       1.768  -2.613  -4.423  1.00  0.00     0.196 A 
ATOM     19  C   UNL     1       3.143  -2.468  -4.278  1.00  0.00     0.050 A 
ENDBRANCH   8  11
ENDBRANCH   1   3
BRANCH   1  20
ATOM     20  C   UNL     1       0.361   1.661   0.889  1.00  0.00     0.189 C 
ATOM     21  C   UNL     1       0.921   2.872   0.136  1.00  0.00     0.031 C 
BRANCH  20  22
ATOM     22  C   UNL     1      -1.007   1.981   1.431  1.00  0.00     0.264 A 
ATOM     23  N   UNL     1      -1.253   2.246   2.729  1.00  0.00    -0.247 N 
ATOM     24  N   UNL     1      -2.122   2.066   0.677  1.00  0.00    -0.247 N 
ATOM     25  C   UNL     1      -2.573   2.494   2.799  1.00  0.00     0.240 A 
ATOM     26  C   UNL     1      -3.109   2.383   1.534  1.00  0.00     0.240 A 
ATOM     27  H   UNL     1      -0.569   2.254   3.518  1.00  0.00     0.311 HD
ATOM     28  H   UNL     1      -2.208   1.918  -0.353  1.00  0.00     0.311 HD
ENDBRANCH  20  22
ENDBRANCH   1  20
TORSDOF 5


