REMARK SMILES Nc1cccc(Nc2cc(F)cc3cc[nH]c23)c1O
REMARK SMILES IDX 2 1 3 2 4 3 5 4 6 5 18 6 1 7 19 10 7 12 8 14 9 15 17 16
REMARK SMILES IDX 10 17 16 18 13 19 12 20 15 21 14 22 11 23
REMARK H PARENT 1 8 1 9 19 11 7 13 16 24
ROOT
ATOM      1  C   UNL     1      -2.276  -0.759  -2.475  1.00  0.00     0.076 A 
ATOM      2  C   UNL     1      -1.806  -2.053  -2.744  1.00  0.00     0.029 A 
ATOM      3  C   UNL     1      -0.938  -2.693  -1.861  1.00  0.00     0.005 A 
ATOM      4  C   UNL     1      -0.523  -2.049  -0.698  1.00  0.00     0.030 A 
ATOM      5  C   UNL     1      -0.958  -0.743  -0.413  1.00  0.00     0.083 A 
ATOM      6  C   UNL     1      -1.839  -0.092  -1.301  1.00  0.00     0.162 A 
ENDROOT
BRANCH   1   7
ATOM      7  N   UNL     1      -3.196  -0.160  -3.397  1.00  0.00    -0.396 N 
ATOM      8  H   UNL     1      -3.441  -0.649  -4.287  1.00  0.00     0.156 HD
ATOM      9  H   UNL     1      -3.703   0.728  -3.200  1.00  0.00     0.156 HD
ENDBRANCH   1   7
BRANCH   6  10
ATOM     10  O   UNL     1      -2.237   1.213  -0.997  1.00  0.00    -0.504 OA
ATOM     11  H   UNL     1      -2.803   1.791  -1.601  1.00  0.00     0.293 HD
ENDBRANCH   6  10
BRANCH   5  12
ATOM     12  N   UNL     1      -0.538  -0.076   0.792  1.00  0.00    -0.351 N 
ATOM     13  H   UNL     1      -1.199   0.596   1.244  1.00  0.00     0.167 HD
BRANCH  12  14
ATOM     14  C   UNL     1       0.673  -0.387   1.499  1.00  0.00     0.066 A 
ATOM     15  C   UNL     1       0.652  -0.551   2.899  1.00  0.00     0.067 A 
ATOM     16  C   UNL     1       1.914  -0.500   0.851  1.00  0.00     0.069 A 
ATOM     17  C   UNL     1       1.835  -0.860   3.606  1.00  0.00     0.126 A 
ATOM     18  N   UNL     1       2.194  -0.309  -0.451  1.00  0.00    -0.359 N 
ATOM     19  C   UNL     1       3.058  -0.799   1.547  1.00  0.00     0.004 A 
ATOM     20  C   UNL     1       3.057  -0.991   2.926  1.00  0.00     0.049 A 
ATOM     21  C   UNL     1       3.526  -0.507  -0.580  1.00  0.00     0.083 A 
ATOM     22  C   UNL     1       4.101  -0.816   0.647  1.00  0.00     0.028 A 
ATOM     23  F   UNL     1       1.791  -1.026   4.951  1.00  0.00    -0.207 F 
ATOM     24  H   UNL     1       1.537  -0.037  -1.215  1.00  0.00     0.166 HD
ENDBRANCH  12  14
ENDBRANCH   5  12
TORSDOF 4


