REMARK SMILES Cc1ccc(-c2ccc(N(C(=O)CCC(=O)Cl)c3cc4ccccc4[nH]3)c(C=O)c2)cc1
REMARK SMILES IDX 11 1 12 2 10 3 9 4 6 5 7 6 30 7 8 8 27 9 5 10 2 11 3 12
REMARK SMILES IDX 32 13 4 14 31 15 1 16 28 17 29 18 18 19 19 20 26 21 20 22
REMARK SMILES IDX 25 23 21 24 24 25 22 26 23 27 13 29 14 30 15 31 16 32 17 33
REMARK H PARENT 26 28
ROOT
ATOM      1  C   UNL     1      -1.632  -1.224  -1.778  1.00  0.00     0.233 C 
ATOM      2  O   UNL     1      -2.416  -0.274  -2.050  1.00  0.00    -0.274 OA
ENDROOT
BRANCH   1   3
ATOM      3  N   UNL     1      -0.764  -1.120  -0.634  1.00  0.00    -0.266 N 
BRANCH   3   4
ATOM      4  C   UNL     1      -0.256   0.172  -0.265  1.00  0.00     0.061 A 
ATOM      5  C   UNL     1       0.804   2.694   0.417  1.00  0.00    -0.018 A 
ATOM      6  C   UNL     1       1.311   1.978  -0.681  1.00  0.00     0.011 A 
ATOM      7  C   UNL     1      -0.239   2.133   1.174  1.00  0.00     0.022 A 
ATOM      8  C   UNL     1       0.785   0.730  -1.016  1.00  0.00     0.028 A 
ATOM      9  C   UNL     1      -0.779   0.875   0.843  1.00  0.00     0.039 A 
BRANCH   5  10
ATOM     10  C   UNL     1       1.373   4.020   0.775  1.00  0.00    -0.018 A 
ATOM     11  C   UNL     1       2.477   6.526   1.454  1.00  0.00    -0.051 A 
ATOM     12  C   UNL     1       2.273   6.184   0.109  1.00  0.00     0.004 A 
ATOM     13  C   UNL     1       2.140   5.606   2.457  1.00  0.00     0.004 A 
ATOM     14  C   UNL     1       1.721   4.944  -0.228  1.00  0.00     0.009 A 
ATOM     15  C   UNL     1       1.587   4.366   2.123  1.00  0.00     0.009 A 
ATOM     16  C   UNL     1       3.114   7.834   1.816  1.00  0.00     0.044 C 
ENDBRANCH   5  10
BRANCH   9  17
ATOM     17  C   UNL     1      -1.896   0.317   1.639  1.00  0.00     0.262 C 
ATOM     18  O   UNL     1      -2.338   0.923   2.652  1.00  0.00    -0.298 OA
ENDBRANCH   9  17
ENDBRANCH   3   4
BRANCH   3  19
ATOM     19  C   UNL     1      -0.411  -2.265   0.166  1.00  0.00     0.118 A 
ATOM     20  C   UNL     1      -1.223  -3.381   0.374  1.00  0.00     0.056 A 
ATOM     21  N   UNL     1       0.743  -2.356   0.871  1.00  0.00    -0.341 N 
ATOM     22  C   UNL     1      -0.498  -4.183   1.229  1.00  0.00     0.002 A 
ATOM     23  C   UNL     1       0.680  -3.537   1.507  1.00  0.00     0.047 A 
ATOM     24  C   UNL     1      -0.800  -5.429   1.774  1.00  0.00     0.010 A 
ATOM     25  C   UNL     1       1.646  -4.100   2.342  1.00  0.00     0.027 A 
ATOM     26  C   UNL     1       0.152  -6.021   2.625  1.00  0.00     0.001 A 
ATOM     27  C   UNL     1       1.371  -5.362   2.904  1.00  0.00     0.002 A 
ATOM     28  H   UNL     1       1.525  -1.663   0.902  1.00  0.00     0.168 HD
ENDBRANCH   3  19
ENDBRANCH   1   3
BRANCH   1  29
ATOM     29  C   UNL     1      -1.585  -2.417  -2.700  1.00  0.00     0.110 C 
BRANCH  29  30
ATOM     30  C   UNL     1      -1.139  -2.026  -4.115  1.00  0.00     0.104 C 
BRANCH  30  31
ATOM     31  C   UNL     1       0.262  -1.477  -4.133  1.00  0.00     0.222 C 
ATOM     32  O   UNL     1       0.471  -0.342  -4.531  1.00  0.00    -0.281 OA
ATOM     33  Cl  UNL     1       1.618  -2.467  -3.611  1.00  0.00    -0.043 Cl
ENDBRANCH  30  31
ENDBRANCH  29  30
ENDBRANCH   1  29
TORSDOF 8


