REMARK SMILES O=C(Nc1ccc(CN2CCCCC2)cc1)Sc1cccc(-c2ccc3c(c2)CC3)c1
REMARK SMILES IDX 1 1 2 2 3 3 17 5 18 6 19 7 31 8 20 9 22 10 21 11 23 12 24 13
REMARK SMILES IDX 28 14 25 15 27 16 26 17 29 18 30 19 4 20 5 21 16 22 6 23
REMARK SMILES IDX 15 24 7 25 8 26 9 27 10 28 14 29 11 30 13 31 12 32
REMARK H PARENT 3 4
ROOT
ATOM      1  O   UNL     1       3.076   1.433  -4.392  1.00  0.00    -0.261 OA
ATOM      2  C   UNL     1       1.954   0.897  -4.592  1.00  0.00     0.288 C 
ATOM      3  N   UNL     1       0.816   1.238  -3.788  1.00  0.00    -0.317 N 
ATOM      4  H   UNL     1      -0.127   0.955  -4.142  1.00  0.00     0.170 HD
ENDROOT
BRANCH   2   5
ATOM      5  S   UNL     1       1.772  -0.279  -5.928  1.00  0.00    -0.028 SA
BRANCH   5   6
ATOM      6  C   UNL     1       2.075  -1.673  -4.844  1.00  0.00     0.018 A 
ATOM      7  C   UNL     1       3.367  -2.192  -4.714  1.00  0.00     0.015 A 
ATOM      8  C   UNL     1       1.018  -2.238  -4.121  1.00  0.00     0.024 A 
ATOM      9  C   UNL     1       3.601  -3.275  -3.864  1.00  0.00     0.002 A 
ATOM     10  C   UNL     1       1.245  -3.321  -3.253  1.00  0.00    -0.017 A 
ATOM     11  C   UNL     1       2.549  -3.839  -3.136  1.00  0.00     0.009 A 
BRANCH  10  12
ATOM     12  C   UNL     1       0.127  -3.901  -2.467  1.00  0.00    -0.018 A 
ATOM     13  C   UNL     1       0.012  -5.330  -2.331  1.00  0.00     0.009 A 
ATOM     14  C   UNL     1      -0.832  -3.036  -1.864  1.00  0.00     0.012 A 
ATOM     15  C   UNL     1      -1.046  -5.934  -1.607  1.00  0.00     0.004 A 
ATOM     16  C   UNL     1      -1.849  -3.657  -1.169  1.00  0.00    -0.044 A 
ATOM     17  C   UNL     1      -1.954  -5.063  -1.044  1.00  0.00    -0.044 A 
ATOM     18  C   UNL     1      -3.087  -3.476  -0.360  1.00  0.00     0.040 C 
ATOM     19  C   UNL     1      -3.194  -4.918  -0.234  1.00  0.00     0.040 C 
ENDBRANCH  10  12
ENDBRANCH   5   6
ENDBRANCH   2   5
BRANCH   3  20
ATOM     20  C   UNL     1       0.881   2.023  -2.586  1.00  0.00     0.041 A 
ATOM     21  C   UNL     1      -0.191   2.866  -2.258  1.00  0.00     0.026 A 
ATOM     22  C   UNL     1       1.970   1.922  -1.700  1.00  0.00     0.026 A 
ATOM     23  C   UNL     1      -0.158   3.633  -1.091  1.00  0.00     0.007 A 
ATOM     24  C   UNL     1       2.002   2.688  -0.530  1.00  0.00     0.007 A 
ATOM     25  C   UNL     1       0.943   3.558  -0.224  1.00  0.00    -0.034 A 
BRANCH  25  26
ATOM     26  C   UNL     1       0.965   4.380   1.039  1.00  0.00     0.120 C 
BRANCH  26  27
ATOM     27  N   UNL     1      -0.079   3.915   1.977  1.00  0.00    -0.299 NA
ATOM     28  C   UNL     1      -0.355   4.960   2.986  1.00  0.00     0.085 C 
ATOM     29  C   UNL     1       0.338   2.660   2.642  1.00  0.00     0.085 C 
ATOM     30  C   UNL     1      -1.496   4.523   3.913  1.00  0.00     0.016 C 
ATOM     31  C   UNL     1      -0.781   2.139   3.551  1.00  0.00     0.016 C 
ATOM     32  C   UNL     1      -1.159   3.194   4.592  1.00  0.00     0.003 C 
ENDBRANCH  26  27
ENDBRANCH  25  26
ENDBRANCH   3  20
TORSDOF 6


