MODEL 1
REMARK VINA RESULT:      -9.5      0.000      0.000
REMARK SMILES C=c1cc(Nc2ccc3cc[nH]c3c2)/c(=C(\O)C(=O)c2ccc(C)cc2)cc1[O-]
REMARK SMILES IDX 15 1 27 2 28 3 29 4 2 5 1 6 3 7 4 8 16 9 17 10 18 12 19 13
REMARK SMILES IDX 20 14 21 15 26 16 22 17 25 18 23 19 24 20 5 21 6 23 7 24
REMARK SMILES IDX 14 25 8 26 13 27 9 28 12 29 10 30 11 31
REMARK H PARENT 17 11 5 22 12 32
ROOT
ATOM      1  C   UNL     1      44.178 131.233  20.193  1.00  0.00     0.043 A 
ATOM      2  C   UNL     1      43.098 132.145  20.089  1.00  0.00     0.006 A 
ATOM      3  C   UNL     1      42.303 132.470  21.189  1.00  0.00    -0.101 A 
ATOM      4  O   UNL     1      41.267 133.385  21.020  1.00  0.00    -0.872 OA
ATOM      5  C   UNL     1      42.552 131.885  22.439  1.00  0.00    -0.039 A 
ATOM      6  C   UNL     1      41.797 132.179  23.507  1.00  0.00     0.016 C 
ATOM      7  C   UNL     1      43.604 130.969  22.562  1.00  0.00     0.033 A 
ATOM      8  C   UNL     1      44.416 130.634  21.465  1.00  0.00     0.050 A 
ENDROOT
BRANCH   1   9
ATOM      9  C   UNL     1      44.982 130.995  19.115  1.00  0.00     0.173 C 
BRANCH   9  10
ATOM     10  O   UNL     1      46.278 130.508  19.286  1.00  0.00    -0.504 OA
ATOM     11  H   UNL     1      46.495 129.522  19.190  1.00  0.00     0.293 HD
ENDBRANCH   9  10
BRANCH   9  12
ATOM     12  C   UNL     1      44.539 131.248  17.722  1.00  0.00     0.228 C 
ATOM     13  O   UNL     1      43.361 131.653  17.529  1.00  0.00    -0.285 OA
BRANCH  12  14
ATOM     14  C   UNL     1      45.427 130.993  16.560  1.00  0.00     0.026 A 
ATOM     15  C   UNL     1      45.807 129.677  16.237  1.00  0.00     0.012 A 
ATOM     16  C   UNL     1      45.876 132.047  15.742  1.00  0.00     0.012 A 
ATOM     17  C   UNL     1      46.623 129.423  15.131  1.00  0.00     0.004 A 
ATOM     18  C   UNL     1      46.690 131.791  14.635  1.00  0.00     0.004 A 
ATOM     19  C   UNL     1      47.067 130.479  14.322  1.00  0.00    -0.051 A 
ATOM     20  C   UNL     1      47.946 130.220  13.132  1.00  0.00     0.044 C 
ENDBRANCH  12  14
ENDBRANCH   9  12
ENDBRANCH   1   9
BRANCH   8  21
ATOM     21  N   UNL     1      45.386 129.587  21.640  1.00  0.00    -0.355 N 
ATOM     22  H   UNL     1      46.270 129.647  21.084  1.00  0.00     0.167 HD
BRANCH  21  23
ATOM     23  C   UNL     1      45.137 128.394  22.405  1.00  0.00     0.041 A 
ATOM     24  C   UNL     1      44.511 128.458  23.679  1.00  0.00     0.027 A 
ATOM     25  C   UNL     1      45.547 127.145  21.891  1.00  0.00     0.052 A 
ATOM     26  C   UNL     1      44.271 127.286  24.420  1.00  0.00     0.012 A 
ATOM     27  C   UNL     1      45.292 126.005  22.651  1.00  0.00     0.047 A 
ATOM     28  C   UNL     1      44.675 126.075  23.870  1.00  0.00    -0.001 A 
ATOM     29  N   UNL     1      45.575 124.731  22.333  1.00  0.00    -0.361 N 
ATOM     30  C   UNL     1      44.559 124.790  24.350  1.00  0.00     0.028 A 
ATOM     31  C   UNL     1      45.127 123.984  23.369  1.00  0.00     0.083 A 
ATOM     32  H   UNL     1      46.035 124.385  21.463  1.00  0.00     0.166 HD
ENDBRANCH  21  23
ENDBRANCH   8  21
TORSDOF 6
ENDMDL
MODEL 2
REMARK VINA RESULT:      -9.5      2.090      7.441
REMARK SMILES C=c1cc(Nc2ccc3cc[nH]c3c2)/c(=C(\O)C(=O)c2ccc(C)cc2)cc1[O-]
REMARK SMILES IDX 15 1 27 2 28 3 29 4 2 5 1 6 3 7 4 8 16 9 17 10 18 12 19 13
REMARK SMILES IDX 20 14 21 15 26 16 22 17 25 18 23 19 24 20 5 21 6 23 7 24
REMARK SMILES IDX 14 25 8 26 13 27 9 28 12 29 10 30 11 31
REMARK H PARENT 17 11 5 22 12 32
ROOT
ATOM      1  C   UNL     1      44.163 131.380  20.486  1.00  0.00     0.043 A 
ATOM      2  C   UNL     1      43.046 132.128  20.934  1.00  0.00     0.006 A 
ATOM      3  C   UNL     1      42.072 132.595  20.049  1.00  0.00    -0.101 A 
ATOM      4  O   UNL     1      40.992 133.311  20.558  1.00  0.00    -0.872 OA
ATOM      5  C   UNL     1      42.184 132.338  18.675  1.00  0.00    -0.039 A 
ATOM      6  C   UNL     1      41.263 132.781  17.808  1.00  0.00     0.016 C 
ATOM      7  C   UNL     1      43.288 131.614  18.208  1.00  0.00     0.033 A 
ATOM      8  C   UNL     1      44.275 131.135  19.086  1.00  0.00     0.050 A 
ENDROOT
BRANCH   1   9
ATOM      9  C   UNL     1      45.057 130.876  21.386  1.00  0.00     0.173 C 
BRANCH   9  10
ATOM     10  O   UNL     1      46.427 130.898  21.120  1.00  0.00    -0.504 OA
ATOM     11  H   UNL     1      47.000 130.066  21.204  1.00  0.00     0.293 HD
ENDBRANCH   9  10
BRANCH   9  12
ATOM     12  C   UNL     1      44.634 130.270  22.673  1.00  0.00     0.228 C 
ATOM     13  O   UNL     1      44.488 131.024  23.673  1.00  0.00    -0.285 OA
BRANCH  12  14
ATOM     14  C   UNL     1      44.427 128.807  22.819  1.00  0.00     0.026 A 
ATOM     15  C   UNL     1      43.353 128.319  23.584  1.00  0.00     0.012 A 
ATOM     16  C   UNL     1      45.272 127.885  22.172  1.00  0.00     0.012 A 
ATOM     17  C   UNL     1      43.135 126.944  23.709  1.00  0.00     0.004 A 
ATOM     18  C   UNL     1      45.051 126.511  22.295  1.00  0.00     0.004 A 
ATOM     19  C   UNL     1      43.982 126.031  23.061  1.00  0.00    -0.051 A 
ATOM     20  C   UNL     1      43.759 124.552  23.189  1.00  0.00     0.044 C 
ENDBRANCH  12  14
ENDBRANCH   9  12
ENDBRANCH   1   9
BRANCH   8  21
ATOM     21  N   UNL     1      45.443 130.519  18.515  1.00  0.00    -0.355 N 
ATOM     22  H   UNL     1      46.064 129.972  19.154  1.00  0.00     0.167 HD
BRANCH  21  23
ATOM     23  C   UNL     1      45.882 130.751  17.164  1.00  0.00     0.041 A 
ATOM     24  C   UNL     1      45.584 131.969  16.495  1.00  0.00     0.027 A 
ATOM     25  C   UNL     1      46.596 129.739  16.487  1.00  0.00     0.052 A 
ATOM     26  C   UNL     1      46.018 132.187  15.174  1.00  0.00     0.012 A 
ATOM     27  C   UNL     1      47.011 129.990  15.180  1.00  0.00     0.047 A 
ATOM     28  C   UNL     1      46.733 131.172  14.550  1.00  0.00    -0.001 A 
ATOM     29  N   UNL     1      47.720 129.178  14.378  1.00  0.00    -0.361 N 
ATOM     30  C   UNL     1      47.287 131.111  13.291  1.00  0.00     0.028 A 
ATOM     31  C   UNL     1      47.891 129.860  13.222  1.00  0.00     0.083 A 
ATOM     32  H   UNL     1      48.074 128.222  14.602  1.00  0.00     0.166 HD
ENDBRANCH  21  23
ENDBRANCH   8  21
TORSDOF 6
ENDMDL
MODEL 3
REMARK VINA RESULT:      -7.1      0.861      1.328
REMARK SMILES C=c1cc(Nc2ccc3cc[nH]c3c2)/c(=C(\O)C(=O)c2ccc(C)cc2)cc1[O-]
REMARK SMILES IDX 15 1 27 2 28 3 29 4 2 5 1 6 3 7 4 8 16 9 17 10 18 12 19 13
REMARK SMILES IDX 20 14 21 15 26 16 22 17 25 18 23 19 24 20 5 21 6 23 7 24
REMARK SMILES IDX 14 25 8 26 13 27 9 28 12 29 10 30 11 31
REMARK H PARENT 17 11 5 22 12 32
ROOT
ATOM      1  C   UNL     1      44.290 131.193  19.173  1.00  0.00     0.043 A 
ATOM      2  C   UNL     1      43.154 132.007  18.938  1.00  0.00     0.006 A 
ATOM      3  C   UNL     1      42.342 132.453  19.982  1.00  0.00    -0.101 A 
ATOM      4  O   UNL     1      41.250 133.263  19.683  1.00  0.00    -0.872 OA
ATOM      5  C   UNL     1      42.630 132.091  21.306  1.00  0.00    -0.039 A 
ATOM      6  C   UNL     1      41.860 132.504  22.323  1.00  0.00     0.016 C 
ATOM      7  C   UNL     1      43.739 131.274  21.561  1.00  0.00     0.033 A 
ATOM      8  C   UNL     1      44.568 130.820  20.521  1.00  0.00     0.050 A 
ENDROOT
BRANCH   1   9
ATOM      9  C   UNL     1      45.106 130.836  18.138  1.00  0.00     0.173 C 
BRANCH   9  10
ATOM     10  O   UNL     1      46.352 130.257  18.378  1.00  0.00    -0.504 OA
ATOM     11  H   UNL     1      46.562 129.306  18.095  1.00  0.00     0.293 HD
ENDBRANCH   9  10
BRANCH   9  12
ATOM     12  C   UNL     1      44.730 131.053  16.719  1.00  0.00     0.228 C 
ATOM     13  O   UNL     1      43.560 131.446  16.460  1.00  0.00    -0.285 OA
BRANCH  12  14
ATOM     14  C   UNL     1      45.674 130.774  15.608  1.00  0.00     0.026 A 
ATOM     15  C   UNL     1      46.021 131.794  14.704  1.00  0.00     0.012 A 
ATOM     16  C   UNL     1      46.264 129.505  15.456  1.00  0.00     0.012 A 
ATOM     17  C   UNL     1      46.928 131.550  13.668  1.00  0.00     0.004 A 
ATOM     18  C   UNL     1      47.173 129.263  14.422  1.00  0.00     0.004 A 
ATOM     19  C   UNL     1      47.512 130.282  13.524  1.00  0.00    -0.051 A 
ATOM     20  C   UNL     1      48.485 130.006  12.415  1.00  0.00     0.044 C 
ENDBRANCH  12  14
ENDBRANCH   9  12
ENDBRANCH   1   9
BRANCH   8  21
ATOM     21  N   UNL     1      45.604 129.877  20.849  1.00  0.00    -0.355 N 
ATOM     22  H   UNL     1      46.486 129.911  20.288  1.00  0.00     0.167 HD
BRANCH  21  23
ATOM     23  C   UNL     1      45.427 128.798  21.785  1.00  0.00     0.041 A 
ATOM     24  C   UNL     1      44.769 129.007  23.028  1.00  0.00     0.027 A 
ATOM     25  C   UNL     1      45.941 127.521  21.473  1.00  0.00     0.052 A 
ATOM     26  C   UNL     1      44.601 127.946  23.938  1.00  0.00     0.012 A 
ATOM     27  C   UNL     1      45.755 126.494  22.396  1.00  0.00     0.047 A 
ATOM     28  C   UNL     1      45.107 126.700  23.583  1.00  0.00    -0.001 A 
ATOM     29  N   UNL     1      46.138 125.212  22.280  1.00  0.00    -0.361 N 
ATOM     30  C   UNL     1      45.076 125.499  24.254  1.00  0.00     0.028 A 
ATOM     31  C   UNL     1      45.725 124.599  23.414  1.00  0.00     0.083 A 
ATOM     32  H   UNL     1      46.642 124.774  21.478  1.00  0.00     0.166 HD
ENDBRANCH  21  23
ENDBRANCH   8  21
TORSDOF 6
ENDMDL
MODEL 4
REMARK VINA RESULT:      -7.0      2.021      7.427
REMARK SMILES C=c1cc(Nc2ccc3cc[nH]c3c2)/c(=C(\O)C(=O)c2ccc(C)cc2)cc1[O-]
REMARK SMILES IDX 15 1 27 2 28 3 29 4 2 5 1 6 3 7 4 8 16 9 17 10 18 12 19 13
REMARK SMILES IDX 20 14 21 15 26 16 22 17 25 18 23 19 24 20 5 21 6 23 7 24
REMARK SMILES IDX 14 25 8 26 13 27 9 28 12 29 10 30 11 31
REMARK H PARENT 17 11 5 22 12 32
ROOT
ATOM      1  C   UNL     1      44.138 130.352  21.611  1.00  0.00     0.043 A 
ATOM      2  C   UNL     1      43.105 130.903  22.409  1.00  0.00     0.006 A 
ATOM      3  C   UNL     1      42.312 131.960  21.958  1.00  0.00    -0.101 A 
ATOM      4  O   UNL     1      41.304 132.444  22.788  1.00  0.00    -0.872 OA
ATOM      5  C   UNL     1      42.531 132.517  20.689  1.00  0.00    -0.039 A 
ATOM      6  C   UNL     1      41.785 133.535  20.239  1.00  0.00     0.016 C 
ATOM      7  C   UNL     1      43.557 131.999  19.889  1.00  0.00     0.033 A 
ATOM      8  C   UNL     1      44.361 130.932  20.327  1.00  0.00     0.050 A 
ENDROOT
BRANCH   1   9
ATOM      9  C   UNL     1      44.844 129.271  22.052  1.00  0.00     0.173 C 
BRANCH   9  10
ATOM     10  O   UNL     1      45.996 128.851  21.386  1.00  0.00    -0.504 OA
ATOM     11  H   UNL     1      46.593 129.503  20.889  1.00  0.00     0.293 HD
ENDBRANCH   9  10
BRANCH   9  12
ATOM     12  C   UNL     1      44.430 128.480  23.238  1.00  0.00     0.228 C 
ATOM     13  O   UNL     1      44.124 129.097  24.294  1.00  0.00    -0.285 OA
BRANCH  12  14
ATOM     14  C   UNL     1      44.415 126.996  23.222  1.00  0.00     0.026 A 
ATOM     15  C   UNL     1      43.498 126.291  24.023  1.00  0.00     0.012 A 
ATOM     16  C   UNL     1      45.284 126.268  22.388  1.00  0.00     0.012 A 
ATOM     17  C   UNL     1      43.458 124.894  23.998  1.00  0.00     0.004 A 
ATOM     18  C   UNL     1      45.242 124.872  22.362  1.00  0.00     0.004 A 
ATOM     19  C   UNL     1      44.328 124.176  23.164  1.00  0.00    -0.051 A 
ATOM     20  C   UNL     1      44.297 122.676  23.130  1.00  0.00     0.044 C 
ENDBRANCH  12  14
ENDBRANCH   9  12
ENDBRANCH   1   9
BRANCH   8  21
ATOM     21  N   UNL     1      45.478 130.549  19.506  1.00  0.00    -0.355 N 
ATOM     22  H   UNL     1      46.356 130.253  19.989  1.00  0.00     0.167 HD
BRANCH  21  23
ATOM     23  C   UNL     1      45.502 130.706  18.076  1.00  0.00     0.041 A 
ATOM     24  C   UNL     1      44.575 131.559  17.416  1.00  0.00     0.027 A 
ATOM     25  C   UNL     1      46.444 129.980  17.316  1.00  0.00     0.052 A 
ATOM     26  C   UNL     1      44.605 131.706  16.017  1.00  0.00     0.012 A 
ATOM     27  C   UNL     1      46.446 130.152  15.933  1.00  0.00     0.047 A 
ATOM     28  C   UNL     1      45.560 130.986  15.309  1.00  0.00    -0.001 A 
ATOM     29  N   UNL     1      47.272 129.580  15.041  1.00  0.00    -0.361 N 
ATOM     30  C   UNL     1      45.831 130.945  13.960  1.00  0.00     0.028 A 
ATOM     31  C   UNL     1      46.900 130.063  13.832  1.00  0.00     0.083 A 
ATOM     32  H   UNL     1      48.047 128.910  15.237  1.00  0.00     0.166 HD
ENDBRANCH  21  23
ENDBRANCH   8  21
TORSDOF 6
ENDMDL


