MODEL 1
REMARK VINA RESULT:      -9.3      0.000      0.000
REMARK SMILES [O-]c1ccc(Nc2cc3[nH]ccc3cc2F)c(F)c1
REMARK SMILES IDX 6 1 5 3 2 4 3 5 19 6 4 7 17 8 1 9 18 10 7 11 8 12 15 13 9 14
REMARK SMILES IDX 14 15 10 16 13 17 11 18 12 19 16 20
REMARK H PARENT 6 2 10 21
ROOT
ATOM      1  N   UNL     1      44.071 131.765  16.249  1.00  0.00    -0.351 N 
ATOM      2  H   UNL     1      43.296 132.202  15.700  1.00  0.00     0.167 HD
ENDROOT
BRANCH   1   3
ATOM      3  C   UNL     1      45.156 131.175  15.515  1.00  0.00     0.075 A 
ATOM      4  C   UNL     1      47.323 130.071  14.111  1.00  0.00    -0.106 A 
ATOM      5  C   UNL     1      47.170 131.458  14.182  1.00  0.00    -0.006 A 
ATOM      6  C   UNL     1      46.408 129.233  14.752  1.00  0.00     0.033 A 
ATOM      7  C   UNL     1      46.096 132.008  14.890  1.00  0.00     0.028 A 
ATOM      8  C   UNL     1      45.331 129.777  15.460  1.00  0.00     0.146 A 
ATOM      9  O   UNL     1      48.391 129.526  13.408  1.00  0.00    -0.872 OA
ATOM     10  F   UNL     1      44.486 128.946  16.120  1.00  0.00    -0.205 F 
ENDBRANCH   1   3
BRANCH   1  11
ATOM     11  C   UNL     1      43.942 131.714  17.681  1.00  0.00     0.077 A 
ATOM     12  C   UNL     1      45.016 131.273  18.492  1.00  0.00     0.055 A 
ATOM     13  C   UNL     1      42.704 132.057  18.285  1.00  0.00     0.147 A 
ATOM     14  C   UNL     1      44.821 131.220  19.870  1.00  0.00     0.048 A 
ATOM     15  C   UNL     1      42.544 131.991  19.681  1.00  0.00     0.051 A 
ATOM     16  N   UNL     1      45.706 130.838  20.805  1.00  0.00    -0.361 N 
ATOM     17  C   UNL     1      43.629 131.569  20.442  1.00  0.00     0.002 A 
ATOM     18  C   UNL     1      45.062 130.949  21.990  1.00  0.00     0.083 A 
ATOM     19  C   UNL     1      43.760 131.404  21.803  1.00  0.00     0.028 A 
ATOM     20  F   UNL     1      41.661 132.467  17.519  1.00  0.00    -0.205 F 
ATOM     21  H   UNL     1      46.689 130.519  20.654  1.00  0.00     0.166 HD
ENDBRANCH   1  11
TORSDOF 2
ENDMDL
MODEL 2
REMARK VINA RESULT:      -9.3      2.919      6.013
REMARK SMILES [O-]c1ccc(Nc2cc3[nH]ccc3cc2F)c(F)c1
REMARK SMILES IDX 6 1 5 3 2 4 3 5 19 6 4 7 17 8 1 9 18 10 7 11 8 12 15 13 9 14
REMARK SMILES IDX 14 15 10 16 13 17 11 18 12 19 16 20
REMARK H PARENT 6 2 10 21
ROOT
ATOM      1  N   UNL     1      43.415 131.810  17.219  1.00  0.00    -0.351 N 
ATOM      2  H   UNL     1      42.562 132.319  16.894  1.00  0.00     0.167 HD
ENDROOT
BRANCH   1   3
ATOM      3  C   UNL     1      43.627 131.702  18.636  1.00  0.00     0.075 A 
ATOM      4  C   UNL     1      44.106 131.530  21.398  1.00  0.00    -0.106 A 
ATOM      5  C   UNL     1      45.146 131.307  20.493  1.00  0.00    -0.006 A 
ATOM      6  C   UNL     1      42.830 131.855  20.930  1.00  0.00     0.033 A 
ATOM      7  C   UNL     1      44.910 131.403  19.118  1.00  0.00     0.028 A 
ATOM      8  C   UNL     1      42.587 131.950  19.555  1.00  0.00     0.146 A 
ATOM      9  O   UNL     1      44.341 131.435  22.764  1.00  0.00    -0.872 OA
ATOM     10  F   UNL     1      41.355 132.321  19.126  1.00  0.00    -0.205 F 
ENDBRANCH   1   3
BRANCH   1  11
ATOM     11  C   UNL     1      44.344 131.341  16.226  1.00  0.00     0.077 A 
ATOM     12  C   UNL     1      45.542 130.686  16.603  1.00  0.00     0.055 A 
ATOM     13  C   UNL     1      44.083 131.587  14.852  1.00  0.00     0.147 A 
ATOM     14  C   UNL     1      46.414 130.278  15.596  1.00  0.00     0.048 A 
ATOM     15  C   UNL     1      44.987 131.161  13.862  1.00  0.00     0.051 A 
ATOM     16  N   UNL     1      47.588 129.644  15.740  1.00  0.00    -0.361 N 
ATOM     17  C   UNL     1      46.144 130.506  14.274  1.00  0.00     0.002 A 
ATOM     18  C   UNL     1      48.068 129.465  14.489  1.00  0.00     0.083 A 
ATOM     19  C   UNL     1      47.192 129.992  13.544  1.00  0.00     0.028 A 
ATOM     20  F   UNL     1      42.946 132.226  14.478  1.00  0.00    -0.205 F 
ATOM     21  H   UNL     1      48.041 129.348  16.633  1.00  0.00     0.166 HD
ENDBRANCH   1  11
TORSDOF 2
ENDMDL
MODEL 3
REMARK VINA RESULT:      -9.3      1.481      1.955
REMARK SMILES [O-]c1ccc(Nc2cc3[nH]ccc3cc2F)c(F)c1
REMARK SMILES IDX 6 1 5 3 2 4 3 5 19 6 4 7 17 8 1 9 18 10 7 11 8 12 15 13 9 14
REMARK SMILES IDX 14 15 10 16 13 17 11 18 12 19 16 20
REMARK H PARENT 6 2 10 21
ROOT
ATOM      1  N   UNL     1      44.137 131.564  16.614  1.00  0.00    -0.351 N 
ATOM      2  H   UNL     1      43.264 131.948  16.186  1.00  0.00     0.167 HD
ENDROOT
BRANCH   1   3
ATOM      3  C   UNL     1      45.165 131.096  15.725  1.00  0.00     0.075 A 
ATOM      4  C   UNL     1      47.222 130.230  14.021  1.00  0.00    -0.106 A 
ATOM      5  C   UNL     1      47.058 131.593  14.283  1.00  0.00    -0.006 A 
ATOM      6  C   UNL     1      46.372 129.297  14.620  1.00  0.00     0.033 A 
ATOM      7  C   UNL     1      46.040 132.024  15.140  1.00  0.00     0.028 A 
ATOM      8  C   UNL     1      45.351 129.722  15.477  1.00  0.00     0.146 A 
ATOM      9  O   UNL     1      48.234 129.804  13.170  1.00  0.00    -0.872 OA
ATOM     10  F   UNL     1      44.574 128.794  16.089  1.00  0.00    -0.205 F 
ENDBRANCH   1   3
BRANCH   1  11
ATOM     11  C   UNL     1      44.198 131.453  18.047  1.00  0.00     0.077 A 
ATOM     12  C   UNL     1      43.118 131.882  18.857  1.00  0.00     0.055 A 
ATOM     13  C   UNL     1      45.379 130.958  18.661  1.00  0.00     0.147 A 
ATOM     14  C   UNL     1      43.248 131.773  20.239  1.00  0.00     0.048 A 
ATOM     15  C   UNL     1      45.474 130.863  20.061  1.00  0.00     0.051 A 
ATOM     16  N   UNL     1      42.347 132.118  21.174  1.00  0.00    -0.361 N 
ATOM     17  C   UNL     1      44.385 131.280  20.819  1.00  0.00     0.002 A 
ATOM     18  C   UNL     1      42.923 131.834  22.364  1.00  0.00     0.083 A 
ATOM     19  C   UNL     1      44.199 131.308  22.183  1.00  0.00     0.028 A 
ATOM     20  F   UNL     1      46.427 130.557  17.898  1.00  0.00    -0.205 F 
ATOM     21  H   UNL     1      41.397 132.521  21.017  1.00  0.00     0.166 HD
ENDBRANCH   1  11
TORSDOF 2
ENDMDL
MODEL 4
REMARK VINA RESULT:      -9.3      1.194      1.623
REMARK SMILES [O-]c1ccc(Nc2cc3[nH]ccc3cc2F)c(F)c1
REMARK SMILES IDX 6 1 5 3 2 4 3 5 19 6 4 7 17 8 1 9 18 10 7 11 8 12 15 13 9 14
REMARK SMILES IDX 14 15 10 16 13 17 11 18 12 19 16 20
REMARK H PARENT 6 2 10 21
ROOT
ATOM      1  N   UNL     1      43.867 131.805  16.716  1.00  0.00    -0.351 N 
ATOM      2  H   UNL     1      43.138 132.304  16.157  1.00  0.00     0.167 HD
ENDROOT
BRANCH   1   3
ATOM      3  C   UNL     1      44.912 131.131  15.997  1.00  0.00     0.075 A 
ATOM      4  C   UNL     1      46.902 129.773  14.554  1.00  0.00    -0.106 A 
ATOM      5  C   UNL     1      45.816 129.068  15.080  1.00  0.00    -0.006 A 
ATOM      6  C   UNL     1      46.990 131.156  14.732  1.00  0.00     0.033 A 
ATOM      7  C   UNL     1      44.820 129.746  15.790  1.00  0.00     0.028 A 
ATOM      8  C   UNL     1      45.997 131.839  15.442  1.00  0.00     0.146 A 
ATOM      9  O   UNL     1      47.892 129.098  13.849  1.00  0.00    -0.872 OA
ATOM     10  F   UNL     1      46.075 133.188  15.555  1.00  0.00    -0.205 F 
ENDBRANCH   1   3
BRANCH   1  11
ATOM     11  C   UNL     1      43.713 131.761  18.145  1.00  0.00     0.077 A 
ATOM     12  C   UNL     1      44.752 131.274  18.975  1.00  0.00     0.055 A 
ATOM     13  C   UNL     1      42.481 132.160  18.729  1.00  0.00     0.147 A 
ATOM     14  C   UNL     1      44.533 131.232  20.349  1.00  0.00     0.048 A 
ATOM     15  C   UNL     1      42.295 132.103  20.122  1.00  0.00     0.051 A 
ATOM     16  N   UNL     1      45.384 130.811  21.299  1.00  0.00    -0.361 N 
ATOM     17  C   UNL     1      43.348 131.633  20.902  1.00  0.00     0.002 A 
ATOM     18  C   UNL     1      44.726 130.952  22.473  1.00  0.00     0.083 A 
ATOM     19  C   UNL     1      43.449 131.464  22.265  1.00  0.00     0.028 A 
ATOM     20  F   UNL     1      41.470 132.615  17.946  1.00  0.00    -0.205 F 
ATOM     21  H   UNL     1      46.354 130.449  21.164  1.00  0.00     0.166 HD
ENDBRANCH   1  11
TORSDOF 2
ENDMDL
MODEL 5
REMARK VINA RESULT:      -9.1      1.723      2.540
REMARK SMILES [O-]c1ccc(Nc2cc3[nH]ccc3cc2F)c(F)c1
REMARK SMILES IDX 6 1 5 3 2 4 3 5 19 6 4 7 17 8 1 9 18 10 7 11 8 12 15 13 9 14
REMARK SMILES IDX 14 15 10 16 13 17 11 18 12 19 16 20
REMARK H PARENT 6 2 10 21
ROOT
ATOM      1  N   UNL     1      44.059 131.597  17.000  1.00  0.00    -0.351 N 
ATOM      2  H   UNL     1      43.216 132.044  16.574  1.00  0.00     0.167 HD
ENDROOT
BRANCH   1   3
ATOM      3  C   UNL     1      45.046 131.051  16.109  1.00  0.00     0.075 A 
ATOM      4  C   UNL     1      46.919 129.944  14.334  1.00  0.00    -0.106 A 
ATOM      5  C   UNL     1      45.942 129.132  14.915  1.00  0.00    -0.006 A 
ATOM      6  C   UNL     1      46.954 131.311  14.623  1.00  0.00     0.033 A 
ATOM      7  C   UNL     1      45.003 129.685  15.792  1.00  0.00     0.028 A 
ATOM      8  C   UNL     1      46.018 131.870  15.499  1.00  0.00     0.146 A 
ATOM      9  O   UNL     1      47.852 129.394  13.463  1.00  0.00    -0.872 OA
ATOM     10  F   UNL     1      46.037 133.207  15.722  1.00  0.00    -0.205 F 
ENDBRANCH   1   3
BRANCH   1  11
ATOM     11  C   UNL     1      44.118 131.488  18.433  1.00  0.00     0.077 A 
ATOM     12  C   UNL     1      43.031 131.904  19.240  1.00  0.00     0.055 A 
ATOM     13  C   UNL     1      45.304 131.008  19.049  1.00  0.00     0.147 A 
ATOM     14  C   UNL     1      43.160 131.797  20.623  1.00  0.00     0.048 A 
ATOM     15  C   UNL     1      45.398 130.914  20.450  1.00  0.00     0.051 A 
ATOM     16  N   UNL     1      42.252 132.130  21.555  1.00  0.00    -0.361 N 
ATOM     17  C   UNL     1      44.301 131.318  21.205  1.00  0.00     0.002 A 
ATOM     18  C   UNL     1      42.828 131.854  22.747  1.00  0.00     0.083 A 
ATOM     19  C   UNL     1      44.111 131.344  22.569  1.00  0.00     0.028 A 
ATOM     20  F   UNL     1      46.359 130.620  18.289  1.00  0.00    -0.205 F 
ATOM     21  H   UNL     1      41.297 132.522  21.396  1.00  0.00     0.166 HD
ENDBRANCH   1  11
TORSDOF 2
ENDMDL
MODEL 6
REMARK VINA RESULT:      -8.8      2.868      6.342
REMARK SMILES [O-]c1ccc(Nc2cc3[nH]ccc3cc2F)c(F)c1
REMARK SMILES IDX 6 1 5 3 2 4 3 5 19 6 4 7 17 8 1 9 18 10 7 11 8 12 15 13 9 14
REMARK SMILES IDX 14 15 10 16 13 17 11 18 12 19 16 20
REMARK H PARENT 6 2 10 21
ROOT
ATOM      1  N   UNL     1      44.463 132.166  17.551  1.00  0.00    -0.351 N 
ATOM      2  H   UNL     1      43.940 132.985  17.165  1.00  0.00     0.167 HD
ENDROOT
BRANCH   1   3
ATOM      3  C   UNL     1      44.317 131.882  18.952  1.00  0.00     0.075 A 
ATOM      4  C   UNL     1      44.081 131.382  21.705  1.00  0.00    -0.106 A 
ATOM      5  C   UNL     1      45.340 131.603  21.140  1.00  0.00    -0.006 A 
ATOM      6  C   UNL     1      42.938 131.427  20.903  1.00  0.00     0.033 A 
ATOM      7  C   UNL     1      45.457 131.861  19.770  1.00  0.00     0.028 A 
ATOM      8  C   UNL     1      43.048 131.684  19.532  1.00  0.00     0.146 A 
ATOM      9  O   UNL     1      43.966 131.125  23.066  1.00  0.00    -0.872 OA
ATOM     10  F   UNL     1      41.921 131.776  18.785  1.00  0.00    -0.205 F 
ENDBRANCH   1   3
BRANCH   1  11
ATOM     11  C   UNL     1      45.348 131.451  16.671  1.00  0.00     0.077 A 
ATOM     12  C   UNL     1      45.818 132.042  15.473  1.00  0.00     0.055 A 
ATOM     13  C   UNL     1      45.712 130.113  16.980  1.00  0.00     0.147 A 
ATOM     14  C   UNL     1      46.652 131.289  14.650  1.00  0.00     0.048 A 
ATOM     15  C   UNL     1      46.556 129.382  16.124  1.00  0.00     0.051 A 
ATOM     16  N   UNL     1      47.203 131.663  13.483  1.00  0.00    -0.361 N 
ATOM     17  C   UNL     1      47.009 130.007  14.966  1.00  0.00     0.002 A 
ATOM     18  C   UNL     1      47.922 130.601  13.057  1.00  0.00     0.083 A 
ATOM     19  C   UNL     1      47.825 129.544  13.958  1.00  0.00     0.028 A 
ATOM     20  F   UNL     1      45.257 129.528  18.117  1.00  0.00    -0.205 F 
ATOM     21  H   UNL     1      47.099 132.584  13.002  1.00  0.00     0.166 HD
ENDBRANCH   1  11
TORSDOF 2
ENDMDL
MODEL 7
REMARK VINA RESULT:      -8.7      3.282      6.375
REMARK SMILES [O-]c1ccc(Nc2cc3[nH]ccc3cc2F)c(F)c1
REMARK SMILES IDX 6 1 5 3 2 4 3 5 19 6 4 7 17 8 1 9 18 10 7 11 8 12 15 13 9 14
REMARK SMILES IDX 14 15 10 16 13 17 11 18 12 19 16 20
REMARK H PARENT 6 2 10 21
ROOT
ATOM      1  N   UNL     1      45.609 130.397  18.210  1.00  0.00    -0.351 N 
ATOM      2  H   UNL     1      46.032 129.618  18.762  1.00  0.00     0.167 HD
ENDROOT
BRANCH   1   3
ATOM      3  C   UNL     1      44.536 131.137  18.815  1.00  0.00     0.075 A 
ATOM      4  C   UNL     1      42.390 132.533  19.970  1.00  0.00    -0.106 A 
ATOM      5  C   UNL     1      42.300 132.076  18.652  1.00  0.00    -0.006 A 
ATOM      6  C   UNL     1      43.543 132.282  20.718  1.00  0.00     0.033 A 
ATOM      7  C   UNL     1      43.364 131.372  18.081  1.00  0.00     0.028 A 
ATOM      8  C   UNL     1      44.612 131.579  20.152  1.00  0.00     0.146 A 
ATOM      9  O   UNL     1      41.332 133.233  20.536  1.00  0.00    -0.872 OA
ATOM     10  F   UNL     1      45.697 131.299  20.915  1.00  0.00    -0.205 F 
ENDBRANCH   1   3
BRANCH   1  11
ATOM     11  C   UNL     1      46.073 130.605  16.864  1.00  0.00     0.077 A 
ATOM     12  C   UNL     1      46.760 129.582  16.165  1.00  0.00     0.055 A 
ATOM     13  C   UNL     1      45.889 131.871  16.249  1.00  0.00     0.147 A 
ATOM     14  C   UNL     1      47.207 129.854  14.874  1.00  0.00     0.048 A 
ATOM     15  C   UNL     1      46.355 132.109  14.943  1.00  0.00     0.051 A 
ATOM     16  N   UNL     1      47.869 129.026  14.049  1.00  0.00    -0.361 N 
ATOM     17  C   UNL     1      47.010 131.072  14.285  1.00  0.00     0.002 A 
ATOM     18  C   UNL     1      48.091 129.733  12.918  1.00  0.00     0.083 A 
ATOM     19  C   UNL     1      47.569 131.019  13.027  1.00  0.00     0.028 A 
ATOM     20  F   UNL     1      45.246 132.866  16.912  1.00  0.00    -0.205 F 
ATOM     21  H   UNL     1      48.155 128.040  14.238  1.00  0.00     0.166 HD
ENDBRANCH   1  11
TORSDOF 2
ENDMDL
MODEL 8
REMARK VINA RESULT:      -8.6      3.377      6.524
REMARK SMILES [O-]c1ccc(Nc2cc3[nH]ccc3cc2F)c(F)c1
REMARK SMILES IDX 6 1 5 3 2 4 3 5 19 6 4 7 17 8 1 9 18 10 7 11 8 12 15 13 9 14
REMARK SMILES IDX 14 15 10 16 13 17 11 18 12 19 16 20
REMARK H PARENT 6 2 10 21
ROOT
ATOM      1  N   UNL     1      44.740 131.763  20.365  1.00  0.00    -0.351 N 
ATOM      2  H   UNL     1      45.165 132.676  20.643  1.00  0.00     0.167 HD
ENDROOT
BRANCH   1   3
ATOM      3  C   UNL     1      44.240 130.915  21.413  1.00  0.00     0.075 A 
ATOM      4  C   UNL     1      43.333 129.254  23.487  1.00  0.00    -0.106 A 
ATOM      5  C   UNL     1      44.518 128.948  22.814  1.00  0.00    -0.006 A 
ATOM      6  C   UNL     1      42.606 130.396  23.139  1.00  0.00     0.033 A 
ATOM      7  C   UNL     1      44.976 129.780  21.787  1.00  0.00     0.028 A 
ATOM      8  C   UNL     1      43.058 131.232  22.112  1.00  0.00     0.146 A 
ATOM      9  O   UNL     1      42.880 128.426  24.507  1.00  0.00    -0.872 OA
ATOM     10  F   UNL     1      42.366 132.363  21.829  1.00  0.00    -0.205 F 
ENDBRANCH   1   3
BRANCH   1  11
ATOM     11  C   UNL     1      44.772 131.394  18.975  1.00  0.00     0.077 A 
ATOM     12  C   UNL     1      45.887 130.715  18.427  1.00  0.00     0.055 A 
ATOM     13  C   UNL     1      43.693 131.764  18.129  1.00  0.00     0.147 A 
ATOM     14  C   UNL     1      45.869 130.409  17.069  1.00  0.00     0.048 A 
ATOM     15  C   UNL     1      43.710 131.438  16.760  1.00  0.00     0.051 A 
ATOM     16  N   UNL     1      46.818 129.772  16.363  1.00  0.00    -0.361 N 
ATOM     17  C   UNL     1      44.818 130.757  16.266  1.00  0.00     0.002 A 
ATOM     18  C   UNL     1      46.357 129.714  15.093  1.00  0.00     0.083 A 
ATOM     19  C   UNL     1      45.108 130.320  14.993  1.00  0.00     0.028 A 
ATOM     20  F   UNL     1      42.624 132.428  18.637  1.00  0.00    -0.205 F 
ATOM     21  H   UNL     1      47.726 129.398  16.718  1.00  0.00     0.166 HD
ENDBRANCH   1  11
TORSDOF 2
ENDMDL
MODEL 9
REMARK VINA RESULT:      -8.4      1.302      1.517
REMARK SMILES [O-]c1ccc(Nc2cc3[nH]ccc3cc2F)c(F)c1
REMARK SMILES IDX 6 1 5 3 2 4 3 5 19 6 4 7 17 8 1 9 18 10 7 11 8 12 15 13 9 14
REMARK SMILES IDX 14 15 10 16 13 17 11 18 12 19 16 20
REMARK H PARENT 6 2 10 21
ROOT
ATOM      1  N   UNL     1      43.863 132.126  17.066  1.00  0.00    -0.351 N 
ATOM      2  H   UNL     1      43.244 132.809  16.574  1.00  0.00     0.167 HD
ENDROOT
BRANCH   1   3
ATOM      3  C   UNL     1      44.811 131.394  16.272  1.00  0.00     0.075 A 
ATOM      4  C   UNL     1      46.657 129.905  14.768  1.00  0.00    -0.106 A 
ATOM      5  C   UNL     1      46.729 129.903  16.164  1.00  0.00    -0.006 A 
ATOM      6  C   UNL     1      45.657 130.635  14.121  1.00  0.00     0.033 A 
ATOM      7  C   UNL     1      45.804 130.637  16.913  1.00  0.00     0.028 A 
ATOM      8  C   UNL     1      44.729 131.372  14.866  1.00  0.00     0.146 A 
ATOM      9  O   UNL     1      47.578 129.176  14.025  1.00  0.00    -0.872 OA
ATOM     10  F   UNL     1      43.735 132.028  14.218  1.00  0.00    -0.205 F 
ENDBRANCH   1   3
BRANCH   1  11
ATOM     11  C   UNL     1      43.654 131.913  18.473  1.00  0.00     0.077 A 
ATOM     12  C   UNL     1      44.693 131.414  19.296  1.00  0.00     0.055 A 
ATOM     13  C   UNL     1      42.372 132.155  19.034  1.00  0.00     0.147 A 
ATOM     14  C   UNL     1      44.420 131.204  20.646  1.00  0.00     0.048 A 
ATOM     15  C   UNL     1      42.133 131.932  20.403  1.00  0.00     0.051 A 
ATOM     16  N   UNL     1      45.261 130.744  21.586  1.00  0.00    -0.361 N 
ATOM     17  C   UNL     1      43.186 131.456  21.179  1.00  0.00     0.002 A 
ATOM     18  C   UNL     1      44.546 130.707  22.734  1.00  0.00     0.083 A 
ATOM     19  C   UNL     1      43.243 131.145  22.519  1.00  0.00     0.028 A 
ATOM     20  F   UNL     1      41.363 132.620  18.255  1.00  0.00    -0.205 F 
ATOM     21  H   UNL     1      46.260 130.469  21.461  1.00  0.00     0.166 HD
ENDBRANCH   1  11
TORSDOF 2
ENDMDL


