REMARK SMILES Cc1c(F)c(F)c(CCC(O)=C2CCC2)c(N)c1Nc1ccc(F)cc1
REMARK SMILES IDX 8 1 7 2 2 3 3 4 18 5 5 6 16 7 1 8 4 9 6 10 19 11 20 13 21 14
REMARK SMILES IDX 26 15 22 16 25 17 23 18 24 19 17 20 9 23 10 24 11 25 12 27
REMARK SMILES IDX 13 28 15 29 14 30
REMARK H PARENT 19 12 17 21 17 22 11 26
ROOT
ATOM      1  C   UNL     1       2.216   0.634   1.858  1.00  0.00     0.049 C 
ENDROOT
BRANCH   1   2
ATOM      2  C   UNL     1       1.369  -0.526   1.373  1.00  0.00     0.016 A 
ATOM      3  C   UNL     1      -0.140  -2.701   0.385  1.00  0.00     0.013 A 
ATOM      4  C   UNL     1       1.247  -2.645   0.182  1.00  0.00     0.164 A 
ATOM      5  C   UNL     1      -0.781  -1.666   1.096  1.00  0.00     0.068 A 
ATOM      6  C   UNL     1       1.990  -1.568   0.661  1.00  0.00     0.164 A 
ATOM      7  C   UNL     1      -0.032  -0.575   1.597  1.00  0.00     0.062 A 
ATOM      8  C   UNL     1      -0.934  -3.871  -0.136  1.00  0.00     0.050 C 
ATOM      9  F   UNL     1       1.888  -3.636  -0.491  1.00  0.00    -0.203 F 
ATOM     10  F   UNL     1       3.326  -1.542   0.422  1.00  0.00    -0.203 F 
BRANCH   5  11
ATOM     11  N   UNL     1      -2.199  -1.740   1.321  1.00  0.00    -0.354 N 
ATOM     12  H   UNL     1      -2.557  -2.559   1.863  1.00  0.00     0.167 HD
BRANCH  11  13
ATOM     13  C   UNL     1      -3.152  -0.843   0.721  1.00  0.00     0.039 A 
ATOM     14  C   UNL     1      -4.505  -0.932   1.086  1.00  0.00     0.029 A 
ATOM     15  C   UNL     1      -2.765   0.116  -0.236  1.00  0.00     0.029 A 
ATOM     16  C   UNL     1      -5.452  -0.076   0.515  1.00  0.00     0.041 A 
ATOM     17  C   UNL     1      -3.715   0.970  -0.804  1.00  0.00     0.041 A 
ATOM     18  C   UNL     1      -5.057   0.876  -0.429  1.00  0.00     0.123 A 
ATOM     19  F   UNL     1      -5.976   1.705  -0.981  1.00  0.00    -0.207 F 
ENDBRANCH  11  13
ENDBRANCH   5  11
BRANCH   7  20
ATOM     20  N   UNL     1      -0.698   0.458   2.345  1.00  0.00    -0.397 N 
ATOM     21  H   UNL     1      -0.258   1.383   2.539  1.00  0.00     0.156 HD
ATOM     22  H   UNL     1      -1.666   0.326   2.710  1.00  0.00     0.156 HD
ENDBRANCH   7  20
ENDBRANCH   1   2
BRANCH   1  23
ATOM     23  C   UNL     1       2.156   1.826   0.891  1.00  0.00     0.079 C 
BRANCH  23  24
ATOM     24  C   UNL     1       2.941   1.560  -0.363  1.00  0.00     0.092 C 
BRANCH  24  25
ATOM     25  O   UNL     1       4.325   1.721  -0.336  1.00  0.00    -0.512 OA
ATOM     26  H   UNL     1       4.901   1.543  -1.151  1.00  0.00     0.293 HD
ENDBRANCH  24  25
BRANCH  24  27
ATOM     27  C   UNL     1       2.336   1.151  -1.480  1.00  0.00    -0.033 C 
ATOM     28  C   UNL     1       0.926   0.837  -1.946  1.00  0.00     0.035 C 
ATOM     29  C   UNL     1       2.748   0.775  -2.889  1.00  0.00     0.035 C 
ATOM     30  C   UNL     1       1.352   0.475  -3.331  1.00  0.00     0.009 C 
ENDBRANCH  24  27
ENDBRANCH  23  24
ENDBRANCH   1  23
TORSDOF 8


