MODEL 1
REMARK VINA RESULT:      -3.8      0.000      0.000
REMARK SMILES C=C[C@@H]1C[NH2+][C@H](c2ccc3ncnn3c2)N(C(=O)OCCCCCC)C1
REMARK SMILES IDX 20 1 19 2 17 3 18 4 16 5 3 6 4 7 26 8 5 9 6 10 2 13 1 14
REMARK SMILES IDX 7 15 8 16 15 17 9 18 14 19 10 20 13 21 11 22 12 23 21 24
REMARK SMILES IDX 22 25 23 26 24 27 25 28
REMARK H PARENT 5 11 5 12
ROOT
ATOM      1  C   UNL     1      45.227 131.550  17.381  1.00  0.00     0.235 C 
ENDROOT
BRANCH   1   2
ATOM      2  O   UNL     1      44.833 130.872  18.569  1.00  0.00    -0.449 OA
BRANCH   2   3
ATOM      3  C   UNL     1      44.033 131.468  19.552  1.00  0.00     0.414 C 
ATOM      4  O   UNL     1      42.791 131.587  19.364  1.00  0.00    -0.224 OA
BRANCH   3   5
ATOM      5  N   UNL     1      44.631 131.936  20.779  1.00  0.00    -0.253 N 
ATOM      6  C   UNL     1      46.389 133.300  21.944  1.00  0.00     0.086 C 
ATOM      7  C   UNL     1      45.883 132.609  23.210  1.00  0.00     0.272 C 
ATOM      8  C   UNL     1      46.001 132.477  20.710  1.00  0.00     0.143 C 
ATOM      9  N   UNL     1      44.423 132.507  23.170  1.00  0.00    -0.322 N 
ATOM     10  C   UNL     1      43.933 131.663  22.060  1.00  0.00     0.323 C 
ATOM     11  H   UNL     1      44.015 133.467  23.075  1.00  0.00     0.348 HD
ATOM     12  H   UNL     1      44.087 132.125  24.086  1.00  0.00     0.348 HD
BRANCH   6  13
ATOM     13  C   UNL     1      47.885 133.503  22.008  1.00  0.00    -0.024 C 
ATOM     14  C   UNL     1      48.454 134.211  22.990  1.00  0.00     0.004 C 
ENDBRANCH   6  13
BRANCH  10  15
ATOM     15  C   UNL     1      43.980 130.186  22.427  1.00  0.00     0.050 A 
ATOM     16  C   UNL     1      43.036 129.669  23.351  1.00  0.00     0.017 A 
ATOM     17  C   UNL     1      44.968 129.313  21.919  1.00  0.00     0.127 A 
ATOM     18  C   UNL     1      43.067 128.318  23.733  1.00  0.00     0.050 A 
ATOM     19  N   UNL     1      44.950 128.019  22.321  1.00  0.00    -0.221 N 
ATOM     20  C   UNL     1      44.060 127.519  23.179  1.00  0.00     0.155 A 
ATOM     21  N   UNL     1      45.778 127.060  21.959  1.00  0.00    -0.155 NA
ATOM     22  N   UNL     1      44.266 126.211  23.416  1.00  0.00    -0.215 NA
ATOM     23  C   UNL     1      45.349 125.966  22.633  1.00  0.00     0.247 A 
ENDBRANCH  10  15
ENDBRANCH   3   5
ENDBRANCH   2   3
ENDBRANCH   1   2
BRANCH   1  24
ATOM     24  C   UNL     1      44.302 131.144  16.237  1.00  0.00     0.042 C 
BRANCH  24  25
ATOM     25  C   UNL     1      44.949 130.065  15.358  1.00  0.00     0.003 C 
BRANCH  25  26
ATOM     26  C   UNL     1      46.437 129.898  15.700  1.00  0.00    -0.000 C 
BRANCH  26  27
ATOM     27  C   UNL     1      47.333 129.904  14.452  1.00  0.00    -0.003 C 
ATOM     28  C   UNL     1      46.886 130.924  13.406  1.00  0.00     0.004 C 
ENDBRANCH  26  27
ENDBRANCH  25  26
ENDBRANCH  24  25
ENDBRANCH   1  24
TORSDOF 9
ENDMDL
MODEL 2
REMARK VINA RESULT:      -3.6      2.992      6.627
REMARK SMILES C=C[C@@H]1C[NH2+][C@H](c2ccc3ncnn3c2)N(C(=O)OCCCCCC)C1
REMARK SMILES IDX 20 1 19 2 17 3 18 4 16 5 3 6 4 7 26 8 5 9 6 10 2 13 1 14
REMARK SMILES IDX 7 15 8 16 15 17 9 18 14 19 10 20 13 21 11 22 12 23 21 24
REMARK SMILES IDX 22 25 23 26 24 27 25 28
REMARK H PARENT 5 11 5 12
ROOT
ATOM      1  C   UNL     1      47.831 134.093  22.301  1.00  0.00     0.235 C 
ENDROOT
BRANCH   1   2
ATOM      2  O   UNL     1      46.780 133.742  21.408  1.00  0.00    -0.449 OA
BRANCH   2   3
ATOM      3  C   UNL     1      46.493 132.417  21.059  1.00  0.00     0.414 C 
ATOM      4  O   UNL     1      47.430 131.637  20.731  1.00  0.00    -0.224 OA
BRANCH   3   5
ATOM      5  N   UNL     1      45.130 131.945  21.084  1.00  0.00    -0.253 N 
ATOM      6  C   UNL     1      43.254 130.820  22.319  1.00  0.00     0.086 C 
ATOM      7  C   UNL     1      42.541 130.840  20.968  1.00  0.00     0.272 C 
ATOM      8  C   UNL     1      44.768 130.952  22.113  1.00  0.00     0.143 C 
ATOM      9  N   UNL     1      42.800 132.113  20.290  1.00  0.00    -0.322 N 
ATOM     10  C   UNL     1      44.227 132.315  19.965  1.00  0.00     0.323 C 
ATOM     11  H   UNL     1      42.474 132.899  20.902  1.00  0.00     0.348 HD
ATOM     12  H   UNL     1      42.224 132.151  19.416  1.00  0.00     0.348 HD
BRANCH   6  13
ATOM     13  C   UNL     1      42.923 129.555  23.078  1.00  0.00    -0.024 C 
ATOM     14  C   UNL     1      42.621 129.580  24.380  1.00  0.00     0.004 C 
ENDBRANCH   6  13
BRANCH  10  15
ATOM     15  C   UNL     1      44.606 131.604  18.674  1.00  0.00     0.050 A 
ATOM     16  C   UNL     1      45.536 130.534  18.716  1.00  0.00     0.017 A 
ATOM     17  C   UNL     1      44.101 132.004  17.416  1.00  0.00     0.127 A 
ATOM     18  C   UNL     1      45.929 129.873  17.541  1.00  0.00     0.050 A 
ATOM     19  N   UNL     1      44.514 131.331  16.314  1.00  0.00    -0.221 N 
ATOM     20  C   UNL     1      45.378 130.315  16.344  1.00  0.00     0.155 A 
ATOM     21  N   UNL     1      44.157 131.550  15.065  1.00  0.00    -0.155 NA
ATOM     22  N   UNL     1      45.625 129.826  15.115  1.00  0.00    -0.215 NA
ATOM     23  C   UNL     1      44.841 130.627  14.347  1.00  0.00     0.247 A 
ENDBRANCH  10  15
ENDBRANCH   3   5
ENDBRANCH   2   3
ENDBRANCH   1   2
BRANCH   1  24
ATOM     24  C   UNL     1      48.930 134.819  21.528  1.00  0.00     0.042 C 
BRANCH  24  25
ATOM     25  C   UNL     1      48.832 136.338  21.722  1.00  0.00     0.003 C 
BRANCH  25  26
ATOM     26  C   UNL     1      48.331 137.022  20.442  1.00  0.00    -0.000 C 
BRANCH  26  27
ATOM     27  C   UNL     1      49.480 137.472  19.525  1.00  0.00    -0.003 C 
ATOM     28  C   UNL     1      49.351 138.930  19.086  1.00  0.00     0.004 C 
ENDBRANCH  26  27
ENDBRANCH  25  26
ENDBRANCH  24  25
ENDBRANCH   1  24
TORSDOF 9
ENDMDL
MODEL 3
REMARK VINA RESULT:      -3.2      2.774      6.688
REMARK SMILES C=C[C@@H]1C[NH2+][C@H](c2ccc3ncnn3c2)N(C(=O)OCCCCCC)C1
REMARK SMILES IDX 20 1 19 2 17 3 18 4 16 5 3 6 4 7 26 8 5 9 6 10 2 13 1 14
REMARK SMILES IDX 7 15 8 16 15 17 9 18 14 19 10 20 13 21 11 22 12 23 21 24
REMARK SMILES IDX 22 25 23 26 24 27 25 28
REMARK H PARENT 5 11 5 12
ROOT
ATOM      1  C   UNL     1      47.701 134.177  22.665  1.00  0.00     0.235 C 
ENDROOT
BRANCH   1   2
ATOM      2  O   UNL     1      47.205 133.038  21.970  1.00  0.00    -0.449 OA
BRANCH   2   3
ATOM      3  C   UNL     1      46.088 133.092  21.128  1.00  0.00     0.414 C 
ATOM      4  O   UNL     1      46.041 133.948  20.201  1.00  0.00    -0.224 OA
BRANCH   3   5
ATOM      5  N   UNL     1      44.999 132.164  21.316  1.00  0.00    -0.253 N 
ATOM      6  C   UNL     1      43.812 130.491  22.765  1.00  0.00     0.086 C 
ATOM      7  C   UNL     1      42.989 130.201  21.510  1.00  0.00     0.272 C 
ATOM      8  C   UNL     1      45.141 131.149  22.377  1.00  0.00     0.143 C 
ATOM      9  N   UNL     1      42.691 131.453  20.812  1.00  0.00    -0.322 N 
ATOM     10  C   UNL     1      43.902 132.141  20.317  1.00  0.00     0.323 C 
ATOM     11  H   UNL     1      42.176 132.093  21.462  1.00  0.00     0.348 HD
ATOM     12  H   UNL     1      42.044 131.248  20.014  1.00  0.00     0.348 HD
BRANCH   6  13
ATOM     13  C   UNL     1      44.049 129.222  23.552  1.00  0.00    -0.024 C 
ATOM     14  C   UNL     1      44.589 128.139  22.986  1.00  0.00     0.004 C 
ENDBRANCH   6  13
BRANCH  10  15
ATOM     15  C   UNL     1      44.360 131.562  18.986  1.00  0.00     0.050 A 
ATOM     16  C   UNL     1      45.480 130.692  18.955  1.00  0.00     0.017 A 
ATOM     17  C   UNL     1      43.741 131.902  17.762  1.00  0.00     0.127 A 
ATOM     18  C   UNL     1      45.947 130.162  17.741  1.00  0.00     0.050 A 
ATOM     19  N   UNL     1      44.233 131.361  16.621  1.00  0.00    -0.221 N 
ATOM     20  C   UNL     1      45.277 130.531  16.581  1.00  0.00     0.155 A 
ATOM     21  N   UNL     1      43.793 131.551  15.393  1.00  0.00    -0.155 NA
ATOM     22  N   UNL     1      45.566 130.142  15.326  1.00  0.00    -0.215 NA
ATOM     23  C   UNL     1      44.613 130.803  14.617  1.00  0.00     0.247 A 
ENDBRANCH  10  15
ENDBRANCH   3   5
ENDBRANCH   2   3
ENDBRANCH   1   2
BRANCH   1  24
ATOM     24  C   UNL     1      48.859 134.785  21.877  1.00  0.00     0.042 C 
BRANCH  24  25
ATOM     25  C   UNL     1      48.450 136.113  21.226  1.00  0.00     0.003 C 
BRANCH  25  26
ATOM     26  C   UNL     1      49.657 136.796  20.566  1.00  0.00    -0.000 C 
BRANCH  26  27
ATOM     27  C   UNL     1      50.453 137.666  21.551  1.00  0.00    -0.003 C 
ATOM     28  C   UNL     1      51.696 136.961  22.094  1.00  0.00     0.004 C 
ENDBRANCH  26  27
ENDBRANCH  25  26
ENDBRANCH  24  25
ENDBRANCH   1  24
TORSDOF 9
ENDMDL
MODEL 4
REMARK VINA RESULT:      -2.8      0.925      1.212
REMARK SMILES C=C[C@@H]1C[NH2+][C@H](c2ccc3ncnn3c2)N(C(=O)OCCCCCC)C1
REMARK SMILES IDX 20 1 19 2 17 3 18 4 16 5 3 6 4 7 26 8 5 9 6 10 2 13 1 14
REMARK SMILES IDX 7 15 8 16 15 17 9 18 14 19 10 20 13 21 11 22 12 23 21 24
REMARK SMILES IDX 22 25 23 26 24 27 25 28
REMARK H PARENT 5 11 5 12
ROOT
ATOM      1  C   UNL     1      45.624 131.297  16.837  1.00  0.00     0.235 C 
ENDROOT
BRANCH   1   2
ATOM      2  O   UNL     1      44.896 131.272  18.060  1.00  0.00    -0.449 OA
BRANCH   2   3
ATOM      3  C   UNL     1      45.397 130.684  19.228  1.00  0.00     0.414 C 
ATOM      4  O   UNL     1      45.781 129.482  19.211  1.00  0.00    -0.224 OA
BRANCH   3   5
ATOM      5  N   UNL     1      45.481 131.457  20.443  1.00  0.00    -0.253 N 
ATOM      6  C   UNL     1      46.669 133.182  21.830  1.00  0.00     0.086 C 
ATOM      7  C   UNL     1      45.709 132.747  22.937  1.00  0.00     0.272 C 
ATOM      8  C   UNL     1      46.778 132.079  20.770  1.00  0.00     0.143 C 
ATOM      9  N   UNL     1      44.375 132.520  22.376  1.00  0.00    -0.322 N 
ATOM     10  C   UNL     1      44.342 131.416  21.394  1.00  0.00     0.323 C 
ATOM     11  H   UNL     1      44.045 133.399  21.913  1.00  0.00     0.348 HD
ATOM     12  H   UNL     1      43.710 132.322  23.161  1.00  0.00     0.348 HD
BRANCH   6  13
ATOM     13  C   UNL     1      48.028 133.515  22.403  1.00  0.00    -0.024 C 
ATOM     14  C   UNL     1      48.589 134.715  22.219  1.00  0.00     0.004 C 
ENDBRANCH   6  13
BRANCH  10  15
ATOM     15  C   UNL     1      44.230 130.064  22.086  1.00  0.00     0.050 A 
ATOM     16  C   UNL     1      43.173 129.839  23.004  1.00  0.00     0.017 A 
ATOM     17  C   UNL     1      45.177 129.035  21.888  1.00  0.00     0.127 A 
ATOM     18  C   UNL     1      43.055 128.614  23.681  1.00  0.00     0.050 A 
ATOM     19  N   UNL     1      45.015 127.873  22.567  1.00  0.00    -0.221 N 
ATOM     20  C   UNL     1      44.016 127.645  23.422  1.00  0.00     0.155 A 
ATOM     21  N   UNL     1      45.783 126.803  22.513  1.00  0.00    -0.155 NA
ATOM     22  N   UNL     1      44.088 126.417  23.966  1.00  0.00    -0.215 NA
ATOM     23  C   UNL     1      45.206 125.926  23.370  1.00  0.00     0.247 A 
ENDBRANCH  10  15
ENDBRANCH   3   5
ENDBRANCH   2   3
ENDBRANCH   1   2
BRANCH   1  24
ATOM     24  C   UNL     1      45.919 129.865  16.396  1.00  0.00     0.042 C 
BRANCH  24  25
ATOM     25  C   UNL     1      45.829 129.726  14.870  1.00  0.00     0.003 C 
BRANCH  25  26
ATOM     26  C   UNL     1      46.128 131.065  14.179  1.00  0.00    -0.000 C 
BRANCH  26  27
ATOM     27  C   UNL     1      47.379 131.003  13.290  1.00  0.00    -0.003 C 
ATOM     28  C   UNL     1      48.138 129.684  13.426  1.00  0.00     0.004 C 
ENDBRANCH  26  27
ENDBRANCH  25  26
ENDBRANCH  24  25
ENDBRANCH   1  24
TORSDOF 9
ENDMDL
MODEL 5
REMARK VINA RESULT:      -2.7      1.109      1.696
REMARK SMILES C=C[C@@H]1C[NH2+][C@H](c2ccc3ncnn3c2)N(C(=O)OCCCCCC)C1
REMARK SMILES IDX 20 1 19 2 17 3 18 4 16 5 3 6 4 7 26 8 5 9 6 10 2 13 1 14
REMARK SMILES IDX 7 15 8 16 15 17 9 18 14 19 10 20 13 21 11 22 12 23 21 24
REMARK SMILES IDX 22 25 23 26 24 27 25 28
REMARK H PARENT 5 11 5 12
ROOT
ATOM      1  C   UNL     1      45.946 130.629  18.348  1.00  0.00     0.235 C 
ENDROOT
BRANCH   1   2
ATOM      2  O   UNL     1      44.716 130.383  19.021  1.00  0.00    -0.449 OA
BRANCH   2   3
ATOM      3  C   UNL     1      44.014 131.383  19.706  1.00  0.00     0.414 C 
ATOM      4  O   UNL     1      42.944 131.842  19.220  1.00  0.00    -0.224 OA
BRANCH   3   5
ATOM      5  N   UNL     1      44.512 131.876  20.967  1.00  0.00    -0.253 N 
ATOM      6  C   UNL     1      46.174 133.263  22.241  1.00  0.00     0.086 C 
ATOM      7  C   UNL     1      45.567 132.599  23.476  1.00  0.00     0.272 C 
ATOM      8  C   UNL     1      45.885 132.414  20.997  1.00  0.00     0.143 C 
ATOM      9  N   UNL     1      44.114 132.497  23.321  1.00  0.00    -0.322 N 
ATOM     10  C   UNL     1      43.713 131.631  22.193  1.00  0.00     0.323 C 
ATOM     11  H   UNL     1      43.717 133.455  23.173  1.00  0.00     0.348 HD
ATOM     12  H   UNL     1      43.705 132.135  24.215  1.00  0.00     0.348 HD
BRANCH   6  13
ATOM     13  C   UNL     1      47.661 133.466  22.421  1.00  0.00    -0.024 C 
ATOM     14  C   UNL     1      48.256 134.613  22.076  1.00  0.00     0.004 C 
ENDBRANCH   6  13
BRANCH  10  15
ATOM     15  C   UNL     1      43.727 130.162  22.593  1.00  0.00     0.050 A 
ATOM     16  C   UNL     1      44.896 129.390  22.366  1.00  0.00     0.017 A 
ATOM     17  C   UNL     1      42.594 129.518  23.140  1.00  0.00     0.127 A 
ATOM     18  C   UNL     1      44.934 128.026  22.698  1.00  0.00     0.050 A 
ATOM     19  N   UNL     1      42.688 128.199  23.441  1.00  0.00    -0.221 N 
ATOM     20  C   UNL     1      43.785 127.467  23.244  1.00  0.00     0.155 A 
ATOM     21  N   UNL     1      41.750 127.431  23.958  1.00  0.00    -0.155 NA
ATOM     22  N   UNL     1      43.614 126.188  23.622  1.00  0.00    -0.215 NA
ATOM     23  C   UNL     1      42.328 126.210  24.062  1.00  0.00     0.247 A 
ENDBRANCH  10  15
ENDBRANCH   3   5
ENDBRANCH   2   3
ENDBRANCH   1   2
BRANCH   1  24
ATOM     24  C   UNL     1      45.816 130.206  16.887  1.00  0.00     0.042 C 
BRANCH  24  25
ATOM     25  C   UNL     1      45.158 131.309  16.047  1.00  0.00     0.003 C 
BRANCH  25  26
ATOM     26  C   UNL     1      44.799 130.791  14.647  1.00  0.00    -0.000 C 
BRANCH  26  27
ATOM     27  C   UNL     1      45.910 131.054  13.618  1.00  0.00    -0.003 C 
ATOM     28  C   UNL     1      47.225 130.364  13.979  1.00  0.00     0.004 C 
ENDBRANCH  26  27
ENDBRANCH  25  26
ENDBRANCH  24  25
ENDBRANCH   1  24
TORSDOF 9
ENDMDL
MODEL 6
REMARK VINA RESULT:      -2.7      5.805      9.048
REMARK SMILES C=C[C@@H]1C[NH2+][C@H](c2ccc3ncnn3c2)N(C(=O)OCCCCCC)C1
REMARK SMILES IDX 20 1 19 2 17 3 18 4 16 5 3 6 4 7 26 8 5 9 6 10 2 13 1 14
REMARK SMILES IDX 7 15 8 16 15 17 9 18 14 19 10 20 13 21 11 22 12 23 21 24
REMARK SMILES IDX 22 25 23 26 24 27 25 28
REMARK H PARENT 5 11 5 12
ROOT
ATOM      1  C   UNL     1      52.375 126.527  24.623  1.00  0.00     0.235 C 
ENDROOT
BRANCH   1   2
ATOM      2  O   UNL     1      51.854 125.625  23.653  1.00  0.00    -0.449 OA
BRANCH   2   3
ATOM      3  C   UNL     1      50.508 125.239  23.624  1.00  0.00     0.414 C 
ATOM      4  O   UNL     1      49.718 125.648  24.519  1.00  0.00    -0.224 OA
BRANCH   3   5
ATOM      5  N   UNL     1      50.028 124.384  22.565  1.00  0.00    -0.253 N 
ATOM      6  C   UNL     1      50.285 123.471  20.240  1.00  0.00     0.086 C 
ATOM      7  C   UNL     1      48.894 122.881  20.470  1.00  0.00     0.272 C 
ATOM      8  C   UNL     1      50.522 124.643  21.200  1.00  0.00     0.143 C 
ATOM      9  N   UNL     1      48.790 122.376  21.841  1.00  0.00    -0.322 N 
ATOM     10  C   UNL     1      48.922 123.439  22.860  1.00  0.00     0.323 C 
ATOM     11  H   UNL     1      49.536 121.658  21.999  1.00  0.00     0.348 HD
ATOM     12  H   UNL     1      47.871 121.887  21.950  1.00  0.00     0.348 HD
BRANCH   6  13
ATOM     13  C   UNL     1      50.447 123.910  18.803  1.00  0.00    -0.024 C 
ATOM     14  C   UNL     1      51.216 123.230  17.946  1.00  0.00     0.004 C 
ENDBRANCH   6  13
BRANCH  10  15
ATOM     15  C   UNL     1      47.600 124.164  23.075  1.00  0.00     0.050 A 
ATOM     16  C   UNL     1      46.635 123.603  23.950  1.00  0.00     0.017 A 
ATOM     17  C   UNL     1      47.273 125.357  22.393  1.00  0.00     0.127 A 
ATOM     18  C   UNL     1      45.395 124.229  24.152  1.00  0.00     0.050 A 
ATOM     19  N   UNL     1      46.062 125.919  22.626  1.00  0.00    -0.221 N 
ATOM     20  C   UNL     1      45.152 125.407  23.456  1.00  0.00     0.155 A 
ATOM     21  N   UNL     1      45.580 127.024  22.093  1.00  0.00    -0.155 NA
ATOM     22  N   UNL     1      44.034 126.154  23.503  1.00  0.00    -0.215 NA
ATOM     23  C   UNL     1      44.346 127.154  22.636  1.00  0.00     0.247 A 
ENDBRANCH  10  15
ENDBRANCH   3   5
ENDBRANCH   2   3
ENDBRANCH   1   2
BRANCH   1  24
ATOM     24  C   UNL     1      53.346 127.491  23.947  1.00  0.00     0.042 C 
BRANCH  24  25
ATOM     25  C   UNL     1      52.597 128.523  23.093  1.00  0.00     0.003 C 
BRANCH  25  26
ATOM     26  C   UNL     1      52.991 129.954  23.491  1.00  0.00    -0.000 C 
BRANCH  26  27
ATOM     27  C   UNL     1      51.960 130.611  24.422  1.00  0.00    -0.003 C 
ATOM     28  C   UNL     1      52.213 132.105  24.625  1.00  0.00     0.004 C 
ENDBRANCH  26  27
ENDBRANCH  25  26
ENDBRANCH  24  25
ENDBRANCH   1  24
TORSDOF 9
ENDMDL
MODEL 7
REMARK VINA RESULT:      -2.6      2.595      6.595
REMARK SMILES C=C[C@@H]1C[NH2+][C@H](c2ccc3ncnn3c2)N(C(=O)OCCCCCC)C1
REMARK SMILES IDX 20 1 19 2 17 3 18 4 16 5 3 6 4 7 26 8 5 9 6 10 2 13 1 14
REMARK SMILES IDX 7 15 8 16 15 17 9 18 14 19 10 20 13 21 11 22 12 23 21 24
REMARK SMILES IDX 22 25 23 26 24 27 25 28
REMARK H PARENT 5 11 5 12
ROOT
ATOM      1  C   UNL     1      48.227 133.747  21.308  1.00  0.00     0.235 C 
ENDROOT
BRANCH   1   2
ATOM      2  O   UNL     1      46.968 133.197  21.680  1.00  0.00    -0.449 OA
BRANCH   2   3
ATOM      3  C   UNL     1      46.463 132.016  21.123  1.00  0.00     0.414 C 
ATOM      4  O   UNL     1      47.245 131.209  20.549  1.00  0.00    -0.224 OA
BRANCH   3   5
ATOM      5  N   UNL     1      45.054 131.721  21.216  1.00  0.00    -0.253 N 
ATOM      6  C   UNL     1      43.142 130.676  22.466  1.00  0.00     0.086 C 
ATOM      7  C   UNL     1      42.336 130.979  21.204  1.00  0.00     0.272 C 
ATOM      8  C   UNL     1      44.639 130.645  22.136  1.00  0.00     0.143 C 
ATOM      9  N   UNL     1      42.715 132.293  20.678  1.00  0.00    -0.322 N 
ATOM     10  C   UNL     1      44.127 132.358  20.248  1.00  0.00     0.323 C 
ATOM     11  H   UNL     1      42.549 133.018  21.416  1.00  0.00     0.348 HD
ATOM     12  H   UNL     1      42.084 132.528  19.875  1.00  0.00     0.348 HD
BRANCH   6  13
ATOM     13  C   UNL     1      42.699 129.368  23.081  1.00  0.00    -0.024 C 
ATOM     14  C   UNL     1      43.583 128.446  23.474  1.00  0.00     0.004 C 
ENDBRANCH   6  13
BRANCH  10  15
ATOM     15  C   UNL     1      44.303 131.797  18.843  1.00  0.00     0.050 A 
ATOM     16  C   UNL     1      43.296 132.029  17.871  1.00  0.00     0.017 A 
ATOM     17  C   UNL     1      45.414 131.002  18.481  1.00  0.00     0.127 A 
ATOM     18  C   UNL     1      43.412 131.503  16.574  1.00  0.00     0.050 A 
ATOM     19  N   UNL     1      45.475 130.521  17.216  1.00  0.00    -0.221 N 
ATOM     20  C   UNL     1      44.541 130.744  16.290  1.00  0.00     0.155 A 
ATOM     21  N   UNL     1      46.424 129.772  16.692  1.00  0.00    -0.155 NA
ATOM     22  N   UNL     1      44.838 130.150  15.120  1.00  0.00    -0.215 NA
ATOM     23  C   UNL     1      46.023 129.555  15.417  1.00  0.00     0.247 A 
ENDBRANCH  10  15
ENDBRANCH   3   5
ENDBRANCH   2   3
ENDBRANCH   1   2
BRANCH   1  24
ATOM     24  C   UNL     1      48.507 134.987  22.154  1.00  0.00     0.042 C 
BRANCH  24  25
ATOM     25  C   UNL     1      48.472 136.260  21.299  1.00  0.00     0.003 C 
BRANCH  25  26
ATOM     26  C   UNL     1      49.818 136.486  20.595  1.00  0.00    -0.000 C 
BRANCH  26  27
ATOM     27  C   UNL     1      50.836 137.212  21.488  1.00  0.00    -0.003 C 
ATOM     28  C   UNL     1      50.728 136.809  22.958  1.00  0.00     0.004 C 
ENDBRANCH  26  27
ENDBRANCH  25  26
ENDBRANCH  24  25
ENDBRANCH   1  24
TORSDOF 9
ENDMDL
MODEL 8
REMARK VINA RESULT:      -2.5      2.977      6.997
REMARK SMILES C=C[C@@H]1C[NH2+][C@H](c2ccc3ncnn3c2)N(C(=O)OCCCCCC)C1
REMARK SMILES IDX 20 1 19 2 17 3 18 4 16 5 3 6 4 7 26 8 5 9 6 10 2 13 1 14
REMARK SMILES IDX 7 15 8 16 15 17 9 18 14 19 10 20 13 21 11 22 12 23 21 24
REMARK SMILES IDX 22 25 23 26 24 27 25 28
REMARK H PARENT 5 11 5 12
ROOT
ATOM      1  C   UNL     1      47.651 135.074  21.746  1.00  0.00     0.235 C 
ENDROOT
BRANCH   1   2
ATOM      2  O   UNL     1      46.851 134.256  20.900  1.00  0.00    -0.449 OA
BRANCH   2   3
ATOM      3  C   UNL     1      46.735 132.872  21.073  1.00  0.00     0.414 C 
ATOM      4  O   UNL     1      47.772 132.171  21.238  1.00  0.00    -0.224 OA
BRANCH   3   5
ATOM      5  N   UNL     1      45.432 132.253  21.071  1.00  0.00    -0.253 N 
ATOM      6  C   UNL     1      43.630 131.004  22.298  1.00  0.00     0.086 C 
ATOM      7  C   UNL     1      42.988 130.860  20.919  1.00  0.00     0.272 C 
ATOM      8  C   UNL     1      45.129 131.292  22.149  1.00  0.00     0.143 C 
ATOM      9  N   UNL     1      43.140 132.109  20.168  1.00  0.00    -0.322 N 
ATOM     10  C   UNL     1      44.552 132.449  19.892  1.00  0.00     0.323 C 
ATOM     11  H   UNL     1      42.700 132.890  20.711  1.00  0.00     0.348 HD
ATOM     12  H   UNL     1      42.609 132.028  19.269  1.00  0.00     0.348 HD
BRANCH   6  13
ATOM     13  C   UNL     1      43.401 129.760  23.125  1.00  0.00    -0.024 C 
ATOM     14  C   UNL     1      44.091 128.636  22.904  1.00  0.00     0.004 C 
ENDBRANCH   6  13
BRANCH  10  15
ATOM     15  C   UNL     1      45.070 131.705  18.669  1.00  0.00     0.050 A 
ATOM     16  C   UNL     1      45.630 130.411  18.828  1.00  0.00     0.017 A 
ATOM     17  C   UNL     1      45.062 132.278  17.378  1.00  0.00     0.127 A 
ATOM     18  C   UNL     1      46.142 129.708  17.726  1.00  0.00     0.050 A 
ATOM     19  N   UNL     1      45.569 131.554  16.350  1.00  0.00    -0.221 N 
ATOM     20  C   UNL     1      46.086 130.332  16.485  1.00  0.00     0.155 A 
ATOM     21  N   UNL     1      45.646 131.912  15.084  1.00  0.00    -0.155 NA
ATOM     22  N   UNL     1      46.525 129.836  15.315  1.00  0.00    -0.215 NA
ATOM     23  C   UNL     1      46.229 130.857  14.467  1.00  0.00     0.247 A 
ENDBRANCH  10  15
ENDBRANCH   3   5
ENDBRANCH   2   3
ENDBRANCH   1   2
BRANCH   1  24
ATOM     24  C   UNL     1      49.052 135.197  21.152  1.00  0.00     0.042 C 
BRANCH  24  25
ATOM     25  C   UNL     1      49.612 136.613  21.340  1.00  0.00     0.003 C 
BRANCH  25  26
ATOM     26  C   UNL     1      50.484 136.695  22.601  1.00  0.00    -0.000 C 
BRANCH  26  27
ATOM     27  C   UNL     1      51.954 136.340  22.326  1.00  0.00    -0.003 C 
ATOM     28  C   UNL     1      52.914 137.471  22.693  1.00  0.00     0.004 C 
ENDBRANCH  26  27
ENDBRANCH  25  26
ENDBRANCH  24  25
ENDBRANCH   1  24
TORSDOF 9
ENDMDL
MODEL 9
REMARK VINA RESULT:      -2.4      2.992      6.736
REMARK SMILES C=C[C@@H]1C[NH2+][C@H](c2ccc3ncnn3c2)N(C(=O)OCCCCCC)C1
REMARK SMILES IDX 20 1 19 2 17 3 18 4 16 5 3 6 4 7 26 8 5 9 6 10 2 13 1 14
REMARK SMILES IDX 7 15 8 16 15 17 9 18 14 19 10 20 13 21 11 22 12 23 21 24
REMARK SMILES IDX 22 25 23 26 24 27 25 28
REMARK H PARENT 5 11 5 12
ROOT
ATOM      1  C   UNL     1      41.412 131.336  19.659  1.00  0.00     0.235 C 
ENDROOT
BRANCH   1   2
ATOM      2  O   UNL     1      41.946 132.180  18.646  1.00  0.00    -0.449 OA
BRANCH   2   3
ATOM      3  C   UNL     1      43.118 131.872  17.943  1.00  0.00     0.414 C 
ATOM      4  O   UNL     1      43.095 131.805  16.683  1.00  0.00    -0.224 OA
BRANCH   3   5
ATOM      5  N   UNL     1      44.348 131.641  18.662  1.00  0.00    -0.253 N 
ATOM      6  C   UNL     1      45.860 132.189  20.591  1.00  0.00     0.086 C 
ATOM      7  C   UNL     1      46.872 131.302  19.866  1.00  0.00     0.272 C 
ATOM      8  C   UNL     1      44.797 132.684  19.603  1.00  0.00     0.143 C 
ATOM      9  N   UNL     1      46.192 130.133  19.304  1.00  0.00    -0.322 N 
ATOM     10  C   UNL     1      45.194 130.485  18.272  1.00  0.00     0.323 C 
ATOM     11  H   UNL     1      45.715 129.610  20.076  1.00  0.00     0.348 HD
ATOM     12  H   UNL     1      46.912 129.488  18.900  1.00  0.00     0.348 HD
BRANCH   6  13
ATOM     13  C   UNL     1      46.554 133.353  21.261  1.00  0.00    -0.024 C 
ATOM     14  C   UNL     1      47.368 133.172  22.307  1.00  0.00     0.004 C 
ENDBRANCH   6  13
BRANCH  10  15
ATOM     15  C   UNL     1      45.853 130.697  16.916  1.00  0.00     0.050 A 
ATOM     16  C   UNL     1      45.717 131.950  16.266  1.00  0.00     0.017 A 
ATOM     17  C   UNL     1      46.556 129.668  16.250  1.00  0.00     0.127 A 
ATOM     18  C   UNL     1      46.288 132.172  15.002  1.00  0.00     0.050 A 
ATOM     19  N   UNL     1      47.087 129.938  15.032  1.00  0.00    -0.221 N 
ATOM     20  C   UNL     1      46.977 131.116  14.417  1.00  0.00     0.155 A 
ATOM     21  N   UNL     1      47.775 129.118  14.263  1.00  0.00    -0.155 NA
ATOM     22  N   UNL     1      47.587 131.119  13.218  1.00  0.00    -0.215 NA
ATOM     23  C   UNL     1      48.072 129.851  13.164  1.00  0.00     0.247 A 
ENDBRANCH  10  15
ENDBRANCH   3   5
ENDBRANCH   2   3
ENDBRANCH   1   2
BRANCH   1  24
ATOM     24  C   UNL     1      42.415 131.225  20.806  1.00  0.00     0.042 C 
BRANCH  24  25
ATOM     25  C   UNL     1      42.149 132.289  21.879  1.00  0.00     0.003 C 
BRANCH  25  26
ATOM     26  C   UNL     1      42.650 131.819  23.253  1.00  0.00    -0.000 C 
BRANCH  26  27
ATOM     27  C   UNL     1      42.818 130.294  23.329  1.00  0.00    -0.003 C 
ATOM     28  C   UNL     1      44.269 129.849  23.149  1.00  0.00     0.004 C 
ENDBRANCH  26  27
ENDBRANCH  25  26
ENDBRANCH  24  25
ENDBRANCH   1  24
TORSDOF 9
ENDMDL


