MODEL 1
REMARK VINA RESULT:      -4.5      0.000      0.000
REMARK SMILES N#Cc1c[nH+]c(N(c2cc3ccccc3[n-]2)c2cn3ccccc3[nH+]2)cn1
REMARK SMILES IDX 3 1 4 2 5 3 6 4 26 5 27 6 2 8 1 9 7 10 8 11 9 12 16 13 10 14
REMARK SMILES IDX 15 15 11 16 14 17 12 18 13 19 17 20 18 21 25 22 19 23 24 24
REMARK SMILES IDX 20 25 23 26 21 27 22 28
REMARK H PARENT 5 7 25 29
ROOT
ATOM      1  C   UNL     1      41.887 123.864  23.531  1.00  0.00     0.179 A 
ATOM      2  C   UNL     1      41.940 125.168  24.032  1.00  0.00     0.236 A 
ATOM      3  N   UNL     1      43.044 125.927  23.806  1.00  0.00    -0.249 N 
ATOM      4  C   UNL     1      44.104 125.443  23.094  1.00  0.00     0.277 A 
ATOM      5  C   UNL     1      44.044 124.132  22.596  1.00  0.00     0.202 A 
ATOM      6  N   UNL     1      42.940 123.376  22.825  1.00  0.00    -0.234 NA
ATOM      7  H   UNL     1      43.068 126.904  24.175  1.00  0.00     0.311 HD
ENDROOT
BRANCH   1   8
ATOM      8  C   UNL     1      40.731 123.039  23.755  1.00  0.00     0.123 C 
ATOM      9  N   UNL     1      39.801 122.375  23.935  1.00  0.00    -0.191 NA
ENDBRANCH   1   8
BRANCH   4  10
ATOM     10  N   UNL     1      45.271 126.260  22.877  1.00  0.00    -0.191 N 
BRANCH  10  11
ATOM     11  C   UNL     1      45.130 127.649  22.518  1.00  0.00     0.100 A 
ATOM     12  C   UNL     1      44.538 128.621  23.322  1.00  0.00     0.048 A 
ATOM     13  N   UNL     1      45.564 128.156  21.337  1.00  0.00    -0.403 NA
ATOM     14  C   UNL     1      44.622 129.774  22.582  1.00  0.00    -0.019 A 
ATOM     15  C   UNL     1      45.241 129.460  21.400  1.00  0.00    -0.032 A 
ATOM     16  C   UNL     1      44.197 131.069  22.872  1.00  0.00     0.008 A 
ATOM     17  C   UNL     1      45.477 130.425  20.423  1.00  0.00     0.004 A 
ATOM     18  C   UNL     1      44.424 132.065  21.903  1.00  0.00     0.001 A 
ATOM     19  C   UNL     1      45.060 131.744  20.684  1.00  0.00     0.000 A 
ENDBRANCH  10  11
BRANCH  10  20
ATOM     20  C   UNL     1      46.582 125.675  23.000  1.00  0.00     0.266 A 
ATOM     21  C   UNL     1      47.250 124.961  22.011  1.00  0.00     0.248 A 
ATOM     22  N   UNL     1      47.341 125.728  24.121  1.00  0.00    -0.243 N 
ATOM     23  N   UNL     1      48.426 124.580  22.536  1.00  0.00    -0.233 N 
ATOM     24  C   UNL     1      48.456 125.048  23.796  1.00  0.00     0.230 A 
ATOM     25  C   UNL     1      49.434 123.861  21.980  1.00  0.00     0.168 A 
ATOM     26  C   UNL     1      49.553 124.812  24.624  1.00  0.00     0.081 A 
ATOM     27  C   UNL     1      50.567 123.594  22.765  1.00  0.00     0.035 A 
ATOM     28  C   UNL     1      50.622 124.072  24.090  1.00  0.00     0.010 A 
ATOM     29  H   UNL     1      47.109 126.165  25.041  1.00  0.00     0.267 HD
ENDBRANCH  10  20
ENDBRANCH   4  10
TORSDOF 4
ENDMDL
MODEL 2
REMARK VINA RESULT:      -4.0      1.293      6.921
REMARK SMILES N#Cc1c[nH+]c(N(c2cc3ccccc3[n-]2)c2cn3ccccc3[nH+]2)cn1
REMARK SMILES IDX 3 1 4 2 5 3 6 4 26 5 27 6 2 8 1 9 7 10 8 11 9 12 16 13 10 14
REMARK SMILES IDX 15 15 11 16 14 17 12 18 13 19 17 20 18 21 25 22 19 23 24 24
REMARK SMILES IDX 20 25 23 26 21 27 22 28
REMARK H PARENT 5 7 25 29
ROOT
ATOM      1  C   UNL     1      49.183 124.373  23.468  1.00  0.00     0.179 A 
ATOM      2  C   UNL     1      48.578 125.001  24.559  1.00  0.00     0.236 A 
ATOM      3  N   UNL     1      47.343 125.552  24.414  1.00  0.00    -0.249 N 
ATOM      4  C   UNL     1      46.680 125.501  23.222  1.00  0.00     0.277 A 
ATOM      5  C   UNL     1      47.295 124.870  22.131  1.00  0.00     0.202 A 
ATOM      6  N   UNL     1      48.528 124.322  22.279  1.00  0.00    -0.234 NA
ATOM      7  H   UNL     1      46.896 126.010  25.240  1.00  0.00     0.311 HD
ENDROOT
BRANCH   1   8
ATOM      8  C   UNL     1      50.487 123.781  23.592  1.00  0.00     0.123 C 
ATOM      9  N   UNL     1      51.537 123.305  23.692  1.00  0.00    -0.191 NA
ENDBRANCH   1   8
BRANCH   4  10
ATOM     10  N   UNL     1      45.378 126.103  23.086  1.00  0.00    -0.191 N 
BRANCH  10  11
ATOM     11  C   UNL     1      44.192 125.358  23.429  1.00  0.00     0.100 A 
ATOM     12  C   UNL     1      42.916 125.906  23.548  1.00  0.00     0.048 A 
ATOM     13  N   UNL     1      44.202 124.025  23.683  1.00  0.00    -0.403 NA
ATOM     14  C   UNL     1      42.117 124.843  23.890  1.00  0.00    -0.019 A 
ATOM     15  C   UNL     1      42.919 123.734  23.962  1.00  0.00    -0.032 A 
ATOM     16  C   UNL     1      40.748 124.782  24.139  1.00  0.00     0.008 A 
ATOM     17  C   UNL     1      42.402 122.482  24.291  1.00  0.00     0.004 A 
ATOM     18  C   UNL     1      40.198 123.530  24.472  1.00  0.00     0.001 A 
ATOM     19  C   UNL     1      41.022 122.385  24.548  1.00  0.00     0.000 A 
ENDBRANCH  10  11
BRANCH  10  20
ATOM     20  C   UNL     1      45.265 127.449  22.586  1.00  0.00     0.266 A 
ATOM     21  C   UNL     1      45.696 127.891  21.340  1.00  0.00     0.248 A 
ATOM     22  N   UNL     1      44.734 128.482  23.282  1.00  0.00    -0.243 N 
ATOM     23  N   UNL     1      45.420 129.205  21.278  1.00  0.00    -0.233 N 
ATOM     24  C   UNL     1      44.848 129.534  22.450  1.00  0.00     0.230 A 
ATOM     25  C   UNL     1      45.647 130.095  20.280  1.00  0.00     0.168 A 
ATOM     26  C   UNL     1      44.448 130.844  22.710  1.00  0.00     0.081 A 
ATOM     27  C   UNL     1      45.261 131.430  20.483  1.00  0.00     0.035 A 
ATOM     28  C   UNL     1      44.661 131.800  21.703  1.00  0.00     0.010 A 
ATOM     29  H   UNL     1      44.351 128.480  24.254  1.00  0.00     0.267 HD
ENDBRANCH  10  20
ENDBRANCH   4  10
TORSDOF 4
ENDMDL
MODEL 3
REMARK VINA RESULT:      -3.0      4.822      7.519
REMARK SMILES N#Cc1c[nH+]c(N(c2cc3ccccc3[n-]2)c2cn3ccccc3[nH+]2)cn1
REMARK SMILES IDX 3 1 4 2 5 3 6 4 26 5 27 6 2 8 1 9 7 10 8 11 9 12 16 13 10 14
REMARK SMILES IDX 15 15 11 16 14 17 12 18 13 19 17 20 18 21 25 22 19 23 24 24
REMARK SMILES IDX 20 25 23 26 21 27 22 28
REMARK H PARENT 5 7 25 29
ROOT
ATOM      1  C   UNL     1      42.963 129.690  22.995  1.00  0.00     0.179 A 
ATOM      2  C   UNL     1      44.262 129.222  22.782  1.00  0.00     0.236 A 
ATOM      3  N   UNL     1      45.085 129.891  21.931  1.00  0.00    -0.249 N 
ATOM      4  C   UNL     1      44.667 131.017  21.281  1.00  0.00     0.277 A 
ATOM      5  C   UNL     1      43.360 131.480  21.498  1.00  0.00     0.202 A 
ATOM      6  N   UNL     1      42.542 130.808  22.347  1.00  0.00    -0.234 NA
ATOM      7  H   UNL     1      46.058 129.539  21.789  1.00  0.00     0.311 HD
ENDROOT
BRANCH   1   8
ATOM      8  C   UNL     1      42.072 129.003  23.889  1.00  0.00     0.123 C 
ATOM      9  N   UNL     1      41.355 128.448  24.608  1.00  0.00    -0.191 NA
ENDBRANCH   1   8
BRANCH   4  10
ATOM     10  N   UNL     1      45.549 131.704  20.373  1.00  0.00    -0.191 N 
BRANCH  10  11
ATOM     11  C   UNL     1      45.513 131.413  18.962  1.00  0.00     0.100 A 
ATOM     12  C   UNL     1      44.646 132.010  18.049  1.00  0.00     0.048 A 
ATOM     13  N   UNL     1      46.331 130.505  18.372  1.00  0.00    -0.403 NA
ATOM     14  C   UNL     1      44.962 131.430  16.846  1.00  0.00    -0.019 A 
ATOM     15  C   UNL     1      45.974 130.534  17.076  1.00  0.00    -0.032 A 
ATOM     16  C   UNL     1      44.429 131.632  15.575  1.00  0.00     0.008 A 
ATOM     17  C   UNL     1      46.523 129.775  16.043  1.00  0.00     0.004 A 
ATOM     18  C   UNL     1      44.965 130.880  14.513  1.00  0.00     0.001 A 
ATOM     19  C   UNL     1      46.007 129.955  14.746  1.00  0.00     0.000 A 
ENDBRANCH  10  11
BRANCH  10  20
ATOM     20  C   UNL     1      46.486 132.672  20.886  1.00  0.00     0.266 A 
ATOM     21  C   UNL     1      46.641 133.975  20.426  1.00  0.00     0.248 A 
ATOM     22  N   UNL     1      47.365 132.430  21.888  1.00  0.00    -0.243 N 
ATOM     23  N   UNL     1      47.623 134.530  21.157  1.00  0.00    -0.233 N 
ATOM     24  C   UNL     1      48.039 133.587  22.021  1.00  0.00     0.230 A 
ATOM     25  C   UNL     1      48.153 135.777  21.097  1.00  0.00     0.168 A 
ATOM     26  C   UNL     1      49.068 133.847  22.926  1.00  0.00     0.081 A 
ATOM     27  C   UNL     1      49.190 136.098  21.987  1.00  0.00     0.035 A 
ATOM     28  C   UNL     1      49.646 135.127  22.901  1.00  0.00     0.010 A 
ATOM     29  H   UNL     1      47.515 131.543  22.418  1.00  0.00     0.267 HD
ENDBRANCH  10  20
ENDBRANCH   4  10
TORSDOF 4
ENDMDL
MODEL 4
REMARK VINA RESULT:      -2.8      4.666      8.847
REMARK SMILES N#Cc1c[nH+]c(N(c2cc3ccccc3[n-]2)c2cn3ccccc3[nH+]2)cn1
REMARK SMILES IDX 3 1 4 2 5 3 6 4 26 5 27 6 2 8 1 9 7 10 8 11 9 12 16 13 10 14
REMARK SMILES IDX 15 15 11 16 14 17 12 18 13 19 17 20 18 21 25 22 19 23 24 24
REMARK SMILES IDX 20 25 23 26 21 27 22 28
REMARK H PARENT 5 7 25 29
ROOT
ATOM      1  C   UNL     1      48.389 134.158  22.417  1.00  0.00     0.179 A 
ATOM      2  C   UNL     1      48.759 133.235  21.436  1.00  0.00     0.236 A 
ATOM      3  N   UNL     1      47.833 132.367  20.949  1.00  0.00    -0.249 N 
ATOM      4  C   UNL     1      46.544 132.381  21.399  1.00  0.00     0.277 A 
ATOM      5  C   UNL     1      46.180 133.310  22.386  1.00  0.00     0.202 A 
ATOM      6  N   UNL     1      47.108 134.174  22.870  1.00  0.00    -0.234 NA
ATOM      7  H   UNL     1      48.118 131.689  20.208  1.00  0.00     0.311 HD
ENDROOT
BRANCH   1   8
ATOM      8  C   UNL     1      49.348 135.088  22.949  1.00  0.00     0.123 C 
ATOM      9  N   UNL     1      50.119 135.838  23.376  1.00  0.00    -0.191 NA
ENDBRANCH   1   8
BRANCH   4  10
ATOM     10  N   UNL     1      45.581 131.443  20.880  1.00  0.00    -0.191 N 
BRANCH  10  11
ATOM     11  C   UNL     1      44.726 130.706  21.777  1.00  0.00     0.100 A 
ATOM     12  C   UNL     1      43.576 131.214  22.377  1.00  0.00     0.048 A 
ATOM     13  N   UNL     1      44.966 129.420  22.138  1.00  0.00    -0.403 NA
ATOM     14  C   UNL     1      43.099 130.177  23.138  1.00  0.00    -0.019 A 
ATOM     15  C   UNL     1      43.955 129.119  22.972  1.00  0.00    -0.032 A 
ATOM     16  C   UNL     1      41.976 130.096  23.959  1.00  0.00     0.008 A 
ATOM     17  C   UNL     1      43.744 127.903  23.620  1.00  0.00     0.004 A 
ATOM     18  C   UNL     1      41.738 128.880  24.625  1.00  0.00     0.001 A 
ATOM     19  C   UNL     1      42.618 127.788  24.457  1.00  0.00     0.000 A 
ENDBRANCH  10  11
BRANCH  10  20
ATOM     20  C   UNL     1      45.489 131.231  19.458  1.00  0.00     0.266 A 
ATOM     21  C   UNL     1      44.769 132.015  18.564  1.00  0.00     0.248 A 
ATOM     22  N   UNL     1      46.087 130.211  18.797  1.00  0.00    -0.243 N 
ATOM     23  N   UNL     1      44.933 131.468  17.348  1.00  0.00    -0.233 N 
ATOM     24  C   UNL     1      45.723 130.392  17.514  1.00  0.00     0.230 A 
ATOM     25  C   UNL     1      44.435 131.852  16.146  1.00  0.00     0.168 A 
ATOM     26  C   UNL     1      46.079 129.590  16.430  1.00  0.00     0.081 A 
ATOM     27  C   UNL     1      44.763 131.085  15.018  1.00  0.00     0.035 A 
ATOM     28  C   UNL     1      45.587 129.952  15.165  1.00  0.00     0.010 A 
ATOM     29  H   UNL     1      46.672 129.439  19.188  1.00  0.00     0.267 HD
ENDBRANCH  10  20
ENDBRANCH   4  10
TORSDOF 4
ENDMDL
MODEL 5
REMARK VINA RESULT:      -2.6      5.023      7.538
REMARK SMILES N#Cc1c[nH+]c(N(c2cc3ccccc3[n-]2)c2cn3ccccc3[nH+]2)cn1
REMARK SMILES IDX 3 1 4 2 5 3 6 4 26 5 27 6 2 8 1 9 7 10 8 11 9 12 16 13 10 14
REMARK SMILES IDX 15 15 11 16 14 17 12 18 13 19 17 20 18 21 25 22 19 23 24 24
REMARK SMILES IDX 20 25 23 26 21 27 22 28
REMARK H PARENT 5 7 25 29
ROOT
ATOM      1  C   UNL     1      42.669 129.818  23.015  1.00  0.00     0.179 A 
ATOM      2  C   UNL     1      44.006 129.414  22.961  1.00  0.00     0.236 A 
ATOM      3  N   UNL     1      44.861 130.042  22.111  1.00  0.00    -0.249 N 
ATOM      4  C   UNL     1      44.440 131.065  21.311  1.00  0.00     0.277 A 
ATOM      5  C   UNL     1      43.096 131.464  21.370  1.00  0.00     0.202 A 
ATOM      6  N   UNL     1      42.245 130.832  22.218  1.00  0.00    -0.234 NA
ATOM      7  H   UNL     1      45.860 129.739  22.087  1.00  0.00     0.311 HD
ENDROOT
BRANCH   1   8
ATOM      8  C   UNL     1      41.743 129.171  23.905  1.00  0.00     0.123 C 
ATOM      9  N   UNL     1      40.998 128.650  24.620  1.00  0.00    -0.191 NA
ENDBRANCH   1   8
BRANCH   4  10
ATOM     10  N   UNL     1      45.359 131.709  20.407  1.00  0.00    -0.191 N 
BRANCH  10  11
ATOM     11  C   UNL     1      46.323 132.659  20.904  1.00  0.00     0.100 A 
ATOM     12  C   UNL     1      46.376 134.002  20.538  1.00  0.00     0.048 A 
ATOM     13  N   UNL     1      47.298 132.331  21.789  1.00  0.00    -0.403 NA
ATOM     14  C   UNL     1      47.440 134.508  21.244  1.00  0.00    -0.019 A 
ATOM     15  C   UNL     1      47.968 133.480  21.981  1.00  0.00    -0.032 A 
ATOM     16  C   UNL     1      47.971 135.795  21.283  1.00  0.00     0.008 A 
ATOM     17  C   UNL     1      49.071 133.673  22.812  1.00  0.00     0.004 A 
ATOM     18  C   UNL     1      49.084 136.019  22.115  1.00  0.00     0.001 A 
ATOM     19  C   UNL     1      49.632 134.962  22.875  1.00  0.00     0.000 A 
ENDBRANCH  10  11
BRANCH  10  20
ATOM     20  C   UNL     1      45.298 131.413  18.998  1.00  0.00     0.266 A 
ATOM     21  C   UNL     1      46.147 130.552  18.311  1.00  0.00     0.248 A 
ATOM     22  N   UNL     1      44.403 131.959  18.140  1.00  0.00    -0.243 N 
ATOM     23  N   UNL     1      45.761 130.573  17.024  1.00  0.00    -0.233 N 
ATOM     24  C   UNL     1      44.720 131.421  16.948  1.00  0.00     0.230 A 
ATOM     25  C   UNL     1      46.267 129.912  15.953  1.00  0.00     0.168 A 
ATOM     26  C   UNL     1      44.089 131.674  15.730  1.00  0.00     0.081 A 
ATOM     27  C   UNL     1      45.670 130.124  14.701  1.00  0.00     0.035 A 
ATOM     28  C   UNL     1      44.579 131.009  14.594  1.00  0.00     0.010 A 
ATOM     29  H   UNL     1      43.656 132.660  18.342  1.00  0.00     0.267 HD
ENDBRANCH  10  20
ENDBRANCH   4  10
TORSDOF 4
ENDMDL
MODEL 6
REMARK VINA RESULT:      -2.6      4.790      7.588
REMARK SMILES N#Cc1c[nH+]c(N(c2cc3ccccc3[n-]2)c2cn3ccccc3[nH+]2)cn1
REMARK SMILES IDX 3 1 4 2 5 3 6 4 26 5 27 6 2 8 1 9 7 10 8 11 9 12 16 13 10 14
REMARK SMILES IDX 15 15 11 16 14 17 12 18 13 19 17 20 18 21 25 22 19 23 24 24
REMARK SMILES IDX 20 25 23 26 21 27 22 28
REMARK H PARENT 5 7 25 29
ROOT
ATOM      1  C   UNL     1      43.004 129.638  23.000  1.00  0.00     0.179 A 
ATOM      2  C   UNL     1      44.333 129.239  22.834  1.00  0.00     0.236 A 
ATOM      3  N   UNL     1      45.138 129.932  21.986  1.00  0.00    -0.249 N 
ATOM      4  C   UNL     1      44.675 131.015  21.295  1.00  0.00     0.277 A 
ATOM      5  C   UNL     1      43.340 131.408  21.466  1.00  0.00     0.202 A 
ATOM      6  N   UNL     1      42.538 130.712  22.312  1.00  0.00    -0.234 NA
ATOM      7  H   UNL     1      46.133 129.632  21.878  1.00  0.00     0.311 HD
ENDROOT
BRANCH   1   8
ATOM      8  C   UNL     1      42.130 128.924  23.891  1.00  0.00     0.123 C 
ATOM      9  N   UNL     1      41.425 128.350  24.606  1.00  0.00    -0.191 NA
ENDBRANCH   1   8
BRANCH   4  10
ATOM     10  N   UNL     1      45.542 131.728  20.391  1.00  0.00    -0.191 N 
BRANCH  10  11
ATOM     11  C   UNL     1      46.499 132.679  20.898  1.00  0.00     0.100 A 
ATOM     12  C   UNL     1      47.502 132.384  21.819  1.00  0.00     0.048 A 
ATOM     13  N   UNL     1      46.514 133.984  20.526  1.00  0.00    -0.403 NA
ATOM     14  C   UNL     1      48.155 133.576  22.009  1.00  0.00    -0.019 A 
ATOM     15  C   UNL     1      47.538 134.512  21.220  1.00  0.00    -0.032 A 
ATOM     16  C   UNL     1      49.243 133.894  22.818  1.00  0.00     0.008 A 
ATOM     17  C   UNL     1      47.970 135.836  21.189  1.00  0.00     0.004 A 
ATOM     18  C   UNL     1      49.702 135.224  22.805  1.00  0.00     0.001 A 
ATOM     19  C   UNL     1      49.068 136.191  21.995  1.00  0.00     0.000 A 
ENDBRANCH  10  11
BRANCH  10  20
ATOM     20  C   UNL     1      45.434 131.499  18.972  1.00  0.00     0.266 A 
ATOM     21  C   UNL     1      44.395 131.932  18.157  1.00  0.00     0.248 A 
ATOM     22  N   UNL     1      46.336 130.803  18.239  1.00  0.00    -0.243 N 
ATOM     23  N   UNL     1      44.670 131.498  16.915  1.00  0.00    -0.233 N 
ATOM     24  C   UNL     1      45.832 130.826  16.991  1.00  0.00     0.230 A 
ATOM     25  C   UNL     1      43.969 131.654  15.764  1.00  0.00     0.168 A 
ATOM     26  C   UNL     1      46.394 130.235  15.860  1.00  0.00     0.081 A 
ATOM     27  C   UNL     1      44.488 131.083  14.591  1.00  0.00     0.035 A 
ATOM     28  C   UNL     1      45.703 130.372  14.644  1.00  0.00     0.010 A 
ATOM     29  H   UNL     1      47.207 130.328  18.564  1.00  0.00     0.267 HD
ENDBRANCH  10  20
ENDBRANCH   4  10
TORSDOF 4
ENDMDL
MODEL 7
REMARK VINA RESULT:      -2.5      4.641      6.941
REMARK SMILES N#Cc1c[nH+]c(N(c2cc3ccccc3[n-]2)c2cn3ccccc3[nH+]2)cn1
REMARK SMILES IDX 3 1 4 2 5 3 6 4 26 5 27 6 2 8 1 9 7 10 8 11 9 12 16 13 10 14
REMARK SMILES IDX 15 15 11 16 14 17 12 18 13 19 17 20 18 21 25 22 19 23 24 24
REMARK SMILES IDX 20 25 23 26 21 27 22 28
REMARK H PARENT 5 7 25 29
ROOT
ATOM      1  C   UNL     1      42.311 129.065  23.262  1.00  0.00     0.179 A 
ATOM      2  C   UNL     1      43.604 128.583  23.048  1.00  0.00     0.236 A 
ATOM      3  N   UNL     1      44.486 129.328  22.330  1.00  0.00    -0.249 N 
ATOM      4  C   UNL     1      44.134 130.544  21.817  1.00  0.00     0.277 A 
ATOM      5  C   UNL     1      42.833 131.021  22.035  1.00  0.00     0.202 A 
ATOM      6  N   UNL     1      41.954 130.272  22.751  1.00  0.00    -0.234 NA
ATOM      7  H   UNL     1      45.454 128.962  22.186  1.00  0.00     0.311 HD
ENDROOT
BRANCH   1   8
ATOM      8  C   UNL     1      41.357 128.299  24.018  1.00  0.00     0.123 C 
ATOM      9  N   UNL     1      40.589 127.682  24.625  1.00  0.00    -0.191 NA
ENDBRANCH   1   8
BRANCH   4  10
ATOM     10  N   UNL     1      45.080 131.312  21.048  1.00  0.00    -0.191 N 
BRANCH  10  11
ATOM     11  C   UNL     1      45.112 131.200  19.612  1.00  0.00     0.100 A 
ATOM     12  C   UNL     1      44.219 131.827  18.745  1.00  0.00     0.048 A 
ATOM     13  N   UNL     1      46.029 130.452  18.948  1.00  0.00    -0.403 NA
ATOM     14  C   UNL     1      44.623 131.435  17.493  1.00  0.00    -0.019 A 
ATOM     15  C   UNL     1      45.709 130.613  17.652  1.00  0.00    -0.032 A 
ATOM     16  C   UNL     1      44.110 131.747  16.236  1.00  0.00     0.008 A 
ATOM     17  C   UNL     1      46.357 130.045  16.556  1.00  0.00     0.004 A 
ATOM     18  C   UNL     1      44.746 131.188  15.112  1.00  0.00     0.001 A 
ATOM     19  C   UNL     1      45.864 130.340  15.272  1.00  0.00     0.000 A 
ENDBRANCH  10  11
BRANCH  10  20
ATOM     20  C   UNL     1      46.010 132.180  21.726  1.00  0.00     0.266 A 
ATOM     21  C   UNL     1      45.842 132.715  22.998  1.00  0.00     0.248 A 
ATOM     22  N   UNL     1      47.179 132.611  21.195  1.00  0.00    -0.243 N 
ATOM     23  N   UNL     1      46.922 133.477  23.243  1.00  0.00    -0.233 N 
ATOM     24  C   UNL     1      47.704 133.399  22.152  1.00  0.00     0.230 A 
ATOM     25  C   UNL     1      47.236 134.213  24.339  1.00  0.00     0.168 A 
ATOM     26  C   UNL     1      48.912 134.092  22.085  1.00  0.00     0.081 A 
ATOM     27  C   UNL     1      48.442 134.930  24.330  1.00  0.00     0.035 A 
ATOM     28  C   UNL     1      49.278 134.867  23.197  1.00  0.00     0.010 A 
ATOM     29  H   UNL     1      47.576 132.410  20.250  1.00  0.00     0.267 HD
ENDBRANCH  10  20
ENDBRANCH   4  10
TORSDOF 4
ENDMDL
MODEL 8
REMARK VINA RESULT:      -2.4      5.138      7.697
REMARK SMILES N#Cc1c[nH+]c(N(c2cc3ccccc3[n-]2)c2cn3ccccc3[nH+]2)cn1
REMARK SMILES IDX 3 1 4 2 5 3 6 4 26 5 27 6 2 8 1 9 7 10 8 11 9 12 16 13 10 14
REMARK SMILES IDX 15 15 11 16 14 17 12 18 13 19 17 20 18 21 25 22 19 23 24 24
REMARK SMILES IDX 20 25 23 26 21 27 22 28
REMARK H PARENT 5 7 25 29
ROOT
ATOM      1  C   UNL     1      42.732 130.074  23.006  1.00  0.00     0.179 A 
ATOM      2  C   UNL     1      43.997 129.515  22.806  1.00  0.00     0.236 A 
ATOM      3  N   UNL     1      44.868 130.117  21.953  1.00  0.00    -0.249 N 
ATOM      4  C   UNL     1      44.532 131.262  21.288  1.00  0.00     0.277 A 
ATOM      5  C   UNL     1      43.259 131.816  21.493  1.00  0.00     0.202 A 
ATOM      6  N   UNL     1      42.392 131.211  22.344  1.00  0.00    -0.234 NA
ATOM      7  H   UNL     1      45.815 129.697  21.820  1.00  0.00     0.311 HD
ENDROOT
BRANCH   1   8
ATOM      8  C   UNL     1      41.792 129.459  23.903  1.00  0.00     0.123 C 
ATOM      9  N   UNL     1      41.035 128.966  24.625  1.00  0.00    -0.191 NA
ENDBRANCH   1   8
BRANCH   4  10
ATOM     10  N   UNL     1      45.465 131.876  20.378  1.00  0.00    -0.191 N 
BRANCH  10  11
ATOM     11  C   UNL     1      45.448 131.535  18.978  1.00  0.00     0.100 A 
ATOM     12  C   UNL     1      45.039 132.389  17.956  1.00  0.00     0.048 A 
ATOM     13  N   UNL     1      45.831 130.321  18.508  1.00  0.00    -0.403 NA
ATOM     14  C   UNL     1      45.185 131.647  16.810  1.00  0.00    -0.019 A 
ATOM     15  C   UNL     1      45.661 130.415  17.177  1.00  0.00    -0.032 A 
ATOM     16  C   UNL     1      44.932 131.975  15.480  1.00  0.00     0.008 A 
ATOM     17  C   UNL     1      45.916 129.423  16.232  1.00  0.00     0.004 A 
ATOM     18  C   UNL     1      45.183 130.993  14.504  1.00  0.00     0.001 A 
ATOM     19  C   UNL     1      45.672 129.722  14.878  1.00  0.00     0.000 A 
ENDBRANCH  10  11
BRANCH  10  20
ATOM     20  C   UNL     1      46.430 132.822  20.879  1.00  0.00     0.266 A 
ATOM     21  C   UNL     1      47.322 132.597  21.921  1.00  0.00     0.248 A 
ATOM     22  N   UNL     1      46.584 134.082  20.405  1.00  0.00    -0.243 N 
ATOM     23  N   UNL     1      48.026 133.730  22.080  1.00  0.00    -0.233 N 
ATOM     24  C   UNL     1      47.566 134.601  21.164  1.00  0.00     0.230 A 
ATOM     25  C   UNL     1      49.013 134.025  22.963  1.00  0.00     0.168 A 
ATOM     26  C   UNL     1      48.091 135.890  21.073  1.00  0.00     0.081 A 
ATOM     27  C   UNL     1      49.583 135.307  22.916  1.00  0.00     0.035 A 
ATOM     28  C   UNL     1      49.117 136.238  21.967  1.00  0.00     0.010 A 
ATOM     29  H   UNL     1      46.047 134.559  19.647  1.00  0.00     0.267 HD
ENDBRANCH  10  20
ENDBRANCH   4  10
TORSDOF 4
ENDMDL
MODEL 9
REMARK VINA RESULT:      -2.4      4.352      8.023
REMARK SMILES N#Cc1c[nH+]c(N(c2cc3ccccc3[n-]2)c2cn3ccccc3[nH+]2)cn1
REMARK SMILES IDX 3 1 4 2 5 3 6 4 26 5 27 6 2 8 1 9 7 10 8 11 9 12 16 13 10 14
REMARK SMILES IDX 15 15 11 16 14 17 12 18 13 19 17 20 18 21 25 22 19 23 24 24
REMARK SMILES IDX 20 25 23 26 21 27 22 28
REMARK H PARENT 5 7 25 29
ROOT
ATOM      1  C   UNL     1      44.703 131.112  17.107  1.00  0.00     0.179 A 
ATOM      2  C   UNL     1      45.741 130.417  17.734  1.00  0.00     0.236 A 
ATOM      3  N   UNL     1      45.832 130.432  19.090  1.00  0.00    -0.249 N 
ATOM      4  C   UNL     1      44.926 131.111  19.854  1.00  0.00     0.277 A 
ATOM      5  C   UNL     1      43.889 131.807  19.217  1.00  0.00     0.202 A 
ATOM      6  N   UNL     1      43.802 131.792  17.863  1.00  0.00    -0.234 NA
ATOM      7  H   UNL     1      46.606 129.900  19.549  1.00  0.00     0.311 HD
ENDROOT
BRANCH   1   8
ATOM      8  C   UNL     1      44.582 131.113  15.674  1.00  0.00     0.123 C 
ATOM      9  N   UNL     1      44.484 131.115  14.521  1.00  0.00    -0.191 NA
ENDBRANCH   1   8
BRANCH   4  10
ATOM     10  N   UNL     1      45.049 131.125  21.290  1.00  0.00    -0.191 N 
BRANCH  10  11
ATOM     11  C   UNL     1      44.277 130.213  22.096  1.00  0.00     0.100 A 
ATOM     12  C   UNL     1      42.991 130.465  22.569  1.00  0.00     0.048 A 
ATOM     13  N   UNL     1      44.737 128.998  22.487  1.00  0.00    -0.403 NA
ATOM     14  C   UNL     1      42.661 129.339  23.282  1.00  0.00    -0.019 A 
ATOM     15  C   UNL     1      43.728 128.482  23.212  1.00  0.00    -0.032 A 
ATOM     16  C   UNL     1      41.500 129.017  23.981  1.00  0.00     0.008 A 
ATOM     17  C   UNL     1      43.706 127.239  23.841  1.00  0.00     0.004 A 
ATOM     18  C   UNL     1      41.448 127.767  24.625  1.00  0.00     0.001 A 
ATOM     19  C   UNL     1      42.547 126.882  24.555  1.00  0.00     0.000 A 
ENDBRANCH  10  11
BRANCH  10  20
ATOM     20  C   UNL     1      45.936 132.070  21.919  1.00  0.00     0.266 A 
ATOM     21  C   UNL     1      45.790 132.594  23.199  1.00  0.00     0.248 A 
ATOM     22  N   UNL     1      47.036 132.597  21.329  1.00  0.00    -0.243 N 
ATOM     23  N   UNL     1      46.813 133.444  23.389  1.00  0.00    -0.233 N 
ATOM     24  C   UNL     1      47.541 133.430  22.259  1.00  0.00     0.230 A 
ATOM     25  C   UNL     1      47.120 134.208  24.467  1.00  0.00     0.168 A 
ATOM     26  C   UNL     1      48.681 134.222  22.129  1.00  0.00     0.081 A 
ATOM     27  C   UNL     1      48.259 135.025  24.397  1.00  0.00     0.035 A 
ATOM     28  C   UNL     1      49.038 135.029  23.222  1.00  0.00     0.010 A 
ATOM     29  H   UNL     1      47.399 132.427  20.365  1.00  0.00     0.267 HD
ENDBRANCH  10  20
ENDBRANCH   4  10
TORSDOF 4
ENDMDL


