REMARK SMILES C=C[C@@H]1C[NH2+][C@H](c2ccc3ncnn3c2)N(C(=O)OCCCCCC)C1
REMARK SMILES IDX 20 1 19 2 17 3 18 4 16 5 3 6 4 7 26 8 5 9 6 10 2 13 1 14
REMARK SMILES IDX 7 15 8 16 15 17 9 18 14 19 10 20 13 21 11 22 12 23 21 24
REMARK SMILES IDX 22 25 23 26 24 27 25 28
REMARK H PARENT 5 11 5 12
ROOT
ATOM      1  C   UNL     1       1.295   2.313   1.879  1.00  0.00     0.235 C 
ENDROOT
BRANCH   1   2
ATOM      2  O   UNL     1       0.098   1.658   1.474  1.00  0.00    -0.449 OA
BRANCH   2   3
ATOM      3  C   UNL     1      -0.181   1.349   0.137  1.00  0.00     0.414 C 
ATOM      4  O   UNL     1       0.644   1.663  -0.765  1.00  0.00    -0.224 OA
BRANCH   3   5
ATOM      5  N   UNL     1      -1.405   0.665  -0.203  1.00  0.00    -0.253 N 
ATOM      6  C   UNL     1      -3.738  -0.029   0.418  1.00  0.00     0.086 C 
ATOM      7  C   UNL     1      -3.664  -0.892  -0.841  1.00  0.00     0.272 C 
ATOM      8  C   UNL     1      -2.323   0.317   0.898  1.00  0.00     0.143 C 
ATOM      9  N   UNL     1      -2.988  -0.153  -1.910  1.00  0.00    -0.322 N 
ATOM     10  C   UNL     1      -1.581   0.167  -1.590  1.00  0.00     0.323 C 
ATOM     11  H   UNL     1      -3.508   0.738  -2.092  1.00  0.00     0.348 HD
ATOM     12  H   UNL     1      -3.036  -0.717  -2.791  1.00  0.00     0.348 HD
BRANCH   6  13
ATOM     13  C   UNL     1      -4.517  -0.735   1.504  1.00  0.00    -0.024 C 
ATOM     14  C   UNL     1      -4.909  -0.096   2.611  1.00  0.00     0.004 C 
ENDBRANCH   6  13
BRANCH  10  15
ATOM     15  C   UNL     1      -0.665  -1.012  -1.889  1.00  0.00     0.050 A 
ATOM     16  C   UNL     1      -0.156  -1.181  -3.202  1.00  0.00     0.017 A 
ATOM     17  C   UNL     1      -0.341  -1.982  -0.914  1.00  0.00     0.127 A 
ATOM     18  C   UNL     1       0.669  -2.272  -3.520  1.00  0.00     0.050 A 
ATOM     19  N   UNL     1       0.460  -3.014  -1.276  1.00  0.00    -0.221 N 
ATOM     20  C   UNL     1       0.955  -3.176  -2.504  1.00  0.00     0.155 A 
ATOM     21  N   UNL     1       0.874  -4.007  -0.515  1.00  0.00    -0.155 NA
ATOM     22  N   UNL     1       1.714  -4.282  -2.601  1.00  0.00    -0.215 NA
ATOM     23  C   UNL     1       1.636  -4.770  -1.335  1.00  0.00     0.247 A 
ENDBRANCH  10  15
ENDBRANCH   3   5
ENDBRANCH   2   3
ENDBRANCH   1   2
BRANCH   1  24
ATOM     24  C   UNL     1       1.288   2.486   3.396  1.00  0.00     0.042 C 
BRANCH  24  25
ATOM     25  C   UNL     1       2.566   3.184   3.880  1.00  0.00     0.003 C 
BRANCH  25  26
ATOM     26  C   UNL     1       2.548   3.365   5.405  1.00  0.00    -0.000 C 
BRANCH  26  27
ATOM     27  C   UNL     1       3.862   3.951   5.945  1.00  0.00    -0.003 C 
ATOM     28  C   UNL     1       4.055   5.419   5.566  1.00  0.00     0.004 C 
ENDBRANCH  26  27
ENDBRANCH  25  26
ENDBRANCH  24  25
ENDBRANCH   1  24
TORSDOF 9


