MODEL 1
REMARK VINA RESULT:      -9.5      0.000      0.000
REMARK SMILES Cn1c[nH+]c2cc(-c3ccc(CCN)cc3)cnc21
REMARK SMILES IDX 12 1 11 2 8 3 9 4 16 5 10 6 15 7 7 8 2 9 3 10 19 11 4 12
REMARK SMILES IDX 18 13 5 14 17 15 6 16 1 17 13 19 14 20
REMARK H PARENT 4 18 14 21 14 22
ROOT
ATOM      1  C   UNL     1      46.648 130.717  13.407  1.00  0.00     0.050 C 
ENDROOT
BRANCH   1   2
ATOM      2  C   UNL     1      46.186 130.814  14.838  1.00  0.00    -0.047 A 
ATOM      3  C   UNL     1      45.382 131.005  17.536  1.00  0.00    -0.017 A 
ATOM      4  C   UNL     1      45.516 132.160  16.747  1.00  0.00     0.009 A 
ATOM      5  C   UNL     1      45.663 129.752  16.960  1.00  0.00     0.009 A 
ATOM      6  C   UNL     1      45.918 132.065  15.411  1.00  0.00     0.004 A 
ATOM      7  C   UNL     1      46.064 129.658  15.625  1.00  0.00     0.004 A 
BRANCH   3   8
ATOM      8  C   UNL     1      44.959 131.105  18.956  1.00  0.00     0.005 A 
ATOM      9  N   UNL     1      43.657 131.428  22.808  1.00  0.00    -0.217 N 
ATOM     10  C   UNL     1      42.464 132.022  22.549  1.00  0.00     0.404 A 
ATOM     11  C   UNL     1      44.215 131.267  21.598  1.00  0.00     0.268 A 
ATOM     12  N   UNL     1      42.280 132.254  21.223  1.00  0.00    -0.242 N 
ATOM     13  N   UNL     1      45.397 130.675  21.307  1.00  0.00    -0.213 NA
ATOM     14  C   UNL     1      43.392 131.771  20.644  1.00  0.00     0.192 A 
ATOM     15  C   UNL     1      45.783 130.589  19.997  1.00  0.00     0.124 A 
ATOM     16  C   UNL     1      43.726 131.711  19.298  1.00  0.00     0.068 A 
ATOM     17  C   UNL     1      44.144 130.941  24.093  1.00  0.00     0.298 C 
ATOM     18  H   UNL     1      41.450 132.687  20.760  1.00  0.00     0.312 HD
ENDBRANCH   3   8
ENDBRANCH   1   2
BRANCH   1  19
ATOM     19  C   UNL     1      48.114 130.280  13.320  1.00  0.00     0.082 C 
BRANCH  19  20
ATOM     20  N   UNL     1      48.313 128.992  13.979  1.00  0.00    -0.330 NA
ATOM     21  H   UNL     1      49.341 128.814  14.048  1.00  0.00     0.118 HD
ATOM     22  H   UNL     1      47.958 129.077  14.958  1.00  0.00     0.118 HD
ENDBRANCH  19  20
ENDBRANCH   1  19
TORSDOF 4
ENDMDL
MODEL 2
REMARK VINA RESULT:      -9.3      0.421      1.097
REMARK SMILES Cn1c[nH+]c2cc(-c3ccc(CCN)cc3)cnc21
REMARK SMILES IDX 12 1 11 2 8 3 9 4 16 5 10 6 15 7 7 8 2 9 3 10 19 11 4 12
REMARK SMILES IDX 18 13 5 14 17 15 6 16 1 17 13 19 14 20
REMARK H PARENT 4 18 14 21 14 22
ROOT
ATOM      1  C   UNL     1      46.479 130.943  13.445  1.00  0.00     0.050 C 
ENDROOT
BRANCH   1   2
ATOM      2  C   UNL     1      46.097 130.984  14.902  1.00  0.00    -0.047 A 
ATOM      3  C   UNL     1      45.336 131.018  17.619  1.00  0.00    -0.017 A 
ATOM      4  C   UNL     1      46.248 130.059  17.144  1.00  0.00     0.009 A 
ATOM      5  C   UNL     1      44.804 131.956  16.715  1.00  0.00     0.009 A 
ATOM      6  C   UNL     1      46.621 130.040  15.797  1.00  0.00     0.004 A 
ATOM      7  C   UNL     1      45.179 131.937  15.370  1.00  0.00     0.004 A 
BRANCH   3   8
ATOM      8  C   UNL     1      44.936 131.036  19.049  1.00  0.00     0.005 A 
ATOM      9  N   UNL     1      43.702 131.151  22.936  1.00  0.00    -0.217 N 
ATOM     10  C   UNL     1      42.557 131.853  22.743  1.00  0.00     0.404 A 
ATOM     11  C   UNL     1      44.234 131.044  21.708  1.00  0.00     0.268 A 
ATOM     12  N   UNL     1      42.377 132.203  21.443  1.00  0.00    -0.242 N 
ATOM     13  N   UNL     1      45.363 130.388  21.351  1.00  0.00    -0.213 NA
ATOM     14  C   UNL     1      43.443 131.684  20.810  1.00  0.00     0.192 A 
ATOM     15  C   UNL     1      45.728 130.377  20.033  1.00  0.00     0.124 A 
ATOM     16  C   UNL     1      43.757 131.706  19.458  1.00  0.00     0.068 A 
ATOM     17  C   UNL     1      44.163 130.527  24.170  1.00  0.00     0.298 C 
ATOM     18  H   UNL     1      41.579 132.735  21.029  1.00  0.00     0.312 HD
ENDBRANCH   3   8
ENDBRANCH   1   2
BRANCH   1  19
ATOM     19  C   UNL     1      47.982 130.702  13.267  1.00  0.00     0.082 C 
BRANCH  19  20
ATOM     20  N   UNL     1      48.326 129.313  13.556  1.00  0.00    -0.330 NA
ATOM     21  H   UNL     1      49.209 129.081  13.047  1.00  0.00     0.118 HD
ATOM     22  H   UNL     1      48.542 129.244  14.577  1.00  0.00     0.118 HD
ENDBRANCH  19  20
ENDBRANCH   1  19
TORSDOF 4
ENDMDL
MODEL 3
REMARK VINA RESULT:      -8.8      0.686      1.992
REMARK SMILES Cn1c[nH+]c2cc(-c3ccc(CCN)cc3)cnc21
REMARK SMILES IDX 12 1 11 2 8 3 9 4 16 5 10 6 15 7 7 8 2 9 3 10 19 11 4 12
REMARK SMILES IDX 18 13 5 14 17 15 6 16 1 17 13 19 14 20
REMARK H PARENT 4 18 14 21 14 22
ROOT
ATOM      1  C   UNL     1      46.755 130.718  13.125  1.00  0.00     0.050 C 
ENDROOT
BRANCH   1   2
ATOM      2  C   UNL     1      46.215 130.851  14.525  1.00  0.00    -0.047 A 
ATOM      3  C   UNL     1      45.144 131.111  17.123  1.00  0.00    -0.017 A 
ATOM      4  C   UNL     1      45.126 129.870  16.464  1.00  0.00     0.009 A 
ATOM      5  C   UNL     1      45.698 132.224  16.463  1.00  0.00     0.009 A 
ATOM      6  C   UNL     1      45.653 129.742  15.175  1.00  0.00     0.004 A 
ATOM      7  C   UNL     1      46.225 132.095  15.176  1.00  0.00     0.004 A 
BRANCH   3   8
ATOM      8  C   UNL     1      44.581 131.248  18.491  1.00  0.00     0.005 A 
ATOM      9  N   UNL     1      43.170 131.576  22.304  1.00  0.00    -0.217 N 
ATOM     10  C   UNL     1      44.226 131.007  22.939  1.00  0.00     0.404 A 
ATOM     11  C   UNL     1      43.501 131.525  21.004  1.00  0.00     0.268 A 
ATOM     12  N   UNL     1      45.185 130.586  22.073  1.00  0.00    -0.242 N 
ATOM     13  N   UNL     1      42.797 132.009  19.954  1.00  0.00    -0.213 NA
ATOM     14  C   UNL     1      44.708 130.922  20.863  1.00  0.00     0.192 A 
ATOM     15  C   UNL     1      43.319 131.877  18.696  1.00  0.00     0.124 A 
ATOM     16  C   UNL     1      45.293 130.760  19.614  1.00  0.00     0.068 A 
ATOM     17  C   UNL     1      42.017 132.228  22.911  1.00  0.00     0.298 C 
ATOM     18  H   UNL     1      46.095 130.127  22.302  1.00  0.00     0.312 HD
ENDBRANCH   3   8
ENDBRANCH   1   2
BRANCH   1  19
ATOM     19  C   UNL     1      48.211 130.238  13.130  1.00  0.00     0.082 C 
BRANCH  19  20
ATOM     20  N   UNL     1      48.359 129.031  13.938  1.00  0.00    -0.330 NA
ATOM     21  H   UNL     1      47.794 128.270  13.496  1.00  0.00     0.118 HD
ATOM     22  H   UNL     1      49.359 128.732  13.882  1.00  0.00     0.118 HD
ENDBRANCH  19  20
ENDBRANCH   1  19
TORSDOF 4
ENDMDL
MODEL 4
REMARK VINA RESULT:      -8.6      0.683      1.660
REMARK SMILES Cn1c[nH+]c2cc(-c3ccc(CCN)cc3)cnc21
REMARK SMILES IDX 12 1 11 2 8 3 9 4 16 5 10 6 15 7 7 8 2 9 3 10 19 11 4 12
REMARK SMILES IDX 18 13 5 14 17 15 6 16 1 17 13 19 14 20
REMARK H PARENT 4 18 14 21 14 22
ROOT
ATOM      1  C   UNL     1      47.035 130.835  13.185  1.00  0.00     0.050 C 
ENDROOT
BRANCH   1   2
ATOM      2  C   UNL     1      46.426 130.921  14.560  1.00  0.00    -0.047 A 
ATOM      3  C   UNL     1      45.343 131.091  17.160  1.00  0.00    -0.017 A 
ATOM      4  C   UNL     1      45.603 132.255  16.417  1.00  0.00     0.009 A 
ATOM      5  C   UNL     1      45.639 129.839  16.589  1.00  0.00     0.009 A 
ATOM      6  C   UNL     1      46.143 132.171  15.131  1.00  0.00     0.004 A 
ATOM      7  C   UNL     1      46.178 129.756  15.303  1.00  0.00     0.004 A 
BRANCH   3   8
ATOM      8  C   UNL     1      44.772 131.179  18.529  1.00  0.00     0.005 A 
ATOM      9  N   UNL     1      43.330 131.350  22.341  1.00  0.00    -0.217 N 
ATOM     10  C   UNL     1      44.284 130.587  22.931  1.00  0.00     0.404 A 
ATOM     11  C   UNL     1      43.681 131.372  21.045  1.00  0.00     0.268 A 
ATOM     12  N   UNL     1      45.196 130.118  22.040  1.00  0.00    -0.242 N 
ATOM     13  N   UNL     1      43.074 132.041  20.037  1.00  0.00    -0.213 NA
ATOM     14  C   UNL     1      44.798 130.624  20.861  1.00  0.00     0.192 A 
ATOM     15  C   UNL     1      43.602 131.953  18.778  1.00  0.00     0.124 A 
ATOM     16  C   UNL     1      45.384 130.498  19.609  1.00  0.00     0.068 A 
ATOM     17  C   UNL     1      42.262 132.097  22.994  1.00  0.00     0.298 C 
ATOM     18  H   UNL     1      46.030 129.520  22.235  1.00  0.00     0.312 HD
ENDBRANCH   3   8
ENDBRANCH   1   2
BRANCH   1  19
ATOM     19  C   UNL     1      48.321 130.001  13.194  1.00  0.00     0.082 C 
BRANCH  19  20
ATOM     20  N   UNL     1      48.164 128.810  14.023  1.00  0.00    -0.330 NA
ATOM     21  H   UNL     1      47.980 129.116  15.006  1.00  0.00     0.118 HD
ATOM     22  H   UNL     1      47.304 128.309  13.701  1.00  0.00     0.118 HD
ENDBRANCH  19  20
ENDBRANCH   1  19
TORSDOF 4
ENDMDL
MODEL 5
REMARK VINA RESULT:      -8.5      1.529      7.605
REMARK SMILES Cn1c[nH+]c2cc(-c3ccc(CCN)cc3)cnc21
REMARK SMILES IDX 12 1 11 2 8 3 9 4 16 5 10 6 15 7 7 8 2 9 3 10 19 11 4 12
REMARK SMILES IDX 18 13 5 14 17 15 6 16 1 17 13 19 14 20
REMARK H PARENT 4 18 14 21 14 22
ROOT
ATOM      1  C   UNL     1      42.642 131.889  22.049  1.00  0.00     0.050 C 
ENDROOT
BRANCH   1   2
ATOM      2  C   UNL     1      43.390 131.733  20.751  1.00  0.00    -0.047 A 
ATOM      3  C   UNL     1      44.769 131.381  18.315  1.00  0.00    -0.017 A 
ATOM      4  C   UNL     1      43.425 131.791  18.322  1.00  0.00     0.009 A 
ATOM      5  C   UNL     1      45.414 131.142  19.543  1.00  0.00     0.009 A 
ATOM      6  C   UNL     1      42.741 131.961  19.529  1.00  0.00     0.004 A 
ATOM      7  C   UNL     1      44.730 131.314  20.749  1.00  0.00     0.004 A 
BRANCH   3   8
ATOM      8  C   UNL     1      45.496 131.196  17.033  1.00  0.00     0.005 A 
ATOM      9  N   UNL     1      47.494 130.537  13.538  1.00  0.00    -0.217 N 
ATOM     10  C   UNL     1      47.725 129.210  13.707  1.00  0.00     0.404 A 
ATOM     11  C   UNL     1      46.834 130.900  14.649  1.00  0.00     0.268 A 
ATOM     12  N   UNL     1      47.253 128.750  14.895  1.00  0.00    -0.242 N 
ATOM     13  N   UNL     1      46.332 132.122  14.948  1.00  0.00    -0.213 NA
ATOM     14  C   UNL     1      46.696 129.829  15.470  1.00  0.00     0.192 A 
ATOM     15  C   UNL     1      45.667 132.287  16.132  1.00  0.00     0.124 A 
ATOM     16  C   UNL     1      46.028 129.931  16.683  1.00  0.00     0.068 A 
ATOM     17  C   UNL     1      47.765 131.340  12.352  1.00  0.00     0.298 C 
ATOM     18  H   UNL     1      47.294 127.774  15.264  1.00  0.00     0.312 HD
ENDBRANCH   3   8
ENDBRANCH   1   2
BRANCH   1  19
ATOM     19  C   UNL     1      43.483 131.419  23.241  1.00  0.00     0.082 C 
BRANCH  19  20
ATOM     20  N   UNL     1      43.118 132.144  24.454  1.00  0.00    -0.330 NA
ATOM     21  H   UNL     1      42.500 131.528  25.031  1.00  0.00     0.118 HD
ATOM     22  H   UNL     1      43.990 132.296  25.009  1.00  0.00     0.118 HD
ENDBRANCH  19  20
ENDBRANCH   1  19
TORSDOF 4
ENDMDL
MODEL 6
REMARK VINA RESULT:      -8.5      0.932      1.998
REMARK SMILES Cn1c[nH+]c2cc(-c3ccc(CCN)cc3)cnc21
REMARK SMILES IDX 12 1 11 2 8 3 9 4 16 5 10 6 15 7 7 8 2 9 3 10 19 11 4 12
REMARK SMILES IDX 18 13 5 14 17 15 6 16 1 17 13 19 14 20
REMARK H PARENT 4 18 14 21 14 22
ROOT
ATOM      1  C   UNL     1      46.183 130.647  13.796  1.00  0.00     0.050 C 
ENDROOT
BRANCH   1   2
ATOM      2  C   UNL     1      45.686 130.835  15.205  1.00  0.00    -0.047 A 
ATOM      3  C   UNL     1      44.723 131.131  17.841  1.00  0.00    -0.017 A 
ATOM      4  C   UNL     1      45.897 130.400  17.587  1.00  0.00     0.009 A 
ATOM      5  C   UNL     1      44.032 131.706  16.758  1.00  0.00     0.009 A 
ATOM      6  C   UNL     1      46.371 130.250  16.280  1.00  0.00     0.004 A 
ATOM      7  C   UNL     1      44.508 131.557  15.453  1.00  0.00     0.004 A 
BRANCH   3   8
ATOM      8  C   UNL     1      44.216 131.287  19.228  1.00  0.00     0.005 A 
ATOM      9  N   UNL     1      42.955 131.657  23.090  1.00  0.00    -0.217 N 
ATOM     10  C   UNL     1      43.985 131.000  23.682  1.00  0.00     0.404 A 
ATOM     11  C   UNL     1      43.240 131.602  21.779  1.00  0.00     0.268 A 
ATOM     12  N   UNL     1      44.881 130.522  22.779  1.00  0.00    -0.242 N 
ATOM     13  N   UNL     1      42.541 132.155  20.760  1.00  0.00    -0.213 NA
ATOM     14  C   UNL     1      44.393 130.913  21.590  1.00  0.00     0.192 A 
ATOM     15  C   UNL     1      43.011 132.005  19.484  1.00  0.00     0.124 A 
ATOM     16  C   UNL     1      44.923 130.729  20.320  1.00  0.00     0.068 A 
ATOM     17  C   UNL     1      41.874 132.384  23.744  1.00  0.00     0.298 C 
ATOM     18  H   UNL     1      45.760 129.993  22.971  1.00  0.00     0.312 HD
ENDBRANCH   3   8
ENDBRANCH   1   2
BRANCH   1  19
ATOM     19  C   UNL     1      47.711 130.533  13.752  1.00  0.00     0.082 C 
BRANCH  19  20
ATOM     20  N   UNL     1      48.128 129.135  13.709  1.00  0.00    -0.330 NA
ATOM     21  H   UNL     1      48.176 128.777  14.690  1.00  0.00     0.118 HD
ATOM     22  H   UNL     1      47.373 128.592  13.230  1.00  0.00     0.118 HD
ENDBRANCH  19  20
ENDBRANCH   1  19
TORSDOF 4
ENDMDL
MODEL 7
REMARK VINA RESULT:      -8.5      1.490      7.552
REMARK SMILES Cn1c[nH+]c2cc(-c3ccc(CCN)cc3)cnc21
REMARK SMILES IDX 12 1 11 2 8 3 9 4 16 5 10 6 15 7 7 8 2 9 3 10 19 11 4 12
REMARK SMILES IDX 18 13 5 14 17 15 6 16 1 17 13 19 14 20
REMARK H PARENT 4 18 14 21 14 22
ROOT
ATOM      1  C   UNL     1      42.924 131.711  22.541  1.00  0.00     0.050 C 
ENDROOT
BRANCH   1   2
ATOM      2  C   UNL     1      43.584 131.533  21.199  1.00  0.00    -0.047 A 
ATOM      3  C   UNL     1      44.849 131.259  18.692  1.00  0.00    -0.017 A 
ATOM      4  C   UNL     1      45.523 130.908  19.874  1.00  0.00     0.009 A 
ATOM      5  C   UNL     1      43.536 131.756  18.780  1.00  0.00     0.009 A 
ATOM      6  C   UNL     1      44.898 131.048  21.116  1.00  0.00     0.004 A 
ATOM      7  C   UNL     1      42.911 131.895  20.022  1.00  0.00     0.004 A 
BRANCH   3   8
ATOM      8  C   UNL     1      45.514 131.115  17.371  1.00  0.00     0.005 A 
ATOM      9  N   UNL     1      47.361 130.568  13.776  1.00  0.00    -0.217 N 
ATOM     10  C   UNL     1      47.758 129.284  13.967  1.00  0.00     0.404 A 
ATOM     11  C   UNL     1      46.731 130.892  14.916  1.00  0.00     0.268 A 
ATOM     12  N   UNL     1      47.416 128.815  15.196  1.00  0.00    -0.242 N 
ATOM     13  N   UNL     1      46.107 132.056  15.212  1.00  0.00    -0.213 NA
ATOM     14  C   UNL     1      46.771 129.842  15.774  1.00  0.00     0.192 A 
ATOM     15  C   UNL     1      45.500 132.185  16.430  1.00  0.00     0.124 A 
ATOM     16  C   UNL     1      46.170 129.909  17.024  1.00  0.00     0.068 A 
ATOM     17  C   UNL     1      47.464 131.354  12.553  1.00  0.00     0.298 C 
ATOM     18  H   UNL     1      47.594 127.864  15.589  1.00  0.00     0.312 HD
ENDBRANCH   3   8
ENDBRANCH   1   2
BRANCH   1  19
ATOM     19  C   UNL     1      43.296 130.577  23.503  1.00  0.00     0.082 C 
BRANCH  19  20
ATOM     20  N   UNL     1      44.288 131.025  24.476  1.00  0.00    -0.330 NA
ATOM     21  H   UNL     1      43.851 131.764  25.073  1.00  0.00     0.118 HD
ATOM     22  H   UNL     1      44.502 130.219  25.107  1.00  0.00     0.118 HD
ENDBRANCH  19  20
ENDBRANCH   1  19
TORSDOF 4
ENDMDL
MODEL 8
REMARK VINA RESULT:      -8.3      1.025      1.846
REMARK SMILES Cn1c[nH+]c2cc(-c3ccc(CCN)cc3)cnc21
REMARK SMILES IDX 12 1 11 2 8 3 9 4 16 5 10 6 15 7 7 8 2 9 3 10 19 11 4 12
REMARK SMILES IDX 18 13 5 14 17 15 6 16 1 17 13 19 14 20
REMARK H PARENT 4 18 14 21 14 22
ROOT
ATOM      1  C   UNL     1      46.026 130.688  13.639  1.00  0.00     0.050 C 
ENDROOT
BRANCH   1   2
ATOM      2  C   UNL     1      45.530 130.828  15.055  1.00  0.00    -0.047 A 
ATOM      3  C   UNL     1      44.624 131.151  17.707  1.00  0.00    -0.017 A 
ATOM      4  C   UNL     1      43.837 131.583  16.626  1.00  0.00     0.009 A 
ATOM      5  C   UNL     1      45.875 130.562  17.445  1.00  0.00     0.009 A 
ATOM      6  C   UNL     1      44.288 131.427  15.312  1.00  0.00     0.004 A 
ATOM      7  C   UNL     1      46.324 130.405  16.132  1.00  0.00     0.004 A 
BRANCH   3   8
ATOM      8  C   UNL     1      44.148 131.320  19.104  1.00  0.00     0.005 A 
ATOM      9  N   UNL     1      42.969 131.718  22.989  1.00  0.00    -0.217 N 
ATOM     10  C   UNL     1      43.977 131.011  23.559  1.00  0.00     0.404 A 
ATOM     11  C   UNL     1      43.229 131.661  21.673  1.00  0.00     0.268 A 
ATOM     12  N   UNL     1      44.835 130.499  22.638  1.00  0.00    -0.242 N 
ATOM     13  N   UNL     1      42.540 132.253  20.669  1.00  0.00    -0.213 NA
ATOM     14  C   UNL     1      44.346 130.920  21.460  1.00  0.00     0.192 A 
ATOM     15  C   UNL     1      42.982 132.091  19.385  1.00  0.00     0.124 A 
ATOM     16  C   UNL     1      44.847 130.722  20.180  1.00  0.00     0.068 A 
ATOM     17  C   UNL     1      41.933 132.490  23.666  1.00  0.00     0.298 C 
ATOM     18  H   UNL     1      45.692 129.928  22.812  1.00  0.00     0.312 HD
ENDBRANCH   3   8
ENDBRANCH   1   2
BRANCH   1  19
ATOM     19  C   UNL     1      47.526 130.986  13.539  1.00  0.00     0.082 C 
BRANCH  19  20
ATOM     20  N   UNL     1      48.256 129.823  13.044  1.00  0.00    -0.330 NA
ATOM     21  H   UNL     1      48.484 129.985  12.036  1.00  0.00     0.118 HD
ATOM     22  H   UNL     1      49.168 129.779  13.553  1.00  0.00     0.118 HD
ENDBRANCH  19  20
ENDBRANCH   1  19
TORSDOF 4
ENDMDL
MODEL 9
REMARK VINA RESULT:      -8.0      1.707      7.382
REMARK SMILES Cn1c[nH+]c2cc(-c3ccc(CCN)cc3)cnc21
REMARK SMILES IDX 12 1 11 2 8 3 9 4 16 5 10 6 15 7 7 8 2 9 3 10 19 11 4 12
REMARK SMILES IDX 18 13 5 14 17 15 6 16 1 17 13 19 14 20
REMARK H PARENT 4 18 14 21 14 22
ROOT
ATOM      1  C   UNL     1      42.427 132.148  23.236  1.00  0.00     0.050 C 
ENDROOT
BRANCH   1   2
ATOM      2  C   UNL     1      43.091 131.838  21.920  1.00  0.00    -0.047 A 
ATOM      3  C   UNL     1      44.372 131.309  19.462  1.00  0.00    -0.017 A 
ATOM      4  C   UNL     1      44.936 130.866  20.672  1.00  0.00     0.009 A 
ATOM      5  C   UNL     1      43.162 132.026  19.499  1.00  0.00     0.009 A 
ATOM      6  C   UNL     1      44.303 131.132  21.889  1.00  0.00     0.004 A 
ATOM      7  C   UNL     1      42.530 132.290  20.716  1.00  0.00     0.004 A 
BRANCH   3   8
ATOM      8  C   UNL     1      45.046 131.030  18.168  1.00  0.00     0.005 A 
ATOM      9  N   UNL     1      46.839 130.397  14.559  1.00  0.00    -0.217 N 
ATOM     10  C   UNL     1      46.285 131.443  13.894  1.00  0.00     0.404 A 
ATOM     11  C   UNL     1      46.315 130.477  15.793  1.00  0.00     0.268 A 
ATOM     12  N   UNL     1      45.421 132.149  14.669  1.00  0.00    -0.242 N 
ATOM     13  N   UNL     1      46.587 129.685  16.857  1.00  0.00    -0.213 NA
ATOM     14  C   UNL     1      45.456 131.525  15.858  1.00  0.00     0.192 A 
ATOM     15  C   UNL     1      45.961 129.945  18.045  1.00  0.00     0.124 A 
ATOM     16  C   UNL     1      44.792 131.842  17.036  1.00  0.00     0.068 A 
ATOM     17  C   UNL     1      47.878 129.494  14.082  1.00  0.00     0.298 C 
ATOM     18  H   UNL     1      44.873 132.998  14.404  1.00  0.00     0.312 HD
ENDBRANCH   3   8
ENDBRANCH   1   2
BRANCH   1  19
ATOM     19  C   UNL     1      43.021 131.312  24.375  1.00  0.00     0.082 C 
BRANCH  19  20
ATOM     20  N   UNL     1      42.555 129.930  24.304  1.00  0.00    -0.330 NA
ATOM     21  H   UNL     1      43.280 129.317  24.741  1.00  0.00     0.118 HD
ATOM     22  H   UNL     1      41.700 129.852  24.901  1.00  0.00     0.118 HD
ENDBRANCH  19  20
ENDBRANCH   1  19
TORSDOF 4
ENDMDL


