REMARK SMILES O/C(=N\c1ccc(C[NH+]2CCCCC2)cc1)Sc1cccc(-c2ccc3c(c2)CC3)c1
REMARK SMILES IDX 3 1 2 2 1 3 17 5 18 6 19 7 31 8 20 9 22 10 21 11 23 12 24 13
REMARK SMILES IDX 28 14 25 15 27 16 26 17 29 18 30 19 4 20 5 21 16 22 6 23
REMARK SMILES IDX 15 24 7 25 8 26 9 27 10 28 14 29 11 30 13 31 12 32
REMARK H PARENT 1 4 9 33
ROOT
ATOM      1  N   UNL     1       3.018  -1.786  -1.666  1.00  0.00    -0.208 NA
ENDROOT
BRANCH   1   2
ATOM      2  C   UNL     1       3.088  -3.014  -2.087  1.00  0.00     0.253 C 
BRANCH   2   3
ATOM      3  O   UNL     1       2.465  -3.414  -3.267  1.00  0.00    -0.488 OA
ATOM      4  H   UNL     1       2.530  -4.372  -3.588  1.00  0.00     0.295 HD
ENDBRANCH   2   3
BRANCH   2   5
ATOM      5  S   UNL     1       4.037  -4.201  -1.142  1.00  0.00    -0.031 SA
BRANCH   5   6
ATOM      6  C   UNL     1       2.614  -4.665  -0.157  1.00  0.00     0.017 A 
ATOM      7  C   UNL     1       1.811  -5.740  -0.551  1.00  0.00     0.015 A 
ATOM      8  C   UNL     1       2.302  -3.947   1.004  1.00  0.00     0.024 A 
ATOM      9  C   UNL     1       0.696  -6.095   0.212  1.00  0.00     0.002 A 
ATOM     10  C   UNL     1       1.176  -4.289   1.774  1.00  0.00    -0.017 A 
ATOM     11  C   UNL     1       0.378  -5.375   1.368  1.00  0.00     0.009 A 
BRANCH  10  12
ATOM     12  C   UNL     1       0.829  -3.510   2.989  1.00  0.00    -0.018 A 
ATOM     13  C   UNL     1       0.952  -2.075   2.979  1.00  0.00     0.009 A 
ATOM     14  C   UNL     1       0.373  -4.189   4.157  1.00  0.00     0.012 A 
ATOM     15  C   UNL     1       0.635  -1.284   4.110  1.00  0.00     0.004 A 
ATOM     16  C   UNL     1       0.072  -3.389   5.239  1.00  0.00    -0.044 A 
ATOM     17  C   UNL     1       0.201  -1.979   5.217  1.00  0.00    -0.044 A 
ATOM     18  C   UNL     1      -0.401  -3.342   6.651  1.00  0.00     0.040 C 
ATOM     19  C   UNL     1      -0.270  -1.896   6.628  1.00  0.00     0.040 C 
ENDBRANCH  10  12
ENDBRANCH   5   6
ENDBRANCH   2   5
ENDBRANCH   1   2
BRANCH   1  20
ATOM     20  C   UNL     1       2.248  -0.728  -2.260  1.00  0.00     0.068 A 
ATOM     21  C   UNL     1       2.749   0.578  -2.207  1.00  0.00     0.029 A 
ATOM     22  C   UNL     1       0.973  -0.954  -2.810  1.00  0.00     0.029 A 
ATOM     23  C   UNL     1       2.016   1.641  -2.744  1.00  0.00     0.012 A 
ATOM     24  C   UNL     1       0.239   0.109  -3.345  1.00  0.00     0.012 A 
ATOM     25  C   UNL     1       0.759   1.412  -3.325  1.00  0.00     0.006 A 
BRANCH  25  26
ATOM     26  C   UNL     1      -0.046   2.560  -3.890  1.00  0.00     0.299 C 
BRANCH  26  27
ATOM     27  N   UNL     1      -1.167   2.947  -2.999  1.00  0.00    -0.331 N 
ATOM     28  C   UNL     1      -2.073   3.872  -3.719  1.00  0.00     0.262 C 
ATOM     29  C   UNL     1      -0.661   3.580  -1.756  1.00  0.00     0.262 C 
ATOM     30  C   UNL     1      -3.270   4.274  -2.847  1.00  0.00     0.062 C 
ATOM     31  C   UNL     1      -1.814   3.974  -0.823  1.00  0.00     0.062 C 
ATOM     32  C   UNL     1      -2.793   4.905  -1.538  1.00  0.00     0.012 C 
ATOM     33  H   UNL     1      -1.709   2.085  -2.748  1.00  0.00     0.348 HD
ENDBRANCH  26  27
ENDBRANCH  25  26
ENDBRANCH   1  20
TORSDOF 8


