REMARK SMILES O=C(C(=O)[C@@H]1CCc2nc(-c3ccc4[nH]ccc4c3)ncc2[C@H]1F)c1ccccc1
REMARK SMILES IDX 5 1 6 2 7 3 8 4 9 5 10 6 20 7 21 8 22 9 23 10 24 11 3 12
REMARK SMILES IDX 4 13 2 14 1 15 25 16 26 17 30 18 27 19 29 20 28 21 11 22
REMARK SMILES IDX 12 23 19 24 13 25 18 26 14 27 17 28 15 29 16 30
REMARK H PARENT 15 31
ROOT
ATOM      1  C   UNL     1      -1.086   1.983   0.912  1.00  0.00     0.104 C 
ATOM      2  C   UNL     1      -1.830   2.401  -0.364  1.00  0.00     0.022 C 
ATOM      3  C   UNL     1      -0.926   2.229  -1.588  1.00  0.00     0.057 C 
ATOM      4  C   UNL     1      -0.258   0.880  -1.628  1.00  0.00     0.051 A 
ATOM      5  N   UNL     1       0.277   0.453  -2.802  1.00  0.00    -0.233 NA
ATOM      6  C   UNL     1       0.937  -0.733  -2.900  1.00  0.00     0.159 A 
ATOM      7  N   UNL     1       1.070  -1.513  -1.794  1.00  0.00    -0.236 NA
ATOM      8  C   UNL     1       0.567  -1.129  -0.593  1.00  0.00     0.122 A 
ATOM      9  C   UNL     1      -0.096   0.097  -0.466  1.00  0.00     0.027 A 
ATOM     10  C   UNL     1      -0.728   0.484   0.853  1.00  0.00     0.211 C 
ATOM     11  F   UNL     1       0.137   0.185   1.894  1.00  0.00    -0.241 F 
ENDROOT
BRANCH   1  12
ATOM     12  C   UNL     1      -1.923   2.298   2.132  1.00  0.00     0.209 C 
ATOM     13  O   UNL     1      -2.942   1.597   2.380  1.00  0.00    -0.290 OA
BRANCH  12  14
ATOM     14  C   UNL     1      -1.612   3.465   2.989  1.00  0.00     0.228 C 
ATOM     15  O   UNL     1      -0.877   4.382   2.532  1.00  0.00    -0.285 OA
BRANCH  14  16
ATOM     16  C   UNL     1      -2.162   3.604   4.360  1.00  0.00     0.026 A 
ATOM     17  C   UNL     1      -2.392   2.476   5.170  1.00  0.00     0.012 A 
ATOM     18  C   UNL     1      -2.424   4.883   4.884  1.00  0.00     0.012 A 
ATOM     19  C   UNL     1      -2.897   2.626   6.466  1.00  0.00     0.001 A 
ATOM     20  C   UNL     1      -2.929   5.028   6.179  1.00  0.00     0.001 A 
ATOM     21  C   UNL     1      -3.168   3.901   6.969  1.00  0.00     0.000 A 
ENDBRANCH  14  16
ENDBRANCH  12  14
ENDBRANCH   1  12
BRANCH   6  22
ATOM     22  C   UNL     1       1.502  -1.171  -4.199  1.00  0.00     0.020 A 
ATOM     23  C   UNL     1       1.363  -0.356  -5.357  1.00  0.00     0.014 A 
ATOM     24  C   UNL     1       2.189  -2.405  -4.301  1.00  0.00     0.022 A 
ATOM     25  C   UNL     1       1.895  -0.762  -6.594  1.00  0.00     0.027 A 
ATOM     26  C   UNL     1       2.703  -2.773  -5.542  1.00  0.00     0.000 A 
ATOM     27  C   UNL     1       2.562  -1.982  -6.648  1.00  0.00     0.045 A 
ATOM     28  C   UNL     1       3.401  -3.897  -5.925  1.00  0.00     0.028 A 
ATOM     29  N   UNL     1       3.139  -2.551  -7.719  1.00  0.00    -0.361 N 
ATOM     30  C   UNL     1       3.655  -3.723  -7.282  1.00  0.00     0.083 A 
ATOM     31  H   UNL     1       3.184  -2.170  -8.690  1.00  0.00     0.166 HD
ENDBRANCH   6  22
TORSDOF 4


