MODEL 1
REMARK VINA RESULT:      -2.2      0.000      0.000
REMARK SMILES Cc1ccc(-c2cc3[nH]ccc3cc2N(N)C(=O)N2CCOCC2)cc1F
REMARK SMILES IDX 6 1 7 2 8 3 9 4 10 5 11 6 12 7 13 8 14 9 5 11 2 12 3 13
REMARK SMILES IDX 26 14 4 15 25 16 1 17 27 18 15 19 16 20 17 23 19 24 20 25
REMARK SMILES IDX 24 26 21 27 23 28 22 29 18 30
REMARK H PARENT 9 10 16 21 16 22
ROOT
ATOM      1  C   UNL     1      45.272 132.120  22.626  1.00  0.00     0.009 A 
ATOM      2  C   UNL     1      45.978 132.810  23.635  1.00  0.00     0.037 A 
ATOM      3  C   UNL     1      47.021 133.647  23.254  1.00  0.00     0.046 A 
ATOM      4  N   UNL     1      47.815 134.378  24.055  1.00  0.00    -0.361 N 
ATOM      5  C   UNL     1      48.677 135.021  23.234  1.00  0.00     0.083 A 
ATOM      6  C   UNL     1      48.428 134.693  21.904  1.00  0.00     0.028 A 
ATOM      7  C   UNL     1      47.369 133.814  21.943  1.00  0.00     0.002 A 
ATOM      8  C   UNL     1      46.693 133.167  20.914  1.00  0.00     0.039 A 
ATOM      9  C   UNL     1      45.616 132.315  21.250  1.00  0.00     0.071 A 
ATOM     10  H   UNL     1      47.777 134.441  25.096  1.00  0.00     0.166 HD
ENDROOT
BRANCH   1  11
ATOM     11  C   UNL     1      44.207 131.176  23.024  1.00  0.00    -0.013 A 
ATOM     12  C   UNL     1      42.151 129.378  23.700  1.00  0.00    -0.015 A 
ATOM     13  C   UNL     1      41.951 130.761  23.821  1.00  0.00     0.007 A 
ATOM     14  C   UNL     1      43.389 128.898  23.240  1.00  0.00     0.126 A 
ATOM     15  C   UNL     1      42.976 131.654  23.496  1.00  0.00     0.009 A 
ATOM     16  C   UNL     1      44.410 129.792  22.910  1.00  0.00     0.048 A 
ATOM     17  C   UNL     1      41.036 128.420  24.003  1.00  0.00     0.047 C 
ATOM     18  F   UNL     1      43.602 127.565  23.098  1.00  0.00    -0.207 F 
ENDBRANCH   1  11
BRANCH   9  19
ATOM     19  N   UNL     1      44.850 131.687  20.198  1.00  0.00    -0.229 N 
BRANCH  19  20
ATOM     20  N   UNL     1      43.450 131.827  20.162  1.00  0.00    -0.239 NA
ATOM     21  H   UNL     1      43.217 132.686  19.612  1.00  0.00     0.144 HD
ATOM     22  H   UNL     1      43.117 131.966  21.143  1.00  0.00     0.144 HD
ENDBRANCH  19  20
BRANCH  19  23
ATOM     23  C   UNL     1      45.469 130.689  19.363  1.00  0.00     0.339 C 
ATOM     24  N   UNL     1      45.425 130.778  17.922  1.00  0.00    -0.319 N 
ATOM     25  C   UNL     1      45.042 132.019  17.238  1.00  0.00     0.150 C 
ATOM     26  C   UNL     1      45.570 129.569  17.102  1.00  0.00     0.150 C 
ATOM     27  C   UNL     1      45.833 132.160  15.933  1.00  0.00     0.181 C 
ATOM     28  C   UNL     1      46.322 129.903  15.811  1.00  0.00     0.181 C 
ATOM     29  O   UNL     1      45.713 130.993  15.144  1.00  0.00    -0.378 OA
ATOM     30  O   UNL     1      46.075 129.726  19.908  1.00  0.00    -0.247 OA
ENDBRANCH  19  23
ENDBRANCH   9  19
TORSDOF 4
ENDMDL
MODEL 2
REMARK VINA RESULT:      -1.8      1.034      1.417
REMARK SMILES Cc1ccc(-c2cc3[nH]ccc3cc2N(N)C(=O)N2CCOCC2)cc1F
REMARK SMILES IDX 6 1 7 2 8 3 9 4 10 5 11 6 12 7 13 8 14 9 5 11 2 12 3 13
REMARK SMILES IDX 26 14 4 15 25 16 1 17 27 18 15 19 16 20 17 23 19 24 20 25
REMARK SMILES IDX 24 26 21 27 23 28 22 29 18 30
REMARK H PARENT 9 10 16 21 16 22
ROOT
ATOM      1  C   UNL     1      45.250 131.780  22.595  1.00  0.00     0.009 A 
ATOM      2  C   UNL     1      45.702 132.726  23.540  1.00  0.00     0.037 A 
ATOM      3  C   UNL     1      46.765 133.551  23.189  1.00  0.00     0.046 A 
ATOM      4  N   UNL     1      47.344 134.501  23.942  1.00  0.00    -0.361 N 
ATOM      5  C   UNL     1      48.329 135.029  23.179  1.00  0.00     0.083 A 
ATOM      6  C   UNL     1      48.375 134.407  21.935  1.00  0.00     0.028 A 
ATOM      7  C   UNL     1      47.369 133.467  21.966  1.00  0.00     0.002 A 
ATOM      8  C   UNL     1      46.948 132.561  20.998  1.00  0.00     0.039 A 
ATOM      9  C   UNL     1      45.863 131.708  21.303  1.00  0.00     0.071 A 
ATOM     10  H   UNL     1      47.089 134.779  24.916  1.00  0.00     0.166 HD
ENDROOT
BRANCH   1  11
ATOM     11  C   UNL     1      44.167 130.851  22.982  1.00  0.00    -0.013 A 
ATOM     12  C   UNL     1      42.091 129.069  23.635  1.00  0.00    -0.015 A 
ATOM     13  C   UNL     1      41.829 130.440  23.490  1.00  0.00     0.007 A 
ATOM     14  C   UNL     1      43.401 128.594  23.454  1.00  0.00     0.126 A 
ATOM     15  C   UNL     1      42.862 131.327  23.177  1.00  0.00     0.009 A 
ATOM     16  C   UNL     1      44.431 129.482  23.136  1.00  0.00     0.048 A 
ATOM     17  C   UNL     1      40.973 128.109  23.925  1.00  0.00     0.047 C 
ATOM     18  F   UNL     1      43.677 127.270  23.574  1.00  0.00    -0.207 F 
ENDBRANCH   1  11
BRANCH   9  19
ATOM     19  N   UNL     1      45.359 130.808  20.291  1.00  0.00    -0.229 N 
BRANCH  19  20
ATOM     20  N   UNL     1      45.854 129.493  20.206  1.00  0.00    -0.239 NA
ATOM     21  H   UNL     1      46.280 129.360  19.259  1.00  0.00     0.144 HD
ATOM     22  H   UNL     1      45.044 128.839  20.294  1.00  0.00     0.144 HD
ENDBRANCH  19  20
BRANCH  19  23
ATOM     23  C   UNL     1      44.577 131.328  19.199  1.00  0.00     0.339 C 
ATOM     24  N   UNL     1      44.969 131.120  17.824  1.00  0.00    -0.319 N 
ATOM     25  C   UNL     1      45.977 130.120  17.454  1.00  0.00     0.150 C 
ATOM     26  C   UNL     1      44.513 132.043  16.778  1.00  0.00     0.150 C 
ATOM     27  C   UNL     1      45.626 129.504  16.096  1.00  0.00     0.181 C 
ATOM     28  C   UNL     1      44.274 131.275  15.475  1.00  0.00     0.181 C 
ATOM     29  O   UNL     1      45.414 130.513  15.126  1.00  0.00    -0.378 OA
ATOM     30  O   UNL     1      43.520 131.967  19.454  1.00  0.00    -0.247 OA
ENDBRANCH  19  23
ENDBRANCH   9  19
TORSDOF 4
ENDMDL
MODEL 3
REMARK VINA RESULT:      -1.7      2.548      5.761
REMARK SMILES Cc1ccc(-c2cc3[nH]ccc3cc2N(N)C(=O)N2CCOCC2)cc1F
REMARK SMILES IDX 6 1 7 2 8 3 9 4 10 5 11 6 12 7 13 8 14 9 5 11 2 12 3 13
REMARK SMILES IDX 26 14 4 15 25 16 1 17 27 18 15 19 16 20 17 23 19 24 20 25
REMARK SMILES IDX 24 26 21 27 23 28 22 29 18 30
REMARK H PARENT 9 10 16 21 16 22
ROOT
ATOM      1  C   UNL     1      45.666 132.069  20.972  1.00  0.00     0.009 A 
ATOM      2  C   UNL     1      46.707 133.000  21.178  1.00  0.00     0.037 A 
ATOM      3  C   UNL     1      46.886 133.515  22.458  1.00  0.00     0.046 A 
ATOM      4  N   UNL     1      47.805 134.411  22.855  1.00  0.00    -0.361 N 
ATOM      5  C   UNL     1      47.586 134.604  24.176  1.00  0.00     0.083 A 
ATOM      6  C   UNL     1      46.520 133.826  24.617  1.00  0.00     0.028 A 
ATOM      7  C   UNL     1      46.088 133.142  23.502  1.00  0.00     0.002 A 
ATOM      8  C   UNL     1      45.061 132.217  23.351  1.00  0.00     0.039 A 
ATOM      9  C   UNL     1      44.847 131.655  22.071  1.00  0.00     0.071 A 
ATOM     10  H   UNL     1      48.539 134.866  22.268  1.00  0.00     0.166 HD
ENDROOT
BRANCH   1  11
ATOM     11  C   UNL     1      45.422 131.567  19.603  1.00  0.00    -0.013 A 
ATOM     12  C   UNL     1      44.903 130.555  17.030  1.00  0.00    -0.015 A 
ATOM     13  C   UNL     1      45.969 130.048  17.790  1.00  0.00     0.007 A 
ATOM     14  C   UNL     1      44.098 131.575  17.565  1.00  0.00     0.126 A 
ATOM     15  C   UNL     1      46.233 130.559  19.064  1.00  0.00     0.009 A 
ATOM     16  C   UNL     1      44.362 132.080  18.841  1.00  0.00     0.048 A 
ATOM     17  C   UNL     1      44.589 129.974  15.682  1.00  0.00     0.047 C 
ATOM     18  F   UNL     1      43.052 132.070  16.857  1.00  0.00    -0.207 F 
ENDBRANCH   1  11
BRANCH   9  19
ATOM     19  N   UNL     1      43.833 130.639  21.901  1.00  0.00    -0.229 N 
BRANCH  19  20
ATOM     20  N   UNL     1      42.502 131.007  21.633  1.00  0.00    -0.239 NA
ATOM     21  H   UNL     1      42.470 131.478  20.698  1.00  0.00     0.144 HD
ATOM     22  H   UNL     1      42.208 131.700  22.358  1.00  0.00     0.144 HD
ENDBRANCH  19  20
BRANCH  19  23
ATOM     23  C   UNL     1      44.114 129.280  22.287  1.00  0.00     0.339 C 
ATOM     24  N   UNL     1      43.237 128.552  23.174  1.00  0.00    -0.319 N 
ATOM     25  C   UNL     1      41.878 129.020  23.470  1.00  0.00     0.150 C 
ATOM     26  C   UNL     1      43.752 127.426  23.963  1.00  0.00     0.150 C 
ATOM     27  C   UNL     1      40.942 127.822  23.654  1.00  0.00     0.181 C 
ATOM     28  C   UNL     1      42.669 126.352  24.105  1.00  0.00     0.181 C 
ATOM     29  O   UNL     1      41.469 126.913  24.602  1.00  0.00    -0.378 OA
ATOM     30  O   UNL     1      45.142 128.713  21.827  1.00  0.00    -0.247 OA
ENDBRANCH  19  23
ENDBRANCH   9  19
TORSDOF 4
ENDMDL
MODEL 4
REMARK VINA RESULT:      -1.6      0.923      1.312
REMARK SMILES Cc1ccc(-c2cc3[nH]ccc3cc2N(N)C(=O)N2CCOCC2)cc1F
REMARK SMILES IDX 6 1 7 2 8 3 9 4 10 5 11 6 12 7 13 8 14 9 5 11 2 12 3 13
REMARK SMILES IDX 26 14 4 15 25 16 1 17 27 18 15 19 16 20 17 23 19 24 20 25
REMARK SMILES IDX 24 26 21 27 23 28 22 29 18 30
REMARK H PARENT 9 10 16 21 16 22
ROOT
ATOM      1  C   UNL     1      45.359 132.162  22.507  1.00  0.00     0.009 A 
ATOM      2  C   UNL     1      46.067 132.812  23.541  1.00  0.00     0.037 A 
ATOM      3  C   UNL     1      47.117 133.654  23.192  1.00  0.00     0.046 A 
ATOM      4  N   UNL     1      47.913 134.351  24.020  1.00  0.00    -0.361 N 
ATOM      5  C   UNL     1      48.782 135.016  23.224  1.00  0.00     0.083 A 
ATOM      6  C   UNL     1      48.534 134.737  21.883  1.00  0.00     0.028 A 
ATOM      7  C   UNL     1      47.469 133.864  21.888  1.00  0.00     0.002 A 
ATOM      8  C   UNL     1      46.791 133.259  20.836  1.00  0.00     0.039 A 
ATOM      9  C   UNL     1      45.707 132.403  21.139  1.00  0.00     0.071 A 
ATOM     10  H   UNL     1      47.873 134.377  25.063  1.00  0.00     0.166 HD
ENDROOT
BRANCH   1  11
ATOM     11  C   UNL     1      44.286 131.212  22.869  1.00  0.00    -0.013 A 
ATOM     12  C   UNL     1      42.273 129.403  23.638  1.00  0.00    -0.015 A 
ATOM     13  C   UNL     1      43.492 128.932  23.125  1.00  0.00     0.007 A 
ATOM     14  C   UNL     1      42.066 130.787  23.762  1.00  0.00     0.126 A 
ATOM     15  C   UNL     1      44.487 129.831  22.733  1.00  0.00     0.009 A 
ATOM     16  C   UNL     1      43.065 131.684  23.373  1.00  0.00     0.048 A 
ATOM     17  C   UNL     1      41.222 128.438  24.104  1.00  0.00     0.047 C 
ATOM     18  F   UNL     1      40.902 131.267  24.269  1.00  0.00    -0.207 F 
ENDBRANCH   1  11
BRANCH   9  19
ATOM     19  N   UNL     1      44.940 131.817  20.064  1.00  0.00    -0.229 N 
BRANCH  19  20
ATOM     20  N   UNL     1      43.555 132.048  19.977  1.00  0.00    -0.239 NA
ATOM     21  H   UNL     1      43.270 131.984  18.972  1.00  0.00     0.144 HD
ATOM     22  H   UNL     1      43.370 133.022  20.308  1.00  0.00     0.144 HD
ENDBRANCH  19  20
BRANCH  19  23
ATOM     23  C   UNL     1      45.523 130.775  19.258  1.00  0.00     0.339 C 
ATOM     24  N   UNL     1      45.469 130.819  17.814  1.00  0.00    -0.319 N 
ATOM     25  C   UNL     1      45.119 132.048  17.093  1.00  0.00     0.150 C 
ATOM     26  C   UNL     1      45.571 129.580  17.033  1.00  0.00     0.150 C 
ATOM     27  C   UNL     1      45.903 132.123  15.779  1.00  0.00     0.181 C 
ATOM     28  C   UNL     1      46.322 129.849  15.727  1.00  0.00     0.181 C 
ATOM     29  O   UNL     1      45.741 130.935  15.029  1.00  0.00    -0.378 OA
ATOM     30  O   UNL     1      46.103 129.812  19.829  1.00  0.00    -0.247 OA
ENDBRANCH  19  23
ENDBRANCH   9  19
TORSDOF 4
ENDMDL
MODEL 5
REMARK VINA RESULT:      -1.4      3.446      6.687
REMARK SMILES Cc1ccc(-c2cc3[nH]ccc3cc2N(N)C(=O)N2CCOCC2)cc1F
REMARK SMILES IDX 6 1 7 2 8 3 9 4 10 5 11 6 12 7 13 8 14 9 5 11 2 12 3 13
REMARK SMILES IDX 26 14 4 15 25 16 1 17 27 18 15 19 16 20 17 23 19 24 20 25
REMARK SMILES IDX 24 26 21 27 23 28 22 29 18 30
REMARK H PARENT 9 10 16 21 16 22
ROOT
ATOM      1  C   UNL     1      43.736 131.706  19.553  1.00  0.00     0.009 A 
ATOM      2  C   UNL     1      42.551 132.465  19.446  1.00  0.00     0.037 A 
ATOM      3  C   UNL     1      41.853 132.765  20.611  1.00  0.00     0.046 A 
ATOM      4  N   UNL     1      40.709 133.461  20.721  1.00  0.00    -0.361 N 
ATOM      5  C   UNL     1      40.418 133.487  22.042  1.00  0.00     0.083 A 
ATOM      6  C   UNL     1      41.384 132.802  22.773  1.00  0.00     0.028 A 
ATOM      7  C   UNL     1      42.288 132.348  21.838  1.00  0.00     0.002 A 
ATOM      8  C   UNL     1      43.458 131.612  21.994  1.00  0.00     0.039 A 
ATOM      9  C   UNL     1      44.209 131.293  20.840  1.00  0.00     0.071 A 
ATOM     10  H   UNL     1      40.156 133.894  19.949  1.00  0.00     0.166 HD
ENDROOT
BRANCH   1  11
ATOM     11  C   UNL     1      44.449 131.323  18.316  1.00  0.00    -0.013 A 
ATOM     12  C   UNL     1      45.755 130.523  15.956  1.00  0.00    -0.015 A 
ATOM     13  C   UNL     1      46.266 130.154  17.210  1.00  0.00     0.007 A 
ATOM     14  C   UNL     1      44.586 131.299  15.890  1.00  0.00     0.126 A 
ATOM     15  C   UNL     1      45.624 130.560  18.382  1.00  0.00     0.009 A 
ATOM     16  C   UNL     1      43.942 131.700  17.063  1.00  0.00     0.048 A 
ATOM     17  C   UNL     1      46.418 130.048  14.696  1.00  0.00     0.047 C 
ATOM     18  F   UNL     1      44.062 131.656  14.689  1.00  0.00    -0.207 F 
ENDBRANCH   1  11
BRANCH   9  19
ATOM     19  N   UNL     1      45.465 130.591  20.980  1.00  0.00    -0.229 N 
BRANCH  19  20
ATOM     20  N   UNL     1      46.672 131.232  20.648  1.00  0.00    -0.239 NA
ATOM     21  H   UNL     1      46.860 131.976  21.361  1.00  0.00     0.144 HD
ATOM     22  H   UNL     1      46.546 131.694  19.719  1.00  0.00     0.144 HD
ENDBRANCH  19  20
BRANCH  19  23
ATOM     23  C   UNL     1      45.466 129.164  21.175  1.00  0.00     0.339 C 
ATOM     24  N   UNL     1      45.018 128.571  22.414  1.00  0.00    -0.319 N 
ATOM     25  C   UNL     1      44.251 129.339  23.402  1.00  0.00     0.150 C 
ATOM     26  C   UNL     1      45.491 127.239  22.809  1.00  0.00     0.150 C 
ATOM     27  C   UNL     1      43.237 128.425  24.098  1.00  0.00     0.181 C 
ATOM     28  C   UNL     1      44.378 126.490  23.548  1.00  0.00     0.181 C 
ATOM     29  O   UNL     1      43.872 127.271  24.614  1.00  0.00    -0.378 OA
ATOM     30  O   UNL     1      45.855 128.419  20.235  1.00  0.00    -0.247 OA
ENDBRANCH  19  23
ENDBRANCH   9  19
TORSDOF 4
ENDMDL
MODEL 6
REMARK VINA RESULT:      -1.2      3.826      7.025
REMARK SMILES Cc1ccc(-c2cc3[nH]ccc3cc2N(N)C(=O)N2CCOCC2)cc1F
REMARK SMILES IDX 6 1 7 2 8 3 9 4 10 5 11 6 12 7 13 8 14 9 5 11 2 12 3 13
REMARK SMILES IDX 26 14 4 15 25 16 1 17 27 18 15 19 16 20 17 23 19 24 20 25
REMARK SMILES IDX 24 26 21 27 23 28 22 29 18 30
REMARK H PARENT 9 10 16 21 16 22
ROOT
ATOM      1  C   UNL     1      43.576 126.869  23.423  1.00  0.00     0.009 A 
ATOM      2  C   UNL     1      42.454 126.023  23.552  1.00  0.00     0.037 A 
ATOM      3  C   UNL     1      41.250 126.584  23.965  1.00  0.00     0.046 A 
ATOM      4  N   UNL     1      40.079 125.953  24.157  1.00  0.00    -0.361 N 
ATOM      5  C   UNL     1      39.207 126.907  24.558  1.00  0.00     0.083 A 
ATOM      6  C   UNL     1      39.831 128.149  24.623  1.00  0.00     0.028 A 
ATOM      7  C   UNL     1      41.135 127.917  24.242  1.00  0.00     0.002 A 
ATOM      8  C   UNL     1      42.209 128.791  24.115  1.00  0.00     0.039 A 
ATOM      9  C   UNL     1      43.451 128.270  23.686  1.00  0.00     0.071 A 
ATOM     10  H   UNL     1      39.879 124.937  24.023  1.00  0.00     0.166 HD
ENDROOT
BRANCH   1  11
ATOM     11  C   UNL     1      44.876 126.272  23.051  1.00  0.00    -0.013 A 
ATOM     12  C   UNL     1      47.379 125.150  22.423  1.00  0.00    -0.015 A 
ATOM     13  C   UNL     1      47.137 126.514  22.200  1.00  0.00     0.007 A 
ATOM     14  C   UNL     1      46.359 124.348  22.962  1.00  0.00     0.126 A 
ATOM     15  C   UNL     1      45.891 127.069  22.501  1.00  0.00     0.009 A 
ATOM     16  C   UNL     1      45.115 124.906  23.267  1.00  0.00     0.048 A 
ATOM     17  C   UNL     1      48.732 124.563  22.144  1.00  0.00     0.047 C 
ATOM     18  F   UNL     1      46.572 123.029  23.202  1.00  0.00    -0.207 F 
ENDBRANCH   1  11
BRANCH   9  19
ATOM     19  N   UNL     1      44.565 129.168  23.476  1.00  0.00    -0.229 N 
BRANCH  19  20
ATOM     20  N   UNL     1      45.395 129.526  24.554  1.00  0.00    -0.239 NA
ATOM     21  H   UNL     1      46.388 129.329  24.287  1.00  0.00     0.144 HD
ATOM     22  H   UNL     1      45.148 128.918  25.366  1.00  0.00     0.144 HD
ENDBRANCH  19  20
BRANCH  19  23
ATOM     23  C   UNL     1      44.655 129.918  22.250  1.00  0.00     0.339 C 
ATOM     24  N   UNL     1      43.609 130.828  21.843  1.00  0.00    -0.319 N 
ATOM     25  C   UNL     1      42.573 131.278  22.780  1.00  0.00     0.150 C 
ATOM     26  C   UNL     1      43.437 131.170  20.427  1.00  0.00     0.150 C 
ATOM     27  C   UNL     1      42.177 132.724  22.463  1.00  0.00     0.181 C 
ATOM     28  C   UNL     1      42.977 132.625  20.295  1.00  0.00     0.181 C 
ATOM     29  O   UNL     1      41.836 132.864  21.097  1.00  0.00    -0.378 OA
ATOM     30  O   UNL     1      45.678 129.784  21.525  1.00  0.00    -0.247 OA
ENDBRANCH  19  23
ENDBRANCH   9  19
TORSDOF 4
ENDMDL
MODEL 7
REMARK VINA RESULT:      -1.1      2.864      5.306
REMARK SMILES Cc1ccc(-c2cc3[nH]ccc3cc2N(N)C(=O)N2CCOCC2)cc1F
REMARK SMILES IDX 6 1 7 2 8 3 9 4 10 5 11 6 12 7 13 8 14 9 5 11 2 12 3 13
REMARK SMILES IDX 26 14 4 15 25 16 1 17 27 18 15 19 16 20 17 23 19 24 20 25
REMARK SMILES IDX 24 26 21 27 23 28 22 29 18 30
REMARK H PARENT 9 10 16 21 16 22
ROOT
ATOM      1  C   UNL     1      45.525 132.220  21.072  1.00  0.00     0.009 A 
ATOM      2  C   UNL     1      46.743 132.919  21.216  1.00  0.00     0.037 A 
ATOM      3  C   UNL     1      47.064 133.432  22.468  1.00  0.00     0.046 A 
ATOM      4  N   UNL     1      48.161 134.130  22.806  1.00  0.00    -0.361 N 
ATOM      5  C   UNL     1      48.027 134.413  24.123  1.00  0.00     0.083 A 
ATOM      6  C   UNL     1      46.836 133.893  24.620  1.00  0.00     0.028 A 
ATOM      7  C   UNL     1      46.238 133.273  23.545  1.00  0.00     0.002 A 
ATOM      8  C   UNL     1      45.036 132.580  23.455  1.00  0.00     0.039 A 
ATOM      9  C   UNL     1      44.671 132.028  22.205  1.00  0.00     0.071 A 
ATOM     10  H   UNL     1      48.956 134.399  22.185  1.00  0.00     0.166 HD
ENDROOT
BRANCH   1  11
ATOM     11  C   UNL     1      45.141 131.730  19.732  1.00  0.00    -0.013 A 
ATOM     12  C   UNL     1      44.458 130.858  17.145  1.00  0.00    -0.015 A 
ATOM     13  C   UNL     1      43.642 131.778  17.822  1.00  0.00     0.007 A 
ATOM     14  C   UNL     1      45.618 130.374  17.772  1.00  0.00     0.126 A 
ATOM     15  C   UNL     1      43.975 132.202  19.111  1.00  0.00     0.009 A 
ATOM     16  C   UNL     1      45.952 130.803  19.059  1.00  0.00     0.048 A 
ATOM     17  C   UNL     1      44.126 130.438  15.742  1.00  0.00     0.047 C 
ATOM     18  F   UNL     1      46.432 129.496  17.132  1.00  0.00    -0.207 F 
ENDBRANCH   1  11
BRANCH   9  19
ATOM     19  N   UNL     1      43.463 131.241  22.100  1.00  0.00    -0.229 N 
BRANCH  19  20
ATOM     20  N   UNL     1      42.436 131.637  21.224  1.00  0.00    -0.239 NA
ATOM     21  H   UNL     1      42.652 131.264  20.270  1.00  0.00     0.144 HD
ATOM     22  H   UNL     1      42.441 132.681  21.175  1.00  0.00     0.144 HD
ENDBRANCH  19  20
BRANCH  19  23
ATOM     23  C   UNL     1      43.182 130.230  23.087  1.00  0.00     0.339 C 
ATOM     24  N   UNL     1      43.738 128.900  22.984  1.00  0.00    -0.319 N 
ATOM     25  C   UNL     1      44.849 128.598  22.074  1.00  0.00     0.150 C 
ATOM     26  C   UNL     1      43.073 127.769  23.641  1.00  0.00     0.150 C 
ATOM     27  C   UNL     1      45.756 127.531  22.696  1.00  0.00     0.181 C 
ATOM     28  C   UNL     1      44.120 126.770  24.142  1.00  0.00     0.181 C 
ATOM     29  O   UNL     1      45.002 126.404  23.099  1.00  0.00    -0.378 OA
ATOM     30  O   UNL     1      42.446 130.521  24.069  1.00  0.00    -0.247 OA
ENDBRANCH  19  23
ENDBRANCH   9  19
TORSDOF 4
ENDMDL
MODEL 8
REMARK VINA RESULT:      -1.1      3.161      5.945
REMARK SMILES Cc1ccc(-c2cc3[nH]ccc3cc2N(N)C(=O)N2CCOCC2)cc1F
REMARK SMILES IDX 6 1 7 2 8 3 9 4 10 5 11 6 12 7 13 8 14 9 5 11 2 12 3 13
REMARK SMILES IDX 26 14 4 15 25 16 1 17 27 18 15 19 16 20 17 23 19 24 20 25
REMARK SMILES IDX 24 26 21 27 23 28 22 29 18 30
REMARK H PARENT 9 10 16 21 16 22
ROOT
ATOM      1  C   UNL     1      43.860 131.537  19.049  1.00  0.00     0.009 A 
ATOM      2  C   UNL     1      43.592 131.708  17.674  1.00  0.00     0.037 A 
ATOM      3  C   UNL     1      44.525 131.234  16.758  1.00  0.00     0.046 A 
ATOM      4  N   UNL     1      44.462 131.308  15.417  1.00  0.00    -0.361 N 
ATOM      5  C   UNL     1      45.592 130.719  14.962  1.00  0.00     0.083 A 
ATOM      6  C   UNL     1      46.376 130.271  16.021  1.00  0.00     0.028 A 
ATOM      7  C   UNL     1      45.675 130.613  17.156  1.00  0.00     0.002 A 
ATOM      8  C   UNL     1      45.974 130.408  18.499  1.00  0.00     0.039 A 
ATOM      9  C   UNL     1      45.051 130.861  19.469  1.00  0.00     0.071 A 
ATOM     10  H   UNL     1      43.700 131.730  14.842  1.00  0.00     0.166 HD
ENDROOT
BRANCH   1  11
ATOM     11  C   UNL     1      42.910 132.097  20.033  1.00  0.00    -0.013 A 
ATOM     12  C   UNL     1      41.053 133.092  21.898  1.00  0.00    -0.015 A 
ATOM     13  C   UNL     1      40.927 133.405  20.535  1.00  0.00     0.007 A 
ATOM     14  C   UNL     1      42.117 132.279  22.323  1.00  0.00     0.126 A 
ATOM     15  C   UNL     1      41.856 132.920  19.611  1.00  0.00     0.009 A 
ATOM     16  C   UNL     1      43.041 131.791  21.396  1.00  0.00     0.048 A 
ATOM     17  C   UNL     1      40.030 133.574  22.885  1.00  0.00     0.047 C 
ATOM     18  F   UNL     1      42.251 131.949  23.633  1.00  0.00    -0.207 F 
ENDBRANCH   1  11
BRANCH   9  19
ATOM     19  N   UNL     1      45.301 130.598  20.868  1.00  0.00    -0.229 N 
BRANCH  19  20
ATOM     20  N   UNL     1      45.705 131.641  21.722  1.00  0.00    -0.239 NA
ATOM     21  H   UNL     1      45.030 132.434  21.619  1.00  0.00     0.144 HD
ATOM     22  H   UNL     1      46.645 131.969  21.404  1.00  0.00     0.144 HD
ENDBRANCH  19  20
BRANCH  19  23
ATOM     23  C   UNL     1      45.422 129.238  21.327  1.00  0.00     0.339 C 
ATOM     24  N   UNL     1      44.756 128.784  22.526  1.00  0.00    -0.319 N 
ATOM     25  C   UNL     1      43.686 129.566  23.155  1.00  0.00     0.150 C 
ATOM     26  C   UNL     1      45.270 127.623  23.262  1.00  0.00     0.150 C 
ATOM     27  C   UNL     1      42.646 128.624  23.771  1.00  0.00     0.181 C 
ATOM     28  C   UNL     1      44.106 126.833  23.866  1.00  0.00     0.181 C 
ATOM     29  O   UNL     1      43.265 127.681  24.625  1.00  0.00    -0.378 OA
ATOM     30  O   UNL     1      46.114 128.425  20.655  1.00  0.00    -0.247 OA
ENDBRANCH  19  23
ENDBRANCH   9  19
TORSDOF 4
ENDMDL
MODEL 9
REMARK VINA RESULT:      -0.9      1.359      1.913
REMARK SMILES Cc1ccc(-c2cc3[nH]ccc3cc2N(N)C(=O)N2CCOCC2)cc1F
REMARK SMILES IDX 6 1 7 2 8 3 9 4 10 5 11 6 12 7 13 8 14 9 5 11 2 12 3 13
REMARK SMILES IDX 26 14 4 15 25 16 1 17 27 18 15 19 16 20 17 23 19 24 20 25
REMARK SMILES IDX 24 26 21 27 23 28 22 29 18 30
REMARK H PARENT 9 10 16 21 16 22
ROOT
ATOM      1  C   UNL     1      45.347 131.892  22.547  1.00  0.00     0.009 A 
ATOM      2  C   UNL     1      45.821 132.844  23.475  1.00  0.00     0.037 A 
ATOM      3  C   UNL     1      46.904 133.637  23.109  1.00  0.00     0.046 A 
ATOM      4  N   UNL     1      47.505 134.586  23.846  1.00  0.00    -0.361 N 
ATOM      5  C   UNL     1      48.503 135.076  23.074  1.00  0.00     0.083 A 
ATOM      6  C   UNL     1      48.534 134.432  21.841  1.00  0.00     0.028 A 
ATOM      7  C   UNL     1      47.506 133.516  21.888  1.00  0.00     0.002 A 
ATOM      8  C   UNL     1      47.064 132.603  20.937  1.00  0.00     0.039 A 
ATOM      9  C   UNL     1      45.958 131.783  21.257  1.00  0.00     0.071 A 
ATOM     10  H   UNL     1      47.257 134.888  24.814  1.00  0.00     0.166 HD
ENDROOT
BRANCH   1  11
ATOM     11  C   UNL     1      44.242 130.997  22.950  1.00  0.00    -0.013 A 
ATOM     12  C   UNL     1      42.163 129.302  23.799  1.00  0.00    -0.015 A 
ATOM     13  C   UNL     1      43.402 128.767  23.414  1.00  0.00     0.007 A 
ATOM     14  C   UNL     1      41.969 130.693  23.754  1.00  0.00     0.126 A 
ATOM     15  C   UNL     1      44.431 129.608  22.982  1.00  0.00     0.009 A 
ATOM     16  C   UNL     1      43.001 131.532  23.326  1.00  0.00     0.048 A 
ATOM     17  C   UNL     1      41.073 128.403  24.308  1.00  0.00     0.047 C 
ATOM     18  F   UNL     1      40.785 131.236  24.135  1.00  0.00    -0.207 F 
ENDBRANCH   1  11
BRANCH   9  19
ATOM     19  N   UNL     1      45.433 130.876  20.261  1.00  0.00    -0.229 N 
BRANCH  19  20
ATOM     20  N   UNL     1      45.917 129.558  20.181  1.00  0.00    -0.239 NA
ATOM     21  H   UNL     1      46.959 129.592  20.089  1.00  0.00     0.144 HD
ATOM     22  H   UNL     1      45.527 129.124  19.313  1.00  0.00     0.144 HD
ENDBRANCH  19  20
BRANCH  19  23
ATOM     23  C   UNL     1      44.639 131.392  19.176  1.00  0.00     0.339 C 
ATOM     24  N   UNL     1      45.000 131.155  17.797  1.00  0.00    -0.319 N 
ATOM     25  C   UNL     1      45.985 130.133  17.424  1.00  0.00     0.150 C 
ATOM     26  C   UNL     1      44.540 132.068  16.745  1.00  0.00     0.150 C 
ATOM     27  C   UNL     1      45.598 129.501  16.083  1.00  0.00     0.181 C 
ATOM     28  C   UNL     1      44.263 131.284  15.459  1.00  0.00     0.181 C 
ATOM     29  O   UNL     1      45.383 130.497  15.101  1.00  0.00    -0.378 OA
ATOM     30  O   UNL     1      43.597 132.052  19.440  1.00  0.00    -0.247 OA
ENDBRANCH  19  23
ENDBRANCH   9  19
TORSDOF 4
ENDMDL


