MODEL 1
REMARK VINA RESULT:      -9.0      0.000      0.000
REMARK SMILES C[C@@](O)(CCl)C(=O)[N-]c1cc(F)c[nH]/c1=N\c1c[nH]c2[nH+]ccc-2c1
REMARK SMILES IDX 8 1 6 2 7 3 2 4 1 5 3 6 4 8 5 9 9 10 10 11 15 12 11 13 14 14
REMARK SMILES IDX 13 15 12 16 16 18 17 19 25 20 18 21 24 22 19 23 23 24 20 25
REMARK SMILES IDX 22 26 21 27
REMARK H PARENT 3 7 14 17 19 28 21 29
ROOT
ATOM      1  N   UNL     1      44.983 130.832  21.080  1.00  0.00    -0.621 NA
ENDROOT
BRANCH   1   2
ATOM      2  C   UNL     1      44.797 129.816  22.075  1.00  0.00     0.088 C 
ATOM      3  O   UNL     1      45.106 128.619  21.827  1.00  0.00    -0.317 OA
BRANCH   2   4
ATOM      4  C   UNL     1      44.229 130.184  23.432  1.00  0.00     0.117 C 
ATOM      5  C   UNL     1      44.398 131.696  23.685  1.00  0.00     0.050 C 
BRANCH   4   6
ATOM      6  O   UNL     1      44.887 129.467  24.453  1.00  0.00    -0.383 OA
ATOM      7  H   UNL     1      45.823 129.798  24.506  1.00  0.00     0.211 HD
ENDBRANCH   4   6
BRANCH   4   8
ATOM      8  C   UNL     1      42.732 129.825  23.477  1.00  0.00     0.150 C 
ATOM      9  Cl  UNL     1      42.459 128.178  24.115  1.00  0.00    -0.123 Cl
ENDBRANCH   4   8
ENDBRANCH   2   4
ENDBRANCH   1   2
BRANCH   1  10
ATOM     10  C   UNL     1      43.956 131.443  20.280  1.00  0.00    -0.087 A 
ATOM     11  C   UNL     1      42.884 132.133  20.867  1.00  0.00     0.028 A 
ATOM     12  C   UNL     1      43.980 131.283  18.883  1.00  0.00     0.116 A 
ATOM     13  C   UNL     1      41.891 132.692  20.066  1.00  0.00     0.138 A 
ATOM     14  N   UNL     1      43.001 131.866  18.119  1.00  0.00    -0.345 N 
ATOM     15  C   UNL     1      41.972 132.556  18.682  1.00  0.00     0.123 A 
ATOM     16  F   UNL     1      40.855 133.362  20.628  1.00  0.00    -0.205 F 
ATOM     17  H   UNL     1      43.031 131.829  17.077  1.00  0.00     0.168 HD
BRANCH  12  18
ATOM     18  N   UNL     1      44.964 130.616  18.344  1.00  0.00    -0.229 NA
BRANCH  18  19
ATOM     19  C   UNL     1      45.624 130.892  17.099  1.00  0.00     0.105 A 
ATOM     20  C   UNL     1      46.240 129.829  16.407  1.00  0.00     0.049 A 
ATOM     21  C   UNL     1      45.560 132.188  16.508  1.00  0.00     0.226 A 
ATOM     22  C   UNL     1      46.817 130.118  15.181  1.00  0.00     0.070 A 
ATOM     23  N   UNL     1      46.137 132.446  15.294  1.00  0.00    -0.245 N 
ATOM     24  C   UNL     1      47.487 129.355  14.251  1.00  0.00     0.060 A 
ATOM     25  C   UNL     1      46.761 131.436  14.644  1.00  0.00     0.284 A 
ATOM     26  C   UNL     1      47.804 130.228  13.205  1.00  0.00     0.198 A 
ATOM     27  N   UNL     1      47.359 131.487  13.447  1.00  0.00    -0.247 N 
ATOM     28  H   UNL     1      46.087 133.400  14.874  1.00  0.00     0.312 HD
ATOM     29  H   UNL     1      47.459 132.320  12.824  1.00  0.00     0.311 HD
ENDBRANCH  18  19
ENDBRANCH  12  18
ENDBRANCH   1  10
TORSDOF 7
ENDMDL
MODEL 2
REMARK VINA RESULT:      -7.8      1.227      1.412
REMARK SMILES C[C@@](O)(CCl)C(=O)[N-]c1cc(F)c[nH]/c1=N\c1c[nH]c2[nH+]ccc-2c1
REMARK SMILES IDX 8 1 6 2 7 3 2 4 1 5 3 6 4 8 5 9 9 10 10 11 15 12 11 13 14 14
REMARK SMILES IDX 13 15 12 16 16 18 17 19 25 20 18 21 24 22 19 23 23 24 20 25
REMARK SMILES IDX 22 26 21 27
REMARK H PARENT 3 7 14 17 19 28 21 29
ROOT
ATOM      1  N   UNL     1      44.902 131.199  21.275  1.00  0.00    -0.621 NA
ENDROOT
BRANCH   1   2
ATOM      2  C   UNL     1      44.779 130.069  22.150  1.00  0.00     0.088 C 
ATOM      3  O   UNL     1      45.389 128.996  21.893  1.00  0.00    -0.317 OA
BRANCH   2   4
ATOM      4  C   UNL     1      43.913 130.166  23.392  1.00  0.00     0.117 C 
ATOM      5  C   UNL     1      43.386 128.769  23.779  1.00  0.00     0.050 C 
BRANCH   4   6
ATOM      6  O   UNL     1      42.821 131.027  23.165  1.00  0.00    -0.383 OA
ATOM      7  H   UNL     1      41.988 130.490  23.230  1.00  0.00     0.211 HD
ENDBRANCH   4   6
BRANCH   4   8
ATOM      8  C   UNL     1      44.746 130.735  24.555  1.00  0.00     0.150 C 
ATOM      9  Cl  UNL     1      44.698 132.521  24.599  1.00  0.00    -0.123 Cl
ENDBRANCH   4   8
ENDBRANCH   2   4
ENDBRANCH   1   2
BRANCH   1  10
ATOM     10  C   UNL     1      43.888 131.713  20.395  1.00  0.00    -0.087 A 
ATOM     11  C   UNL     1      42.723 132.316  20.893  1.00  0.00     0.028 A 
ATOM     12  C   UNL     1      44.025 131.540  19.006  1.00  0.00     0.116 A 
ATOM     13  C   UNL     1      41.747 132.781  20.015  1.00  0.00     0.138 A 
ATOM     14  N   UNL     1      43.059 132.030  18.165  1.00  0.00    -0.345 N 
ATOM     15  C   UNL     1      41.938 132.637  18.643  1.00  0.00     0.123 A 
ATOM     16  F   UNL     1      40.621 133.368  20.491  1.00  0.00    -0.205 F 
ATOM     17  H   UNL     1      43.166 131.985  17.129  1.00  0.00     0.168 HD
BRANCH  12  18
ATOM     18  N   UNL     1      45.098 130.953  18.549  1.00  0.00    -0.229 NA
BRANCH  18  19
ATOM     19  C   UNL     1      45.691 131.110  17.251  1.00  0.00     0.105 A 
ATOM     20  C   UNL     1      46.413 130.032  16.699  1.00  0.00     0.049 A 
ATOM     21  C   UNL     1      45.460 132.286  16.479  1.00  0.00     0.226 A 
ATOM     22  C   UNL     1      46.923 130.196  15.422  1.00  0.00     0.070 A 
ATOM     23  N   UNL     1      45.973 132.421  15.218  1.00  0.00    -0.245 N 
ATOM     24  C   UNL     1      47.658 129.383  14.588  1.00  0.00     0.060 A 
ATOM     25  C   UNL     1      46.698 131.402  14.699  1.00  0.00     0.284 A 
ATOM     26  C   UNL     1      47.844 130.117  13.413  1.00  0.00     0.198 A 
ATOM     27  N   UNL     1      47.258 131.340  13.484  1.00  0.00    -0.247 N 
ATOM     28  H   UNL     1      45.801 133.289  14.663  1.00  0.00     0.312 HD
ATOM     29  H   UNL     1      47.243 132.074  12.741  1.00  0.00     0.311 HD
ENDBRANCH  18  19
ENDBRANCH  12  18
ENDBRANCH   1  10
TORSDOF 7
ENDMDL
MODEL 3
REMARK VINA RESULT:      -7.7      1.384      1.810
REMARK SMILES C[C@@](O)(CCl)C(=O)[N-]c1cc(F)c[nH]/c1=N\c1c[nH]c2[nH+]ccc-2c1
REMARK SMILES IDX 8 1 6 2 7 3 2 4 1 5 3 6 4 8 5 9 9 10 10 11 15 12 11 13 14 14
REMARK SMILES IDX 13 15 12 16 16 18 17 19 25 20 18 21 24 22 19 23 23 24 20 25
REMARK SMILES IDX 22 26 21 27
REMARK H PARENT 3 7 14 17 19 28 21 29
ROOT
ATOM      1  N   UNL     1      44.777 131.056  21.472  1.00  0.00    -0.621 NA
ENDROOT
BRANCH   1   2
ATOM      2  C   UNL     1      44.796 129.702  21.944  1.00  0.00     0.088 C 
ATOM      3  O   UNL     1      45.494 128.832  21.355  1.00  0.00    -0.317 OA
BRANCH   2   4
ATOM      4  C   UNL     1      43.974 129.315  23.159  1.00  0.00     0.117 C 
ATOM      5  C   UNL     1      44.245 127.844  23.534  1.00  0.00     0.050 C 
BRANCH   4   6
ATOM      6  O   UNL     1      42.600 129.481  22.898  1.00  0.00    -0.383 OA
ATOM      7  H   UNL     1      42.507 130.005  22.058  1.00  0.00     0.211 HD
ENDBRANCH   4   6
BRANCH   4   8
ATOM      8  C   UNL     1      44.355 130.219  24.346  1.00  0.00     0.150 C 
ATOM      9  Cl  UNL     1      43.310 131.666  24.445  1.00  0.00    -0.123 Cl
ENDBRANCH   4   8
ENDBRANCH   2   4
ENDBRANCH   1   2
BRANCH   1  10
ATOM     10  C   UNL     1      43.843 131.623  20.539  1.00  0.00    -0.087 A 
ATOM     11  C   UNL     1      42.638 132.202  20.968  1.00  0.00     0.028 A 
ATOM     12  C   UNL     1      44.099 131.529  19.158  1.00  0.00     0.116 A 
ATOM     13  C   UNL     1      41.741 132.719  20.037  1.00  0.00     0.138 A 
ATOM     14  N   UNL     1      43.209 132.070  18.267  1.00  0.00    -0.345 N 
ATOM     15  C   UNL     1      42.050 132.653  18.680  1.00  0.00     0.123 A 
ATOM     16  F   UNL     1      40.578 133.282  20.446  1.00  0.00    -0.205 F 
ATOM     17  H   UNL     1      43.405 132.084  17.243  1.00  0.00     0.168 HD
BRANCH  12  18
ATOM     18  N   UNL     1      45.208 130.965  18.763  1.00  0.00    -0.229 NA
BRANCH  18  19
ATOM     19  C   UNL     1      45.575 130.612  17.421  1.00  0.00     0.105 A 
ATOM     20  C   UNL     1      46.064 131.618  16.563  1.00  0.00     0.049 A 
ATOM     21  C   UNL     1      45.561 129.252  16.992  1.00  0.00     0.226 A 
ATOM     22  C   UNL     1      46.464 131.234  15.293  1.00  0.00     0.070 A 
ATOM     23  N   UNL     1      45.963 128.899  15.733  1.00  0.00    -0.245 N 
ATOM     24  C   UNL     1      46.979 131.922  14.217  1.00  0.00     0.060 A 
ATOM     25  C   UNL     1      46.399 129.868  14.895  1.00  0.00     0.284 A 
ATOM     26  C   UNL     1      47.201 130.961  13.227  1.00  0.00     0.198 A 
ATOM     27  N   UNL     1      46.851 129.717  13.643  1.00  0.00    -0.247 N 
ATOM     28  H   UNL     1      45.944 127.900  15.429  1.00  0.00     0.312 HD
ATOM     29  H   UNL     1      46.926 128.828  13.100  1.00  0.00     0.311 HD
ENDBRANCH  18  19
ENDBRANCH  12  18
ENDBRANCH   1  10
TORSDOF 7
ENDMDL


