MODEL 1
REMARK VINA RESULT:      -8.7      0.000      0.000
REMARK SMILES C=C1CC[C@@H](N[C@@H]2CCC[C@H](NN)[C@H]2O)C[C@H]1F
REMARK SMILES IDX 7 1 8 2 9 3 10 4 11 5 14 6 6 7 5 9 2 10 3 11 17 12 4 13
REMARK SMILES IDX 16 14 1 15 18 16 15 17 12 19 13 21
REMARK H PARENT 6 8 15 18 12 20 13 22 13 23
ROOT
ATOM      1  C   UNL     1      44.226 131.478  18.448  1.00  0.00     0.084 C 
ATOM      2  C   UNL     1      42.834 132.124  18.596  1.00  0.00     0.022 C 
ATOM      3  C   UNL     1      42.085 131.584  19.815  1.00  0.00     0.003 C 
ATOM      4  C   UNL     1      42.894 131.824  21.090  1.00  0.00     0.023 C 
ATOM      5  C   UNL     1      44.285 131.163  20.987  1.00  0.00     0.099 C 
ATOM      6  C   UNL     1      45.054 131.678  19.746  1.00  0.00     0.149 C 
ENDROOT
BRANCH   1   7
ATOM      7  N   UNL     1      44.875 132.097  17.269  1.00  0.00    -0.308 NA
ATOM      8  H   UNL     1      45.583 132.813  17.558  1.00  0.00     0.123 HD
BRANCH   7   9
ATOM      9  C   UNL     1      45.357 131.266  16.135  1.00  0.00     0.057 C 
ATOM     10  C   UNL     1      47.121 129.818  14.327  1.00  0.00    -0.044 C 
ATOM     11  C   UNL     1      46.236 129.041  15.276  1.00  0.00     0.035 C 
ATOM     12  C   UNL     1      46.719 131.237  13.981  1.00  0.00     0.193 C 
ATOM     13  C   UNL     1      45.908 129.874  16.520  1.00  0.00     0.023 C 
ATOM     14  C   UNL     1      46.370 132.028  15.249  1.00  0.00     0.061 C 
ATOM     15  C   UNL     1      48.117 129.195  13.676  1.00  0.00     0.011 C 
ATOM     16  F   UNL     1      47.730 131.903  13.306  1.00  0.00    -0.243 F 
ENDBRANCH   7   9
ENDBRANCH   1   7
BRANCH   6  17
ATOM     17  O   UNL     1      46.260 130.971  19.643  1.00  0.00    -0.390 OA
ATOM     18  H   UNL     1      46.595 130.827  20.567  1.00  0.00     0.211 HD
ENDBRANCH   6  17
BRANCH   5  19
ATOM     19  N   UNL     1      45.083 131.412  22.199  1.00  0.00    -0.255 NA
ATOM     20  H   UNL     1      45.506 132.370  22.138  1.00  0.00     0.141 HD
BRANCH  19  21
ATOM     21  N   UNL     1      44.238 131.376  23.324  1.00  0.00    -0.271 NA
ATOM     22  H   UNL     1      43.861 130.403  23.396  1.00  0.00     0.137 HD
ATOM     23  H   UNL     1      44.835 131.508  24.173  1.00  0.00     0.137 HD
ENDBRANCH  19  21
ENDBRANCH   5  19
TORSDOF 5
ENDMDL
MODEL 2
REMARK VINA RESULT:      -8.5      1.501      1.946
REMARK SMILES C=C1CC[C@@H](N[C@@H]2CCC[C@H](NN)[C@H]2O)C[C@H]1F
REMARK SMILES IDX 7 1 8 2 9 3 10 4 11 5 14 6 6 7 5 9 2 10 3 11 17 12 4 13
REMARK SMILES IDX 16 14 1 15 18 16 15 17 12 19 13 21
REMARK H PARENT 6 8 15 18 12 20 13 22 13 23
ROOT
ATOM      1  C   UNL     1      44.197 131.928  18.273  1.00  0.00     0.084 C 
ATOM      2  C   UNL     1      45.265 130.852  18.546  1.00  0.00     0.022 C 
ATOM      3  C   UNL     1      45.831 130.960  19.962  1.00  0.00     0.003 C 
ATOM      4  C   UNL     1      44.712 130.837  20.997  1.00  0.00     0.023 C 
ATOM      5  C   UNL     1      43.637 131.922  20.771  1.00  0.00     0.099 C 
ATOM      6  C   UNL     1      43.066 131.846  19.334  1.00  0.00     0.149 C 
ENDROOT
BRANCH   1   7
ATOM      7  N   UNL     1      43.692 131.708  16.898  1.00  0.00    -0.308 NA
ATOM      8  H   UNL     1      43.229 132.570  16.522  1.00  0.00     0.123 HD
BRANCH   7   9
ATOM      9  C   UNL     1      44.529 131.035  15.872  1.00  0.00     0.057 C 
ATOM     10  C   UNL     1      46.829 129.886  14.505  1.00  0.00    -0.044 C 
ATOM     11  C   UNL     1      45.780 128.966  15.087  1.00  0.00     0.035 C 
ATOM     12  C   UNL     1      46.430 131.314  14.196  1.00  0.00     0.193 C 
ATOM     13  C   UNL     1      45.059 129.636  16.262  1.00  0.00     0.023 C 
ATOM     14  C   UNL     1      45.685 131.939  15.384  1.00  0.00     0.061 C 
ATOM     15  C   UNL     1      48.011 129.388  14.105  1.00  0.00     0.011 C 
ATOM     16  F   UNL     1      47.533 132.100  13.901  1.00  0.00    -0.243 F 
ENDBRANCH   7   9
ENDBRANCH   1   7
BRANCH   6  17
ATOM     17  O   UNL     1      42.176 132.914  19.151  1.00  0.00    -0.390 OA
ATOM     18  H   UNL     1      41.470 132.602  18.525  1.00  0.00     0.211 HD
ENDBRANCH   6  17
BRANCH   5  19
ATOM     19  N   UNL     1      42.540 131.795  21.745  1.00  0.00    -0.255 NA
ATOM     20  H   UNL     1      41.626 131.795  21.231  1.00  0.00     0.141 HD
BRANCH  19  21
ATOM     21  N   UNL     1      42.663 130.566  22.420  1.00  0.00    -0.271 NA
ATOM     22  H   UNL     1      42.011 129.892  21.956  1.00  0.00     0.137 HD
ATOM     23  H   UNL     1      43.625 130.198  22.234  1.00  0.00     0.137 HD
ENDBRANCH  19  21
ENDBRANCH   5  19
TORSDOF 5
ENDMDL
MODEL 3
REMARK VINA RESULT:      -8.3      1.754      2.494
REMARK SMILES C=C1CC[C@@H](N[C@@H]2CCC[C@H](NN)[C@H]2O)C[C@H]1F
REMARK SMILES IDX 7 1 8 2 9 3 10 4 11 5 14 6 6 7 5 9 2 10 3 11 17 12 4 13
REMARK SMILES IDX 16 14 1 15 18 16 15 17 12 19 13 21
REMARK H PARENT 6 8 15 18 12 20 13 22 13 23
ROOT
ATOM      1  C   UNL     1      44.612 131.562  18.765  1.00  0.00     0.084 C 
ATOM      2  C   UNL     1      45.615 130.679  19.531  1.00  0.00     0.022 C 
ATOM      3  C   UNL     1      45.797 131.148  20.975  1.00  0.00     0.003 C 
ATOM      4  C   UNL     1      44.457 131.150  21.711  1.00  0.00     0.023 C 
ATOM      5  C   UNL     1      43.435 132.052  20.985  1.00  0.00     0.099 C 
ATOM      6  C   UNL     1      43.252 131.608  19.513  1.00  0.00     0.149 C 
ENDROOT
BRANCH   1   7
ATOM      7  N   UNL     1      44.481 130.999  17.401  1.00  0.00    -0.308 NA
ATOM      8  H   UNL     1      43.576 131.285  16.958  1.00  0.00     0.123 HD
BRANCH   7   9
ATOM      9  C   UNL     1      45.612 131.053  16.438  1.00  0.00     0.057 C 
ATOM     10  C   UNL     1      47.152 130.863  13.974  1.00  0.00    -0.044 C 
ATOM     11  C   UNL     1      46.789 132.227  14.515  1.00  0.00     0.035 C 
ATOM     12  C   UNL     1      47.164 129.695  14.940  1.00  0.00     0.193 C 
ATOM     13  C   UNL     1      45.512 132.157  15.360  1.00  0.00     0.023 C 
ATOM     14  C   UNL     1      45.884 129.677  15.787  1.00  0.00     0.061 C 
ATOM     15  C   UNL     1      47.628 130.741  12.724  1.00  0.00     0.011 C 
ATOM     16  F   UNL     1      47.274 128.484  14.275  1.00  0.00    -0.243 F 
ENDBRANCH   7   9
ENDBRANCH   1   7
BRANCH   6  17
ATOM     17  O   UNL     1      42.399 132.520  18.875  1.00  0.00    -0.390 OA
ATOM     18  H   UNL     1      41.546 132.044  18.691  1.00  0.00     0.211 HD
ENDBRANCH   6  17
BRANCH   5  19
ATOM     19  N   UNL     1      42.132 132.037  21.670  1.00  0.00    -0.255 NA
ATOM     20  H   UNL     1      41.550 131.257  21.280  1.00  0.00     0.141 HD
BRANCH  19  21
ATOM     21  N   UNL     1      42.334 131.791  23.041  1.00  0.00    -0.271 NA
ATOM     22  H   UNL     1      43.284 132.159  23.284  1.00  0.00     0.137 HD
ATOM     23  H   UNL     1      41.659 132.388  23.572  1.00  0.00     0.137 HD
ENDBRANCH  19  21
ENDBRANCH   5  19
TORSDOF 5
ENDMDL
MODEL 4
REMARK VINA RESULT:      -8.2      2.093      2.716
REMARK SMILES C=C1CC[C@@H](N[C@@H]2CCC[C@H](NN)[C@H]2O)C[C@H]1F
REMARK SMILES IDX 7 1 8 2 9 3 10 4 11 5 14 6 6 7 5 9 2 10 3 11 17 12 4 13
REMARK SMILES IDX 16 14 1 15 18 16 15 17 12 19 13 21
REMARK H PARENT 6 8 15 18 12 20 13 22 13 23
ROOT
ATOM      1  C   UNL     1      44.925 131.268  18.585  1.00  0.00     0.084 C 
ATOM      2  C   UNL     1      45.458 130.738  19.930  1.00  0.00     0.022 C 
ATOM      3  C   UNL     1      45.099 131.669  21.089  1.00  0.00     0.003 C 
ATOM      4  C   UNL     1      43.584 131.852  21.181  1.00  0.00     0.023 C 
ATOM      5  C   UNL     1      43.020 132.411  19.857  1.00  0.00     0.099 C 
ATOM      6  C   UNL     1      43.391 131.495  18.665  1.00  0.00     0.149 C 
ENDROOT
BRANCH   1   7
ATOM      7  N   UNL     1      45.291 130.277  17.546  1.00  0.00    -0.308 NA
ATOM      8  H   UNL     1      44.449 129.750  17.212  1.00  0.00     0.123 HD
BRANCH   7   9
ATOM      9  C   UNL     1      46.198 130.640  16.427  1.00  0.00     0.057 C 
ATOM     10  C   UNL     1      47.278 130.968  13.743  1.00  0.00    -0.044 C 
ATOM     11  C   UNL     1      46.767 132.181  14.487  1.00  0.00     0.035 C 
ATOM     12  C   UNL     1      47.685 129.755  14.554  1.00  0.00     0.193 C 
ATOM     13  C   UNL     1      45.699 131.782  15.512  1.00  0.00     0.023 C 
ATOM     14  C   UNL     1      46.604 129.406  15.588  1.00  0.00     0.061 C 
ATOM     15  C   UNL     1      47.536 131.048  12.427  1.00  0.00     0.011 C 
ATOM     16  F   UNL     1      47.900 128.650  13.746  1.00  0.00    -0.243 F 
ENDBRANCH   7   9
ENDBRANCH   1   7
BRANCH   6  17
ATOM     17  O   UNL     1      42.947 132.101  17.481  1.00  0.00    -0.390 OA
ATOM     18  H   UNL     1      43.073 131.442  16.749  1.00  0.00     0.211 HD
ENDBRANCH   6  17
BRANCH   5  19
ATOM     19  N   UNL     1      41.557 132.563  19.924  1.00  0.00    -0.255 NA
ATOM     20  H   UNL     1      41.117 131.613  19.972  1.00  0.00     0.141 HD
BRANCH  19  21
ATOM     21  N   UNL     1      41.220 133.263  21.098  1.00  0.00    -0.271 NA
ATOM     22  H   UNL     1      40.184 133.177  21.222  1.00  0.00     0.137 HD
ATOM     23  H   UNL     1      41.642 132.748  21.905  1.00  0.00     0.137 HD
ENDBRANCH  19  21
ENDBRANCH   5  19
TORSDOF 5
ENDMDL
MODEL 5
REMARK VINA RESULT:      -7.5      3.194      6.968
REMARK SMILES C=C1CC[C@@H](N[C@@H]2CCC[C@H](NN)[C@H]2O)C[C@H]1F
REMARK SMILES IDX 7 1 8 2 9 3 10 4 11 5 14 6 6 7 5 9 2 10 3 11 17 12 4 13
REMARK SMILES IDX 16 14 1 15 18 16 15 17 12 19 13 21
REMARK H PARENT 6 8 15 18 12 20 13 22 13 23
ROOT
ATOM      1  C   UNL     1      45.223 131.170  16.685  1.00  0.00     0.084 C 
ATOM      2  C   UNL     1      45.355 129.646  16.867  1.00  0.00     0.022 C 
ATOM      3  C   UNL     1      45.228 128.902  15.538  1.00  0.00     0.003 C 
ATOM      4  C   UNL     1      46.287 129.387  14.548  1.00  0.00     0.023 C 
ATOM      5  C   UNL     1      46.164 130.909  14.318  1.00  0.00     0.099 C 
ATOM      6  C   UNL     1      46.267 131.683  15.656  1.00  0.00     0.149 C 
ENDROOT
BRANCH   1   7
ATOM      7  N   UNL     1      45.401 131.790  18.018  1.00  0.00    -0.308 NA
ATOM      8  H   UNL     1      45.572 132.821  17.937  1.00  0.00     0.123 HD
BRANCH   7   9
ATOM      9  C   UNL     1      44.485 131.467  19.142  1.00  0.00     0.057 C 
ATOM     10  C   UNL     1      43.202 131.500  21.756  1.00  0.00    -0.044 C 
ATOM     11  C   UNL     1      42.473 132.085  20.568  1.00  0.00     0.035 C 
ATOM     12  C   UNL     1      44.300 130.490  21.489  1.00  0.00     0.193 C 
ATOM     13  C   UNL     1      43.465 132.571  19.505  1.00  0.00     0.023 C 
ATOM     14  C   UNL     1      45.254 130.999  20.400  1.00  0.00     0.061 C 
ATOM     15  C   UNL     1      42.753 131.731  23.001  1.00  0.00     0.011 C 
ATOM     16  F   UNL     1      45.035 130.221  22.633  1.00  0.00    -0.243 F 
ENDBRANCH   7   9
ENDBRANCH   1   7
BRANCH   6  17
ATOM     17  O   UNL     1      46.044 133.043  15.403  1.00  0.00    -0.390 OA
ATOM     18  H   UNL     1      46.931 133.490  15.401  1.00  0.00     0.211 HD
ENDBRANCH   6  17
BRANCH   5  19
ATOM     19  N   UNL     1      47.198 131.392  13.389  1.00  0.00    -0.255 NA
ATOM     20  H   UNL     1      47.703 132.199  13.829  1.00  0.00     0.141 HD
BRANCH  19  21
ATOM     21  N   UNL     1      48.131 130.363  13.161  1.00  0.00    -0.271 NA
ATOM     22  H   UNL     1      48.866 130.747  12.523  1.00  0.00     0.137 HD
ATOM     23  H   UNL     1      48.619 130.173  14.067  1.00  0.00     0.137 HD
ENDBRANCH  19  21
ENDBRANCH   5  19
TORSDOF 5
ENDMDL
MODEL 6
REMARK VINA RESULT:      -7.5      2.033      2.566
REMARK SMILES C=C1CC[C@@H](N[C@@H]2CCC[C@H](NN)[C@H]2O)C[C@H]1F
REMARK SMILES IDX 7 1 8 2 9 3 10 4 11 5 14 6 6 7 5 9 2 10 3 11 17 12 4 13
REMARK SMILES IDX 16 14 1 15 18 16 15 17 12 19 13 21
REMARK H PARENT 6 8 15 18 12 20 13 22 13 23
ROOT
ATOM      1  C   UNL     1      43.980 131.915  19.393  1.00  0.00     0.084 C 
ATOM      2  C   UNL     1      45.170 130.937  19.421  1.00  0.00     0.022 C 
ATOM      3  C   UNL     1      45.734 130.770  20.833  1.00  0.00     0.003 C 
ATOM      4  C   UNL     1      44.648 130.274  21.788  1.00  0.00     0.023 C 
ATOM      5  C   UNL     1      43.450 131.249  21.807  1.00  0.00     0.099 C 
ATOM      6  C   UNL     1      42.877 131.451  20.383  1.00  0.00     0.149 C 
ENDROOT
BRANCH   1   7
ATOM      7  N   UNL     1      43.490 131.972  17.996  1.00  0.00    -0.308 NA
ATOM      8  H   UNL     1      43.194 132.943  17.737  1.00  0.00     0.123 HD
BRANCH   7   9
ATOM      9  C   UNL     1      44.233 131.306  16.895  1.00  0.00     0.057 C 
ATOM     10  C   UNL     1      45.825 130.893  14.492  1.00  0.00    -0.044 C 
ATOM     11  C   UNL     1      46.451 130.643  15.845  1.00  0.00     0.035 C 
ATOM     12  C   UNL     1      44.314 130.847  14.389  1.00  0.00     0.193 C 
ATOM     13  C   UNL     1      45.768 131.488  16.927  1.00  0.00     0.023 C 
ATOM     14  C   UNL     1      43.667 131.680  15.506  1.00  0.00     0.061 C 
ATOM     15  C   UNL     1      46.598 130.962  13.396  1.00  0.00     0.011 C 
ATOM     16  F   UNL     1      43.871 131.326  13.166  1.00  0.00    -0.243 F 
ENDBRANCH   7   9
ENDBRANCH   1   7
BRANCH   6  17
ATOM     17  O   UNL     1      41.866 132.420  20.443  1.00  0.00    -0.390 OA
ATOM     18  H   UNL     1      42.054 133.085  19.729  1.00  0.00     0.211 HD
ENDBRANCH   6  17
BRANCH   5  19
ATOM     19  N   UNL     1      42.386 130.765  22.702  1.00  0.00    -0.255 NA
ATOM     20  H   UNL     1      42.746 129.947  23.250  1.00  0.00     0.141 HD
BRANCH  19  21
ATOM     21  N   UNL     1      42.047 131.787  23.609  1.00  0.00    -0.271 NA
ATOM     22  H   UNL     1      41.003 131.855  23.622  1.00  0.00     0.137 HD
ATOM     23  H   UNL     1      42.318 131.462  24.566  1.00  0.00     0.137 HD
ENDBRANCH  19  21
ENDBRANCH   5  19
TORSDOF 5
ENDMDL
MODEL 7
REMARK VINA RESULT:      -7.1      3.239      6.781
REMARK SMILES C=C1CC[C@@H](N[C@@H]2CCC[C@H](NN)[C@H]2O)C[C@H]1F
REMARK SMILES IDX 7 1 8 2 9 3 10 4 11 5 14 6 6 7 5 9 2 10 3 11 17 12 4 13
REMARK SMILES IDX 16 14 1 15 18 16 15 17 12 19 13 21
REMARK H PARENT 6 8 15 18 12 20 13 22 13 23
ROOT
ATOM      1  C   UNL     1      45.360 131.165  16.237  1.00  0.00     0.084 C 
ATOM      2  C   UNL     1      44.605 131.644  14.982  1.00  0.00     0.022 C 
ATOM      3  C   UNL     1      45.558 131.926  13.820  1.00  0.00     0.003 C 
ATOM      4  C   UNL     1      46.370 130.676  13.477  1.00  0.00     0.023 C 
ATOM      5  C   UNL     1      47.165 130.187  14.708  1.00  0.00     0.099 C 
ATOM      6  C   UNL     1      46.221 129.916  15.905  1.00  0.00     0.149 C 
ENDROOT
BRANCH   1   7
ATOM      7  N   UNL     1      44.346 130.885  17.280  1.00  0.00    -0.308 NA
ATOM      8  H   UNL     1      44.060 129.877  17.269  1.00  0.00     0.123 HD
BRANCH   7   9
ATOM      9  C   UNL     1      44.507 131.401  18.664  1.00  0.00     0.057 C 
ATOM     10  C   UNL     1      44.333 131.637  21.561  1.00  0.00    -0.044 C 
ATOM     11  C   UNL     1      45.653 131.261  20.928  1.00  0.00     0.035 C 
ATOM     12  C   UNL     1      43.313 132.358  20.703  1.00  0.00     0.193 C 
ATOM     13  C   UNL     1      45.434 130.568  19.579  1.00  0.00     0.023 C 
ATOM     14  C   UNL     1      43.144 131.651  19.350  1.00  0.00     0.061 C 
ATOM     15  C   UNL     1      44.160 131.500  22.886  1.00  0.00     0.011 C 
ATOM     16  F   UNL     1      42.077 132.424  21.327  1.00  0.00    -0.243 F 
ENDBRANCH   7   9
ENDBRANCH   1   7
BRANCH   6  17
ATOM     17  O   UNL     1      47.001 129.578  17.020  1.00  0.00    -0.390 OA
ATOM     18  H   UNL     1      47.947 129.766  16.784  1.00  0.00     0.211 HD
ENDBRANCH   6  17
BRANCH   5  19
ATOM     19  N   UNL     1      47.928 128.967  14.397  1.00  0.00    -0.255 NA
ATOM     20  H   UNL     1      47.258 128.199  14.150  1.00  0.00     0.141 HD
BRANCH  19  21
ATOM     21  N   UNL     1      48.750 129.209  13.280  1.00  0.00    -0.271 NA
ATOM     22  H   UNL     1      48.636 130.217  13.025  1.00  0.00     0.137 HD
ATOM     23  H   UNL     1      49.743 129.109  13.591  1.00  0.00     0.137 HD
ENDBRANCH  19  21
ENDBRANCH   5  19
TORSDOF 5
ENDMDL
MODEL 8
REMARK VINA RESULT:      -7.0      3.267      7.002
REMARK SMILES C=C1CC[C@@H](N[C@@H]2CCC[C@H](NN)[C@H]2O)C[C@H]1F
REMARK SMILES IDX 7 1 8 2 9 3 10 4 11 5 14 6 6 7 5 9 2 10 3 11 17 12 4 13
REMARK SMILES IDX 16 14 1 15 18 16 15 17 12 19 13 21
REMARK H PARENT 6 8 15 18 12 20 13 22 13 23
ROOT
ATOM      1  C   UNL     1      45.289 130.521  17.246  1.00  0.00     0.084 C 
ATOM      2  C   UNL     1      46.618 130.007  16.658  1.00  0.00     0.022 C 
ATOM      3  C   UNL     1      46.435 129.447  15.247  1.00  0.00     0.003 C 
ATOM      4  C   UNL     1      45.848 130.511  14.319  1.00  0.00     0.023 C 
ATOM      5  C   UNL     1      44.498 131.027  14.864  1.00  0.00     0.099 C 
ATOM      6  C   UNL     1      44.655 131.579  16.302  1.00  0.00     0.149 C 
ENDROOT
BRANCH   1   7
ATOM      7  N   UNL     1      45.587 131.075  18.587  1.00  0.00    -0.308 NA
ATOM      8  H   UNL     1      46.010 132.031  18.518  1.00  0.00     0.123 HD
BRANCH   7   9
ATOM      9  C   UNL     1      44.595 130.987  19.690  1.00  0.00     0.057 C 
ATOM     10  C   UNL     1      43.268 131.394  22.250  1.00  0.00    -0.044 C 
ATOM     11  C   UNL     1      42.695 132.041  21.009  1.00  0.00     0.035 C 
ATOM     12  C   UNL     1      44.164 130.185  22.071  1.00  0.00     0.193 C 
ATOM     13  C   UNL     1      43.790 132.278  19.963  1.00  0.00     0.023 C 
ATOM     14  C   UNL     1      45.227 130.451  20.996  1.00  0.00     0.061 C 
ATOM     15  C   UNL     1      42.835 131.770  23.464  1.00  0.00     0.011 C 
ATOM     16  F   UNL     1      44.804 129.845  23.253  1.00  0.00    -0.243 F 
ENDBRANCH   7   9
ENDBRANCH   1   7
BRANCH   6  17
ATOM     17  O   UNL     1      43.388 131.935  16.784  1.00  0.00    -0.390 OA
ATOM     18  H   UNL     1      42.921 132.418  16.053  1.00  0.00     0.211 HD
ENDBRANCH   6  17
BRANCH   5  19
ATOM     19  N   UNL     1      43.939 132.073  13.993  1.00  0.00    -0.255 NA
ATOM     20  H   UNL     1      44.446 132.062  13.076  1.00  0.00     0.141 HD
BRANCH  19  21
ATOM     21  N   UNL     1      42.582 131.792  13.747  1.00  0.00    -0.271 NA
ATOM     22  H   UNL     1      42.029 132.612  14.088  1.00  0.00     0.137 HD
ATOM     23  H   UNL     1      42.445 131.774  12.710  1.00  0.00     0.137 HD
ENDBRANCH  19  21
ENDBRANCH   5  19
TORSDOF 5
ENDMDL
MODEL 9
REMARK VINA RESULT:      -6.5      1.347      1.897
REMARK SMILES C=C1CC[C@@H](N[C@@H]2CCC[C@H](NN)[C@H]2O)C[C@H]1F
REMARK SMILES IDX 7 1 8 2 9 3 10 4 11 5 14 6 6 7 5 9 2 10 3 11 17 12 4 13
REMARK SMILES IDX 16 14 1 15 18 16 15 17 12 19 13 21
REMARK H PARENT 6 8 15 18 12 20 13 22 13 23
ROOT
ATOM      1  C   UNL     1      43.361 131.475  18.359  1.00  0.00     0.084 C 
ATOM      2  C   UNL     1      42.246 132.419  18.848  1.00  0.00     0.022 C 
ATOM      3  C   UNL     1      41.831 132.111  20.287  1.00  0.00     0.003 C 
ATOM      4  C   UNL     1      43.033 132.218  21.226  1.00  0.00     0.023 C 
ATOM      5  C   UNL     1      44.160 131.260  20.782  1.00  0.00     0.099 C 
ATOM      6  C   UNL     1      44.581 131.539  19.318  1.00  0.00     0.149 C 
ENDROOT
BRANCH   1   7
ATOM      7  N   UNL     1      43.712 131.884  16.980  1.00  0.00    -0.308 NA
ATOM      8  H   UNL     1      43.524 132.904  16.827  1.00  0.00     0.123 HD
BRANCH   7   9
ATOM      9  C   UNL     1      44.990 131.456  16.354  1.00  0.00     0.057 C 
ATOM     10  C   UNL     1      46.914 130.451  14.414  1.00  0.00    -0.044 C 
ATOM     11  C   UNL     1      46.898 131.926  14.742  1.00  0.00     0.035 C 
ATOM     12  C   UNL     1      46.322 129.491  15.426  1.00  0.00     0.193 C 
ATOM     13  C   UNL     1      45.507 132.365  15.215  1.00  0.00     0.023 C 
ATOM     14  C   UNL     1      44.945 129.979  15.897  1.00  0.00     0.061 C 
ATOM     15  C   UNL     1      47.603 130.007  13.350  1.00  0.00     0.011 C 
ATOM     16  F   UNL     1      46.185 128.216  14.901  1.00  0.00    -0.243 F 
ENDBRANCH   7   9
ENDBRANCH   1   7
BRANCH   6  17
ATOM     17  O   UNL     1      45.527 130.579  18.935  1.00  0.00    -0.390 OA
ATOM     18  H   UNL     1      45.518 129.865  19.626  1.00  0.00     0.211 HD
ENDBRANCH   6  17
BRANCH   5  19
ATOM     19  N   UNL     1      45.334 131.377  21.662  1.00  0.00    -0.255 NA
ATOM     20  H   UNL     1      45.783 130.434  21.759  1.00  0.00     0.141 HD
BRANCH  19  21
ATOM     21  N   UNL     1      46.268 132.250  21.073  1.00  0.00    -0.271 NA
ATOM     22  H   UNL     1      45.893 133.221  21.180  1.00  0.00     0.137 HD
ATOM     23  H   UNL     1      47.138 132.221  21.654  1.00  0.00     0.137 HD
ENDBRANCH  19  21
ENDBRANCH   5  19
TORSDOF 5
ENDMDL


