REMARK SMILES [O-]C(N[C@H]1Cc2ccccc2[C@@H]1O)=C1CCCC1
REMARK SMILES IDX 4 1 5 2 6 3 7 4 8 5 9 6 10 7 11 8 12 9 3 10 2 12 1 13 14 14
REMARK SMILES IDX 15 15 18 16 16 17 17 18 13 19
REMARK H PARENT 3 11 13 20
ROOT
ATOM      1  C   UNL     1       2.477   0.390   0.321  1.00  0.00     0.115 C 
ATOM      2  C   UNL     1       2.490  -0.350   1.680  1.00  0.00     0.063 C 
ATOM      3  C   UNL     1       2.261  -1.767   1.315  1.00  0.00    -0.040 A 
ATOM      4  C   UNL     1       2.157  -2.846   2.197  1.00  0.00     0.004 A 
ATOM      5  C   UNL     1       1.927  -4.127   1.673  1.00  0.00     0.000 A 
ATOM      6  C   UNL     1       1.803  -4.311   0.284  1.00  0.00     0.000 A 
ATOM      7  C   UNL     1       1.910  -3.214  -0.584  1.00  0.00     0.007 A 
ATOM      8  C   UNL     1       2.144  -1.946  -0.043  1.00  0.00    -0.014 A 
ATOM      9  C   UNL     1       2.275  -0.674  -0.794  1.00  0.00     0.167 C 
ENDROOT
BRANCH   1  10
ATOM     10  N   UNL     1       1.438   1.428   0.275  1.00  0.00    -0.391 N 
ATOM     11  H   UNL     1       1.766   2.405   0.104  1.00  0.00     0.159 HD
BRANCH  10  12
ATOM     12  C   UNL     1       0.030   1.162   0.441  1.00  0.00    -0.046 C 
ATOM     13  O   UNL     1      -0.406  -0.147   0.629  1.00  0.00    -0.860 OA
BRANCH  12  14
ATOM     14  C   UNL     1      -0.879   2.153   0.417  1.00  0.00    -0.062 C 
ATOM     15  C   UNL     1      -2.342   1.914   0.561  1.00  0.00     0.032 C 
ATOM     16  C   UNL     1      -0.559   3.598   0.244  1.00  0.00     0.032 C 
ATOM     17  C   UNL     1      -2.983   3.264   0.268  1.00  0.00     0.005 C 
ATOM     18  C   UNL     1      -1.889   4.314   0.449  1.00  0.00     0.005 C 
ENDBRANCH  12  14
ENDBRANCH  10  12
ENDBRANCH   1  10
BRANCH   9  19
ATOM     19  O   UNL     1       3.396  -0.740  -1.635  1.00  0.00    -0.386 OA
ATOM     20  H   UNL     1       3.344   0.053  -2.230  1.00  0.00     0.211 HD
ENDBRANCH   9  19
TORSDOF 4


