REMARK SMILES Cc1ccc(-c2cc3[nH]ccc3cc2N(N)C(=O)N2CCOCC2)cc1F
REMARK SMILES IDX 6 1 7 2 8 3 9 4 10 5 11 6 12 7 13 8 14 9 5 11 2 12 3 13
REMARK SMILES IDX 26 14 4 15 25 16 1 17 27 18 15 19 16 20 17 23 19 24 20 25
REMARK SMILES IDX 24 26 21 27 23 28 22 29 18 30
REMARK H PARENT 9 10 16 21 16 22
ROOT
ATOM      1  C   UNL     1      -1.196  -0.804   0.526  1.00  0.00     0.009 A 
ATOM      2  C   UNL     1      -2.385  -0.052   0.380  1.00  0.00     0.037 A 
ATOM      3  C   UNL     1      -2.886   0.621   1.489  1.00  0.00     0.046 A 
ATOM      4  N   UNL     1      -3.996   1.375   1.552  1.00  0.00    -0.361 N 
ATOM      5  C   UNL     1      -4.076   1.808   2.831  1.00  0.00     0.083 A 
ATOM      6  C   UNL     1      -3.011   1.323   3.582  1.00  0.00     0.028 A 
ATOM      7  C   UNL     1      -2.267   0.567   2.704  1.00  0.00     0.002 A 
ATOM      8  C   UNL     1      -1.093  -0.152   2.899  1.00  0.00     0.039 A 
ATOM      9  C   UNL     1      -0.528  -0.829   1.796  1.00  0.00     0.071 A 
ATOM     10  H   UNL     1      -4.663   1.585   0.776  1.00  0.00     0.166 HD
ENDROOT
BRANCH   1  11
ATOM     11  C   UNL     1      -0.705  -1.586  -0.635  1.00  0.00    -0.013 A 
ATOM     12  C   UNL     1       0.251  -3.055  -2.841  1.00  0.00    -0.015 A 
ATOM     13  C   UNL     1       0.101  -3.672  -1.590  1.00  0.00     0.007 A 
ATOM     14  C   UNL     1      -0.118  -1.708  -2.993  1.00  0.00     0.126 A 
ATOM     15  C   UNL     1      -0.376  -2.944  -0.497  1.00  0.00     0.009 A 
ATOM     16  C   UNL     1      -0.596  -0.983  -1.898  1.00  0.00     0.048 A 
ATOM     17  C   UNL     1       0.745  -3.841  -4.021  1.00  0.00     0.047 C 
ATOM     18  F   UNL     1      -0.011  -1.097  -4.200  1.00  0.00    -0.207 F 
ENDBRANCH   1  11
BRANCH   9  19
ATOM     19  N   UNL     1       0.723  -1.514   1.984  1.00  0.00    -0.229 N 
BRANCH  19  20
ATOM     20  N   UNL     1       0.825  -2.433   3.043  1.00  0.00    -0.239 NA
ATOM     21  H   UNL     1       1.669  -2.183   3.606  1.00  0.00     0.144 HD
ATOM     22  H   UNL     1       0.983  -3.381   2.631  1.00  0.00     0.144 HD
ENDBRANCH  19  20
BRANCH  19  23
ATOM     23  C   UNL     1       1.855  -1.292   1.118  1.00  0.00     0.339 C 
ATOM     24  N   UNL     1       2.019  -0.053   0.403  1.00  0.00    -0.319 N 
ATOM     25  C   UNL     1       2.749  -0.058  -0.869  1.00  0.00     0.150 C 
ATOM     26  C   UNL     1       1.947   1.217   1.130  1.00  0.00     0.150 C 
ATOM     27  C   UNL     1       2.386   1.186  -1.690  1.00  0.00     0.181 C 
ATOM     28  C   UNL     1       1.604   2.344   0.155  1.00  0.00     0.181 C 
ATOM     29  O   UNL     1       2.523   2.365  -0.920  1.00  0.00    -0.378 OA
ATOM     30  O   UNL     1       2.718  -2.203   0.985  1.00  0.00    -0.247 OA
ENDBRANCH  19  23
ENDBRANCH   9  19
TORSDOF 4


