MODEL 1
REMARK VINA RESULT:      -2.8      0.000      0.000
REMARK SMILES Cc1cc(N(N)C(=O)O[C@H]2CS(=O)(=O)C[C@@H]2Cl)c([O-])c(-n2nc3ccccc3n2)c1
REMARK SMILES IDX 7 1 8 2 5 3 4 4 2 5 3 6 30 7 20 8 18 9 1 10 19 11 21 12
REMARK SMILES IDX 22 13 29 14 23 15 28 16 24 17 27 18 25 19 26 20 6 21 9 24
REMARK SMILES IDX 10 25 11 26 16 27 12 28 15 29 17 30 13 31 14 32
REMARK H PARENT 6 22 6 23
ROOT
ATOM      1  C   UNL     1      45.830 132.787  22.841  1.00  0.00     0.429 C 
ATOM      2  O   UNL     1      45.872 133.056  24.073  1.00  0.00    -0.222 OA
ENDROOT
BRANCH   1   3
ATOM      3  N   UNL     1      44.985 131.727  22.370  1.00  0.00    -0.214 N 
BRANCH   3   4
ATOM      4  C   UNL     1      44.391 131.803  21.059  1.00  0.00     0.059 A 
ATOM      5  C   UNL     1      42.453 132.282  19.668  1.00  0.00    -0.047 A 
ATOM      6  C   UNL     1      43.060 132.221  20.926  1.00  0.00     0.031 A 
ATOM      7  C   UNL     1      43.197 131.963  18.526  1.00  0.00     0.033 A 
ATOM      8  C   UNL     1      44.537 131.544  18.629  1.00  0.00     0.080 A 
ATOM      9  C   UNL     1      45.129 131.459  19.910  1.00  0.00    -0.054 A 
ATOM     10  C   UNL     1      41.035 132.756  19.537  1.00  0.00     0.044 C 
ATOM     11  O   UNL     1      46.439 131.014  20.053  1.00  0.00    -0.870 OA
BRANCH   8  12
ATOM     12  N   UNL     1      45.272 131.209  17.430  1.00  0.00    -0.151 N 
ATOM     13  N   UNL     1      45.524 132.067  16.441  1.00  0.00    -0.148 NA
ATOM     14  N   UNL     1      45.777 129.997  17.195  1.00  0.00    -0.148 NA
ATOM     15  C   UNL     1      46.220 131.362  15.537  1.00  0.00     0.113 A 
ATOM     16  C   UNL     1      46.375 130.094  16.000  1.00  0.00     0.113 A 
ATOM     17  C   UNL     1      46.736 131.775  14.312  1.00  0.00     0.032 A 
ATOM     18  C   UNL     1      47.060 129.120  15.281  1.00  0.00     0.032 A 
ATOM     19  C   UNL     1      47.437 130.818  13.552  1.00  0.00     0.002 A 
ATOM     20  C   UNL     1      47.598 129.496  14.034  1.00  0.00     0.002 A 
ENDBRANCH   8  12
ENDBRANCH   3   4
BRANCH   3  21
ATOM     21  N   UNL     1      44.698 130.650  23.232  1.00  0.00    -0.238 NA
ATOM     22  H   UNL     1      45.605 130.209  23.503  1.00  0.00     0.144 HD
ATOM     23  H   UNL     1      44.247 131.024  24.099  1.00  0.00     0.144 HD
ENDBRANCH   3  21
ENDBRANCH   1   3
BRANCH   1  24
ATOM     24  O   UNL     1      46.595 133.525  21.929  1.00  0.00    -0.442 OA
BRANCH  24  25
ATOM     25  C   UNL     1      47.075 134.846  22.180  1.00  0.00     0.212 C 
ATOM     26  C   UNL     1      47.593 134.910  23.617  1.00  0.00     0.183 C 
ATOM     27  C   UNL     1      48.253 135.164  21.234  1.00  0.00     0.138 C 
ATOM     28  S   UNL     1      49.279 134.385  23.527  1.00  0.00     0.155 S 
ATOM     29  C   UNL     1      49.505 134.467  21.775  1.00  0.00     0.160 C 
ATOM     30  Cl  UNL     1      48.514 136.934  21.155  1.00  0.00    -0.118 Cl
ATOM     31  O   UNL     1      50.193 135.332  24.250  1.00  0.00    -0.229 OA
ATOM     32  O   UNL     1      49.448 132.983  24.040  1.00  0.00    -0.229 OA
ENDBRANCH  24  25
ENDBRANCH   1  24
TORSDOF 6
ENDMDL
MODEL 2
REMARK VINA RESULT:      -1.9      5.328      6.753
REMARK SMILES Cc1cc(N(N)C(=O)O[C@H]2CS(=O)(=O)C[C@@H]2Cl)c([O-])c(-n2nc3ccccc3n2)c1
REMARK SMILES IDX 7 1 8 2 5 3 4 4 2 5 3 6 30 7 20 8 18 9 1 10 19 11 21 12
REMARK SMILES IDX 22 13 29 14 23 15 28 16 24 17 27 18 25 19 26 20 6 21 9 24
REMARK SMILES IDX 10 25 11 26 16 27 12 28 15 29 17 30 13 31 14 32
REMARK H PARENT 6 22 6 23
ROOT
ATOM      1  C   UNL     1      42.928 127.756  23.305  1.00  0.00     0.429 C 
ATOM      2  O   UNL     1      42.048 127.604  22.414  1.00  0.00    -0.222 OA
ENDROOT
BRANCH   1   3
ATOM      3  N   UNL     1      43.944 128.756  23.143  1.00  0.00    -0.214 N 
BRANCH   3   4
ATOM      4  C   UNL     1      43.735 129.861  22.241  1.00  0.00     0.059 A 
ATOM      5  C   UNL     1      42.645 131.981  21.752  1.00  0.00    -0.047 A 
ATOM      6  C   UNL     1      42.883 130.908  22.617  1.00  0.00     0.031 A 
ATOM      7  C   UNL     1      43.302 132.029  20.516  1.00  0.00     0.033 A 
ATOM      8  C   UNL     1      44.167 130.995  20.115  1.00  0.00     0.080 A 
ATOM      9  C   UNL     1      44.374 129.901  20.988  1.00  0.00    -0.054 A 
ATOM     10  C   UNL     1      41.751 133.108  22.176  1.00  0.00     0.044 C 
ATOM     11  O   UNL     1      45.194 128.843  20.609  1.00  0.00    -0.870 OA
BRANCH   8  12
ATOM     12  N   UNL     1      44.818 131.070  18.826  1.00  0.00    -0.151 N 
ATOM     13  N   UNL     1      44.826 132.155  18.053  1.00  0.00    -0.148 NA
ATOM     14  N   UNL     1      45.481 130.049  18.280  1.00  0.00    -0.148 NA
ATOM     15  C   UNL     1      45.527 131.804  16.965  1.00  0.00     0.113 A 
ATOM     16  C   UNL     1      45.929 130.513  17.105  1.00  0.00     0.113 A 
ATOM     17  C   UNL     1      45.841 132.562  15.842  1.00  0.00     0.032 A 
ATOM     18  C   UNL     1      46.681 129.860  16.135  1.00  0.00     0.032 A 
ATOM     19  C   UNL     1      46.603 131.938  14.834  1.00  0.00     0.002 A 
ATOM     20  C   UNL     1      47.021 130.593  14.979  1.00  0.00     0.002 A 
ENDBRANCH   8  12
ENDBRANCH   3   4
BRANCH   3  21
ATOM     21  N   UNL     1      45.165 128.605  23.829  1.00  0.00    -0.238 NA
ATOM     22  H   UNL     1      45.214 129.350  24.560  1.00  0.00     0.144 HD
ATOM     23  H   UNL     1      45.168 127.676  24.311  1.00  0.00     0.144 HD
ENDBRANCH   3  21
ENDBRANCH   1   3
BRANCH   1  24
ATOM     24  O   UNL     1      42.914 126.960  24.458  1.00  0.00    -0.442 OA
BRANCH  24  25
ATOM     25  C   UNL     1      43.672 125.758  24.603  1.00  0.00     0.212 C 
ATOM     26  C   UNL     1      42.705 124.573  24.625  1.00  0.00     0.183 C 
ATOM     27  C   UNL     1      44.614 125.583  23.392  1.00  0.00     0.138 C 
ATOM     28  S   UNL     1      42.466 124.139  22.928  1.00  0.00     0.155 S 
ATOM     29  C   UNL     1      43.786 125.070  22.210  1.00  0.00     0.160 C 
ATOM     30  Cl  UNL     1      45.912 124.417  23.792  1.00  0.00    -0.118 Cl
ATOM     31  O   UNL     1      42.640 122.664  22.704  1.00  0.00    -0.229 OA
ATOM     32  O   UNL     1      41.127 124.601  22.424  1.00  0.00    -0.229 OA
ENDBRANCH  24  25
ENDBRANCH   1  24
TORSDOF 6
ENDMDL
MODEL 3
REMARK VINA RESULT:      -1.5      2.736      3.764
REMARK SMILES Cc1cc(N(N)C(=O)O[C@H]2CS(=O)(=O)C[C@@H]2Cl)c([O-])c(-n2nc3ccccc3n2)c1
REMARK SMILES IDX 7 1 8 2 5 3 4 4 2 5 3 6 30 7 20 8 18 9 1 10 19 11 21 12
REMARK SMILES IDX 22 13 29 14 23 15 28 16 24 17 27 18 25 19 26 20 6 21 9 24
REMARK SMILES IDX 10 25 11 26 16 27 12 28 15 29 17 30 13 31 14 32
REMARK H PARENT 6 22 6 23
ROOT
ATOM      1  C   UNL     1      48.339 134.416  22.860  1.00  0.00     0.429 C 
ATOM      2  O   UNL     1      49.189 133.484  22.859  1.00  0.00    -0.222 OA
ENDROOT
BRANCH   1   3
ATOM      3  N   UNL     1      47.080 134.234  23.524  1.00  0.00    -0.214 N 
BRANCH   3   4
ATOM      4  C   UNL     1      46.141 133.252  23.041  1.00  0.00     0.059 A 
ATOM      5  C   UNL     1      44.348 131.674  23.501  1.00  0.00    -0.047 A 
ATOM      6  C   UNL     1      45.253 132.645  23.939  1.00  0.00     0.031 A 
ATOM      7  C   UNL     1      44.299 131.338  22.143  1.00  0.00     0.033 A 
ATOM      8  C   UNL     1      45.175 131.935  21.217  1.00  0.00     0.080 A 
ATOM      9  C   UNL     1      46.107 132.894  21.680  1.00  0.00    -0.054 A 
ATOM     10  C   UNL     1      43.384 131.049  24.467  1.00  0.00     0.044 C 
ATOM     11  O   UNL     1      47.012 133.478  20.801  1.00  0.00    -0.870 OA
BRANCH   8  12
ATOM     12  N   UNL     1      45.108 131.554  19.825  1.00  0.00    -0.151 N 
ATOM     13  N   UNL     1      44.269 132.094  18.940  1.00  0.00    -0.148 NA
ATOM     14  N   UNL     1      45.887 130.617  19.283  1.00  0.00    -0.148 NA
ATOM     15  C   UNL     1      44.530 131.467  17.784  1.00  0.00     0.113 A 
ATOM     16  C   UNL     1      45.522 130.562  17.994  1.00  0.00     0.113 A 
ATOM     17  C   UNL     1      43.941 131.647  16.536  1.00  0.00     0.032 A 
ATOM     18  C   UNL     1      46.016 129.752  16.977  1.00  0.00     0.032 A 
ATOM     19  C   UNL     1      44.413 130.846  15.478  1.00  0.00     0.002 A 
ATOM     20  C   UNL     1      45.446 129.903  15.697  1.00  0.00     0.002 A 
ENDBRANCH   8  12
ENDBRANCH   3   4
BRANCH   3  21
ATOM     21  N   UNL     1      46.754 135.071  24.609  1.00  0.00    -0.238 NA
ATOM     22  H   UNL     1      47.567 135.073  25.265  1.00  0.00     0.144 HD
ATOM     23  H   UNL     1      46.622 136.046  24.255  1.00  0.00     0.144 HD
ENDBRANCH   3  21
ENDBRANCH   1   3
BRANCH   1  24
ATOM     24  O   UNL     1      48.621 135.632  22.226  1.00  0.00    -0.442 OA
BRANCH  24  25
ATOM     25  C   UNL     1      49.855 135.916  21.565  1.00  0.00     0.212 C 
ATOM     26  C   UNL     1      49.558 136.238  20.099  1.00  0.00     0.183 C 
ATOM     27  C   UNL     1      50.517 137.157  22.201  1.00  0.00     0.138 C 
ATOM     28  S   UNL     1      49.216 137.972  20.065  1.00  0.00     0.155 S 
ATOM     29  C   UNL     1      49.800 138.405  21.677  1.00  0.00     0.160 C 
ATOM     30  Cl  UNL     1      52.253 137.213  21.769  1.00  0.00    -0.118 Cl
ATOM     31  O   UNL     1      49.995 138.669  18.986  1.00  0.00    -0.229 OA
ATOM     32  O   UNL     1      47.744 138.241  19.920  1.00  0.00    -0.229 OA
ENDBRANCH  24  25
ENDBRANCH   1  24
TORSDOF 6
ENDMDL
MODEL 4
REMARK VINA RESULT:      -1.5      3.868      7.882
REMARK SMILES Cc1cc(N(N)C(=O)O[C@H]2CS(=O)(=O)C[C@@H]2Cl)c([O-])c(-n2nc3ccccc3n2)c1
REMARK SMILES IDX 7 1 8 2 5 3 4 4 2 5 3 6 30 7 20 8 18 9 1 10 19 11 21 12
REMARK SMILES IDX 22 13 29 14 23 15 28 16 24 17 27 18 25 19 26 20 6 21 9 24
REMARK SMILES IDX 10 25 11 26 16 27 12 28 15 29 17 30 13 31 14 32
REMARK H PARENT 6 22 6 23
ROOT
ATOM      1  C   UNL     1      44.980 131.713  19.003  1.00  0.00     0.429 C 
ATOM      2  O   UNL     1      44.480 132.868  19.091  1.00  0.00    -0.222 OA
ENDROOT
BRANCH   1   3
ATOM      3  N   UNL     1      45.558 131.094  20.161  1.00  0.00    -0.214 N 
BRANCH   3   4
ATOM      4  C   UNL     1      45.774 131.862  21.362  1.00  0.00     0.059 A 
ATOM      5  C   UNL     1      44.979 132.606  23.538  1.00  0.00    -0.047 A 
ATOM      6  C   UNL     1      44.804 131.851  22.373  1.00  0.00     0.031 A 
ATOM      7  C   UNL     1      46.157 133.343  23.712  1.00  0.00     0.033 A 
ATOM      8  C   UNL     1      47.150 133.369  22.715  1.00  0.00     0.080 A 
ATOM      9  C   UNL     1      46.946 132.625  21.529  1.00  0.00    -0.054 A 
ATOM     10  C   UNL     1      43.946 132.566  24.625  1.00  0.00     0.044 C 
ATOM     11  O   UNL     1      47.889 132.655  20.507  1.00  0.00    -0.870 OA
BRANCH   8  12
ATOM     12  N   UNL     1      48.347 134.152  22.922  1.00  0.00    -0.151 N 
ATOM     13  N   UNL     1      49.144 134.037  23.985  1.00  0.00    -0.148 NA
ATOM     14  N   UNL     1      48.776 135.075  22.061  1.00  0.00    -0.148 NA
ATOM     15  C   UNL     1      50.122 134.931  23.785  1.00  0.00     0.113 A 
ATOM     16  C   UNL     1      49.897 135.567  22.606  1.00  0.00     0.113 A 
ATOM     17  C   UNL     1      51.219 135.224  24.590  1.00  0.00     0.032 A 
ATOM     18  C   UNL     1      50.746 136.556  22.121  1.00  0.00     0.032 A 
ATOM     19  C   UNL     1      52.106 136.221  24.135  1.00  0.00     0.002 A 
ATOM     20  C   UNL     1      51.870 136.884  22.906  1.00  0.00     0.002 A 
ENDBRANCH   8  12
ENDBRANCH   3   4
BRANCH   3  21
ATOM     21  N   UNL     1      45.965 129.747  20.083  1.00  0.00    -0.238 NA
ATOM     22  H   UNL     1      45.791 129.419  19.106  1.00  0.00     0.144 HD
ATOM     23  H   UNL     1      46.994 129.695  20.264  1.00  0.00     0.144 HD
ENDBRANCH   3  21
ENDBRANCH   1   3
BRANCH   1  24
ATOM     24  O   UNL     1      44.966 131.027  17.782  1.00  0.00    -0.442 OA
BRANCH  24  25
ATOM     25  C   UNL     1      44.760 131.658  16.518  1.00  0.00     0.212 C 
ATOM     26  C   UNL     1      46.124 131.925  15.879  1.00  0.00     0.183 C 
ATOM     27  C   UNL     1      43.972 130.715  15.583  1.00  0.00     0.138 C 
ATOM     28  S   UNL     1      46.523 130.444  15.001  1.00  0.00     0.155 S 
ATOM     29  C   UNL     1      44.939 129.657  15.042  1.00  0.00     0.160 C 
ATOM     30  Cl  UNL     1      43.257 131.649  14.233  1.00  0.00    -0.118 Cl
ATOM     31  O   UNL     1      46.962 130.735  13.594  1.00  0.00    -0.229 OA
ATOM     32  O   UNL     1      47.560 129.634  15.727  1.00  0.00    -0.229 OA
ENDBRANCH  24  25
ENDBRANCH   1  24
TORSDOF 6
ENDMDL
MODEL 5
REMARK VINA RESULT:      -1.4      3.700      7.447
REMARK SMILES Cc1cc(N(N)C(=O)O[C@H]2CS(=O)(=O)C[C@@H]2Cl)c([O-])c(-n2nc3ccccc3n2)c1
REMARK SMILES IDX 7 1 8 2 5 3 4 4 2 5 3 6 30 7 20 8 18 9 1 10 19 11 21 12
REMARK SMILES IDX 22 13 29 14 23 15 28 16 24 17 27 18 25 19 26 20 6 21 9 24
REMARK SMILES IDX 10 25 11 26 16 27 12 28 15 29 17 30 13 31 14 32
REMARK H PARENT 6 22 6 23
ROOT
ATOM      1  C   UNL     1      44.826 130.725  18.763  1.00  0.00     0.429 C 
ATOM      2  O   UNL     1      45.934 130.254  19.140  1.00  0.00    -0.222 OA
ENDROOT
BRANCH   1   3
ATOM      3  N   UNL     1      44.049 131.531  19.660  1.00  0.00    -0.214 N 
BRANCH   3   4
ATOM      4  C   UNL     1      44.603 131.948  20.925  1.00  0.00     0.059 A 
ATOM      5  C   UNL     1      44.488 131.954  23.355  1.00  0.00    -0.047 A 
ATOM      6  C   UNL     1      43.984 131.546  22.116  1.00  0.00     0.031 A 
ATOM      7  C   UNL     1      45.648 132.736  23.404  1.00  0.00     0.033 A 
ATOM      8  C   UNL     1      46.294 133.150  22.225  1.00  0.00     0.080 A 
ATOM      9  C   UNL     1      45.756 132.755  20.977  1.00  0.00    -0.054 A 
ATOM     10  C   UNL     1      43.831 131.497  24.624  1.00  0.00     0.044 C 
ATOM     11  O   UNL     1      46.346 133.175  19.790  1.00  0.00    -0.870 OA
BRANCH   8  12
ATOM     12  N   UNL     1      47.482 133.968  22.312  1.00  0.00    -0.151 N 
ATOM     13  N   UNL     1      47.758 134.980  21.488  1.00  0.00    -0.148 NA
ATOM     14  N   UNL     1      48.428 133.790  23.235  1.00  0.00    -0.148 NA
ATOM     15  C   UNL     1      48.935 135.463  21.911  1.00  0.00     0.113 A 
ATOM     16  C   UNL     1      49.345 134.733  22.981  1.00  0.00     0.113 A 
ATOM     17  C   UNL     1      49.680 136.524  21.404  1.00  0.00     0.032 A 
ATOM     18  C   UNL     1      50.539 134.996  23.645  1.00  0.00     0.032 A 
ATOM     19  C   UNL     1      50.896 136.823  22.048  1.00  0.00     0.002 A 
ATOM     20  C   UNL     1      51.325 136.063  23.164  1.00  0.00     0.002 A 
ENDBRANCH   8  12
ENDBRANCH   3   4
BRANCH   3  21
ATOM     21  N   UNL     1      42.722 131.852  19.313  1.00  0.00    -0.238 NA
ATOM     22  H   UNL     1      42.735 132.263  18.353  1.00  0.00     0.144 HD
ATOM     23  H   UNL     1      42.159 130.970  19.281  1.00  0.00     0.144 HD
ENDBRANCH   3  21
ENDBRANCH   1   3
BRANCH   1  24
ATOM     24  O   UNL     1      44.353 130.473  17.469  1.00  0.00    -0.442 OA
BRANCH  24  25
ATOM     25  C   UNL     1      44.329 131.449  16.428  1.00  0.00     0.212 C 
ATOM     26  C   UNL     1      45.756 131.950  16.197  1.00  0.00     0.183 C 
ATOM     27  C   UNL     1      43.833 130.804  15.115  1.00  0.00     0.138 C 
ATOM     28  S   UNL     1      46.461 130.822  15.034  1.00  0.00     0.155 S 
ATOM     29  C   UNL     1      44.987 129.999  14.510  1.00  0.00     0.160 C 
ATOM     30  Cl  UNL     1      43.298 132.075  13.973  1.00  0.00    -0.118 Cl
ATOM     31  O   UNL     1      47.129 131.544  13.897  1.00  0.00    -0.229 OA
ATOM     32  O   UNL     1      47.418 129.871  15.697  1.00  0.00    -0.229 OA
ENDBRANCH  24  25
ENDBRANCH   1  24
TORSDOF 6
ENDMDL
MODEL 6
REMARK VINA RESULT:      -1.3      7.077      9.127
REMARK SMILES Cc1cc(N(N)C(=O)O[C@H]2CS(=O)(=O)C[C@@H]2Cl)c([O-])c(-n2nc3ccccc3n2)c1
REMARK SMILES IDX 7 1 8 2 5 3 4 4 2 5 3 6 30 7 20 8 18 9 1 10 19 11 21 12
REMARK SMILES IDX 22 13 29 14 23 15 28 16 24 17 27 18 25 19 26 20 6 21 9 24
REMARK SMILES IDX 10 25 11 26 16 27 12 28 15 29 17 30 13 31 14 32
REMARK H PARENT 6 22 6 23
ROOT
ATOM      1  C   UNL     1      48.604 124.867  22.519  1.00  0.00     0.429 C 
ATOM      2  O   UNL     1      48.991 125.380  23.604  1.00  0.00    -0.222 OA
ENDROOT
BRANCH   1   3
ATOM      3  N   UNL     1      47.434 124.038  22.497  1.00  0.00    -0.214 N 
BRANCH   3   4
ATOM      4  C   UNL     1      46.171 124.554  22.963  1.00  0.00     0.059 A 
ATOM      5  C   UNL     1      43.947 124.139  23.858  1.00  0.00    -0.047 A 
ATOM      6  C   UNL     1      45.189 123.666  23.422  1.00  0.00     0.031 A 
ATOM      7  C   UNL     1      43.701 125.517  23.877  1.00  0.00     0.033 A 
ATOM      8  C   UNL     1      44.670 126.432  23.427  1.00  0.00     0.080 A 
ATOM      9  C   UNL     1      45.911 125.938  22.960  1.00  0.00    -0.054 A 
ATOM     10  C   UNL     1      42.913 123.180  24.371  1.00  0.00     0.044 C 
ATOM     11  O   UNL     1      46.879 126.810  22.474  1.00  0.00    -0.870 OA
BRANCH   8  12
ATOM     12  N   UNL     1      44.378 127.847  23.448  1.00  0.00    -0.151 N 
ATOM     13  N   UNL     1      44.864 128.700  24.350  1.00  0.00    -0.148 NA
ATOM     14  N   UNL     1      43.586 128.445  22.556  1.00  0.00    -0.148 NA
ATOM     15  C   UNL     1      44.354 129.893  24.012  1.00  0.00     0.113 A 
ATOM     16  C   UNL     1      43.571 129.736  22.913  1.00  0.00     0.113 A 
ATOM     17  C   UNL     1      44.540 131.130  24.622  1.00  0.00     0.032 A 
ATOM     18  C   UNL     1      42.900 130.801  22.321  1.00  0.00     0.032 A 
ATOM     19  C   UNL     1      43.878 132.236  24.053  1.00  0.00     0.002 A 
ATOM     20  C   UNL     1      43.061 132.072  22.908  1.00  0.00     0.002 A 
ENDBRANCH   8  12
ENDBRANCH   3   4
BRANCH   3  21
ATOM     21  N   UNL     1      47.555 122.699  22.076  1.00  0.00    -0.238 NA
ATOM     22  H   UNL     1      48.529 122.563  21.725  1.00  0.00     0.144 HD
ATOM     23  H   UNL     1      47.417 122.072  22.902  1.00  0.00     0.144 HD
ENDBRANCH   3  21
ENDBRANCH   1   3
BRANCH   1  24
ATOM     24  O   UNL     1      49.306 125.111  21.331  1.00  0.00    -0.442 OA
BRANCH  24  25
ATOM     25  C   UNL     1      50.605 124.588  21.054  1.00  0.00     0.212 C 
ATOM     26  C   UNL     1      51.591 125.754  20.967  1.00  0.00     0.183 C 
ATOM     27  C   UNL     1      51.057 123.667  22.208  1.00  0.00     0.138 C 
ATOM     28  S   UNL     1      52.128 126.032  22.628  1.00  0.00     0.155 S 
ATOM     29  C   UNL     1      51.519 124.548  23.373  1.00  0.00     0.160 C 
ATOM     30  Cl  UNL     1      52.395 122.612  21.661  1.00  0.00    -0.118 Cl
ATOM     31  O   UNL     1      53.625 126.124  22.718  1.00  0.00    -0.229 OA
ATOM     32  O   UNL     1      51.482 127.253  23.220  1.00  0.00    -0.229 OA
ENDBRANCH  24  25
ENDBRANCH   1  24
TORSDOF 6
ENDMDL
MODEL 7
REMARK VINA RESULT:      -1.3      2.253      3.120
REMARK SMILES Cc1cc(N(N)C(=O)O[C@H]2CS(=O)(=O)C[C@@H]2Cl)c([O-])c(-n2nc3ccccc3n2)c1
REMARK SMILES IDX 7 1 8 2 5 3 4 4 2 5 3 6 30 7 20 8 18 9 1 10 19 11 21 12
REMARK SMILES IDX 22 13 29 14 23 15 28 16 24 17 27 18 25 19 26 20 6 21 9 24
REMARK SMILES IDX 10 25 11 26 16 27 12 28 15 29 17 30 13 31 14 32
REMARK H PARENT 6 22 6 23
ROOT
ATOM      1  C   UNL     1      48.491 133.910  22.872  1.00  0.00     0.429 C 
ATOM      2  O   UNL     1      49.409 133.177  23.332  1.00  0.00    -0.222 OA
ENDROOT
BRANCH   1   3
ATOM      3  N   UNL     1      47.194 133.900  23.486  1.00  0.00    -0.214 N 
BRANCH   3   4
ATOM      4  C   UNL     1      46.150 133.056  22.960  1.00  0.00     0.059 A 
ATOM      5  C   UNL     1      44.135 131.746  23.337  1.00  0.00    -0.047 A 
ATOM      6  C   UNL     1      45.146 132.584  23.816  1.00  0.00     0.031 A 
ATOM      7  C   UNL     1      44.102 131.411  21.978  1.00  0.00     0.033 A 
ATOM      8  C   UNL     1      45.094 131.874  21.094  1.00  0.00     0.080 A 
ATOM      9  C   UNL     1      46.128 132.697  21.599  1.00  0.00    -0.054 A 
ATOM     10  C   UNL     1      43.051 131.268  24.258  1.00  0.00     0.044 C 
ATOM     11  O   UNL     1      47.146 133.143  20.762  1.00  0.00    -0.870 OA
BRANCH   8  12
ATOM     12  N   UNL     1      45.038 131.498  19.700  1.00  0.00    -0.151 N 
ATOM     13  N   UNL     1      44.209 132.042  18.809  1.00  0.00    -0.148 NA
ATOM     14  N   UNL     1      45.819 130.559  19.162  1.00  0.00    -0.148 NA
ATOM     15  C   UNL     1      44.478 131.418  17.653  1.00  0.00     0.113 A 
ATOM     16  C   UNL     1      45.465 130.509  17.870  1.00  0.00     0.113 A 
ATOM     17  C   UNL     1      43.900 131.603  16.401  1.00  0.00     0.032 A 
ATOM     18  C   UNL     1      45.966 129.701  16.855  1.00  0.00     0.032 A 
ATOM     19  C   UNL     1      44.379 130.804  15.345  1.00  0.00     0.002 A 
ATOM     20  C   UNL     1      45.408 129.857  15.570  1.00  0.00     0.002 A 
ENDBRANCH   8  12
ENDBRANCH   3   4
BRANCH   3  21
ATOM     21  N   UNL     1      46.942 134.771  24.563  1.00  0.00    -0.238 NA
ATOM     22  H   UNL     1      47.091 135.748  24.224  1.00  0.00     0.144 HD
ATOM     23  H   UNL     1      45.940 134.676  24.847  1.00  0.00     0.144 HD
ENDBRANCH   3  21
ENDBRANCH   1   3
BRANCH   1  24
ATOM     24  O   UNL     1      48.734 134.743  21.773  1.00  0.00    -0.442 OA
BRANCH  24  25
ATOM     25  C   UNL     1      48.888 136.159  21.868  1.00  0.00     0.212 C 
ATOM     26  C   UNL     1      49.937 136.464  22.938  1.00  0.00     0.183 C 
ATOM     27  C   UNL     1      49.401 136.722  20.524  1.00  0.00     0.138 C 
ATOM     28  S   UNL     1      51.489 136.417  22.094  1.00  0.00     0.155 S 
ATOM     29  C   UNL     1      50.903 136.435  20.426  1.00  0.00     0.160 C 
ATOM     30  Cl  UNL     1      49.100 138.485  20.445  1.00  0.00    -0.118 Cl
ATOM     31  O   UNL     1      52.324 137.627  22.402  1.00  0.00    -0.229 OA
ATOM     32  O   UNL     1      52.245 135.154  22.399  1.00  0.00    -0.229 OA
ENDBRANCH  24  25
ENDBRANCH   1  24
TORSDOF 6
ENDMDL
MODEL 8
REMARK VINA RESULT:      -0.9      5.030      6.620
REMARK SMILES Cc1cc(N(N)C(=O)O[C@H]2CS(=O)(=O)C[C@@H]2Cl)c([O-])c(-n2nc3ccccc3n2)c1
REMARK SMILES IDX 7 1 8 2 5 3 4 4 2 5 3 6 30 7 20 8 18 9 1 10 19 11 21 12
REMARK SMILES IDX 22 13 29 14 23 15 28 16 24 17 27 18 25 19 26 20 6 21 9 24
REMARK SMILES IDX 10 25 11 26 16 27 12 28 15 29 17 30 13 31 14 32
REMARK H PARENT 6 22 6 23
ROOT
ATOM      1  C   UNL     1      44.206 128.440  23.386  1.00  0.00     0.429 C 
ATOM      2  O   UNL     1      44.427 128.341  24.624  1.00  0.00    -0.222 OA
ENDROOT
BRANCH   1   3
ATOM      3  N   UNL     1      43.652 129.652  22.854  1.00  0.00    -0.214 N 
BRANCH   3   4
ATOM      4  C   UNL     1      44.473 130.544  22.075  1.00  0.00     0.059 A 
ATOM      5  C   UNL     1      45.929 132.491  21.975  1.00  0.00    -0.047 A 
ATOM      6  C   UNL     1      45.144 131.598  22.711  1.00  0.00     0.031 A 
ATOM      7  C   UNL     1      46.081 132.302  20.596  1.00  0.00     0.033 A 
ATOM      8  C   UNL     1      45.424 131.251  19.932  1.00  0.00     0.080 A 
ATOM      9  C   UNL     1      44.608 130.373  20.684  1.00  0.00    -0.054 A 
ATOM     10  C   UNL     1      46.663 133.599  22.671  1.00  0.00     0.044 C 
ATOM     11  O   UNL     1      43.914 129.344  20.056  1.00  0.00    -0.870 OA
BRANCH   8  12
ATOM     12  N   UNL     1      45.591 131.094  18.505  1.00  0.00    -0.151 N 
ATOM     13  N   UNL     1      46.100 130.006  17.925  1.00  0.00    -0.148 NA
ATOM     14  N   UNL     1      45.250 132.031  17.620  1.00  0.00    -0.148 NA
ATOM     15  C   UNL     1      46.079 130.270  16.611  1.00  0.00     0.113 A 
ATOM     16  C   UNL     1      45.557 131.511  16.424  1.00  0.00     0.113 A 
ATOM     17  C   UNL     1      46.496 129.471  15.550  1.00  0.00     0.032 A 
ATOM     18  C   UNL     1      45.405 132.069  15.159  1.00  0.00     0.032 A 
ATOM     19  C   UNL     1      46.358 130.000  14.251  1.00  0.00     0.002 A 
ATOM     20  C   UNL     1      45.815 131.294  14.057  1.00  0.00     0.002 A 
ENDBRANCH   8  12
ENDBRANCH   3   4
BRANCH   3  21
ATOM     21  N   UNL     1      42.316 129.982  23.159  1.00  0.00    -0.238 NA
ATOM     22  H   UNL     1      42.321 130.903  23.652  1.00  0.00     0.144 HD
ATOM     23  H   UNL     1      41.784 130.095  22.265  1.00  0.00     0.144 HD
ENDBRANCH   3  21
ENDBRANCH   1   3
BRANCH   1  24
ATOM     24  O   UNL     1      44.509 127.377  22.525  1.00  0.00    -0.442 OA
BRANCH  24  25
ATOM     25  C   UNL     1      44.806 126.054  22.971  1.00  0.00     0.212 C 
ATOM     26  C   UNL     1      43.937 125.745  24.191  1.00  0.00     0.183 C 
ATOM     27  C   UNL     1      44.453 125.036  21.865  1.00  0.00     0.138 C 
ATOM     28  S   UNL     1      42.422 125.115  23.534  1.00  0.00     0.155 S 
ATOM     29  C   UNL     1      42.934 124.835  21.865  1.00  0.00     0.160 C 
ATOM     30  Cl  UNL     1      45.284 123.481  22.175  1.00  0.00    -0.118 Cl
ATOM     31  O   UNL     1      42.014 123.837  24.211  1.00  0.00    -0.229 OA
ATOM     32  O   UNL     1      41.320 126.134  23.610  1.00  0.00    -0.229 OA
ENDBRANCH  24  25
ENDBRANCH   1  24
TORSDOF 6
ENDMDL
MODEL 9
REMARK VINA RESULT:      -0.9      3.684      7.291
REMARK SMILES Cc1cc(N(N)C(=O)O[C@H]2CS(=O)(=O)C[C@@H]2Cl)c([O-])c(-n2nc3ccccc3n2)c1
REMARK SMILES IDX 7 1 8 2 5 3 4 4 2 5 3 6 30 7 20 8 18 9 1 10 19 11 21 12
REMARK SMILES IDX 22 13 29 14 23 15 28 16 24 17 27 18 25 19 26 20 6 21 9 24
REMARK SMILES IDX 10 25 11 26 16 27 12 28 15 29 17 30 13 31 14 32
REMARK H PARENT 6 22 6 23
ROOT
ATOM      1  C   UNL     1      43.339 131.607  17.797  1.00  0.00     0.429 C 
ATOM      2  O   UNL     1      42.732 131.942  16.743  1.00  0.00    -0.222 OA
ENDROOT
BRANCH   1   3
ATOM      3  N   UNL     1      42.832 132.017  19.075  1.00  0.00    -0.214 N 
BRANCH   3   4
ATOM      4  C   UNL     1      43.654 131.895  20.254  1.00  0.00     0.059 A 
ATOM      5  C   UNL     1      44.085 130.827  22.397  1.00  0.00    -0.047 A 
ATOM      6  C   UNL     1      43.319 130.951  21.234  1.00  0.00     0.031 A 
ATOM      7  C   UNL     1      45.224 131.625  22.561  1.00  0.00     0.033 A 
ATOM      8  C   UNL     1      45.587 132.577  21.591  1.00  0.00     0.080 A 
ATOM      9  C   UNL     1      44.785 132.713  20.433  1.00  0.00    -0.054 A 
ATOM     10  C   UNL     1      43.732 129.795  23.427  1.00  0.00     0.044 C 
ATOM     11  O   UNL     1      45.092 133.668  19.471  1.00  0.00    -0.870 OA
BRANCH   8  12
ATOM     12  N   UNL     1      46.761 133.394  21.799  1.00  0.00    -0.151 N 
ATOM     13  N   UNL     1      47.665 133.179  22.755  1.00  0.00    -0.148 NA
ATOM     14  N   UNL     1      47.059 134.455  21.046  1.00  0.00    -0.148 NA
ATOM     15  C   UNL     1      48.576 134.150  22.599  1.00  0.00     0.113 A 
ATOM     16  C   UNL     1      48.204 134.931  21.551  1.00  0.00     0.113 A 
ATOM     17  C   UNL     1      49.733 134.392  23.333  1.00  0.00     0.032 A 
ATOM     18  C   UNL     1      48.955 136.028  21.140  1.00  0.00     0.032 A 
ATOM     19  C   UNL     1      50.522 135.494  22.950  1.00  0.00     0.002 A 
ATOM     20  C   UNL     1      50.135 136.309  21.858  1.00  0.00     0.002 A 
ENDBRANCH   8  12
ENDBRANCH   3   4
BRANCH   3  21
ATOM     21  N   UNL     1      41.504 132.478  19.166  1.00  0.00    -0.238 NA
ATOM     22  H   UNL     1      41.171 132.680  18.196  1.00  0.00     0.144 HD
ATOM     23  H   UNL     1      40.908 131.714  19.560  1.00  0.00     0.144 HD
ENDBRANCH   3  21
ENDBRANCH   1   3
BRANCH   1  24
ATOM     24  O   UNL     1      44.500 130.827  17.727  1.00  0.00    -0.442 OA
BRANCH  24  25
ATOM     25  C   UNL     1      45.670 131.207  17.002  1.00  0.00     0.212 C 
ATOM     26  C   UNL     1      46.493 129.950  16.713  1.00  0.00     0.183 C 
ATOM     27  C   UNL     1      45.268 131.834  15.650  1.00  0.00     0.138 C 
ATOM     28  S   UNL     1      45.843 129.308  15.200  1.00  0.00     0.155 S 
ATOM     29  C   UNL     1      44.884 130.704  14.690  1.00  0.00     0.160 C 
ATOM     30  Cl  UNL     1      46.637 132.776  14.981  1.00  0.00    -0.118 Cl
ATOM     31  O   UNL     1      46.935 128.996  14.216  1.00  0.00    -0.229 OA
ATOM     32  O   UNL     1      44.979 128.102  15.438  1.00  0.00    -0.229 OA
ENDBRANCH  24  25
ENDBRANCH   1  24
TORSDOF 6
ENDMDL


