MODEL 1
REMARK VINA RESULT:      -8.8      0.000      0.000
REMARK SMILES Cc1cc(-c2c[nH+]c3c(c2)C(=O)NC3)c(N)c2cc[nH]c12
REMARK SMILES IDX 1 1 2 2 3 3 4 4 15 5 17 6 18 7 19 8 20 9 21 10 5 12 6 13
REMARK SMILES IDX 10 14 7 15 9 16 8 17 11 18 14 19 13 20 12 22 16 24
REMARK H PARENT 20 11 7 21 13 23 16 25 16 26
ROOT
ATOM      1  C   UNL     1      41.176 133.281  20.736  1.00  0.00     0.046 C 
ATOM      2  C   UNL     1      42.405 132.420  20.738  1.00  0.00    -0.026 A 
ATOM      3  C   UNL     1      43.109 132.150  19.548  1.00  0.00     0.016 A 
ATOM      4  C   UNL     1      44.267 131.330  19.548  1.00  0.00     0.012 A 
ATOM      5  C   UNL     1      44.744 130.783  20.771  1.00  0.00     0.049 A 
ATOM      6  C   UNL     1      44.014 131.062  21.934  1.00  0.00     0.023 A 
ATOM      7  C   UNL     1      44.221 130.683  23.248  1.00  0.00     0.030 A 
ATOM      8  C   UNL     1      43.189 131.266  23.971  1.00  0.00     0.083 A 
ATOM      9  N   UNL     1      42.379 131.977  23.157  1.00  0.00    -0.361 N 
ATOM     10  C   UNL     1      42.889 131.849  21.918  1.00  0.00     0.050 A 
ATOM     11  H   UNL     1      41.532 132.517  23.444  1.00  0.00     0.166 HD
ENDROOT
BRANCH   4  12
ATOM     12  C   UNL     1      44.931 131.048  18.258  1.00  0.00     0.049 A 
ATOM     13  C   UNL     1      46.167 130.355  18.220  1.00  0.00     0.315 A 
ATOM     14  C   UNL     1      44.320 131.426  17.046  1.00  0.00     0.035 A 
ATOM     15  N   UNL     1      46.772 130.073  17.027  1.00  0.00    -0.212 N 
ATOM     16  C   UNL     1      44.978 131.115  15.863  1.00  0.00     0.109 A 
ATOM     17  C   UNL     1      46.180 130.453  15.866  1.00  0.00     0.211 A 
ATOM     18  C   UNL     1      44.634 131.359  14.486  1.00  0.00     0.258 C 
ATOM     19  C   UNL     1      46.689 130.227  14.472  1.00  0.00     0.225 C 
ATOM     20  N   UNL     1      45.648 130.833  13.637  1.00  0.00    -0.342 N 
ATOM     21  H   UNL     1      47.684 129.564  17.011  1.00  0.00     0.453 HD
ATOM     22  O   UNL     1      43.599 131.943  14.073  1.00  0.00    -0.269 OA
ATOM     23  H   UNL     1      45.650 130.874  12.594  1.00  0.00     0.164 HD
ENDBRANCH   4  12
BRANCH   5  24
ATOM     24  N   UNL     1      45.953 130.013  20.837  1.00  0.00    -0.398 N 
ATOM     25  H   UNL     1      46.281 129.451  20.021  1.00  0.00     0.156 HD
ATOM     26  H   UNL     1      46.509 129.938  21.717  1.00  0.00     0.156 HD
ENDBRANCH   5  24
TORSDOF 2
ENDMDL
MODEL 2
REMARK VINA RESULT:      -7.9      2.293      6.862
REMARK SMILES Cc1cc(-c2c[nH+]c3c(c2)C(=O)NC3)c(N)c2cc[nH]c12
REMARK SMILES IDX 1 1 2 2 3 3 4 4 15 5 17 6 18 7 19 8 20 9 21 10 5 12 6 13
REMARK SMILES IDX 10 14 7 15 9 16 8 17 11 18 14 19 13 20 12 22 16 24
REMARK H PARENT 20 11 7 21 13 23 16 25 16 26
ROOT
ATOM      1  C   UNL     1      43.169 131.867  13.857  1.00  0.00     0.046 C 
ATOM      2  C   UNL     1      43.935 131.476  15.088  1.00  0.00    -0.026 A 
ATOM      3  C   UNL     1      43.412 131.703  16.376  1.00  0.00     0.016 A 
ATOM      4  C   UNL     1      44.139 131.341  17.539  1.00  0.00     0.012 A 
ATOM      5  C   UNL     1      45.411 130.718  17.411  1.00  0.00     0.049 A 
ATOM      6  C   UNL     1      45.906 130.516  16.116  1.00  0.00     0.023 A 
ATOM      7  C   UNL     1      47.086 129.946  15.676  1.00  0.00     0.030 A 
ATOM      8  C   UNL     1      47.031 130.001  14.290  1.00  0.00     0.083 A 
ATOM      9  N   UNL     1      45.878 130.572  13.881  1.00  0.00    -0.361 N 
ATOM     10  C   UNL     1      45.197 130.881  14.999  1.00  0.00     0.050 A 
ATOM     11  H   UNL     1      45.583 130.731  12.891  1.00  0.00     0.166 HD
ENDROOT
BRANCH   4  12
ATOM     12  C   UNL     1      43.553 131.651  18.861  1.00  0.00     0.049 A 
ATOM     13  C   UNL     1      42.417 132.491  18.967  1.00  0.00     0.315 A 
ATOM     14  C   UNL     1      44.092 131.077  20.029  1.00  0.00     0.035 A 
ATOM     15  N   UNL     1      41.860 132.761  20.186  1.00  0.00    -0.212 N 
ATOM     16  C   UNL     1      43.488 131.383  21.242  1.00  0.00     0.109 A 
ATOM     17  C   UNL     1      42.395 132.211  21.307  1.00  0.00     0.211 A 
ATOM     18  C   UNL     1      43.788 130.975  22.590  1.00  0.00     0.258 C 
ATOM     19  C   UNL     1      41.920 132.387  22.719  1.00  0.00     0.225 C 
ATOM     20  N   UNL     1      42.858 131.567  23.490  1.00  0.00    -0.342 N 
ATOM     21  H   UNL     1      41.024 133.383  20.253  1.00  0.00     0.453 HD
ATOM     22  O   UNL     1      44.724 130.210  22.941  1.00  0.00    -0.269 OA
ATOM     23  H   UNL     1      42.848 131.438  24.526  1.00  0.00     0.164 HD
ENDBRANCH   4  12
BRANCH   5  24
ATOM     24  N   UNL     1      46.150 130.262  18.553  1.00  0.00    -0.398 N 
ATOM     25  H   UNL     1      46.924 129.568  18.455  1.00  0.00     0.156 HD
ATOM     26  H   UNL     1      45.901 130.558  19.523  1.00  0.00     0.156 HD
ENDBRANCH   5  24
TORSDOF 2
ENDMDL
MODEL 3
REMARK VINA RESULT:      -7.8      1.807      6.702
REMARK SMILES Cc1cc(-c2c[nH+]c3c(c2)C(=O)NC3)c(N)c2cc[nH]c12
REMARK SMILES IDX 1 1 2 2 3 3 4 4 15 5 17 6 18 7 19 8 20 9 21 10 5 12 6 13
REMARK SMILES IDX 10 14 7 15 9 16 8 17 11 18 14 19 13 20 12 22 16 24
REMARK H PARENT 20 11 7 21 13 23 16 25 16 26
ROOT
ATOM      1  C   UNL     1      43.194 132.034  13.873  1.00  0.00     0.046 C 
ATOM      2  C   UNL     1      44.200 131.513  14.859  1.00  0.00    -0.026 A 
ATOM      3  C   UNL     1      43.934 131.515  16.242  1.00  0.00     0.016 A 
ATOM      4  C   UNL     1      44.887 131.030  17.174  1.00  0.00     0.012 A 
ATOM      5  C   UNL     1      46.127 130.511  16.711  1.00  0.00     0.049 A 
ATOM      6  C   UNL     1      46.363 130.533  15.330  1.00  0.00     0.023 A 
ATOM      7  C   UNL     1      47.450 130.107  14.589  1.00  0.00     0.030 A 
ATOM      8  C   UNL     1      47.121 130.363  13.265  1.00  0.00     0.083 A 
ATOM      9  N   UNL     1      45.892 130.917  13.177  1.00  0.00    -0.361 N 
ATOM     10  C   UNL     1      45.437 131.016  14.439  1.00  0.00     0.050 A 
ATOM     11  H   UNL     1      45.403 131.202  12.300  1.00  0.00     0.166 HD
ENDROOT
BRANCH   4  12
ATOM     12  C   UNL     1      44.565 131.105  18.616  1.00  0.00     0.049 A 
ATOM     13  C   UNL     1      45.412 130.498  19.576  1.00  0.00     0.315 A 
ATOM     14  C   UNL     1      43.434 131.821  19.054  1.00  0.00     0.035 A 
ATOM     15  N   UNL     1      45.129 130.585  20.910  1.00  0.00    -0.212 N 
ATOM     16  C   UNL     1      43.192 131.879  20.421  1.00  0.00     0.109 A 
ATOM     17  C   UNL     1      44.029 131.268  21.322  1.00  0.00     0.211 A 
ATOM     18  C   UNL     1      42.145 132.511  21.181  1.00  0.00     0.258 C 
ATOM     19  C   UNL     1      43.564 131.473  22.734  1.00  0.00     0.225 C 
ATOM     20  N   UNL     1      42.351 132.279  22.570  1.00  0.00    -0.342 N 
ATOM     21  H   UNL     1      45.758 130.132  21.609  1.00  0.00     0.453 HD
ATOM     22  O   UNL     1      41.185 133.174  20.710  1.00  0.00    -0.269 OA
ATOM     23  H   UNL     1      41.739 132.625  23.342  1.00  0.00     0.164 HD
ENDBRANCH   4  12
BRANCH   5  24
ATOM     24  N   UNL     1      47.091 129.937  17.605  1.00  0.00    -0.398 N 
ATOM     25  H   UNL     1      46.838 129.145  18.237  1.00  0.00     0.156 HD
ATOM     26  H   UNL     1      48.054 130.329  17.700  1.00  0.00     0.156 HD
ENDBRANCH   5  24
TORSDOF 2
ENDMDL
MODEL 4
REMARK VINA RESULT:      -7.6      1.695      2.056
REMARK SMILES Cc1cc(-c2c[nH+]c3c(c2)C(=O)NC3)c(N)c2cc[nH]c12
REMARK SMILES IDX 1 1 2 2 3 3 4 4 15 5 17 6 18 7 19 8 20 9 21 10 5 12 6 13
REMARK SMILES IDX 10 14 7 15 9 16 8 17 11 18 14 19 13 20 12 22 16 24
REMARK H PARENT 20 11 7 21 13 23 16 25 16 26
ROOT
ATOM      1  C   UNL     1      41.318 132.893  19.944  1.00  0.00     0.046 C 
ATOM      2  C   UNL     1      42.644 132.199  19.827  1.00  0.00    -0.026 A 
ATOM      3  C   UNL     1      43.355 132.184  18.612  1.00  0.00     0.016 A 
ATOM      4  C   UNL     1      44.605 131.522  18.500  1.00  0.00     0.012 A 
ATOM      5  C   UNL     1      45.166 130.876  19.636  1.00  0.00     0.049 A 
ATOM      6  C   UNL     1      44.427 130.901  20.826  1.00  0.00     0.023 A 
ATOM      7  C   UNL     1      44.702 130.375  22.075  1.00  0.00     0.030 A 
ATOM      8  C   UNL     1      43.619 130.721  22.871  1.00  0.00     0.083 A 
ATOM      9  N   UNL     1      42.714 131.429  22.162  1.00  0.00    -0.361 N 
ATOM     10  C   UNL     1      43.214 131.536  20.918  1.00  0.00     0.050 A 
ATOM     11  H   UNL     1      41.812 131.816  22.521  1.00  0.00     0.166 HD
ENDROOT
BRANCH   4  12
ATOM     12  C   UNL     1      45.277 131.503  17.183  1.00  0.00     0.049 A 
ATOM     13  C   UNL     1      45.493 132.708  16.467  1.00  0.00     0.315 A 
ATOM     14  C   UNL     1      45.752 130.292  16.644  1.00  0.00     0.035 A 
ATOM     15  N   UNL     1      46.134 132.696  15.260  1.00  0.00    -0.212 N 
ATOM     16  C   UNL     1      46.397 130.336  15.414  1.00  0.00     0.109 A 
ATOM     17  C   UNL     1      46.577 131.520  14.744  1.00  0.00     0.211 A 
ATOM     18  C   UNL     1      46.983 129.300  14.604  1.00  0.00     0.258 C 
ATOM     19  C   UNL     1      47.301 131.315  13.446  1.00  0.00     0.225 C 
ATOM     20  N   UNL     1      47.531 129.867  13.420  1.00  0.00    -0.342 N 
ATOM     21  H   UNL     1      46.286 133.589  14.740  1.00  0.00     0.453 HD
ATOM     22  O   UNL     1      47.020 128.073  14.883  1.00  0.00    -0.269 OA
ATOM     23  H   UNL     1      48.015 129.340  12.661  1.00  0.00     0.164 HD
ENDBRANCH   4  12
BRANCH   5  24
ATOM     24  N   UNL     1      46.462 130.261  19.595  1.00  0.00    -0.398 N 
ATOM     25  H   UNL     1      47.323 130.823  19.418  1.00  0.00     0.156 HD
ATOM     26  H   UNL     1      46.581 129.227  19.677  1.00  0.00     0.156 HD
ENDBRANCH   5  24
TORSDOF 2
ENDMDL
MODEL 5
REMARK VINA RESULT:      -7.2      1.513      1.961
REMARK SMILES Cc1cc(-c2c[nH+]c3c(c2)C(=O)NC3)c(N)c2cc[nH]c12
REMARK SMILES IDX 1 1 2 2 3 3 4 4 15 5 17 6 18 7 19 8 20 9 21 10 5 12 6 13
REMARK SMILES IDX 10 14 7 15 9 16 8 17 11 18 14 19 13 20 12 22 16 24
REMARK H PARENT 20 11 7 21 13 23 16 25 16 26
ROOT
ATOM      1  C   UNL     1      41.185 133.224  20.843  1.00  0.00     0.046 C 
ATOM      2  C   UNL     1      42.418 132.431  20.517  1.00  0.00    -0.026 A 
ATOM      3  C   UNL     1      42.864 132.288  19.189  1.00  0.00     0.016 A 
ATOM      4  C   UNL     1      44.024 131.533  18.880  1.00  0.00     0.012 A 
ATOM      5  C   UNL     1      44.769 130.923  19.927  1.00  0.00     0.049 A 
ATOM      6  C   UNL     1      44.291 131.076  21.236  1.00  0.00     0.023 A 
ATOM      7  C   UNL     1      44.785 130.612  22.441  1.00  0.00     0.030 A 
ATOM      8  C   UNL     1      43.909 131.084  23.409  1.00  0.00     0.083 A 
ATOM      9  N   UNL     1      42.920 131.809  22.843  1.00  0.00    -0.361 N 
ATOM     10  C   UNL     1      43.161 131.800  21.519  1.00  0.00     0.050 A 
ATOM     11  H   UNL     1      42.134 132.280  23.344  1.00  0.00     0.166 HD
ENDROOT
BRANCH   4  12
ATOM     12  C   UNL     1      44.411 131.383  17.461  1.00  0.00     0.049 A 
ATOM     13  C   UNL     1      43.602 131.928  16.432  1.00  0.00     0.315 A 
ATOM     14  C   UNL     1      45.613 130.736  17.116  1.00  0.00     0.035 A 
ATOM     15  N   UNL     1      43.969 131.811  15.121  1.00  0.00    -0.212 N 
ATOM     16  C   UNL     1      45.939 130.644  15.769  1.00  0.00     0.109 A 
ATOM     17  C   UNL     1      45.124 131.173  14.799  1.00  0.00     0.211 A 
ATOM     18  C   UNL     1      47.068 130.055  15.096  1.00  0.00     0.258 C 
ATOM     19  C   UNL     1      45.688 130.954  13.426  1.00  0.00     0.225 C 
ATOM     20  N   UNL     1      46.935 130.231  13.690  1.00  0.00    -0.342 N 
ATOM     21  H   UNL     1      43.364 132.213  14.370  1.00  0.00     0.453 HD
ATOM     22  O   UNL     1      48.036 129.471  15.647  1.00  0.00    -0.269 OA
ATOM     23  H   UNL     1      47.613 129.901  12.969  1.00  0.00     0.164 HD
ENDBRANCH   4  12
BRANCH   5  24
ATOM     24  N   UNL     1      45.991 130.216  19.676  1.00  0.00    -0.398 N 
ATOM     25  H   UNL     1      46.016 129.172  19.643  1.00  0.00     0.156 HD
ATOM     26  H   UNL     1      46.904 130.713  19.580  1.00  0.00     0.156 HD
ENDBRANCH   5  24
TORSDOF 2
ENDMDL
MODEL 6
REMARK VINA RESULT:      -6.6      1.183      2.265
REMARK SMILES Cc1cc(-c2c[nH+]c3c(c2)C(=O)NC3)c(N)c2cc[nH]c12
REMARK SMILES IDX 1 1 2 2 3 3 4 4 15 5 17 6 18 7 19 8 20 9 21 10 5 12 6 13
REMARK SMILES IDX 10 14 7 15 9 16 8 17 11 18 14 19 13 20 12 22 16 24
REMARK H PARENT 20 11 7 21 13 23 16 25 16 26
ROOT
ATOM      1  C   UNL     1      44.528 130.778  23.152  1.00  0.00     0.046 C 
ATOM      2  C   UNL     1      43.968 131.236  21.837  1.00  0.00    -0.026 A 
ATOM      3  C   UNL     1      44.613 130.930  20.622  1.00  0.00     0.016 A 
ATOM      4  C   UNL     1      44.088 131.370  19.380  1.00  0.00     0.012 A 
ATOM      5  C   UNL     1      42.878 132.116  19.350  1.00  0.00     0.049 A 
ATOM      6  C   UNL     1      42.268 132.412  20.576  1.00  0.00     0.023 A 
ATOM      7  C   UNL     1      41.107 133.104  20.868  1.00  0.00     0.030 A 
ATOM      8  C   UNL     1      40.990 133.069  22.251  1.00  0.00     0.083 A 
ATOM      9  N   UNL     1      42.019 132.388  22.799  1.00  0.00    -0.361 N 
ATOM     10  C   UNL     1      42.793 131.990  21.772  1.00  0.00     0.050 A 
ATOM     11  H   UNL     1      42.171 132.209  23.816  1.00  0.00     0.166 HD
ENDROOT
BRANCH   4  12
ATOM     12  C   UNL     1      44.840 131.056  18.146  1.00  0.00     0.049 A 
ATOM     13  C   UNL     1      46.056 130.330  18.208  1.00  0.00     0.315 A 
ATOM     14  C   UNL     1      44.332 131.435  16.889  1.00  0.00     0.035 A 
ATOM     15  N   UNL     1      46.741 130.018  17.067  1.00  0.00    -0.212 N 
ATOM     16  C   UNL     1      45.068 131.093  15.761  1.00  0.00     0.109 A 
ATOM     17  C   UNL     1      46.248 130.400  15.861  1.00  0.00     0.211 A 
ATOM     18  C   UNL     1      44.835 131.330  14.360  1.00  0.00     0.258 C 
ATOM     19  C   UNL     1      46.853 130.145  14.512  1.00  0.00     0.225 C 
ATOM     20  N   UNL     1      45.895 130.768  13.594  1.00  0.00    -0.342 N 
ATOM     21  H   UNL     1      47.637 129.485  17.125  1.00  0.00     0.453 HD
ATOM     22  O   UNL     1      43.850 131.936  13.865  1.00  0.00    -0.269 OA
ATOM     23  H   UNL     1      45.975 130.796  12.554  1.00  0.00     0.164 HD
ENDBRANCH   4  12
BRANCH   5  24
ATOM     24  N   UNL     1      42.265 132.517  18.116  1.00  0.00    -0.398 N 
ATOM     25  H   UNL     1      42.336 131.924  17.259  1.00  0.00     0.156 HD
ATOM     26  H   UNL     1      41.783 133.437  18.015  1.00  0.00     0.156 HD
ENDBRANCH   5  24
TORSDOF 2
ENDMDL
MODEL 7
REMARK VINA RESULT:      -6.5      2.672      7.189
REMARK SMILES Cc1cc(-c2c[nH+]c3c(c2)C(=O)NC3)c(N)c2cc[nH]c12
REMARK SMILES IDX 1 1 2 2 3 3 4 4 15 5 17 6 18 7 19 8 20 9 21 10 5 12 6 13
REMARK SMILES IDX 10 14 7 15 9 16 8 17 11 18 14 19 13 20 12 22 16 24
REMARK H PARENT 20 11 7 21 13 23 16 25 16 26
ROOT
ATOM      1  C   UNL     1      47.061 129.835  16.656  1.00  0.00     0.046 C 
ATOM      2  C   UNL     1      45.747 130.505  16.937  1.00  0.00    -0.026 A 
ATOM      3  C   UNL     1      45.297 130.706  18.257  1.00  0.00     0.016 A 
ATOM      4  C   UNL     1      44.052 131.333  18.521  1.00  0.00     0.012 A 
ATOM      5  C   UNL     1      43.247 131.787  17.441  1.00  0.00     0.049 A 
ATOM      6  C   UNL     1      43.719 131.562  16.141  1.00  0.00     0.023 A 
ATOM      7  C   UNL     1      43.175 131.882  14.911  1.00  0.00     0.030 A 
ATOM      8  C   UNL     1      44.090 131.429  13.970  1.00  0.00     0.083 A 
ATOM      9  N   UNL     1      45.154 130.858  14.576  1.00  0.00    -0.361 N 
ATOM     10  C   UNL     1      44.920 130.944  15.899  1.00  0.00     0.050 A 
ATOM     11  H   UNL     1      45.986 130.441  14.103  1.00  0.00     0.166 HD
ENDROOT
BRANCH   4  12
ATOM     12  C   UNL     1      43.618 131.471  19.928  1.00  0.00     0.049 A 
ATOM     13  C   UNL     1      42.595 132.387  20.280  1.00  0.00     0.315 A 
ATOM     14  C   UNL     1      44.184 130.658  20.930  1.00  0.00     0.035 A 
ATOM     15  N   UNL     1      42.176 132.501  21.576  1.00  0.00    -0.212 N 
ATOM     16  C   UNL     1      43.721 130.814  22.230  1.00  0.00     0.109 A 
ATOM     17  C   UNL     1      42.738 131.721  22.536  1.00  0.00     0.211 A 
ATOM     18  C   UNL     1      44.086 130.157  23.459  1.00  0.00     0.258 C 
ATOM     19  C   UNL     1      42.405 131.702  23.999  1.00  0.00     0.225 C 
ATOM     20  N   UNL     1      43.307 130.676  24.531  1.00  0.00    -0.342 N 
ATOM     21  H   UNL     1      41.424 133.181  21.825  1.00  0.00     0.453 HD
ATOM     22  O   UNL     1      44.956 129.257  23.589  1.00  0.00    -0.269 OA
ATOM     23  H   UNL     1      43.368 130.376  25.529  1.00  0.00     0.164 HD
ENDBRANCH   4  12
BRANCH   5  24
ATOM     24  N   UNL     1      42.018 132.496  17.657  1.00  0.00    -0.398 N 
ATOM     25  H   UNL     1      41.589 133.077  16.903  1.00  0.00     0.156 HD
ATOM     26  H   UNL     1      41.547 132.507  18.588  1.00  0.00     0.156 HD
ENDBRANCH   5  24
TORSDOF 2
ENDMDL
MODEL 8
REMARK VINA RESULT:      -6.5      2.255      6.901
REMARK SMILES Cc1cc(-c2c[nH+]c3c(c2)C(=O)NC3)c(N)c2cc[nH]c12
REMARK SMILES IDX 1 1 2 2 3 3 4 4 15 5 17 6 18 7 19 8 20 9 21 10 5 12 6 13
REMARK SMILES IDX 10 14 7 15 9 16 8 17 11 18 14 19 13 20 12 22 16 24
REMARK H PARENT 20 11 7 21 13 23 16 25 16 26
ROOT
ATOM      1  C   UNL     1      47.333 129.835  15.384  1.00  0.00     0.046 C 
ATOM      2  C   UNL     1      46.100 130.427  16.002  1.00  0.00    -0.026 A 
ATOM      3  C   UNL     1      45.947 130.497  17.401  1.00  0.00     0.016 A 
ATOM      4  C   UNL     1      44.778 131.049  17.985  1.00  0.00     0.012 A 
ATOM      5  C   UNL     1      43.747 131.563  17.152  1.00  0.00     0.049 A 
ATOM      6  C   UNL     1      43.927 131.469  15.765  1.00  0.00     0.023 A 
ATOM      7  C   UNL     1      43.121 131.871  14.717  1.00  0.00     0.030 A 
ATOM      8  C   UNL     1      43.817 131.537  13.563  1.00  0.00     0.083 A 
ATOM      9  N   UNL     1      44.998 130.958  13.869  1.00  0.00    -0.361 N 
ATOM     10  C   UNL     1      45.058 130.922  15.212  1.00  0.00     0.050 A 
ATOM     11  H   UNL     1      45.714 130.617  13.190  1.00  0.00     0.166 HD
ENDROOT
BRANCH   4  12
ATOM     12  C   UNL     1      44.659 131.048  19.459  1.00  0.00     0.049 A 
ATOM     13  C   UNL     1      45.686 130.495  20.265  1.00  0.00     0.315 A 
ATOM     14  C   UNL     1      43.543 131.639  20.082  1.00  0.00     0.035 A 
ATOM     15  N   UNL     1      45.589 130.513  21.628  1.00  0.00    -0.212 N 
ATOM     16  C   UNL     1      43.495 131.631  21.471  1.00  0.00     0.109 A 
ATOM     17  C   UNL     1      44.502 131.075  22.218  1.00  0.00     0.211 A 
ATOM     18  C   UNL     1      42.514 132.137  22.396  1.00  0.00     0.258 C 
ATOM     19  C   UNL     1      44.228 131.192  23.689  1.00  0.00     0.225 C 
ATOM     20  N   UNL     1      42.936 131.883  23.731  1.00  0.00    -0.342 N 
ATOM     21  H   UNL     1      46.350 130.101  22.212  1.00  0.00     0.453 HD
ATOM     22  O   UNL     1      41.441 132.720  22.092  1.00  0.00    -0.269 OA
ATOM     23  H   UNL     1      42.412 132.146  24.595  1.00  0.00     0.164 HD
ENDBRANCH   4  12
BRANCH   5  24
ATOM     24  N   UNL     1      42.582 132.202  17.693  1.00  0.00    -0.398 N 
ATOM     25  H   UNL     1      41.622 131.913  17.402  1.00  0.00     0.156 HD
ATOM     26  H   UNL     1      42.654 133.014  18.344  1.00  0.00     0.156 HD
ENDBRANCH   5  24
TORSDOF 2
ENDMDL
MODEL 9
REMARK VINA RESULT:      -6.3      2.636      6.973
REMARK SMILES Cc1cc(-c2c[nH+]c3c(c2)C(=O)NC3)c(N)c2cc[nH]c12
REMARK SMILES IDX 1 1 2 2 3 3 4 4 15 5 17 6 18 7 19 8 20 9 21 10 5 12 6 13
REMARK SMILES IDX 10 14 7 15 9 16 8 17 11 18 14 19 13 20 12 22 16 24
REMARK H PARENT 20 11 7 21 13 23 16 25 16 26
ROOT
ATOM      1  C   UNL     1      47.162 129.701  15.946  1.00  0.00     0.046 C 
ATOM      2  C   UNL     1      45.981 130.393  16.561  1.00  0.00    -0.026 A 
ATOM      3  C   UNL     1      45.883 130.570  17.956  1.00  0.00     0.016 A 
ATOM      4  C   UNL     1      44.764 131.218  18.537  1.00  0.00     0.012 A 
ATOM      5  C   UNL     1      43.726 131.719  17.704  1.00  0.00     0.049 A 
ATOM      6  C   UNL     1      43.849 131.517  16.323  1.00  0.00     0.023 A 
ATOM      7  C   UNL     1      43.023 131.881  15.276  1.00  0.00     0.030 A 
ATOM      8  C   UNL     1      43.659 131.432  14.127  1.00  0.00     0.083 A 
ATOM      9  N   UNL     1      44.823 130.821  14.434  1.00  0.00    -0.361 N 
ATOM     10  C   UNL     1      44.933 130.878  15.774  1.00  0.00     0.050 A 
ATOM     11  H   UNL     1      45.498 130.398  13.758  1.00  0.00     0.166 HD
ENDROOT
BRANCH   4  12
ATOM     12  C   UNL     1      44.701 131.329  20.011  1.00  0.00     0.049 A 
ATOM     13  C   UNL     1      45.563 132.214  20.704  1.00  0.00     0.315 A 
ATOM     14  C   UNL     1      43.750 130.587  20.739  1.00  0.00     0.035 A 
ATOM     15  N   UNL     1      45.492 132.335  22.064  1.00  0.00    -0.212 N 
ATOM     16  C   UNL     1      43.720 130.749  22.119  1.00  0.00     0.109 A 
ATOM     17  C   UNL     1      44.579 131.607  22.757  1.00  0.00     0.211 A 
ATOM     18  C   UNL     1      42.891 130.149  23.133  1.00  0.00     0.258 C 
ATOM     19  C   UNL     1      44.352 131.612  24.241  1.00  0.00     0.225 C 
ATOM     20  N   UNL     1      43.256 130.655  24.412  1.00  0.00    -0.342 N 
ATOM     21  H   UNL     1      46.134 132.989  22.565  1.00  0.00     0.453 HD
ATOM     22  O   UNL     1      41.977 129.306  22.940  1.00  0.00    -0.269 OA
ATOM     23  H   UNL     1      42.815 130.388  25.320  1.00  0.00     0.164 HD
ENDBRANCH   4  12
BRANCH   5  24
ATOM     24  N   UNL     1      42.612 132.449  18.237  1.00  0.00    -0.398 N 
ATOM     25  H   UNL     1      41.769 132.652  17.655  1.00  0.00     0.156 HD
ATOM     26  H   UNL     1      42.630 132.856  19.198  1.00  0.00     0.156 HD
ENDBRANCH   5  24
TORSDOF 2
ENDMDL


