REMARK SMILES Cc1cc2cc(F)c(C3CC3)cc2[nH]1
REMARK SMILES IDX 1 1 2 2 3 3 4 4 5 5 6 6 7 7 8 8 12 9 13 10 14 11 9 13 10 14
REMARK SMILES IDX 11 15
REMARK H PARENT 14 12
ROOT
ATOM      1  C   UNL     1      -3.373   1.721  -1.462  1.00  0.00     0.064 C 
ATOM      2  C   UNL     1      -2.111   0.934  -1.328  1.00  0.00     0.013 A 
ATOM      3  C   UNL     1      -1.097   0.881  -2.281  1.00  0.00     0.031 A 
ATOM      4  C   UNL     1      -0.181  -0.013  -1.772  1.00  0.00     0.003 A 
ATOM      5  C   UNL     1       1.024  -0.472  -2.297  1.00  0.00     0.049 A 
ATOM      6  C   UNL     1       1.751  -1.417  -1.551  1.00  0.00     0.127 A 
ATOM      7  F   UNL     1       2.917  -1.898  -2.051  1.00  0.00    -0.207 F 
ATOM      8  C   UNL     1       1.268  -1.870  -0.293  1.00  0.00    -0.007 A 
ATOM      9  C   UNL     1       0.026  -1.401   0.191  1.00  0.00     0.033 A 
ATOM     10  C   UNL     1      -0.665  -0.463  -0.573  1.00  0.00     0.046 A 
ATOM     11  N   UNL     1      -1.851   0.103  -0.292  1.00  0.00    -0.359 N 
ATOM     12  H   UNL     1      -2.451  -0.071   0.545  1.00  0.00     0.166 HD
ENDROOT
BRANCH   8  13
ATOM     13  C   UNL     1       2.026  -2.916   0.479  1.00  0.00     0.022 C 
ATOM     14  C   UNL     1       2.324  -2.566   1.932  1.00  0.00     0.009 C 
ATOM     15  C   UNL     1       3.434  -2.511   0.898  1.00  0.00     0.009 C 
ENDBRANCH   8  13
TORSDOF 1


