REMARK SMILES Cc1ccc([NH2+]c2ccc([C@@H]3O[C@H]3c3ccccc3)c(N)c2[O-])cc1F
REMARK SMILES IDX 7 1 8 2 9 3 10 4 20 5 22 6 23 7 6 8 5 11 2 12 3 13 25 14
REMARK SMILES IDX 4 15 24 16 1 17 26 18 21 19 11 22 12 23 13 24 14 25 15 26
REMARK SMILES IDX 19 27 16 28 18 29 17 30
REMARK H PARENT 6 9 6 10 21 20 21 21
ROOT
ATOM      1  C   UNL     1      -1.942   0.240   1.252  1.00  0.00     0.128 A 
ATOM      2  C   UNL     1      -0.871   1.146   1.298  1.00  0.00     0.068 A 
ATOM      3  C   UNL     1       0.439   0.707   1.123  1.00  0.00     0.015 A 
ATOM      4  C   UNL     1       0.715  -0.649   0.901  1.00  0.00     0.007 A 
ATOM      5  C   UNL     1      -0.355  -1.570   0.804  1.00  0.00     0.035 A 
ATOM      6  C   UNL     1      -1.676  -1.121   0.997  1.00  0.00    -0.021 A 
ATOM      7  O   UNL     1      -2.730  -2.029   0.929  1.00  0.00    -0.867 OA
ENDROOT
BRANCH   1   8
ATOM      8  N   UNL     1      -3.296   0.712   1.420  1.00  0.00    -0.282 N 
ATOM      9  H   UNL     1      -3.847   0.017   1.974  1.00  0.00     0.358 HD
ATOM     10  H   UNL     1      -3.307   1.603   1.966  1.00  0.00     0.358 HD
BRANCH   8  11
ATOM     11  C   UNL     1      -3.905   0.934   0.132  1.00  0.00     0.137 A 
ATOM     12  C   UNL     1      -5.038   1.333  -2.420  1.00  0.00    -0.015 A 
ATOM     13  C   UNL     1      -4.141   2.272  -1.888  1.00  0.00     0.012 A 
ATOM     14  C   UNL     1      -5.389   0.208  -1.657  1.00  0.00     0.132 A 
ATOM     15  C   UNL     1      -3.574   2.071  -0.625  1.00  0.00     0.068 A 
ATOM     16  C   UNL     1      -4.818   0.005  -0.398  1.00  0.00     0.107 A 
ATOM     17  C   UNL     1      -5.669   1.563  -3.764  1.00  0.00     0.047 C 
ATOM     18  F   UNL     1      -6.281  -0.698  -2.135  1.00  0.00    -0.206 F 
ENDBRANCH   8  11
ENDBRANCH   1   8
BRANCH   5  19
ATOM     19  N   UNL     1      -0.115  -2.953   0.496  1.00  0.00    -0.399 N 
ATOM     20  H   UNL     1       0.822  -3.296   0.185  1.00  0.00     0.156 HD
ATOM     21  H   UNL     1      -0.893  -3.645   0.483  1.00  0.00     0.156 HD
ENDBRANCH   5  19
BRANCH   4  22
ATOM     22  C   UNL     1       2.146  -1.074   0.719  1.00  0.00     0.185 C 
ATOM     23  O   UNL     1       2.526  -2.050   1.663  1.00  0.00    -0.359 OA
ATOM     24  C   UNL     1       3.062  -0.760   1.847  1.00  0.00     0.183 C 
BRANCH  24  25
ATOM     25  C   UNL     1       4.519  -0.699   1.496  1.00  0.00    -0.016 A 
ATOM     26  C   UNL     1       5.408  -1.691   1.942  1.00  0.00     0.006 A 
ATOM     27  C   UNL     1       5.013   0.397   0.775  1.00  0.00     0.006 A 
ATOM     28  C   UNL     1       6.771  -1.599   1.644  1.00  0.00     0.000 A 
ATOM     29  C   UNL     1       6.379   0.491   0.487  1.00  0.00     0.000 A 
ATOM     30  C   UNL     1       7.257  -0.507   0.920  1.00  0.00     0.000 A 
ENDBRANCH  24  25
ENDBRANCH   4  22
TORSDOF 5


