REMARK SMILES O/C(=N\[C@H]1Cc2cc(F)ccc2[C@H]1O)C1CCCC1
REMARK SMILES IDX 3 1 2 2 1 3 15 5 16 6 19 7 17 8 18 9 4 10 5 11 13 12 6 13
REMARK SMILES IDX 12 14 7 15 11 16 8 17 10 18 9 19 14 20
REMARK H PARENT 1 4 14 21
ROOT
ATOM      1  N   UNL     1      -0.083  -0.015  -0.687  1.00  0.00    -0.249 NA
ENDROOT
BRANCH   1   2
ATOM      2  C   UNL     1      -1.271   0.053  -1.211  1.00  0.00     0.184 C 
BRANCH   2   3
ATOM      3  O   UNL     1      -2.155   1.060  -0.819  1.00  0.00    -0.496 OA
ATOM      4  H   UNL     1      -3.088   1.126  -1.207  1.00  0.00     0.294 HD
ENDBRANCH   2   3
BRANCH   2   5
ATOM      5  C   UNL     1      -1.700  -0.971  -2.239  1.00  0.00     0.075 C 
ATOM      6  C   UNL     1      -0.714  -1.057  -3.402  1.00  0.00     0.013 C 
ATOM      7  C   UNL     1      -1.729  -2.376  -1.644  1.00  0.00     0.013 C 
ATOM      8  C   UNL     1       0.268  -2.172  -3.054  1.00  0.00     0.001 C 
ATOM      9  C   UNL     1      -0.360  -2.985  -1.922  1.00  0.00     0.001 C 
ENDBRANCH   2   5
ENDBRANCH   1   2
BRANCH   1  10
ATOM     10  C   UNL     1       0.425   0.911   0.327  1.00  0.00     0.146 C 
ATOM     11  C   UNL     1      -0.276   0.697   1.688  1.00  0.00     0.066 C 
ATOM     12  C   UNL     1       1.944   0.711   0.567  1.00  0.00     0.170 C 
ATOM     13  C   UNL     1       0.837   0.745   2.664  1.00  0.00    -0.037 A 
ATOM     14  C   UNL     1       2.063   0.757   2.047  1.00  0.00    -0.014 A 
ATOM     15  C   UNL     1       0.728   0.754   4.057  1.00  0.00     0.043 A 
ATOM     16  C   UNL     1       3.245   0.786   2.793  1.00  0.00     0.010 A 
ATOM     17  C   UNL     1       1.902   0.786   4.825  1.00  0.00     0.123 A 
ATOM     18  C   UNL     1       3.159   0.803   4.194  1.00  0.00     0.039 A 
ATOM     19  F   UNL     1       1.824   0.798   6.179  1.00  0.00    -0.207 F 
BRANCH  12  20
ATOM     20  O   UNL     1       2.376  -0.540   0.095  1.00  0.00    -0.386 OA
ATOM     21  H   UNL     1       3.367  -0.501   0.051  1.00  0.00     0.211 HD
ENDBRANCH  12  20
ENDBRANCH   1  10
TORSDOF 5


