REMARK SMILES O=C1NCc2[nH+]cc(-c3ccc4[nH]ccc4c3)cc21
REMARK SMILES IDX 1 1 2 2 3 3 4 4 5 5 6 6 7 7 8 8 18 9 19 10 9 13 10 14 17 15
REMARK SMILES IDX 11 16 16 17 12 18 15 19 13 20 14 21
REMARK H PARENT 3 11 6 12 13 22
ROOT
ATOM      1  O   UNL     1      -3.325  -1.747   4.164  1.00  0.00    -0.269 OA
ATOM      2  C   UNL     1      -2.412  -2.324   3.517  1.00  0.00     0.258 C 
ATOM      3  N   UNL     1      -1.768  -3.520   3.937  1.00  0.00    -0.342 N 
ATOM      4  C   UNL     1      -0.766  -3.889   2.932  1.00  0.00     0.225 C 
ATOM      5  C   UNL     1      -0.898  -2.801   1.906  1.00  0.00     0.211 A 
ATOM      6  N   UNL     1      -0.194  -2.669   0.754  1.00  0.00    -0.212 N 
ATOM      7  C   UNL     1      -0.442  -1.613  -0.077  1.00  0.00     0.315 A 
ATOM      8  C   UNL     1      -1.431  -0.648   0.248  1.00  0.00     0.046 A 
ATOM      9  C   UNL     1      -2.156  -0.798   1.451  1.00  0.00     0.035 A 
ATOM     10  C   UNL     1      -1.861  -1.891   2.258  1.00  0.00     0.109 A 
ATOM     11  H   UNL     1      -1.974  -4.047   4.814  1.00  0.00     0.164 HD
ATOM     12  H   UNL     1       0.539  -3.370   0.504  1.00  0.00     0.453 HD
ENDROOT
BRANCH   8  13
ATOM     13  C   UNL     1      -1.700   0.497  -0.656  1.00  0.00    -0.012 A 
ATOM     14  C   UNL     1      -1.700   0.316  -2.067  1.00  0.00     0.011 A 
ATOM     15  C   UNL     1      -1.960   1.783  -0.123  1.00  0.00     0.019 A 
ATOM     16  C   UNL     1      -1.953   1.395  -2.933  1.00  0.00     0.027 A 
ATOM     17  C   UNL     1      -2.206   2.827  -1.011  1.00  0.00    -0.000 A 
ATOM     18  C   UNL     1      -2.202   2.641  -2.366  1.00  0.00     0.045 A 
ATOM     19  C   UNL     1      -2.479   4.157  -0.778  1.00  0.00     0.028 A 
ATOM     20  N   UNL     1      -2.463   3.792  -3.007  1.00  0.00    -0.361 N 
ATOM     21  C   UNL     1      -2.632   4.723  -2.040  1.00  0.00     0.083 A 
ATOM     22  H   UNL     1      -2.522   3.943  -4.038  1.00  0.00     0.166 HD
ENDBRANCH   8  13
TORSDOF 1


