REMARK SMILES C=Cc1cc(C2=CC=C[C@@]3(F)N=CO[C@@]23O)cc([O-])c1F
REMARK SMILES IDX 6 1 7 2 8 3 9 4 10 5 11 6 12 7 13 8 14 9 15 10 5 11 3 12
REMARK SMILES IDX 4 13 20 14 18 15 17 16 21 17 19 18 2 19 1 20 16 21
REMARK H PARENT 16 22
ROOT
ATOM      1  C   UNL     1      -1.187   0.033   0.357  1.00  0.00     0.036 C 
ATOM      2  C   UNL     1      -2.444   0.497   0.398  1.00  0.00     0.011 C 
ATOM      3  C   UNL     1      -3.583  -0.291  -0.077  1.00  0.00     0.002 C 
ATOM      4  C   UNL     1      -3.422  -1.489  -0.632  1.00  0.00     0.045 C 
ATOM      5  C   UNL     1      -2.073  -2.126  -0.811  1.00  0.00     0.291 C 
ATOM      6  F   UNL     1      -2.143  -3.423  -0.327  1.00  0.00    -0.205 F 
ATOM      7  N   UNL     1      -1.742  -2.180  -2.229  1.00  0.00    -0.208 NA
ATOM      8  C   UNL     1      -0.566  -1.691  -2.416  1.00  0.00     0.304 C 
ATOM      9  O   UNL     1       0.031  -1.226  -1.262  1.00  0.00    -0.442 OA
ATOM     10  C   UNL     1      -0.867  -1.359  -0.168  1.00  0.00     0.295 C 
ENDROOT
BRANCH   1  11
ATOM     11  C   UNL     1      -0.079   0.933   0.759  1.00  0.00    -0.015 A 
ATOM     12  C   UNL     1       1.859   1.428   2.167  1.00  0.00     0.010 A 
ATOM     13  C   UNL     1       0.797   0.577   1.797  1.00  0.00     0.019 A 
ATOM     14  C   UNL     1       2.011   2.657   1.499  1.00  0.00     0.122 A 
ATOM     15  C   UNL     1       1.135   3.017   0.470  1.00  0.00    -0.071 A 
ATOM     16  C   UNL     1       0.097   2.159   0.101  1.00  0.00     0.003 A 
ATOM     17  F   UNL     1       3.017   3.505   1.837  1.00  0.00    -0.207 F 
ATOM     18  O   UNL     1       1.297   4.229  -0.189  1.00  0.00    -0.870 OA
BRANCH  12  19
ATOM     19  C   UNL     1       2.796   1.082   3.266  1.00  0.00     0.003 C 
ATOM     20  C   UNL     1       3.030  -0.165   3.678  1.00  0.00     0.009 C 
ENDBRANCH  12  19
ENDBRANCH   1  11
BRANCH  10  21
ATOM     21  O   UNL     1      -0.280  -2.122   0.858  1.00  0.00    -0.348 OA
ATOM     22  H   UNL     1       0.219  -2.867   0.432  1.00  0.00     0.215 HD
ENDBRANCH  10  21
TORSDOF 3


