REMARK SMILES C=Cc1ccc(-c2ccc([O-])cc2)c2c[nH]nc12
REMARK SMILES IDX 3 1 4 2 5 3 6 4 14 5 15 6 16 7 17 8 18 9 2 11 1 12 7 13 8 14
REMARK SMILES IDX 13 15 9 16 12 17 10 18 11 19
REMARK H PARENT 16 10
ROOT
ATOM      1  C   UNL     1       1.972   1.665  -2.408  1.00  0.00     0.002 A 
ATOM      2  C   UNL     1       2.603   2.152  -1.236  1.00  0.00     0.011 A 
ATOM      3  C   UNL     1       2.041   1.924   0.038  1.00  0.00     0.010 A 
ATOM      4  C   UNL     1       0.842   1.192   0.184  1.00  0.00    -0.007 A 
ATOM      5  C   UNL     1       0.245   0.718  -0.990  1.00  0.00     0.028 A 
ATOM      6  C   UNL     1      -0.924   0.026  -1.226  1.00  0.00     0.114 A 
ATOM      7  N   UNL     1      -1.033  -0.147  -2.561  1.00  0.00    -0.284 N 
ATOM      8  N   UNL     1      -0.000   0.408  -3.184  1.00  0.00    -0.175 NA
ATOM      9  C   UNL     1       0.787   0.942  -2.230  1.00  0.00     0.100 A 
ATOM     10  H   UNL     1      -1.817  -0.633  -3.050  1.00  0.00     0.189 HD
ENDROOT
BRANCH   1  11
ATOM     11  C   UNL     1       2.518   1.870  -3.773  1.00  0.00     0.002 C 
ATOM     12  C   UNL     1       3.456   2.768  -4.077  1.00  0.00     0.009 C 
ENDBRANCH   1  11
BRANCH   4  13
ATOM     13  C   UNL     1       0.263   0.946   1.525  1.00  0.00    -0.018 A 
ATOM     14  C   UNL     1       0.130   2.003   2.443  1.00  0.00     0.008 A 
ATOM     15  C   UNL     1      -0.136  -0.347   1.907  1.00  0.00     0.008 A 
ATOM     16  C   UNL     1      -0.408   1.771   3.713  1.00  0.00    -0.008 A 
ATOM     17  C   UNL     1      -0.673  -0.574   3.178  1.00  0.00    -0.008 A 
ATOM     18  C   UNL     1      -0.811   0.484   4.080  1.00  0.00    -0.109 A 
ATOM     19  O   UNL     1      -1.345   0.256   5.343  1.00  0.00    -0.872 OA
ENDBRANCH   4  13
TORSDOF 2


