MODEL 1
REMARK VINA RESULT:      -9.8      0.000      0.000
REMARK SMILES [NH3+]/C=C(\O)c1ccc(-c2c[nH+]c3ccnn3c2)c2c[n-]nc12
REMARK SMILES IDX 3 1 4 2 2 4 1 5 5 9 6 10 22 11 7 12 21 13 18 14 8 15 20 16
REMARK SMILES IDX 19 17 9 18 17 19 10 20 16 21 11 22 15 23 12 24 14 25 13 26
REMARK H PARENT 4 3 1 6 1 7 1 8 11 27
ROOT
ATOM      1  C   UNL     1      43.172 131.300  22.312  1.00  0.00     0.178 C 
ENDROOT
BRANCH   1   2
ATOM      2  O   UNL     1      42.076 132.149  22.495  1.00  0.00    -0.503 OA
ATOM      3  H   UNL     1      41.444 132.084  23.284  1.00  0.00     0.293 HD
ENDBRANCH   1   2
BRANCH   1   4
ATOM      4  C   UNL     1      43.625 130.525  23.316  1.00  0.00     0.265 C 
BRANCH   4   5
ATOM      5  N   UNL     1      44.656 130.960  24.212  1.00  0.00    -0.328 N 
ATOM      6  H   UNL     1      44.619 130.399  25.094  1.00  0.00     0.350 HD
ATOM      7  H   UNL     1      44.541 131.979  24.415  1.00  0.00     0.350 HD
ATOM      8  H   UNL     1      45.587 130.812  23.759  1.00  0.00     0.350 HD
ENDBRANCH   4   5
ENDBRANCH   1   4
BRANCH   1   9
ATOM      9  C   UNL     1      43.813 131.268  20.972  1.00  0.00     0.046 A 
ATOM     10  C   UNL     1      45.170 130.902  20.794  1.00  0.00     0.015 A 
ATOM     11  C   UNL     1      43.106 131.647  19.823  1.00  0.00     0.059 A 
ATOM     12  C   UNL     1      45.759 130.904  19.512  1.00  0.00     0.010 A 
ATOM     13  N   UNL     1      41.829 132.061  19.740  1.00  0.00    -0.367 NA
ATOM     14  C   UNL     1      43.679 131.642  18.580  1.00  0.00    -0.014 A 
ATOM     15  C   UNL     1      45.012 131.269  18.370  1.00  0.00    -0.003 A 
ATOM     16  N   UNL     1      41.579 132.333  18.462  1.00  0.00    -0.581 NA
ATOM     17  C   UNL     1      42.691 132.092  17.731  1.00  0.00    -0.113 A 
BRANCH  15  18
ATOM     18  C   UNL     1      45.630 131.257  17.025  1.00  0.00     0.063 A 
ATOM     19  C   UNL     1      46.276 130.102  16.543  1.00  0.00     0.245 A 
ATOM     20  C   UNL     1      45.563 132.389  16.176  1.00  0.00     0.210 A 
ATOM     21  N   UNL     1      46.812 130.144  15.300  1.00  0.00    -0.104 N 
ATOM     22  N   UNL     1      46.127 132.361  14.932  1.00  0.00    -0.245 N 
ATOM     23  N   UNL     1      47.459 129.175  14.677  1.00  0.00    -0.086 NA
ATOM     24  C   UNL     1      46.746 131.226  14.522  1.00  0.00     0.306 A 
ATOM     25  C   UNL     1      47.811 129.666  13.463  1.00  0.00     0.167 A 
ATOM     26  C   UNL     1      47.371 130.979  13.324  1.00  0.00     0.125 A 
ATOM     27  H   UNL     1      46.075 133.197  14.310  1.00  0.00     0.312 HD
ENDBRANCH  15  18
ENDBRANCH   1   9
TORSDOF 5
ENDMDL
MODEL 2
REMARK VINA RESULT:      -9.1      1.035      1.068
REMARK SMILES [NH3+]/C=C(\O)c1ccc(-c2c[nH+]c3ccnn3c2)c2c[n-]nc12
REMARK SMILES IDX 3 1 4 2 2 4 1 5 5 9 6 10 22 11 7 12 21 13 18 14 8 15 20 16
REMARK SMILES IDX 19 17 9 18 17 19 10 20 16 21 11 22 15 23 12 24 14 25 13 26
REMARK H PARENT 4 3 1 6 1 7 1 8 11 27
ROOT
ATOM      1  C   UNL     1      43.397 130.824  22.412  1.00  0.00     0.178 C 
ENDROOT
BRANCH   1   2
ATOM      2  O   UNL     1      43.251 129.566  23.004  1.00  0.00    -0.503 OA
ATOM      3  H   UNL     1      43.122 129.427  23.999  1.00  0.00     0.293 HD
ENDBRANCH   1   2
BRANCH   1   4
ATOM      4  C   UNL     1      43.008 131.943  23.052  1.00  0.00     0.265 C 
BRANCH   4   5
ATOM      5  N   UNL     1      41.677 132.463  22.942  1.00  0.00    -0.328 N 
ATOM      6  H   UNL     1      40.984 131.684  23.023  1.00  0.00     0.350 HD
ATOM      7  H   UNL     1      41.568 132.963  22.031  1.00  0.00     0.350 HD
ATOM      8  H   UNL     1      41.510 133.142  23.720  1.00  0.00     0.350 HD
ENDBRANCH   4   5
ENDBRANCH   1   4
BRANCH   1   9
ATOM      9  C   UNL     1      44.010 130.890  21.059  1.00  0.00     0.046 A 
ATOM     10  C   UNL     1      45.356 130.519  20.822  1.00  0.00     0.015 A 
ATOM     11  C   UNL     1      43.285 131.371  19.960  1.00  0.00     0.059 A 
ATOM     12  C   UNL     1      45.918 130.615  19.531  1.00  0.00     0.010 A 
ATOM     13  N   UNL     1      42.013 131.809  19.939  1.00  0.00    -0.367 NA
ATOM     14  C   UNL     1      43.831 131.457  18.708  1.00  0.00    -0.014 A 
ATOM     15  C   UNL     1      45.154 131.082  18.440  1.00  0.00    -0.003 A 
ATOM     16  N   UNL     1      41.742 132.187  18.693  1.00  0.00    -0.581 NA
ATOM     17  C   UNL     1      42.833 131.989  17.920  1.00  0.00    -0.113 A 
BRANCH  15  18
ATOM     18  C   UNL     1      45.743 131.169  17.084  1.00  0.00     0.063 A 
ATOM     19  C   UNL     1      46.365 130.048  16.500  1.00  0.00     0.245 A 
ATOM     20  C   UNL     1      45.671 132.364  16.328  1.00  0.00     0.210 A 
ATOM     21  N   UNL     1      46.875 130.182  15.253  1.00  0.00    -0.104 N 
ATOM     22  N   UNL     1      46.208 132.428  15.073  1.00  0.00    -0.245 N 
ATOM     23  N   UNL     1      47.498 129.258  14.542  1.00  0.00    -0.086 NA
ATOM     24  C   UNL     1      46.805 131.322  14.563  1.00  0.00     0.306 A 
ATOM     25  C   UNL     1      47.830 129.839  13.363  1.00  0.00     0.167 A 
ATOM     26  C   UNL     1      47.402 131.164  13.335  1.00  0.00     0.125 A 
ATOM     27  H   UNL     1      46.153 133.311  14.519  1.00  0.00     0.312 HD
ENDBRANCH  15  18
ENDBRANCH   1   9
TORSDOF 5
ENDMDL
MODEL 3
REMARK VINA RESULT:      -8.8      1.276      1.320
REMARK SMILES [NH3+]/C=C(\O)c1ccc(-c2c[nH+]c3ccnn3c2)c2c[n-]nc12
REMARK SMILES IDX 3 1 4 2 2 4 1 5 5 9 6 10 22 11 7 12 21 13 18 14 8 15 20 16
REMARK SMILES IDX 19 17 9 18 17 19 10 20 16 21 11 22 15 23 12 24 14 25 13 26
REMARK H PARENT 4 3 1 6 1 7 1 8 11 27
ROOT
ATOM      1  C   UNL     1      43.874 131.251  23.197  1.00  0.00     0.178 C 
ENDROOT
BRANCH   1   2
ATOM      2  O   UNL     1      44.745 131.924  24.059  1.00  0.00    -0.503 OA
ATOM      3  H   UNL     1      44.445 132.386  24.909  1.00  0.00     0.293 HD
ENDBRANCH   1   2
BRANCH   1   4
ATOM      4  C   UNL     1      42.747 130.676  23.659  1.00  0.00     0.265 C 
BRANCH   4   5
ATOM      5  N   UNL     1      42.105 129.593  22.973  1.00  0.00    -0.328 N 
ATOM      6  H   UNL     1      41.128 129.480  23.327  1.00  0.00     0.350 HD
ATOM      7  H   UNL     1      42.653 128.714  23.110  1.00  0.00     0.350 HD
ATOM      8  H   UNL     1      42.069 129.810  21.951  1.00  0.00     0.350 HD
ENDBRANCH   4   5
ENDBRANCH   1   4
BRANCH   1   9
ATOM      9  C   UNL     1      44.223 131.200  21.753  1.00  0.00     0.046 A 
ATOM     10  C   UNL     1      45.440 130.642  21.291  1.00  0.00     0.015 A 
ATOM     11  C   UNL     1      43.372 131.749  20.784  1.00  0.00     0.059 A 
ATOM     12  C   UNL     1      45.755 130.629  19.916  1.00  0.00     0.010 A 
ATOM     13  N   UNL     1      42.188 132.356  20.976  1.00  0.00    -0.367 NA
ATOM     14  C   UNL     1      43.679 131.729  19.450  1.00  0.00    -0.014 A 
ATOM     15  C   UNL     1      44.866 131.170  18.962  1.00  0.00    -0.003 A 
ATOM     16  N   UNL     1      41.737 132.738  19.784  1.00  0.00    -0.581 NA
ATOM     17  C   UNL     1      42.627 132.373  18.834  1.00  0.00    -0.113 A 
BRANCH  15  18
ATOM     18  C   UNL     1      45.194 131.142  17.518  1.00  0.00     0.063 A 
ATOM     19  C   UNL     1      46.234 130.325  17.035  1.00  0.00     0.245 A 
ATOM     20  C   UNL     1      44.456 131.908  16.583  1.00  0.00     0.210 A 
ATOM     21  N   UNL     1      46.482 130.330  15.703  1.00  0.00    -0.104 N 
ATOM     22  N   UNL     1      44.761 131.865  15.253  1.00  0.00    -0.245 N 
ATOM     23  N   UNL     1      47.410 129.643  15.062  1.00  0.00    -0.086 NA
ATOM     24  C   UNL     1      45.779 131.069  14.842  1.00  0.00     0.306 A 
ATOM     25  C   UNL     1      47.286 129.962  13.750  1.00  0.00     0.167 A 
ATOM     26  C   UNL     1      46.250 130.873  13.566  1.00  0.00     0.125 A 
ATOM     27  H   UNL     1      44.214 132.431  14.567  1.00  0.00     0.312 HD
ENDBRANCH  15  18
ENDBRANCH   1   9
TORSDOF 5
ENDMDL
MODEL 4
REMARK VINA RESULT:      -8.6      0.969      1.027
REMARK SMILES [NH3+]/C=C(\O)c1ccc(-c2c[nH+]c3ccnn3c2)c2c[n-]nc12
REMARK SMILES IDX 3 1 4 2 2 4 1 5 5 9 6 10 22 11 7 12 21 13 18 14 8 15 20 16
REMARK SMILES IDX 19 17 9 18 17 19 10 20 16 21 11 22 15 23 12 24 14 25 13 26
REMARK H PARENT 4 3 1 6 1 7 1 8 11 27
ROOT
ATOM      1  C   UNL     1      43.586 130.707  23.036  1.00  0.00     0.178 C 
ENDROOT
BRANCH   1   2
ATOM      2  O   UNL     1      42.712 129.661  23.351  1.00  0.00    -0.503 OA
ATOM      3  H   UNL     1      42.874 128.697  23.086  1.00  0.00     0.293 HD
ENDBRANCH   1   2
BRANCH   1   4
ATOM      4  C   UNL     1      43.963 131.602  23.969  1.00  0.00     0.265 C 
BRANCH   4   5
ATOM      5  N   UNL     1      45.072 132.488  23.774  1.00  0.00    -0.328 N 
ATOM      6  H   UNL     1      44.728 133.469  23.665  1.00  0.00     0.350 HD
ATOM      7  H   UNL     1      45.618 132.191  22.933  1.00  0.00     0.350 HD
ATOM      8  H   UNL     1      45.696 132.442  24.612  1.00  0.00     0.350 HD
ENDBRANCH   4   5
ENDBRANCH   1   4
BRANCH   1   9
ATOM      9  C   UNL     1      44.098 130.791  21.643  1.00  0.00     0.046 A 
ATOM     10  C   UNL     1      45.327 130.204  21.255  1.00  0.00     0.015 A 
ATOM     11  C   UNL     1      43.399 131.501  20.658  1.00  0.00     0.059 A 
ATOM     12  C   UNL     1      45.800 130.321  19.931  1.00  0.00     0.010 A 
ATOM     13  N   UNL     1      42.236 132.165  20.788  1.00  0.00    -0.367 NA
ATOM     14  C   UNL     1      43.858 131.607  19.372  1.00  0.00    -0.014 A 
ATOM     15  C   UNL     1      45.061 131.024  18.955  1.00  0.00    -0.003 A 
ATOM     16  N   UNL     1      41.951 132.706  19.607  1.00  0.00    -0.581 NA
ATOM     17  C   UNL     1      42.924 132.388  18.725  1.00  0.00    -0.113 A 
BRANCH  15  18
ATOM     18  C   UNL     1      45.553 131.133  17.563  1.00  0.00     0.063 A 
ATOM     19  C   UNL     1      46.203 130.046  16.945  1.00  0.00     0.245 A 
ATOM     20  C   UNL     1      45.359 132.315  16.806  1.00  0.00     0.210 A 
ATOM     21  N   UNL     1      46.621 130.198  15.666  1.00  0.00    -0.104 N 
ATOM     22  N   UNL     1      45.809 132.398  15.519  1.00  0.00    -0.245 N 
ATOM     23  N   UNL     1      47.250 129.307  14.921  1.00  0.00    -0.086 NA
ATOM     24  C   UNL     1      46.437 131.326  14.976  1.00  0.00     0.306 A 
ATOM     25  C   UNL     1      47.468 129.895  13.720  1.00  0.00     0.167 A 
ATOM     26  C   UNL     1      46.960 131.191  13.713  1.00  0.00     0.125 A 
ATOM     27  H   UNL     1      45.664 133.271  14.965  1.00  0.00     0.312 HD
ENDBRANCH  15  18
ENDBRANCH   1   9
TORSDOF 5
ENDMDL
MODEL 5
REMARK VINA RESULT:      -8.6      0.778      1.406
REMARK SMILES [NH3+]/C=C(\O)c1ccc(-c2c[nH+]c3ccnn3c2)c2c[n-]nc12
REMARK SMILES IDX 3 1 4 2 2 4 1 5 5 9 6 10 22 11 7 12 21 13 18 14 8 15 20 16
REMARK SMILES IDX 19 17 9 18 17 19 10 20 16 21 11 22 15 23 12 24 14 25 13 26
REMARK H PARENT 4 3 1 6 1 7 1 8 11 27
ROOT
ATOM      1  C   UNL     1      43.329 131.858  22.409  1.00  0.00     0.178 C 
ENDROOT
BRANCH   1   2
ATOM      2  O   UNL     1      42.014 132.331  22.445  1.00  0.00    -0.503 OA
ATOM      3  H   UNL     1      41.760 133.292  22.251  1.00  0.00     0.293 HD
ENDBRANCH   1   2
BRANCH   1   4
ATOM      4  C   UNL     1      44.044 131.706  23.541  1.00  0.00     0.265 C 
BRANCH   4   5
ATOM      5  N   UNL     1      43.974 130.515  24.335  1.00  0.00    -0.328 N 
ATOM      6  H   UNL     1      44.222 129.685  23.752  1.00  0.00     0.350 HD
ATOM      7  H   UNL     1      43.014 130.414  24.736  1.00  0.00     0.350 HD
ATOM      8  H   UNL     1      44.659 130.590  25.122  1.00  0.00     0.350 HD
ENDBRANCH   4   5
ENDBRANCH   1   4
BRANCH   1   9
ATOM      9  C   UNL     1      43.910 131.512  21.085  1.00  0.00     0.046 A 
ATOM     10  C   UNL     1      45.182 130.902  20.956  1.00  0.00     0.015 A 
ATOM     11  C   UNL     1      43.234 131.821  19.897  1.00  0.00     0.059 A 
ATOM     12  C   UNL     1      45.719 130.607  19.685  1.00  0.00     0.010 A 
ATOM     13  N   UNL     1      42.040 132.423  19.760  1.00  0.00    -0.367 NA
ATOM     14  C   UNL     1      43.756 131.527  18.665  1.00  0.00    -0.014 A 
ATOM     15  C   UNL     1      45.003 130.910  18.507  1.00  0.00    -0.003 A 
ATOM     16  N   UNL     1      41.794 132.531  18.457  1.00  0.00    -0.581 NA
ATOM     17  C   UNL     1      42.825 131.999  17.764  1.00  0.00    -0.113 A 
BRANCH  15  18
ATOM     18  C   UNL     1      45.563 130.587  17.175  1.00  0.00     0.063 A 
ATOM     19  C   UNL     1      46.086 131.601  16.350  1.00  0.00     0.245 A 
ATOM     20  C   UNL     1      45.617 129.250  16.707  1.00  0.00     0.210 A 
ATOM     21  N   UNL     1      46.597 131.245  15.148  1.00  0.00    -0.104 N 
ATOM     22  N   UNL     1      46.146 128.963  15.481  1.00  0.00    -0.245 N 
ATOM     23  N   UNL     1      47.123 132.044  14.236  1.00  0.00    -0.086 NA
ATOM     24  C   UNL     1      46.627 129.980  14.723  1.00  0.00     0.306 A 
ATOM     25  C   UNL     1      47.499 131.252  13.202  1.00  0.00     0.167 A 
ATOM     26  C   UNL     1      47.199 129.920  13.475  1.00  0.00     0.125 A 
ATOM     27  H   UNL     1      46.184 127.977  15.140  1.00  0.00     0.312 HD
ENDBRANCH  15  18
ENDBRANCH   1   9
TORSDOF 5
ENDMDL
MODEL 6
REMARK VINA RESULT:      -8.2      1.724      2.605
REMARK SMILES [NH3+]/C=C(\O)c1ccc(-c2c[nH+]c3ccnn3c2)c2c[n-]nc12
REMARK SMILES IDX 3 1 4 2 2 4 1 5 5 9 6 10 22 11 7 12 21 13 18 14 8 15 20 16
REMARK SMILES IDX 19 17 9 18 17 19 10 20 16 21 11 22 15 23 12 24 14 25 13 26
REMARK H PARENT 4 3 1 6 1 7 1 8 11 27
ROOT
ATOM      1  C   UNL     1      42.122 132.471  21.259  1.00  0.00     0.178 C 
ENDROOT
BRANCH   1   2
ATOM      2  O   UNL     1      40.967 133.230  21.045  1.00  0.00    -0.503 OA
ATOM      3  H   UNL     1      40.749 134.074  21.560  1.00  0.00     0.293 HD
ENDBRANCH   1   2
BRANCH   1   4
ATOM      4  C   UNL     1      42.503 132.122  22.503  1.00  0.00     0.265 C 
BRANCH   4   5
ATOM      5  N   UNL     1      42.160 130.856  23.080  1.00  0.00    -0.328 N 
ATOM      6  H   UNL     1      42.248 130.906  24.121  1.00  0.00     0.350 HD
ATOM      7  H   UNL     1      42.780 130.110  22.691  1.00  0.00     0.350 HD
ATOM      8  H   UNL     1      41.168 130.628  22.838  1.00  0.00     0.350 HD
ENDBRANCH   4   5
ENDBRANCH   1   4
BRANCH   1   9
ATOM      9  C   UNL     1      42.908 132.048  20.070  1.00  0.00     0.046 A 
ATOM     10  C   UNL     1      42.395 132.145  18.754  1.00  0.00     0.015 A 
ATOM     11  C   UNL     1      44.186 131.490  20.210  1.00  0.00     0.059 A 
ATOM     12  C   UNL     1      43.155 131.714  17.646  1.00  0.00     0.010 A 
ATOM     13  N   UNL     1      44.868 131.267  21.347  1.00  0.00    -0.367 NA
ATOM     14  C   UNL     1      44.923 131.078  19.133  1.00  0.00    -0.014 A 
ATOM     15  C   UNL     1      44.449 131.176  17.819  1.00  0.00    -0.003 A 
ATOM     16  N   UNL     1      46.027 130.706  21.014  1.00  0.00    -0.581 NA
ATOM     17  C   UNL     1      46.087 130.574  19.671  1.00  0.00    -0.113 A 
BRANCH  15  18
ATOM     18  C   UNL     1      45.249 130.737  16.652  1.00  0.00     0.063 A 
ATOM     19  C   UNL     1      45.917 131.679  15.846  1.00  0.00     0.245 A 
ATOM     20  C   UNL     1      45.391 129.364  16.335  1.00  0.00     0.210 A 
ATOM     21  N   UNL     1      46.644 131.220  14.800  1.00  0.00    -0.104 N 
ATOM     22  N   UNL     1      46.142 128.972  15.263  1.00  0.00    -0.245 N 
ATOM     23  N   UNL     1      47.331 131.938  13.929  1.00  0.00    -0.086 NA
ATOM     24  C   UNL     1      46.755 129.921  14.513  1.00  0.00     0.306 A 
ATOM     25  C   UNL     1      47.895 131.059  13.065  1.00  0.00     0.167 A 
ATOM     26  C   UNL     1      47.550 129.753  13.405  1.00  0.00     0.125 A 
ATOM     27  H   UNL     1      46.244 127.959  15.032  1.00  0.00     0.312 HD
ENDBRANCH  15  18
ENDBRANCH   1   9
TORSDOF 5
ENDMDL
MODEL 7
REMARK VINA RESULT:      -7.7      1.290      1.755
REMARK SMILES [NH3+]/C=C(\O)c1ccc(-c2c[nH+]c3ccnn3c2)c2c[n-]nc12
REMARK SMILES IDX 3 1 4 2 2 4 1 5 5 9 6 10 22 11 7 12 21 13 18 14 8 15 20 16
REMARK SMILES IDX 19 17 9 18 17 19 10 20 16 21 11 22 15 23 12 24 14 25 13 26
REMARK H PARENT 4 3 1 6 1 7 1 8 11 27
ROOT
ATOM      1  C   UNL     1      43.912 131.582  22.882  1.00  0.00     0.178 C 
ENDROOT
BRANCH   1   2
ATOM      2  O   UNL     1      44.717 132.409  23.672  1.00  0.00    -0.503 OA
ATOM      3  H   UNL     1      44.697 133.420  23.624  1.00  0.00     0.293 HD
ENDBRANCH   1   2
BRANCH   1   4
ATOM      4  C   UNL     1      42.758 131.077  23.358  1.00  0.00     0.265 C 
BRANCH   4   5
ATOM      5  N   UNL     1      41.605 131.896  23.596  1.00  0.00    -0.328 N 
ATOM      6  H   UNL     1      40.757 131.439  23.191  1.00  0.00     0.350 HD
ATOM      7  H   UNL     1      41.753 132.843  23.179  1.00  0.00     0.350 HD
ATOM      8  H   UNL     1      41.470 132.001  24.628  1.00  0.00     0.350 HD
ENDBRANCH   4   5
ENDBRANCH   1   4
BRANCH   1   9
ATOM      9  C   UNL     1      44.361 131.289  21.496  1.00  0.00     0.046 A 
ATOM     10  C   UNL     1      45.596 130.651  21.223  1.00  0.00     0.015 A 
ATOM     11  C   UNL     1      43.594 131.678  20.390  1.00  0.00     0.059 A 
ATOM     12  C   UNL     1      46.008 130.406  19.896  1.00  0.00     0.010 A 
ATOM     13  N   UNL     1      42.412 132.320  20.391  1.00  0.00    -0.367 NA
ATOM     14  C   UNL     1      43.994 131.433  19.104  1.00  0.00    -0.014 A 
ATOM     15  C   UNL     1      45.201 130.790  18.803  1.00  0.00    -0.003 A 
ATOM     16  N   UNL     1      42.056 132.502  19.122  1.00  0.00    -0.581 NA
ATOM     17  C   UNL     1      43.003 131.977  18.314  1.00  0.00    -0.113 A 
BRANCH  15  18
ATOM     18  C   UNL     1      45.630 130.519  17.412  1.00  0.00     0.063 A 
ATOM     19  C   UNL     1      46.078 131.566  16.583  1.00  0.00     0.245 A 
ATOM     20  C   UNL     1      45.632 129.203  16.888  1.00  0.00     0.210 A 
ATOM     21  N   UNL     1      46.470 131.258  15.324  1.00  0.00    -0.104 N 
ATOM     22  N   UNL     1      46.041 128.965  15.607  1.00  0.00    -0.245 N 
ATOM     23  N   UNL     1      46.911 132.092  14.399  1.00  0.00    -0.086 NA
ATOM     24  C   UNL     1      46.453 130.011  14.848  1.00  0.00     0.306 A 
ATOM     25  C   UNL     1      47.183 131.342  13.303  1.00  0.00     0.167 A 
ATOM     26  C   UNL     1      46.903 130.000  13.550  1.00  0.00     0.125 A 
ATOM     27  H   UNL     1      46.041 127.993  15.224  1.00  0.00     0.312 HD
ENDBRANCH  15  18
ENDBRANCH   1   9
TORSDOF 5
ENDMDL
MODEL 8
REMARK VINA RESULT:      -7.4      1.560      2.197
REMARK SMILES [NH3+]/C=C(\O)c1ccc(-c2c[nH+]c3ccnn3c2)c2c[n-]nc12
REMARK SMILES IDX 3 1 4 2 2 4 1 5 5 9 6 10 22 11 7 12 21 13 18 14 8 15 20 16
REMARK SMILES IDX 19 17 9 18 17 19 10 20 16 21 11 22 15 23 12 24 14 25 13 26
REMARK H PARENT 4 3 1 6 1 7 1 8 11 27
ROOT
ATOM      1  C   UNL     1      42.250 132.012  21.472  1.00  0.00     0.178 C 
ENDROOT
BRANCH   1   2
ATOM      2  O   UNL     1      41.221 132.959  21.476  1.00  0.00    -0.503 OA
ATOM      3  H   UNL     1      40.881 133.411  22.316  1.00  0.00     0.293 HD
ENDBRANCH   1   2
BRANCH   1   4
ATOM      4  C   UNL     1      42.499 131.251  22.555  1.00  0.00     0.265 C 
BRANCH   4   5
ATOM      5  N   UNL     1      42.504 131.791  23.883  1.00  0.00    -0.328 N 
ATOM      6  H   UNL     1      41.713 131.386  24.433  1.00  0.00     0.350 HD
ATOM      7  H   UNL     1      42.432 132.832  23.841  1.00  0.00     0.350 HD
ATOM      8  H   UNL     1      43.404 131.535  24.351  1.00  0.00     0.350 HD
ENDBRANCH   4   5
ENDBRANCH   1   4
BRANCH   1   9
ATOM      9  C   UNL     1      43.053 131.861  20.230  1.00  0.00     0.046 A 
ATOM     10  C   UNL     1      42.471 131.945  18.942  1.00  0.00     0.015 A 
ATOM     11  C   UNL     1      44.425 131.580  20.286  1.00  0.00     0.059 A 
ATOM     12  C   UNL     1      43.253 131.774  17.780  1.00  0.00     0.010 A 
ATOM     13  N   UNL     1      45.191 131.423  21.380  1.00  0.00    -0.367 NA
ATOM     14  C   UNL     1      45.182 131.421  19.157  1.00  0.00    -0.014 A 
ATOM     15  C   UNL     1      44.638 131.514  17.870  1.00  0.00    -0.003 A 
ATOM     16  N   UNL     1      46.426 131.152  20.968  1.00  0.00    -0.581 NA
ATOM     17  C   UNL     1      46.451 131.138  19.616  1.00  0.00    -0.113 A 
BRANCH  15  18
ATOM     18  C   UNL     1      45.459 131.349  16.648  1.00  0.00     0.063 A 
ATOM     19  C   UNL     1      45.991 130.090  16.306  1.00  0.00     0.245 A 
ATOM     20  C   UNL     1      45.705 132.438  15.777  1.00  0.00     0.210 A 
ATOM     21  N   UNL     1      46.723 129.996  15.171  1.00  0.00    -0.104 N 
ATOM     22  N   UNL     1      46.455 132.270  14.647  1.00  0.00    -0.245 N 
ATOM     23  N   UNL     1      47.308 128.915  14.687  1.00  0.00    -0.086 NA
ATOM     24  C   UNL     1      46.952 131.039  14.371  1.00  0.00     0.306 A 
ATOM     25  C   UNL     1      47.925 129.292  13.540  1.00  0.00     0.167 A 
ATOM     26  C   UNL     1      47.720 130.648  13.301  1.00  0.00     0.125 A 
ATOM     27  H   UNL     1      46.634 133.076  14.008  1.00  0.00     0.312 HD
ENDBRANCH  15  18
ENDBRANCH   1   9
TORSDOF 5
ENDMDL
MODEL 9
REMARK VINA RESULT:      -7.4      1.387      1.957
REMARK SMILES [NH3+]/C=C(\O)c1ccc(-c2c[nH+]c3ccnn3c2)c2c[n-]nc12
REMARK SMILES IDX 3 1 4 2 2 4 1 5 5 9 6 10 22 11 7 12 21 13 18 14 8 15 20 16
REMARK SMILES IDX 19 17 9 18 17 19 10 20 16 21 11 22 15 23 12 24 14 25 13 26
REMARK H PARENT 4 3 1 6 1 7 1 8 11 27
ROOT
ATOM      1  C   UNL     1      43.371 131.733  23.399  1.00  0.00     0.178 C 
ENDROOT
BRANCH   1   2
ATOM      2  O   UNL     1      44.173 132.483  24.265  1.00  0.00    -0.503 OA
ATOM      3  H   UNL     1      44.496 132.143  25.162  1.00  0.00     0.293 HD
ENDBRANCH   1   2
BRANCH   1   4
ATOM      4  C   UNL     1      42.166 131.276  23.789  1.00  0.00     0.265 C 
BRANCH   4   5
ATOM      5  N   UNL     1      41.888 129.877  23.932  1.00  0.00    -0.328 N 
ATOM      6  H   UNL     1      41.462 129.509  23.052  1.00  0.00     0.350 HD
ATOM      7  H   UNL     1      41.250 129.724  24.746  1.00  0.00     0.350 HD
ATOM      8  H   UNL     1      42.785 129.368  24.109  1.00  0.00     0.350 HD
ENDBRANCH   4   5
ENDBRANCH   1   4
BRANCH   1   9
ATOM      9  C   UNL     1      43.883 131.467  22.029  1.00  0.00     0.046 A 
ATOM     10  C   UNL     1      45.125 130.826  21.800  1.00  0.00     0.015 A 
ATOM     11  C   UNL     1      43.171 131.886  20.897  1.00  0.00     0.059 A 
ATOM     12  C   UNL     1      45.598 130.608  20.488  1.00  0.00     0.010 A 
ATOM     13  N   UNL     1      41.995 132.537  20.857  1.00  0.00    -0.367 NA
ATOM     14  C   UNL     1      43.630 131.668  19.626  1.00  0.00    -0.014 A 
ATOM     15  C   UNL     1      44.845 131.022  19.368  1.00  0.00    -0.003 A 
ATOM     16  N   UNL     1      41.700 132.750  19.578  1.00  0.00    -0.581 NA
ATOM     17  C   UNL     1      42.681 132.236  18.803  1.00  0.00    -0.113 A 
BRANCH  15  18
ATOM     18  C   UNL     1      45.338 130.779  17.992  1.00  0.00     0.063 A 
ATOM     19  C   UNL     1      44.789 131.478  16.900  1.00  0.00     0.245 A 
ATOM     20  C   UNL     1      46.391 129.865  17.741  1.00  0.00     0.210 A 
ATOM     21  N   UNL     1      45.287 131.225  15.667  1.00  0.00    -0.104 N 
ATOM     22  N   UNL     1      46.844 129.658  16.469  1.00  0.00    -0.245 N 
ATOM     23  N   UNL     1      44.904 131.767  14.525  1.00  0.00    -0.086 NA
ATOM     24  C   UNL     1      46.272 130.350  15.452  1.00  0.00     0.306 A 
ATOM     25  C   UNL     1      45.678 131.215  13.558  1.00  0.00     0.167 A 
ATOM     26  C   UNL     1      46.570 130.301  14.112  1.00  0.00     0.125 A 
ATOM     27  H   UNL     1      47.619 128.983  16.288  1.00  0.00     0.312 HD
ENDBRANCH  15  18
ENDBRANCH   1   9
TORSDOF 5
ENDMDL


