MODEL 1
REMARK VINA RESULT:      -9.0      0.000      0.000
REMARK SMILES Cc1ccc(-c2cc(N)c([NH2+]c3ccc(C)nc3F)cc2F)cc1
REMARK SMILES IDX 6 1 7 2 8 3 10 4 20 5 21 6 22 7 5 8 2 9 3 10 24 11 4 12
REMARK SMILES IDX 23 13 1 14 9 15 11 18 12 21 13 22 18 23 14 24 17 25 15 26
REMARK SMILES IDX 19 27 16 28
REMARK H PARENT 9 16 9 17 11 19 11 20
ROOT
ATOM      1  C   UNL     1      45.048 131.193  18.619  1.00  0.00     0.020 A 
ATOM      2  C   UNL     1      43.796 131.784  18.856  1.00  0.00     0.043 A 
ATOM      3  C   UNL     1      43.264 131.862  20.151  1.00  0.00     0.095 A 
ATOM      4  C   UNL     1      44.003 131.342  21.246  1.00  0.00     0.160 A 
ATOM      5  C   UNL     1      45.259 130.756  20.998  1.00  0.00     0.110 A 
ATOM      6  C   UNL     1      45.777 130.682  19.704  1.00  0.00     0.137 A 
ATOM      7  F   UNL     1      47.010 130.144  19.521  1.00  0.00    -0.206 F 
ENDROOT
BRANCH   1   8
ATOM      8  C   UNL     1      45.583 131.121  17.237  1.00  0.00    -0.015 A 
ATOM      9  C   UNL     1      46.595 130.987  14.610  1.00  0.00    -0.051 A 
ATOM     10  C   UNL     1      46.070 132.189  15.105  1.00  0.00     0.004 A 
ATOM     11  C   UNL     1      46.586 129.845  15.424  1.00  0.00     0.004 A 
ATOM     12  C   UNL     1      45.572 132.257  16.410  1.00  0.00     0.009 A 
ATOM     13  C   UNL     1      46.089 129.912  16.728  1.00  0.00     0.009 A 
ATOM     14  C   UNL     1      47.092 130.905  13.198  1.00  0.00     0.044 C 
ENDBRANCH   1   8
BRANCH   3  15
ATOM     15  N   UNL     1      41.976 132.469  20.327  1.00  0.00    -0.394 N 
ATOM     16  H   UNL     1      41.775 133.410  19.921  1.00  0.00     0.156 HD
ATOM     17  H   UNL     1      41.199 132.000  20.839  1.00  0.00     0.156 HD
ENDBRANCH   3  15
BRANCH   4  18
ATOM     18  N   UNL     1      43.515 131.421  22.607  1.00  0.00    -0.276 N 
ATOM     19  H   UNL     1      44.213 131.934  23.191  1.00  0.00     0.358 HD
ATOM     20  H   UNL     1      42.634 131.985  22.650  1.00  0.00     0.358 HD
BRANCH  18  21
ATOM     21  C   UNL     1      43.224 130.107  23.139  1.00  0.00     0.190 A 
ATOM     22  C   UNL     1      44.039 129.005  22.818  1.00  0.00     0.075 A 
ATOM     23  C   UNL     1      42.069 129.873  23.911  1.00  0.00     0.274 A 
ATOM     24  C   UNL     1      43.736 127.736  23.308  1.00  0.00     0.030 A 
ATOM     25  N   UNL     1      41.795 128.623  24.373  1.00  0.00    -0.220 NA
ATOM     26  C   UNL     1      42.602 127.561  24.108  1.00  0.00     0.041 A 
ATOM     27  F   UNL     1      41.204 130.879  24.193  1.00  0.00    -0.178 F 
ATOM     28  C   UNL     1      42.241 126.205  24.625  1.00  0.00     0.067 C 
ENDBRANCH  18  21
ENDBRANCH   4  18
TORSDOF 4
ENDMDL
MODEL 2
REMARK VINA RESULT:      -7.6      1.514      1.996
REMARK SMILES Cc1ccc(-c2cc(N)c([NH2+]c3ccc(C)nc3F)cc2F)cc1
REMARK SMILES IDX 6 1 7 2 8 3 10 4 20 5 21 6 22 7 5 8 2 9 3 10 24 11 4 12
REMARK SMILES IDX 23 13 1 14 9 15 11 18 12 21 13 22 18 23 14 24 17 25 15 26
REMARK SMILES IDX 19 27 16 28
REMARK H PARENT 9 16 9 17 11 19 11 20
ROOT
ATOM      1  C   UNL     1      45.274 131.278  17.603  1.00  0.00     0.020 A 
ATOM      2  C   UNL     1      45.993 131.386  18.804  1.00  0.00     0.043 A 
ATOM      3  C   UNL     1      45.336 131.593  20.026  1.00  0.00     0.095 A 
ATOM      4  C   UNL     1      43.920 131.689  20.054  1.00  0.00     0.160 A 
ATOM      5  C   UNL     1      43.209 131.574  18.845  1.00  0.00     0.110 A 
ATOM      6  C   UNL     1      43.874 131.371  17.634  1.00  0.00     0.137 A 
ATOM      7  F   UNL     1      43.141 131.227  16.501  1.00  0.00    -0.206 F 
ENDROOT
BRANCH   1   8
ATOM      8  C   UNL     1      45.996 131.064  16.324  1.00  0.00    -0.015 A 
ATOM      9  C   UNL     1      47.363 130.662  13.892  1.00  0.00    -0.051 A 
ATOM     10  C   UNL     1      46.934 131.946  14.259  1.00  0.00     0.004 A 
ATOM     11  C   UNL     1      47.081 129.576  14.734  1.00  0.00     0.004 A 
ATOM     12  C   UNL     1      46.259 132.146  15.467  1.00  0.00     0.009 A 
ATOM     13  C   UNL     1      46.408 129.775  15.942  1.00  0.00     0.009 A 
ATOM     14  C   UNL     1      48.050 130.442  12.578  1.00  0.00     0.044 C 
ENDBRANCH   1   8
BRANCH   3  15
ATOM     15  N   UNL     1      46.127 131.704  21.218  1.00  0.00    -0.394 N 
ATOM     16  H   UNL     1      46.745 132.533  21.366  1.00  0.00     0.156 HD
ATOM     17  H   UNL     1      46.105 130.991  21.976  1.00  0.00     0.156 HD
ENDBRANCH   3  15
BRANCH   4  18
ATOM     18  N   UNL     1      43.190 131.873  21.291  1.00  0.00    -0.276 N 
ATOM     19  H   UNL     1      43.539 132.734  21.769  1.00  0.00     0.358 HD
ATOM     20  H   UNL     1      42.175 132.044  21.097  1.00  0.00     0.358 HD
BRANCH  18  21
ATOM     21  C   UNL     1      43.287 130.705  22.139  1.00  0.00     0.190 A 
ATOM     22  C   UNL     1      44.049 129.590  21.743  1.00  0.00     0.075 A 
ATOM     23  C   UNL     1      42.549 130.611  23.336  1.00  0.00     0.274 A 
ATOM     24  C   UNL     1      44.114 128.456  22.550  1.00  0.00     0.030 A 
ATOM     25  N   UNL     1      42.627 129.490  24.103  1.00  0.00    -0.220 NA
ATOM     26  C   UNL     1      43.398 128.426  23.752  1.00  0.00     0.041 A 
ATOM     27  F   UNL     1      41.738 131.621  23.735  1.00  0.00    -0.178 F 
ATOM     28  C   UNL     1      43.431 127.210  24.622  1.00  0.00     0.067 C 
ENDBRANCH  18  21
ENDBRANCH   4  18
TORSDOF 4
ENDMDL
MODEL 3
REMARK VINA RESULT:      -7.2      1.009      1.196
REMARK SMILES Cc1ccc(-c2cc(N)c([NH2+]c3ccc(C)nc3F)cc2F)cc1
REMARK SMILES IDX 6 1 7 2 8 3 10 4 20 5 21 6 22 7 5 8 2 9 3 10 24 11 4 12
REMARK SMILES IDX 23 13 1 14 9 15 11 18 12 21 13 22 18 23 14 24 17 25 15 26
REMARK SMILES IDX 19 27 16 28
REMARK H PARENT 9 16 9 17 11 19 11 20
ROOT
ATOM      1  C   UNL     1      45.108 131.254  17.521  1.00  0.00     0.020 A 
ATOM      2  C   UNL     1      43.841 131.854  17.586  1.00  0.00     0.043 A 
ATOM      3  C   UNL     1      43.154 131.969  18.803  1.00  0.00     0.095 A 
ATOM      4  C   UNL     1      43.750 131.479  19.994  1.00  0.00     0.160 A 
ATOM      5  C   UNL     1      45.023 130.884  19.919  1.00  0.00     0.110 A 
ATOM      6  C   UNL     1      45.696 130.772  18.701  1.00  0.00     0.137 A 
ATOM      7  F   UNL     1      46.939 130.226  18.686  1.00  0.00    -0.206 F 
ENDROOT
BRANCH   1   8
ATOM      8  C   UNL     1      45.808 131.141  16.217  1.00  0.00    -0.015 A 
ATOM      9  C   UNL     1      47.134 130.931  13.739  1.00  0.00    -0.051 A 
ATOM     10  C   UNL     1      46.522 132.136  14.114  1.00  0.00     0.004 A 
ATOM     11  C   UNL     1      47.056 129.823  14.596  1.00  0.00     0.004 A 
ATOM     12  C   UNL     1      45.868 132.242  15.345  1.00  0.00     0.009 A 
ATOM     13  C   UNL     1      46.403 129.928  15.827  1.00  0.00     0.009 A 
ATOM     14  C   UNL     1      47.800 130.806  12.401  1.00  0.00     0.044 C 
ENDBRANCH   1   8
BRANCH   3  15
ATOM     15  N   UNL     1      41.858 132.584  18.803  1.00  0.00    -0.394 N 
ATOM     16  H   UNL     1      41.415 132.886  19.700  1.00  0.00     0.156 HD
ATOM     17  H   UNL     1      41.322 132.766  17.929  1.00  0.00     0.156 HD
ENDBRANCH   3  15
BRANCH   4  18
ATOM     18  N   UNL     1      43.099 131.597  21.282  1.00  0.00    -0.276 N 
ATOM     19  H   UNL     1      43.396 132.491  21.734  1.00  0.00     0.358 HD
ATOM     20  H   UNL     1      42.062 131.665  21.165  1.00  0.00     0.358 HD
BRANCH  18  21
ATOM     21  C   UNL     1      43.376 130.450  22.119  1.00  0.00     0.190 A 
ATOM     22  C   UNL     1      44.373 129.523  21.762  1.00  0.00     0.075 A 
ATOM     23  C   UNL     1      42.595 130.175  23.259  1.00  0.00     0.274 A 
ATOM     24  C   UNL     1      44.613 128.402  22.556  1.00  0.00     0.030 A 
ATOM     25  N   UNL     1      42.848 129.071  24.014  1.00  0.00    -0.220 NA
ATOM     26  C   UNL     1      43.840 128.195  23.703  1.00  0.00     0.041 A 
ATOM     27  F   UNL     1      41.570 130.990  23.615  1.00  0.00    -0.178 F 
ATOM     28  C   UNL     1      44.061 126.987  24.557  1.00  0.00     0.067 C 
ENDBRANCH  18  21
ENDBRANCH   4  18
TORSDOF 4
ENDMDL
MODEL 4
REMARK VINA RESULT:      -6.8      1.221      1.676
REMARK SMILES Cc1ccc(-c2cc(N)c([NH2+]c3ccc(C)nc3F)cc2F)cc1
REMARK SMILES IDX 6 1 7 2 8 3 10 4 20 5 21 6 22 7 5 8 2 9 3 10 24 11 4 12
REMARK SMILES IDX 23 13 1 14 9 15 11 18 12 21 13 22 18 23 14 24 17 25 15 26
REMARK SMILES IDX 19 27 16 28
REMARK H PARENT 9 16 9 17 11 19 11 20
ROOT
ATOM      1  C   UNL     1      44.747 131.202  18.405  1.00  0.00     0.020 A 
ATOM      2  C   UNL     1      43.605 131.950  18.731  1.00  0.00     0.043 A 
ATOM      3  C   UNL     1      43.132 132.015  20.050  1.00  0.00     0.095 A 
ATOM      4  C   UNL     1      43.821 131.318  21.077  1.00  0.00     0.160 A 
ATOM      5  C   UNL     1      44.968 130.576  20.740  1.00  0.00     0.110 A 
ATOM      6  C   UNL     1      45.428 130.517  19.423  1.00  0.00     0.137 A 
ATOM      7  F   UNL     1      46.561 129.820  19.155  1.00  0.00    -0.206 F 
ENDROOT
BRANCH   1   8
ATOM      8  C   UNL     1      45.222 131.149  17.000  1.00  0.00    -0.015 A 
ATOM      9  C   UNL     1      46.130 131.050  14.333  1.00  0.00    -0.051 A 
ATOM     10  C   UNL     1      46.877 130.451  15.358  1.00  0.00     0.004 A 
ATOM     11  C   UNL     1      44.941 131.722  14.651  1.00  0.00     0.004 A 
ATOM     12  C   UNL     1      46.425 130.497  16.680  1.00  0.00     0.009 A 
ATOM     13  C   UNL     1      44.488 131.768  15.972  1.00  0.00     0.009 A 
ATOM     14  C   UNL     1      46.636 131.035  12.922  1.00  0.00     0.044 C 
ENDBRANCH   1   8
BRANCH   3  15
ATOM     15  N   UNL     1      41.954 132.788  20.318  1.00  0.00    -0.394 N 
ATOM     16  H   UNL     1      41.717 133.070  21.295  1.00  0.00     0.156 HD
ATOM     17  H   UNL     1      41.309 133.109  19.565  1.00  0.00     0.156 HD
ENDBRANCH   3  15
BRANCH   4  18
ATOM     18  N   UNL     1      43.393 131.372  22.459  1.00  0.00    -0.276 N 
ATOM     19  H   UNL     1      44.130 131.850  23.026  1.00  0.00     0.358 HD
ATOM     20  H   UNL     1      42.531 131.958  22.555  1.00  0.00     0.358 HD
BRANCH  18  21
ATOM     21  C   UNL     1      43.089 130.053  22.968  1.00  0.00     0.190 A 
ATOM     22  C   UNL     1      41.795 129.739  23.426  1.00  0.00     0.075 A 
ATOM     23  C   UNL     1      44.096 129.077  23.111  1.00  0.00     0.274 A 
ATOM     24  C   UNL     1      41.517 128.476  23.945  1.00  0.00     0.030 A 
ATOM     25  N   UNL     1      43.797 127.853  23.625  1.00  0.00    -0.220 NA
ATOM     26  C   UNL     1      42.539 127.525  24.026  1.00  0.00     0.041 A 
ATOM     27  F   UNL     1      45.378 129.343  22.758  1.00  0.00    -0.178 F 
ATOM     28  C   UNL     1      42.271 126.172  24.602  1.00  0.00     0.067 C 
ENDBRANCH  18  21
ENDBRANCH   4  18
TORSDOF 4
ENDMDL
MODEL 5
REMARK VINA RESULT:      -6.4      1.208      1.752
REMARK SMILES Cc1ccc(-c2cc(N)c([NH2+]c3ccc(C)nc3F)cc2F)cc1
REMARK SMILES IDX 6 1 7 2 8 3 10 4 20 5 21 6 22 7 5 8 2 9 3 10 24 11 4 12
REMARK SMILES IDX 23 13 1 14 9 15 11 18 12 21 13 22 18 23 14 24 17 25 15 26
REMARK SMILES IDX 19 27 16 28
REMARK H PARENT 9 16 9 17 11 19 11 20
ROOT
ATOM      1  C   UNL     1      44.864 131.284  18.487  1.00  0.00     0.020 A 
ATOM      2  C   UNL     1      45.646 130.902  19.588  1.00  0.00     0.043 A 
ATOM      3  C   UNL     1      45.158 131.016  20.899  1.00  0.00     0.095 A 
ATOM      4  C   UNL     1      43.850 131.520  21.118  1.00  0.00     0.160 A 
ATOM      5  C   UNL     1      43.073 131.895  20.007  1.00  0.00     0.110 A 
ATOM      6  C   UNL     1      43.569 131.780  18.707  1.00  0.00     0.137 A 
ATOM      7  F   UNL     1      42.767 132.117  17.666  1.00  0.00    -0.206 F 
ENDROOT
BRANCH   1   8
ATOM      8  C   UNL     1      45.408 131.156  17.112  1.00  0.00    -0.015 A 
ATOM      9  C   UNL     1      46.436 130.915  14.499  1.00  0.00    -0.051 A 
ATOM     10  C   UNL     1      45.545 131.950  14.815  1.00  0.00     0.004 A 
ATOM     11  C   UNL     1      46.790 129.984  15.487  1.00  0.00     0.004 A 
ATOM     12  C   UNL     1      45.038 132.072  16.113  1.00  0.00     0.009 A 
ATOM     13  C   UNL     1      46.284 130.106  16.784  1.00  0.00     0.009 A 
ATOM     14  C   UNL     1      46.947 130.760  13.098  1.00  0.00     0.044 C 
ENDBRANCH   1   8
BRANCH   3  15
ATOM     15  N   UNL     1      46.009 130.619  21.983  1.00  0.00    -0.394 N 
ATOM     16  H   UNL     1      46.593 131.325  22.483  1.00  0.00     0.156 HD
ATOM     17  H   UNL     1      46.065 129.636  22.322  1.00  0.00     0.156 HD
ENDBRANCH   3  15
BRANCH   4  18
ATOM     18  N   UNL     1      43.285 131.633  22.447  1.00  0.00    -0.276 N 
ATOM     19  H   UNL     1      43.931 132.196  23.046  1.00  0.00     0.358 HD
ATOM     20  H   UNL     1      42.383 132.162  22.420  1.00  0.00     0.358 HD
BRANCH  18  21
ATOM     21  C   UNL     1      43.016 130.330  23.017  1.00  0.00     0.190 A 
ATOM     22  C   UNL     1      43.796 129.214  22.660  1.00  0.00     0.075 A 
ATOM     23  C   UNL     1      41.912 130.121  23.867  1.00  0.00     0.274 A 
ATOM     24  C   UNL     1      43.512 127.956  23.188  1.00  0.00     0.030 A 
ATOM     25  N   UNL     1      41.655 128.881  24.364  1.00  0.00    -0.220 NA
ATOM     26  C   UNL     1      42.431 127.806  24.063  1.00  0.00     0.041 A 
ATOM     27  F   UNL     1      41.078 131.141  24.189  1.00  0.00    -0.178 F 
ATOM     28  C   UNL     1      42.090 126.462  24.623  1.00  0.00     0.067 C 
ENDBRANCH  18  21
ENDBRANCH   4  18
TORSDOF 4
ENDMDL
MODEL 6
REMARK VINA RESULT:      -6.3      1.585      2.352
REMARK SMILES Cc1ccc(-c2cc(N)c([NH2+]c3ccc(C)nc3F)cc2F)cc1
REMARK SMILES IDX 6 1 7 2 8 3 10 4 20 5 21 6 22 7 5 8 2 9 3 10 24 11 4 12
REMARK SMILES IDX 23 13 1 14 9 15 11 18 12 21 13 22 18 23 14 24 17 25 15 26
REMARK SMILES IDX 19 27 16 28
REMARK H PARENT 9 16 9 17 11 19 11 20
ROOT
ATOM      1  C   UNL     1      45.250 130.554  19.432  1.00  0.00     0.020 A 
ATOM      2  C   UNL     1      45.647 129.376  20.085  1.00  0.00     0.043 A 
ATOM      3  C   UNL     1      45.397 129.186  21.453  1.00  0.00     0.095 A 
ATOM      4  C   UNL     1      44.727 130.196  22.190  1.00  0.00     0.160 A 
ATOM      5  C   UNL     1      44.329 131.370  21.524  1.00  0.00     0.110 A 
ATOM      6  C   UNL     1      44.584 131.549  20.164  1.00  0.00     0.137 A 
ATOM      7  F   UNL     1      44.145 132.681  19.558  1.00  0.00    -0.206 F 
ENDROOT
BRANCH   1   8
ATOM      8  C   UNL     1      45.531 130.729  17.985  1.00  0.00    -0.015 A 
ATOM      9  C   UNL     1      46.071 131.058  15.239  1.00  0.00    -0.051 A 
ATOM     10  C   UNL     1      46.451 129.880  15.898  1.00  0.00     0.004 A 
ATOM     11  C   UNL     1      45.445 132.082  15.965  1.00  0.00     0.004 A 
ATOM     12  C   UNL     1      46.180 129.715  17.260  1.00  0.00     0.009 A 
ATOM     13  C   UNL     1      45.172 131.917  17.325  1.00  0.00     0.009 A 
ATOM     14  C   UNL     1      46.399 131.252  13.789  1.00  0.00     0.044 C 
ENDBRANCH   1   8
BRANCH   3  15
ATOM     15  N   UNL     1      45.836 127.966  22.065  1.00  0.00    -0.394 N 
ATOM     16  H   UNL     1      46.855 127.742  22.129  1.00  0.00     0.156 HD
ATOM     17  H   UNL     1      45.176 127.275  22.480  1.00  0.00     0.156 HD
ENDBRANCH   3  15
BRANCH   4  18
ATOM     18  N   UNL     1      44.419 130.041  23.597  1.00  0.00    -0.276 N 
ATOM     19  H   UNL     1      45.268 129.694  24.096  1.00  0.00     0.358 HD
ATOM     20  H   UNL     1      44.189 130.966  24.028  1.00  0.00     0.358 HD
BRANCH  18  21
ATOM     21  C   UNL     1      43.281 129.168  23.793  1.00  0.00     0.190 A 
ATOM     22  C   UNL     1      43.408 127.775  23.637  1.00  0.00     0.075 A 
ATOM     23  C   UNL     1      41.998 129.691  24.050  1.00  0.00     0.274 A 
ATOM     24  C   UNL     1      42.301 126.942  23.796  1.00  0.00     0.030 A 
ATOM     25  N   UNL     1      40.934 128.855  24.197  1.00  0.00    -0.220 NA
ATOM     26  C   UNL     1      41.056 127.505  24.095  1.00  0.00     0.041 A 
ATOM     27  F   UNL     1      41.796 131.029  24.138  1.00  0.00    -0.178 F 
ATOM     28  C   UNL     1      39.849 126.635  24.246  1.00  0.00     0.067 C 
ENDBRANCH  18  21
ENDBRANCH   4  18
TORSDOF 4
ENDMDL
MODEL 7
REMARK VINA RESULT:      -6.2      1.390      2.248
REMARK SMILES Cc1ccc(-c2cc(N)c([NH2+]c3ccc(C)nc3F)cc2F)cc1
REMARK SMILES IDX 6 1 7 2 8 3 10 4 20 5 21 6 22 7 5 8 2 9 3 10 24 11 4 12
REMARK SMILES IDX 23 13 1 14 9 15 11 18 12 21 13 22 18 23 14 24 17 25 15 26
REMARK SMILES IDX 19 27 16 28
REMARK H PARENT 9 16 9 17 11 19 11 20
ROOT
ATOM      1  C   UNL     1      45.293 131.126  16.819  1.00  0.00     0.020 A 
ATOM      2  C   UNL     1      44.014 131.696  16.726  1.00  0.00     0.043 A 
ATOM      3  C   UNL     1      43.248 131.952  17.873  1.00  0.00     0.095 A 
ATOM      4  C   UNL     1      43.774 131.636  19.153  1.00  0.00     0.160 A 
ATOM      5  C   UNL     1      45.060 131.069  19.235  1.00  0.00     0.110 A 
ATOM      6  C   UNL     1      45.812 130.817  18.087  1.00  0.00     0.137 A 
ATOM      7  F   UNL     1      47.062 130.306  18.221  1.00  0.00    -0.206 F 
ENDROOT
BRANCH   1   8
ATOM      8  C   UNL     1      46.079 130.863  15.588  1.00  0.00    -0.015 A 
ATOM      9  C   UNL     1      47.575 130.359  13.253  1.00  0.00    -0.051 A 
ATOM     10  C   UNL     1      47.403 129.352  14.214  1.00  0.00     0.004 A 
ATOM     11  C   UNL     1      47.020 131.627  13.478  1.00  0.00     0.004 A 
ATOM     12  C   UNL     1      46.658 129.601  15.371  1.00  0.00     0.009 A 
ATOM     13  C   UNL     1      46.273 131.876  14.633  1.00  0.00     0.009 A 
ATOM     14  C   UNL     1      48.409 130.105  12.033  1.00  0.00     0.044 C 
ENDBRANCH   1   8
BRANCH   3  15
ATOM     15  N   UNL     1      41.944 132.527  17.711  1.00  0.00    -0.394 N 
ATOM     16  H   UNL     1      41.828 133.563  17.637  1.00  0.00     0.156 HD
ATOM     17  H   UNL     1      41.080 131.951  17.644  1.00  0.00     0.156 HD
ENDBRANCH   3  15
BRANCH   4  18
ATOM     18  N   UNL     1      43.039 131.904  20.371  1.00  0.00    -0.276 N 
ATOM     19  H   UNL     1      43.167 132.908  20.633  1.00  0.00     0.358 HD
ATOM     20  H   UNL     1      42.012 131.776  20.217  1.00  0.00     0.358 HD
BRANCH  18  21
ATOM     21  C   UNL     1      43.441 131.011  21.436  1.00  0.00     0.190 A 
ATOM     22  C   UNL     1      44.350 129.964  21.191  1.00  0.00     0.075 A 
ATOM     23  C   UNL     1      42.866 131.101  22.719  1.00  0.00     0.274 A 
ATOM     24  C   UNL     1      44.708 129.087  22.214  1.00  0.00     0.030 A 
ATOM     25  N   UNL     1      43.231 130.230  23.698  1.00  0.00    -0.220 NA
ATOM     26  C   UNL     1      44.144 129.244  23.484  1.00  0.00     0.041 A 
ATOM     27  F   UNL     1      41.930 132.042  22.997  1.00  0.00    -0.178 F 
ATOM     28  C   UNL     1      44.493 128.301  24.590  1.00  0.00     0.067 C 
ENDBRANCH  18  21
ENDBRANCH   4  18
TORSDOF 4
ENDMDL
MODEL 8
REMARK VINA RESULT:      -6.2      1.490      2.033
REMARK SMILES Cc1ccc(-c2cc(N)c([NH2+]c3ccc(C)nc3F)cc2F)cc1
REMARK SMILES IDX 6 1 7 2 8 3 10 4 20 5 21 6 22 7 5 8 2 9 3 10 24 11 4 12
REMARK SMILES IDX 23 13 1 14 9 15 11 18 12 21 13 22 18 23 14 24 17 25 15 26
REMARK SMILES IDX 19 27 16 28
REMARK H PARENT 9 16 9 17 11 19 11 20
ROOT
ATOM      1  C   UNL     1      45.261 130.656  19.165  1.00  0.00     0.020 A 
ATOM      2  C   UNL     1      45.794 129.590  19.906  1.00  0.00     0.043 A 
ATOM      3  C   UNL     1      45.534 129.459  21.279  1.00  0.00     0.095 A 
ATOM      4  C   UNL     1      44.713 130.416  21.931  1.00  0.00     0.160 A 
ATOM      5  C   UNL     1      44.180 131.478  21.177  1.00  0.00     0.110 A 
ATOM      6  C   UNL     1      44.447 131.599  19.812  1.00  0.00     0.137 A 
ATOM      7  F   UNL     1      43.878 132.618  19.120  1.00  0.00    -0.206 F 
ENDROOT
BRANCH   1   8
ATOM      8  C   UNL     1      45.557 130.770  17.715  1.00  0.00    -0.015 A 
ATOM      9  C   UNL     1      46.113 130.992  14.961  1.00  0.00    -0.051 A 
ATOM     10  C   UNL     1      45.665 132.107  15.684  1.00  0.00     0.004 A 
ATOM     11  C   UNL     1      46.255 129.759  15.615  1.00  0.00     0.004 A 
ATOM     12  C   UNL     1      45.393 131.998  17.051  1.00  0.00     0.009 A 
ATOM     13  C   UNL     1      45.984 129.650  16.981  1.00  0.00     0.009 A 
ATOM     14  C   UNL     1      46.365 131.099  13.487  1.00  0.00     0.044 C 
ENDBRANCH   1   8
BRANCH   3  15
ATOM     15  N   UNL     1      46.115 128.354  21.984  1.00  0.00    -0.394 N 
ATOM     16  H   UNL     1      46.531 128.491  22.933  1.00  0.00     0.156 HD
ATOM     17  H   UNL     1      46.132 127.387  21.598  1.00  0.00     0.156 HD
ENDBRANCH   3  15
BRANCH   4  18
ATOM     18  N   UNL     1      44.390 130.315  23.339  1.00  0.00    -0.276 N 
ATOM     19  H   UNL     1      45.256 130.080  23.873  1.00  0.00     0.358 HD
ATOM     20  H   UNL     1      44.065 131.238  23.709  1.00  0.00     0.358 HD
BRANCH  18  21
ATOM     21  C   UNL     1      43.334 129.351  23.569  1.00  0.00     0.190 A 
ATOM     22  C   UNL     1      43.583 127.971  23.448  1.00  0.00     0.075 A 
ATOM     23  C   UNL     1      42.012 129.766  23.823  1.00  0.00     0.274 A 
ATOM     24  C   UNL     1      42.554 127.049  23.639  1.00  0.00     0.030 A 
ATOM     25  N   UNL     1      41.027 128.845  24.002  1.00  0.00    -0.220 NA
ATOM     26  C   UNL     1      41.267 127.508  23.934  1.00  0.00     0.041 A 
ATOM     27  F   UNL     1      41.694 131.083  23.878  1.00  0.00    -0.178 F 
ATOM     28  C   UNL     1      40.142 126.540  24.118  1.00  0.00     0.067 C 
ENDBRANCH  18  21
ENDBRANCH   4  18
TORSDOF 4
ENDMDL


