REMARK SMILES Fc1cccc(F)c1C/C=C(\O/C(S)=N/Cc1cc(Cl)cc(Cl)c1)c1ccccc1
REMARK SMILES IDX 12 1 13 2 14 3 15 5 16 6 17 7 18 8 24 9 19 10 22 11 21 12
REMARK SMILES IDX 20 13 23 14 11 15 10 16 9 17 8 18 2 19 6 20 3 21 5 22 4 23
REMARK SMILES IDX 1 24 7 25 25 26 26 27 30 28 27 29 29 30 28 31
REMARK H PARENT 14 4
ROOT
ATOM      1  O   UNL     1      -1.808   0.620   1.351  1.00  0.00    -0.434 OA
ENDROOT
BRANCH   1   2
ATOM      2  C   UNL     1      -0.841   0.679   2.364  1.00  0.00     0.248 C 
BRANCH   2   3
ATOM      3  S   UNL     1      -1.395   0.978   4.045  1.00  0.00    -0.085 SA
ATOM      4  H   UNL     1      -1.550  -0.398   4.294  1.00  0.00     0.113 HD
ENDBRANCH   2   3
BRANCH   2   5
ATOM      5  N   UNL     1       0.416   0.498   2.087  1.00  0.00    -0.241 NA
BRANCH   5   6
ATOM      6  C   UNL     1       1.514   0.541   3.043  1.00  0.00     0.182 C 
BRANCH   6   7
ATOM      7  C   UNL     1       2.806   0.459   2.285  1.00  0.00    -0.023 A 
ATOM      8  C   UNL     1       3.409   1.628   1.794  1.00  0.00     0.026 A 
ATOM      9  C   UNL     1       3.359  -0.790   1.963  1.00  0.00     0.026 A 
ATOM     10  C   UNL     1       4.566   1.549   1.011  1.00  0.00     0.042 A 
ATOM     11  C   UNL     1       4.517  -0.867   1.181  1.00  0.00     0.042 A 
ATOM     12  C   UNL     1       5.120   0.302   0.707  1.00  0.00     0.041 A 
ATOM     13  Cl  UNL     1       5.309   3.014   0.396  1.00  0.00    -0.084 Cl
ATOM     14  Cl  UNL     1       5.203  -2.431   0.781  1.00  0.00    -0.084 Cl
ENDBRANCH   6   7
ENDBRANCH   5   6
ENDBRANCH   2   5
ENDBRANCH   1   2
BRANCH   1  15
ATOM     15  C   UNL     1      -1.539   0.576  -0.030  1.00  0.00     0.133 C 
BRANCH  15  16
ATOM     16  C   UNL     1      -2.447   0.031  -0.851  1.00  0.00     0.026 C 
BRANCH  16  17
ATOM     17  C   UNL     1      -3.727  -0.560  -0.330  1.00  0.00     0.073 C 
BRANCH  17  18
ATOM     18  C   UNL     1      -4.556  -1.121  -1.458  1.00  0.00     0.027 A 
ATOM     19  C   UNL     1      -5.486  -0.306  -2.133  1.00  0.00     0.129 A 
ATOM     20  C   UNL     1      -4.364  -2.447  -1.891  1.00  0.00     0.129 A 
ATOM     21  C   UNL     1      -6.229  -0.821  -3.200  1.00  0.00     0.040 A 
ATOM     22  C   UNL     1      -5.112  -2.954  -2.959  1.00  0.00     0.040 A 
ATOM     23  C   UNL     1      -6.045  -2.144  -3.610  1.00  0.00     0.006 A 
ATOM     24  F   UNL     1      -5.670   0.987  -1.763  1.00  0.00    -0.207 F 
ATOM     25  F   UNL     1      -3.451  -3.247  -1.284  1.00  0.00    -0.207 F 
ENDBRANCH  17  18
ENDBRANCH  16  17
ENDBRANCH  15  16
BRANCH  15  26
ATOM     26  C   UNL     1      -0.294   1.154  -0.594  1.00  0.00     0.017 A 
ATOM     27  C   UNL     1       0.110   2.448  -0.226  1.00  0.00     0.012 A 
ATOM     28  C   UNL     1       0.513   0.405  -1.469  1.00  0.00     0.012 A 
ATOM     29  C   UNL     1       1.305   2.982  -0.719  1.00  0.00     0.001 A 
ATOM     30  C   UNL     1       1.709   0.942  -1.957  1.00  0.00     0.001 A 
ATOM     31  C   UNL     1       2.104   2.228  -1.583  1.00  0.00     0.000 A 
ENDBRANCH  15  26
ENDBRANCH   1  15
TORSDOF 10


