REMARK SMILES Nc1cc(F)c[nH]/c1=N\c1cnc2[nH]ccc2c1
REMARK SMILES IDX 8 1 2 2 3 3 4 4 5 5 6 6 7 7 9 9 10 10 11 11 12 12 13 13
REMARK SMILES IDX 18 14 17 15 14 16 16 17 15 18 1 20
REMARK H PARENT 7 8 14 19 1 21 1 22
ROOT
ATOM      1  C   UNL     1      -1.130   0.258   0.739  1.00  0.00     0.154 A 
ATOM      2  C   UNL     1      -2.194   0.488   1.637  1.00  0.00     0.078 A 
ATOM      3  C   UNL     1      -3.509   0.450   1.158  1.00  0.00     0.070 A 
ATOM      4  C   UNL     1      -3.758   0.175  -0.184  1.00  0.00     0.141 A 
ATOM      5  F   UNL     1      -5.030   0.134  -0.650  1.00  0.00    -0.205 F 
ATOM      6  C   UNL     1      -2.687  -0.073  -1.040  1.00  0.00     0.123 A 
ATOM      7  N   UNL     1      -1.409  -0.035  -0.572  1.00  0.00    -0.342 N 
ATOM      8  H   UNL     1      -0.653  -0.278  -1.248  1.00  0.00     0.168 HD
ENDROOT
BRANCH   1   9
ATOM      9  N   UNL     1       0.097   0.291   1.186  1.00  0.00    -0.227 NA
BRANCH   9  10
ATOM     10  C   UNL     1       1.307   0.191   0.422  1.00  0.00     0.085 A 
ATOM     11  C   UNL     1       2.343  -0.662   0.875  1.00  0.00     0.142 A 
ATOM     12  N   UNL     1       3.532  -0.734   0.205  1.00  0.00    -0.236 NA
ATOM     13  C   UNL     1       3.715   0.037  -0.895  1.00  0.00     0.137 A 
ATOM     14  C   UNL     1       1.532   1.012  -0.705  1.00  0.00     0.042 A 
ATOM     15  C   UNL     1       2.758   0.895  -1.350  1.00  0.00     0.021 A 
ATOM     16  N   UNL     1       4.821   0.089  -1.651  1.00  0.00    -0.346 N 
ATOM     17  C   UNL     1       3.275   1.534  -2.455  1.00  0.00     0.030 A 
ATOM     18  C   UNL     1       4.556   1.006  -2.612  1.00  0.00     0.085 A 
ATOM     19  H   UNL     1       5.703  -0.455  -1.525  1.00  0.00     0.167 HD
ENDBRANCH   9  10
ENDBRANCH   1   9
BRANCH   2  20
ATOM     20  N   UNL     1      -1.955   0.773   3.022  1.00  0.00    -0.396 N 
ATOM     21  H   UNL     1      -0.988   0.815   3.414  1.00  0.00     0.156 HD
ATOM     22  H   UNL     1      -2.752   0.946   3.674  1.00  0.00     0.156 HD
ENDBRANCH   2  20
TORSDOF 3


