REMARK SMILES C=Cc1ccc(-c2c(N)c(Nc3ccc(F)cc3)cc(F)c2F)[nH+]c1
REMARK SMILES IDX 7 1 8 2 10 3 19 4 20 5 21 6 22 7 23 8 6 9 3 10 4 11 25 12
REMARK SMILES IDX 5 13 24 14 2 16 1 17 9 18 11 21 12 23 13 24 18 25 14 26
REMARK SMILES IDX 17 27 15 28 16 29
REMARK H PARENT 24 15 9 19 9 20 11 22
ROOT
ATOM      1  C   UNL     1       1.274  -0.091   0.630  1.00  0.00     0.110 A 
ATOM      2  C   UNL     1       1.380  -0.177  -0.781  1.00  0.00     0.073 A 
ATOM      3  C   UNL     1       2.645  -0.002  -1.392  1.00  0.00     0.066 A 
ATOM      4  C   UNL     1       3.785   0.170  -0.599  1.00  0.00     0.070 A 
ATOM      5  C   UNL     1       3.680   0.222   0.789  1.00  0.00     0.161 A 
ATOM      6  F   UNL     1       4.793   0.407   1.542  1.00  0.00    -0.204 F 
ATOM      7  C   UNL     1       2.434   0.104   1.403  1.00  0.00     0.174 A 
ATOM      8  F   UNL     1       2.353   0.200   2.756  1.00  0.00    -0.203 F 
ENDROOT
BRANCH   1   9
ATOM      9  C   UNL     1      -0.037  -0.180   1.311  1.00  0.00     0.216 A 
ATOM     10  C   UNL     1      -2.516  -0.313   2.593  1.00  0.00     0.038 A 
ATOM     11  C   UNL     1      -1.512  -1.250   2.897  1.00  0.00     0.021 A 
ATOM     12  C   UNL     1      -2.238   0.668   1.629  1.00  0.00     0.314 A 
ATOM     13  C   UNL     1      -0.273  -1.181   2.261  1.00  0.00     0.081 A 
ATOM     14  N   UNL     1      -1.021   0.719   1.021  1.00  0.00    -0.210 N 
ATOM     15  H   UNL     1      -0.846   1.473   0.319  1.00  0.00     0.453 HD
BRANCH  10  16
ATOM     16  C   UNL     1      -3.859  -0.334   3.224  1.00  0.00     0.006 C 
ATOM     17  C   UNL     1      -4.158  -1.010   4.334  1.00  0.00     0.009 C 
ENDBRANCH  10  16
ENDBRANCH   1   9
BRANCH   2  18
ATOM     18  N   UNL     1       0.233  -0.512  -1.582  1.00  0.00    -0.396 N 
ATOM     19  H   UNL     1      -0.698  -0.714  -1.157  1.00  0.00     0.156 HD
ATOM     20  H   UNL     1       0.313  -0.675  -2.609  1.00  0.00     0.156 HD
ENDBRANCH   2  18
BRANCH   3  21
ATOM     21  N   UNL     1       2.799  -0.021  -2.819  1.00  0.00    -0.354 N 
ATOM     22  H   UNL     1       3.516  -0.669  -3.217  1.00  0.00     0.167 HD
BRANCH  21  23
ATOM     23  C   UNL     1       2.170   0.927  -3.704  1.00  0.00     0.039 A 
ATOM     24  C   UNL     1       2.224   0.713  -5.090  1.00  0.00     0.029 A 
ATOM     25  C   UNL     1       1.519   2.076  -3.214  1.00  0.00     0.029 A 
ATOM     26  C   UNL     1       1.625   1.618  -5.971  1.00  0.00     0.041 A 
ATOM     27  C   UNL     1       0.921   2.979  -4.099  1.00  0.00     0.041 A 
ATOM     28  C   UNL     1       0.972   2.750  -5.476  1.00  0.00     0.123 A 
ATOM     29  F   UNL     1       0.392   3.627  -6.332  1.00  0.00    -0.207 F 
ENDBRANCH  21  23
ENDBRANCH   3  21
TORSDOF 5


