REMARK SMILES CC(=O)c1c(-c2c[nH+]c3c(c2)C(=O)[N-]C3)cc(/C(O)=N/[C@@H]2C=CCC2)c(F)c1[O-]
REMARK SMILES IDX 17 1 16 2 5 3 4 4 28 5 29 6 26 7 27 8 18 9 19 10 20 12 21 13
REMARK SMILES IDX 22 14 25 15 23 16 24 17 6 18 11 19 7 20 10 21 8 22 9 23
REMARK SMILES IDX 12 24 15 25 14 26 13 28 2 29 3 30 1 31
REMARK H PARENT 19 11 8 27
ROOT
ATOM      1  C   UNL     1      -0.497  -0.502  -0.942  1.00  0.00     0.072 A 
ATOM      2  C   UNL     1       0.460   0.166  -0.165  1.00  0.00     0.026 A 
ATOM      3  C   UNL     1       1.771   0.353  -0.630  1.00  0.00    -0.001 A 
ATOM      4  C   UNL     1       2.125  -0.106  -1.924  1.00  0.00     0.020 A 
ATOM      5  C   UNL     1       1.159  -0.773  -2.703  1.00  0.00    -0.059 A 
ATOM      6  O   UNL     1       1.474  -1.223  -3.982  1.00  0.00    -0.870 OA
ATOM      7  C   UNL     1      -0.137  -0.969  -2.217  1.00  0.00     0.128 A 
ATOM      8  F   UNL     1      -1.056  -1.561  -3.023  1.00  0.00    -0.207 F 
ENDROOT
BRANCH   1   9
ATOM      9  C   UNL     1      -1.868  -0.694  -0.415  1.00  0.00     0.217 C 
BRANCH   9  10
ATOM     10  O   UNL     1      -2.577  -1.868  -0.677  1.00  0.00    -0.493 OA
ATOM     11  H   UNL     1      -2.151  -2.661  -1.140  1.00  0.00     0.295 HD
ENDBRANCH   9  10
BRANCH   9  12
ATOM     12  N   UNL     1      -2.405   0.239   0.315  1.00  0.00    -0.244 NA
BRANCH  12  13
ATOM     13  C   UNL     1      -3.747   0.162   0.892  1.00  0.00     0.132 C 
ATOM     14  C   UNL     1      -4.778   0.371  -0.164  1.00  0.00    -0.005 C 
ATOM     15  C   UNL     1      -3.974   1.323   1.871  1.00  0.00     0.036 C 
ATOM     16  C   UNL     1      -5.463   1.486   0.015  1.00  0.00    -0.029 C 
ATOM     17  C   UNL     1      -5.021   2.233   1.221  1.00  0.00     0.029 C 
ENDBRANCH  12  13
ENDBRANCH   9  12
ENDBRANCH   1   9
BRANCH   3  18
ATOM     18  C   UNL     1       2.757   0.976   0.282  1.00  0.00     0.047 A 
ATOM     19  C   UNL     1       2.515   2.253   0.825  1.00  0.00     0.031 A 
ATOM     20  C   UNL     1       3.941   0.286   0.645  1.00  0.00     0.315 A 
ATOM     21  C   UNL     1       3.472   2.786   1.681  1.00  0.00     0.065 A 
ATOM     22  N   UNL     1       4.848   0.858   1.492  1.00  0.00    -0.215 N 
ATOM     23  C   UNL     1       4.609   2.095   1.998  1.00  0.00     0.171 A 
ATOM     24  C   UNL     1       3.535   4.040   2.382  1.00  0.00     0.089 C 
ATOM     25  C   UNL     1       5.481   2.877   2.935  1.00  0.00    -0.006 C 
ATOM     26  N   UNL     1       4.734   4.123   3.146  1.00  0.00    -0.641 NA
ATOM     27  H   UNL     1       5.720   0.344   1.750  1.00  0.00     0.453 HD
ATOM     28  O   UNL     1       2.665   4.950   2.341  1.00  0.00    -0.315 OA
ENDBRANCH   3  18
BRANCH   4  29
ATOM     29  C   UNL     1       3.468   0.140  -2.503  1.00  0.00     0.159 C 
ATOM     30  O   UNL     1       4.106  -0.815  -3.024  1.00  0.00    -0.295 OA
ATOM     31  C   UNL     1       4.082   1.507  -2.505  1.00  0.00     0.093 C 
ENDBRANCH   4  29
TORSDOF 6


