MODEL 1
REMARK VINA RESULT:      -6.7      0.000      0.000
REMARK SMILES Nc1c([C@@H]2O[C@H]2c2ccccc2)cc(C(=O)[O-])c([NH2+]c2cc3ccccc3[n-]2)c1[O-]
REMARK SMILES IDX 2 1 3 2 13 3 14 4 18 5 29 6 30 7 1 8 4 11 5 12 6 13 7 14
REMARK SMILES IDX 8 15 12 16 9 17 11 18 10 19 19 20 20 23 21 24 28 25 22 26
REMARK SMILES IDX 27 27 23 28 26 29 24 30 25 31 15 32 16 33 17 34
REMARK H PARENT 1 9 1 10 19 21 19 22
ROOT
ATOM      1  C   UNL     1      45.368 130.292  20.174  1.00  0.00     0.035 A 
ATOM      2  C   UNL     1      44.742 131.251  19.353  1.00  0.00     0.007 A 
ATOM      3  C   UNL     1      43.670 131.999  19.860  1.00  0.00     0.024 A 
ATOM      4  C   UNL     1      43.163 131.773  21.148  1.00  0.00     0.058 A 
ATOM      5  C   UNL     1      43.785 130.803  21.981  1.00  0.00     0.136 A 
ATOM      6  C   UNL     1      44.881 130.066  21.474  1.00  0.00    -0.020 A 
ATOM      7  O   UNL     1      45.498 129.108  22.276  1.00  0.00    -0.867 OA
ENDROOT
BRANCH   1   8
ATOM      8  N   UNL     1      46.508 129.555  19.708  1.00  0.00    -0.399 N 
ATOM      9  H   UNL     1      47.166 129.951  19.002  1.00  0.00     0.156 HD
ATOM     10  H   UNL     1      46.742 128.614  20.096  1.00  0.00     0.156 HD
ENDBRANCH   1   8
BRANCH   2  11
ATOM     11  C   UNL     1      45.228 131.508  17.947  1.00  0.00     0.185 C 
ATOM     12  O   UNL     1      44.158 131.643  17.038  1.00  0.00    -0.359 OA
ATOM     13  C   UNL     1      44.907 130.452  16.949  1.00  0.00     0.183 C 
BRANCH  13  14
ATOM     14  C   UNL     1      45.751 130.430  15.706  1.00  0.00    -0.016 A 
ATOM     15  C   UNL     1      46.868 129.581  15.615  1.00  0.00     0.006 A 
ATOM     16  C   UNL     1      45.472 131.314  14.653  1.00  0.00     0.006 A 
ATOM     17  C   UNL     1      47.671 129.594  14.471  1.00  0.00     0.000 A 
ATOM     18  C   UNL     1      46.278 131.326  13.510  1.00  0.00     0.000 A 
ATOM     19  C   UNL     1      47.374 130.466  13.418  1.00  0.00     0.000 A 
ENDBRANCH  13  14
ENDBRANCH   2  11
BRANCH   5  20
ATOM     20  N   UNL     1      43.339 130.564  23.339  1.00  0.00    -0.299 N 
ATOM     21  H   UNL     1      44.149 130.554  23.999  1.00  0.00     0.356 HD
ATOM     22  H   UNL     1      42.718 131.339  23.664  1.00  0.00     0.356 HD
BRANCH  20  23
ATOM     23  C   UNL     1      42.669 129.294  23.436  1.00  0.00     0.036 A 
ATOM     24  C   UNL     1      41.287 129.133  23.410  1.00  0.00     0.050 A 
ATOM     25  N   UNL     1      43.317 128.127  23.681  1.00  0.00    -0.610 NA
ATOM     26  C   UNL     1      41.095 127.790  23.617  1.00  0.00    -0.036 A 
ATOM     27  C   UNL     1      42.331 127.218  23.774  1.00  0.00    -0.125 A 
ATOM     28  C   UNL     1      39.921 127.042  23.685  1.00  0.00     0.007 A 
ATOM     29  C   UNL     1      42.476 125.852  24.011  1.00  0.00    -0.015 A 
ATOM     30  C   UNL     1      40.038 125.661  23.921  1.00  0.00     0.001 A 
ATOM     31  C   UNL     1      41.310 125.068  24.082  1.00  0.00    -0.001 A 
ENDBRANCH  20  23
ENDBRANCH   5  20
BRANCH   4  32
ATOM     32  C   UNL     1      41.991 132.577  21.573  1.00  0.00     0.077 C 
ATOM     33  O   UNL     1      41.341 133.268  20.746  1.00  0.00    -0.545 OA
ATOM     34  O   UNL     1      41.625 132.615  22.914  1.00  0.00    -0.545 OA
ENDBRANCH   4  32
TORSDOF 6
ENDMDL
MODEL 2
REMARK VINA RESULT:      -6.1      0.728      1.306
REMARK SMILES Nc1c([C@@H]2O[C@H]2c2ccccc2)cc(C(=O)[O-])c([NH2+]c2cc3ccccc3[n-]2)c1[O-]
REMARK SMILES IDX 2 1 3 2 13 3 14 4 18 5 29 6 30 7 1 8 4 11 5 12 6 13 7 14
REMARK SMILES IDX 8 15 12 16 9 17 11 18 10 19 19 20 20 23 21 24 28 25 22 26
REMARK SMILES IDX 27 27 23 28 26 29 24 30 25 31 15 32 16 33 17 34
REMARK H PARENT 1 9 1 10 19 21 19 22
ROOT
ATOM      1  C   UNL     1      45.584 130.825  19.790  1.00  0.00     0.035 A 
ATOM      2  C   UNL     1      44.826 131.547  18.846  1.00  0.00     0.007 A 
ATOM      3  C   UNL     1      43.631 132.161  19.246  1.00  0.00     0.024 A 
ATOM      4  C   UNL     1      43.137 132.023  20.552  1.00  0.00     0.058 A 
ATOM      5  C   UNL     1      43.893 131.291  21.508  1.00  0.00     0.136 A 
ATOM      6  C   UNL     1      45.110 130.692  21.107  1.00  0.00    -0.020 A 
ATOM      7  O   UNL     1      45.860 129.968  22.032  1.00  0.00    -0.867 OA
ENDROOT
BRANCH   1   8
ATOM      8  N   UNL     1      46.844 130.239  19.429  1.00  0.00    -0.399 N 
ATOM      9  H   UNL     1      47.449 130.652  18.687  1.00  0.00     0.156 HD
ATOM     10  H   UNL     1      47.218 129.403  19.932  1.00  0.00     0.156 HD
ENDBRANCH   1   8
BRANCH   2  11
ATOM     11  C   UNL     1      45.297 131.696  17.420  1.00  0.00     0.185 C 
ATOM     12  O   UNL     1      44.249 131.497  16.498  1.00  0.00    -0.359 OA
ATOM     13  C   UNL     1      45.212 130.471  16.580  1.00  0.00     0.183 C 
BRANCH  13  14
ATOM     14  C   UNL     1      46.082 130.440  15.355  1.00  0.00    -0.016 A 
ATOM     15  C   UNL     1      45.812 131.283  14.263  1.00  0.00     0.006 A 
ATOM     16  C   UNL     1      47.131 129.512  15.265  1.00  0.00     0.006 A 
ATOM     17  C   UNL     1      46.602 131.220  13.112  1.00  0.00     0.000 A 
ATOM     18  C   UNL     1      47.920 129.450  14.110  1.00  0.00     0.000 A 
ATOM     19  C   UNL     1      47.658 130.305  13.037  1.00  0.00     0.000 A 
ENDBRANCH  13  14
ENDBRANCH   2  11
BRANCH   5  20
ATOM     20  N   UNL     1      43.460 131.160  22.885  1.00  0.00    -0.299 N 
ATOM     21  H   UNL     1      44.248 131.360  23.542  1.00  0.00     0.356 HD
ATOM     22  H   UNL     1      42.720 131.864  23.107  1.00  0.00     0.356 HD
BRANCH  20  23
ATOM     23  C   UNL     1      42.991 129.825  23.143  1.00  0.00     0.036 A 
ATOM     24  C   UNL     1      41.710 129.517  23.595  1.00  0.00     0.050 A 
ATOM     25  N   UNL     1      43.791 128.730  23.085  1.00  0.00    -0.610 NA
ATOM     26  C   UNL     1      41.732 128.158  23.785  1.00  0.00    -0.036 A 
ATOM     27  C   UNL     1      42.991 127.719  23.469  1.00  0.00    -0.125 A 
ATOM     28  C   UNL     1      40.734 127.288  24.220  1.00  0.00     0.007 A 
ATOM     29  C   UNL     1      43.340 126.373  23.568  1.00  0.00    -0.015 A 
ATOM     30  C   UNL     1      41.057 125.924  24.327  1.00  0.00     0.001 A 
ATOM     31  C   UNL     1      42.353 125.468  24.002  1.00  0.00    -0.001 A 
ENDBRANCH  20  23
ENDBRANCH   5  20
BRANCH   4  32
ATOM     32  C   UNL     1      41.836 132.664  20.863  1.00  0.00     0.077 C 
ATOM     33  O   UNL     1      41.431 132.772  22.050  1.00  0.00    -0.545 OA
ATOM     34  O   UNL     1      41.019 133.112  19.832  1.00  0.00    -0.545 OA
ENDBRANCH   4  32
TORSDOF 6
ENDMDL


