REMARK SMILES Cc1ccc(-c2ccc(OC(=O)[C@H]3CCC3(C)C)cc2)c2c[n-]nc12
REMARK SMILES IDX 10 1 9 2 6 3 7 4 20 5 8 6 19 7 5 8 2 9 3 10 25 11 4 12 24 13
REMARK SMILES IDX 21 14 23 15 22 16 1 17 11 18 12 19 13 20 14 21 16 22 15 23
REMARK SMILES IDX 17 24 18 25
REMARK H PARENT
ROOT
ATOM      1  O   UNL     1       0.070   2.279  -0.607  1.00  0.00    -0.426 OA
ENDROOT
BRANCH   1   2
ATOM      2  C   UNL     1       0.216   0.927  -0.265  1.00  0.00     0.130 A 
ATOM      3  C   UNL     1       0.615  -1.780   0.413  1.00  0.00    -0.018 A 
ATOM      4  C   UNL     1       1.583  -1.079  -0.326  1.00  0.00     0.012 A 
ATOM      5  C   UNL     1      -0.555  -1.113   0.811  1.00  0.00     0.012 A 
ATOM      6  C   UNL     1       1.386   0.265  -0.652  1.00  0.00     0.048 A 
ATOM      7  C   UNL     1      -0.751   0.232   0.483  1.00  0.00     0.048 A 
BRANCH   3   8
ATOM      8  C   UNL     1       0.813  -3.208   0.754  1.00  0.00    -0.011 A 
ATOM      9  C   UNL     1       1.199  -5.966   1.393  1.00  0.00    -0.027 A 
ATOM     10  C   UNL     1      -0.024  -5.516   0.853  1.00  0.00     0.006 A 
ATOM     11  C   UNL     1       2.190  -5.007   1.620  1.00  0.00     0.050 A 
ATOM     12  C   UNL     1      -0.214  -4.153   0.535  1.00  0.00     0.010 A 
ATOM     13  N   UNL     1       3.403  -5.191   2.172  1.00  0.00    -0.367 NA
ATOM     14  C   UNL     1       2.007  -3.688   1.310  1.00  0.00    -0.014 A 
ATOM     15  N   UNL     1       3.998  -4.003   2.225  1.00  0.00    -0.581 NA
ATOM     16  C   UNL     1       3.170  -3.066   1.710  1.00  0.00    -0.113 A 
ATOM     17  C   UNL     1       1.398  -7.402   1.778  1.00  0.00     0.046 C 
ENDBRANCH   3   8
ENDBRANCH   1   2
BRANCH   1  18
ATOM     18  C   UNL     1      -1.151   2.937  -0.818  1.00  0.00     0.314 C 
ATOM     19  O   UNL     1      -2.208   2.281  -1.022  1.00  0.00    -0.251 OA
BRANCH  18  20
ATOM     20  C   UNL     1      -1.199   4.442  -0.921  1.00  0.00     0.105 C 
ATOM     21  C   UNL     1      -0.088   5.167  -0.155  1.00  0.00     0.016 C 
ATOM     22  C   UNL     1      -0.679   5.056  -2.242  1.00  0.00    -0.022 C 
ATOM     23  C   UNL     1       0.428   5.775  -1.457  1.00  0.00     0.008 C 
ATOM     24  C   UNL     1      -1.688   6.032  -2.872  1.00  0.00     0.012 C 
ATOM     25  C   UNL     1      -0.122   4.069  -3.289  1.00  0.00     0.012 C 
ENDBRANCH  18  20
ENDBRANCH   1  18
TORSDOF 4


