REMARK SMILES NC(=O)c1ccc(-c2cc(F)c([O-])c(F)c2[O-])c2c[n-]nc12
REMARK SMILES IDX 4 1 5 2 6 3 7 4 18 5 19 6 20 7 21 8 22 9 2 10 1 11 3 14 8 15
REMARK SMILES IDX 9 16 16 17 10 18 14 19 12 20 17 21 11 22 15 23 13 24
REMARK H PARENT 1 12 1 13
ROOT
ATOM      1  C   UNL     1       0.485  -2.229  -0.664  1.00  0.00     0.064 A 
ATOM      2  C   UNL     1       0.105  -1.490  -1.810  1.00  0.00     0.017 A 
ATOM      3  C   UNL     1      -0.259  -0.130  -1.708  1.00  0.00     0.010 A 
ATOM      4  C   UNL     1      -0.262   0.527  -0.460  1.00  0.00    -0.011 A 
ATOM      5  C   UNL     1       0.134  -0.223   0.652  1.00  0.00    -0.014 A 
ATOM      6  C   UNL     1       0.291   0.099   1.982  1.00  0.00    -0.113 A 
ATOM      7  N   UNL     1       0.717  -1.005   2.636  1.00  0.00    -0.581 NA
ATOM      8  N   UNL     1       0.841  -2.006   1.771  1.00  0.00    -0.367 NA
ATOM      9  C   UNL     1       0.494  -1.539   0.558  1.00  0.00     0.060 A 
ENDROOT
BRANCH   1  10
ATOM     10  C   UNL     1       0.885  -3.655  -0.754  1.00  0.00     0.250 C 
ATOM     11  N   UNL     1       0.446  -4.484  -1.834  1.00  0.00    -0.366 N 
ATOM     12  H   UNL     1      -0.276  -4.162  -2.514  1.00  0.00     0.159 HD
ATOM     13  H   UNL     1       0.786  -5.468  -1.906  1.00  0.00     0.159 HD
ATOM     14  O   UNL     1       1.620  -4.158   0.137  1.00  0.00    -0.269 OA
ENDBRANCH   1  10
BRANCH   4  15
ATOM     15  C   UNL     1      -0.643   1.953  -0.355  1.00  0.00    -0.020 A 
ATOM     16  C   UNL     1       0.037   2.910  -1.126  1.00  0.00     0.047 A 
ATOM     17  C   UNL     1      -1.693   2.366   0.489  1.00  0.00    -0.064 A 
ATOM     18  C   UNL     1      -0.305   4.262  -1.038  1.00  0.00     0.118 A 
ATOM     19  C   UNL     1      -2.029   3.723   0.576  1.00  0.00     0.111 A 
ATOM     20  C   UNL     1      -1.336   4.670  -0.185  1.00  0.00    -0.036 A 
ATOM     21  O   UNL     1      -2.417   1.436   1.227  1.00  0.00    -0.870 OA
ATOM     22  F   UNL     1       0.366   5.177  -1.781  1.00  0.00    -0.208 F 
ATOM     23  F   UNL     1      -3.037   4.119   1.394  1.00  0.00    -0.208 F 
ATOM     24  O   UNL     1      -1.673   6.016  -0.097  1.00  0.00    -0.869 OA
ENDBRANCH   4  15
TORSDOF 2


