MODEL 1
REMARK VINA RESULT:      -7.7      0.000      0.000
REMARK SMILES Cc1ccc(-c2ccc([NH2+]c3cc4cc5ccccc5cc4[nH]3)c(C=O)c2)cc1
REMARK SMILES IDX 6 1 7 2 8 3 9 4 24 5 27 6 5 7 2 8 3 9 29 10 4 11 28 12 1 13
REMARK SMILES IDX 25 14 26 15 10 16 11 19 12 20 23 21 13 22 22 23 14 24 21 25
REMARK SMILES IDX 15 26 20 27 16 28 19 29 17 30 18 31
REMARK H PARENT 10 17 10 18 23 32
ROOT
ATOM      1  C   UNL     1      42.283 128.150  23.140  1.00  0.00    -0.017 A 
ATOM      2  C   UNL     1      43.557 127.748  22.725  1.00  0.00     0.015 A 
ATOM      3  C   UNL     1      44.519 128.694  22.379  1.00  0.00     0.069 A 
ATOM      4  C   UNL     1      44.241 130.072  22.435  1.00  0.00     0.146 A 
ATOM      5  C   UNL     1      42.938 130.494  22.838  1.00  0.00     0.076 A 
ATOM      6  C   UNL     1      41.985 129.521  23.194  1.00  0.00     0.026 A 
ENDROOT
BRANCH   1   7
ATOM      7  C   UNL     1      41.258 127.141  23.513  1.00  0.00    -0.018 A 
ATOM      8  C   UNL     1      39.307 125.227  24.212  1.00  0.00    -0.051 A 
ATOM      9  C   UNL     1      39.127 126.577  24.548  1.00  0.00     0.004 A 
ATOM     10  C   UNL     1      40.477 124.834  23.548  1.00  0.00     0.004 A 
ATOM     11  C   UNL     1      40.090 127.527  24.196  1.00  0.00     0.009 A 
ATOM     12  C   UNL     1      41.443 125.783  23.196  1.00  0.00     0.009 A 
ATOM     13  C   UNL     1      38.292 124.204  24.625  1.00  0.00     0.044 C 
ENDBRANCH   1   7
BRANCH   5  14
ATOM     14  C   UNL     1      42.499 131.910  22.915  1.00  0.00     0.266 C 
ATOM     15  O   UNL     1      41.842 132.367  23.885  1.00  0.00    -0.298 OA
ENDBRANCH   5  14
BRANCH   4  16
ATOM     16  N   UNL     1      45.287 131.003  22.069  1.00  0.00    -0.266 N 
ATOM     17  H   UNL     1      46.202 130.708  22.483  1.00  0.00     0.359 HD
ATOM     18  H   UNL     1      45.086 131.950  22.462  1.00  0.00     0.359 HD
BRANCH  16  19
ATOM     19  C   UNL     1      45.452 131.059  20.640  1.00  0.00     0.208 A 
ATOM     20  C   UNL     1      44.714 131.869  19.775  1.00  0.00     0.099 A 
ATOM     21  N   UNL     1      46.265 130.222  19.954  1.00  0.00    -0.310 N 
ATOM     22  C   UNL     1      45.138 131.511  18.514  1.00  0.00     0.006 A 
ATOM     23  C   UNL     1      46.071 130.516  18.656  1.00  0.00     0.051 A 
ATOM     24  C   UNL     1      44.748 131.984  17.264  1.00  0.00     0.019 A 
ATOM     25  C   UNL     1      46.685 129.920  17.557  1.00  0.00     0.035 A 
ATOM     26  C   UNL     1      45.350 131.411  16.124  1.00  0.00    -0.018 A 
ATOM     27  C   UNL     1      46.324 130.373  16.270  1.00  0.00    -0.016 A 
ATOM     28  C   UNL     1      44.999 131.851  14.838  1.00  0.00     0.009 A 
ATOM     29  C   UNL     1      46.912 129.812  15.128  1.00  0.00     0.009 A 
ATOM     30  C   UNL     1      45.597 131.278  13.713  1.00  0.00     0.001 A 
ATOM     31  C   UNL     1      46.549 130.265  13.856  1.00  0.00     0.001 A 
ATOM     32  H   UNL     1      46.895 129.487  20.346  1.00  0.00     0.172 HD
ENDBRANCH  16  19
ENDBRANCH   4  16
TORSDOF 4
ENDMDL


