REMARK SMILES Cc1cc(F)c(C/C=C(\O)c2ccccc2)c(F)c1
REMARK SMILES IDX 8 1 9 2 10 3 11 5 12 6 16 7 13 8 15 9 14 10 7 11 6 12 4 13
REMARK SMILES IDX 17 14 3 15 19 16 2 17 5 18 18 19 1 20
REMARK H PARENT 10 4
ROOT
ATOM      1  C   UNL     1       0.713  -1.254   0.945  1.00  0.00     0.025 C 
ENDROOT
BRANCH   1   2
ATOM      2  C   UNL     1       1.445  -0.760  -0.066  1.00  0.00     0.119 C 
BRANCH   2   3
ATOM      3  O   UNL     1       1.086  -1.059  -1.382  1.00  0.00    -0.508 OA
ATOM      4  H   UNL     1       1.574  -0.660  -2.175  1.00  0.00     0.293 HD
ENDBRANCH   2   3
BRANCH   2   5
ATOM      5  C   UNL     1       2.634   0.089   0.197  1.00  0.00     0.016 A 
ATOM      6  C   UNL     1       2.629   1.050   1.226  1.00  0.00     0.012 A 
ATOM      7  C   UNL     1       3.785  -0.048  -0.601  1.00  0.00     0.012 A 
ATOM      8  C   UNL     1       3.754   1.849   1.454  1.00  0.00     0.001 A 
ATOM      9  C   UNL     1       4.907   0.752  -0.367  1.00  0.00     0.001 A 
ATOM     10  C   UNL     1       4.893   1.699   0.659  1.00  0.00     0.000 A 
ENDBRANCH   2   5
ENDBRANCH   1   2
BRANCH   1  11
ATOM     11  C   UNL     1      -0.513  -2.096   0.725  1.00  0.00     0.073 C 
BRANCH  11  12
ATOM     12  C   UNL     1      -1.668  -1.252   0.243  1.00  0.00     0.027 A 
ATOM     13  C   UNL     1      -2.134  -1.353  -1.082  1.00  0.00     0.129 A 
ATOM     14  C   UNL     1      -2.281  -0.333   1.116  1.00  0.00     0.129 A 
ATOM     15  C   UNL     1      -3.194  -0.553  -1.520  1.00  0.00     0.043 A 
ATOM     16  C   UNL     1      -3.340   0.464   0.672  1.00  0.00     0.043 A 
ATOM     17  C   UNL     1      -3.812   0.349  -0.642  1.00  0.00    -0.045 A 
ATOM     18  F   UNL     1      -1.565  -2.224  -1.954  1.00  0.00    -0.207 F 
ATOM     19  F   UNL     1      -1.847  -0.204   2.396  1.00  0.00    -0.207 F 
ATOM     20  C   UNL     1      -4.922   1.234  -1.127  1.00  0.00     0.044 C 
ENDBRANCH  11  12
ENDBRANCH   1  11
TORSDOF 5


