REMARK SMILES F[C@@]12CC=N[C@@H]1CC[C@@H](c1cnc3ocnc3c1)[C@H]2Cl
REMARK SMILES IDX 1 1 2 2 3 3 4 4 5 5 6 6 7 7 8 8 9 9 19 10 20 11 10 12 11 13
REMARK SMILES IDX 18 14 12 15 17 16 13 17 16 18 14 19 15 20
REMARK H PARENT
ROOT
ATOM      1  F   UNL     1       2.301  -1.818  -2.510  1.00  0.00    -0.239 F 
ATOM      2  C   UNL     1       2.205  -1.461  -1.171  1.00  0.00     0.154 C 
ATOM      3  C   UNL     1       2.603  -2.698  -0.354  1.00  0.00     0.092 C 
ATOM      4  C   UNL     1       4.076  -2.512  -0.245  1.00  0.00     0.081 C 
ATOM      5  N   UNL     1       4.460  -1.329  -0.546  1.00  0.00    -0.291 NA
ATOM      6  C   UNL     1       3.352  -0.465  -0.860  1.00  0.00     0.144 C 
ATOM      7  C   UNL     1       3.100   0.452   0.359  1.00  0.00     0.031 C 
ATOM      8  C   UNL     1       1.687   1.027   0.386  1.00  0.00     0.012 C 
ATOM      9  C   UNL     1       0.662  -0.121   0.402  1.00  0.00     0.042 C 
ATOM     10  C   UNL     1       0.763  -0.948  -0.898  1.00  0.00     0.128 C 
ATOM     11  Cl  UNL     1       0.172  -0.004  -2.310  1.00  0.00    -0.119 Cl
ENDROOT
BRANCH   9  12
ATOM     12  C   UNL     1      -0.764   0.337   0.674  1.00  0.00    -0.022 A 
ATOM     13  C   UNL     1      -1.272   1.584   0.199  1.00  0.00     0.119 A 
ATOM     14  C   UNL     1      -1.639  -0.529   1.373  1.00  0.00     0.040 A 
ATOM     15  N   UNL     1      -2.570   1.946   0.432  1.00  0.00    -0.219 NA
ATOM     16  C   UNL     1      -2.943  -0.101   1.578  1.00  0.00     0.129 A 
ATOM     17  C   UNL     1      -3.370   1.096   1.117  1.00  0.00     0.246 A 
ATOM     18  N   UNL     1      -3.946  -0.733   2.210  1.00  0.00    -0.215 NA
ATOM     19  O   UNL     1      -4.623   1.262   1.433  1.00  0.00    -0.425 OA
ATOM     20  C   UNL     1      -4.965   0.163   2.089  1.00  0.00     0.311 A 
ENDBRANCH   9  12
TORSDOF 1


