REMARK SMILES Cc1ccc([NH2+]c2ccc([C@@H]3O[C@H]3c3ccccc3)c(N)c2[O-])cc1F
REMARK SMILES IDX 7 1 8 2 9 3 10 4 20 5 22 6 23 7 6 8 5 11 2 12 3 13 25 14
REMARK SMILES IDX 4 15 24 16 1 17 26 18 21 19 11 22 12 23 13 24 14 25 15 26
REMARK SMILES IDX 19 27 16 28 18 29 17 30
REMARK H PARENT 6 9 6 10 21 20 21 21
ROOT
ATOM      1  C   UNL     1      -2.304  -0.266   1.514  1.00  0.00     0.128 A 
ATOM      2  C   UNL     1      -1.607   0.884   1.916  1.00  0.00     0.068 A 
ATOM      3  C   UNL     1      -0.219   0.870   2.031  1.00  0.00     0.015 A 
ATOM      4  C   UNL     1       0.512  -0.288   1.730  1.00  0.00     0.007 A 
ATOM      5  C   UNL     1      -0.175  -1.465   1.350  1.00  0.00     0.035 A 
ATOM      6  C   UNL     1      -1.579  -1.442   1.233  1.00  0.00    -0.021 A 
ATOM      7  O   UNL     1      -2.257  -2.594   0.844  1.00  0.00    -0.867 OA
ENDROOT
BRANCH   1   8
ATOM      8  N   UNL     1      -3.739  -0.221   1.363  1.00  0.00    -0.282 N 
ATOM      9  H   UNL     1      -4.151   0.457   2.047  1.00  0.00     0.358 HD
ATOM     10  H   UNL     1      -4.162  -1.152   1.582  1.00  0.00     0.358 HD
BRANCH   8  11
ATOM     11  C   UNL     1      -4.077   0.182   0.019  1.00  0.00     0.137 A 
ATOM     12  C   UNL     1      -4.685   0.972  -2.618  1.00  0.00    -0.015 A 
ATOM     13  C   UNL     1      -4.620  -0.389  -2.283  1.00  0.00     0.012 A 
ATOM     14  C   UNL     1      -4.427   1.937  -1.632  1.00  0.00     0.132 A 
ATOM     15  C   UNL     1      -4.321  -0.781  -0.975  1.00  0.00     0.068 A 
ATOM     16  C   UNL     1      -4.128   1.544  -0.324  1.00  0.00     0.107 A 
ATOM     17  C   UNL     1      -4.978   1.392  -4.030  1.00  0.00     0.047 C 
ATOM     18  F   UNL     1      -4.460   3.260  -1.937  1.00  0.00    -0.206 F 
ENDBRANCH   8  11
ENDBRANCH   1   8
BRANCH   5  19
ATOM     19  N   UNL     1       0.537  -2.685   1.089  1.00  0.00    -0.399 N 
ATOM     20  H   UNL     1       1.566  -2.764   1.232  1.00  0.00     0.156 HD
ATOM     21  H   UNL     1       0.038  -3.545   0.772  1.00  0.00     0.156 HD
ENDBRANCH   5  19
BRANCH   4  22
ATOM     22  C   UNL     1       2.011  -0.256   1.876  1.00  0.00     0.185 C 
ATOM     23  O   UNL     1       2.556   0.889   1.259  1.00  0.00    -0.359 OA
ATOM     24  C   UNL     1       2.798  -0.340   0.616  1.00  0.00     0.183 C 
BRANCH  24  25
ATOM     25  C   UNL     1       4.244  -0.722   0.742  1.00  0.00    -0.016 A 
ATOM     26  C   UNL     1       5.234   0.106   0.188  1.00  0.00     0.006 A 
ATOM     27  C   UNL     1       4.619  -1.925   1.363  1.00  0.00     0.006 A 
ATOM     28  C   UNL     1       6.582  -0.255   0.274  1.00  0.00     0.000 A 
ATOM     29  C   UNL     1       5.969  -2.281   1.447  1.00  0.00     0.000 A 
ATOM     30  C   UNL     1       6.950  -1.446   0.905  1.00  0.00     0.000 A 
ENDBRANCH  24  25
ENDBRANCH   4  22
TORSDOF 5


