MODEL 1
REMARK VINA RESULT:      -7.3      0.000      0.000
REMARK SMILES C#CCOCn1nc2cc(-c3cnc(F)cc3C)ccc2c1C
REMARK SMILES IDX 4 1 3 2 2 3 1 4 5 5 6 6 7 7 22 8 8 9 21 10 9 11 20 12 10 13
REMARK SMILES IDX 19 14 23 15 11 16 12 17 17 18 13 19 16 20 14 21 18 22 15 23
REMARK H PARENT
ROOT
ATOM      1  O   UNL     1      44.414 129.809  23.700  1.00  0.00    -0.347 OA
ENDROOT
BRANCH   1   2
ATOM      2  C   UNL     1      43.431 129.114  22.965  1.00  0.00     0.251 C 
BRANCH   2   3
ATOM      3  C   UNL     1      42.238 128.962  23.798  1.00  0.00    -0.078 C 
ATOM      4  C   UNL     1      41.255 128.838  24.484  1.00  0.00     0.006 C 
ENDBRANCH   2   3
ENDBRANCH   1   2
BRANCH   1   5
ATOM      5  C   UNL     1      44.435 131.171  23.320  1.00  0.00     0.306 C 
BRANCH   5   6
ATOM      6  N   UNL     1      44.348 131.297  21.865  1.00  0.00    -0.243 N 
ATOM      7  N   UNL     1      45.349 130.989  21.048  1.00  0.00    -0.170 NA
ATOM      8  C   UNL     1      43.282 131.747  21.154  1.00  0.00     0.046 A 
ATOM      9  C   UNL     1      44.914 131.231  19.799  1.00  0.00     0.093 A 
ATOM     10  C   UNL     1      43.626 131.695  19.819  1.00  0.00     0.023 A 
ATOM     11  C   UNL     1      45.606 131.041  18.607  1.00  0.00     0.039 A 
ATOM     12  C   UNL     1      42.929 131.991  18.651  1.00  0.00     0.013 A 
ATOM     13  C   UNL     1      44.942 131.348  17.397  1.00  0.00    -0.014 A 
ATOM     14  C   UNL     1      43.600 131.812  17.428  1.00  0.00     0.009 A 
ATOM     15  C   UNL     1      41.945 132.113  21.723  1.00  0.00     0.067 C 
BRANCH  13  16
ATOM     16  C   UNL     1      45.627 131.154  16.099  1.00  0.00     0.003 A 
ATOM     17  C   UNL     1      46.285 132.244  15.509  1.00  0.00     0.123 A 
ATOM     18  C   UNL     1      45.648 129.904  15.434  1.00  0.00    -0.037 A 
ATOM     19  N   UNL     1      46.901 132.109  14.306  1.00  0.00    -0.228 NA
ATOM     20  C   UNL     1      46.280 129.809  14.186  1.00  0.00     0.064 A 
ATOM     21  C   UNL     1      46.908 130.928  13.637  1.00  0.00     0.213 A 
ATOM     22  C   UNL     1      45.000 128.677  16.018  1.00  0.00     0.045 C 
ATOM     23  F   UNL     1      47.530 130.838  12.436  1.00  0.00    -0.185 F 
ENDBRANCH  13  16
ENDBRANCH   5   6
ENDBRANCH   1   5
TORSDOF 5
ENDMDL
MODEL 2
REMARK VINA RESULT:      -7.1      1.206      1.719
REMARK SMILES C#CCOCn1nc2cc(-c3cnc(F)cc3C)ccc2c1C
REMARK SMILES IDX 4 1 3 2 2 3 1 4 5 5 6 6 7 7 22 8 8 9 21 10 9 11 20 12 10 13
REMARK SMILES IDX 19 14 23 15 11 16 12 17 17 18 13 19 16 20 14 21 18 22 15 23
REMARK H PARENT
ROOT
ATOM      1  O   UNL     1      43.334 130.451  23.370  1.00  0.00    -0.347 OA
ENDROOT
BRANCH   1   2
ATOM      2  C   UNL     1      44.229 129.486  23.876  1.00  0.00     0.251 C 
BRANCH   2   3
ATOM      3  C   UNL     1      43.602 128.167  23.788  1.00  0.00    -0.078 C 
ATOM      4  C   UNL     1      43.084 127.081  23.716  1.00  0.00     0.006 C 
ENDBRANCH   2   3
ENDBRANCH   1   2
BRANCH   1   5
ATOM      5  C   UNL     1      44.048 131.570  22.879  1.00  0.00     0.306 C 
BRANCH   5   6
ATOM      6  N   UNL     1      44.104 131.539  21.418  1.00  0.00    -0.243 N 
ATOM      7  N   UNL     1      45.156 131.091  20.741  1.00  0.00    -0.170 NA
ATOM      8  C   UNL     1      43.139 131.962  20.562  1.00  0.00     0.046 A 
ATOM      9  C   UNL     1      44.854 131.216  19.437  1.00  0.00     0.093 A 
ATOM     10  C   UNL     1      43.602 131.745  19.281  1.00  0.00     0.023 A 
ATOM     11  C   UNL     1      45.641 130.860  18.346  1.00  0.00     0.039 A 
ATOM     12  C   UNL     1      43.035 131.947  18.025  1.00  0.00     0.013 A 
ATOM     13  C   UNL     1      45.112 131.066  17.051  1.00  0.00    -0.014 A 
ATOM     14  C   UNL     1      43.805 131.599  16.899  1.00  0.00     0.009 A 
ATOM     15  C   UNL     1      41.779 132.457  20.954  1.00  0.00     0.067 C 
BRANCH  13  16
ATOM     16  C   UNL     1      45.902 130.695  15.854  1.00  0.00     0.003 A 
ATOM     17  C   UNL     1      46.126 129.336  15.583  1.00  0.00     0.123 A 
ATOM     18  C   UNL     1      46.435 131.663  14.969  1.00  0.00    -0.037 A 
ATOM     19  N   UNL     1      46.868 128.960  14.510  1.00  0.00    -0.228 NA
ATOM     20  C   UNL     1      47.210 131.235  13.881  1.00  0.00     0.064 A 
ATOM     21  C   UNL     1      47.413 129.872  13.665  1.00  0.00     0.213 A 
ATOM     22  C   UNL     1      46.207 133.138  15.167  1.00  0.00     0.045 C 
ATOM     23  F   UNL     1      48.152 129.454  12.608  1.00  0.00    -0.185 F 
ENDBRANCH  13  16
ENDBRANCH   5   6
ENDBRANCH   1   5
TORSDOF 5
ENDMDL
MODEL 3
REMARK VINA RESULT:      -6.8      1.035      1.089
REMARK SMILES C#CCOCn1nc2cc(-c3cnc(F)cc3C)ccc2c1C
REMARK SMILES IDX 4 1 3 2 2 3 1 4 5 5 6 6 7 7 22 8 8 9 21 10 9 11 20 12 10 13
REMARK SMILES IDX 19 14 23 15 11 16 12 17 17 18 13 19 16 20 14 21 18 22 15 23
REMARK H PARENT
ROOT
ATOM      1  O   UNL     1      43.391 129.878  22.976  1.00  0.00    -0.347 OA
ENDROOT
BRANCH   1   2
ATOM      2  C   UNL     1      44.055 129.464  24.150  1.00  0.00     0.251 C 
BRANCH   2   3
ATOM      3  C   UNL     1      43.835 128.029  24.336  1.00  0.00    -0.078 C 
ATOM      4  C   UNL     1      43.654 126.847  24.488  1.00  0.00     0.006 C 
ENDBRANCH   2   3
ENDBRANCH   1   2
BRANCH   1   5
ATOM      5  C   UNL     1      43.793 131.188  22.625  1.00  0.00     0.306 C 
BRANCH   5   6
ATOM      6  N   UNL     1      43.912 131.313  21.173  1.00  0.00    -0.243 N 
ATOM      7  N   UNL     1      44.968 130.882  20.491  1.00  0.00    -0.170 NA
ATOM      8  C   UNL     1      43.010 131.883  20.332  1.00  0.00     0.046 A 
ATOM      9  C   UNL     1      44.731 131.165  19.198  1.00  0.00     0.093 A 
ATOM     10  C   UNL     1      43.517 131.780  19.054  1.00  0.00     0.023 A 
ATOM     11  C   UNL     1      45.546 130.885  18.105  1.00  0.00     0.039 A 
ATOM     12  C   UNL     1      43.019 132.150  17.807  1.00  0.00     0.013 A 
ATOM     13  C   UNL     1      45.087 131.261  16.822  1.00  0.00    -0.014 A 
ATOM     14  C   UNL     1      43.818 131.882  16.680  1.00  0.00     0.009 A 
ATOM     15  C   UNL     1      41.663 132.410  20.725  1.00  0.00     0.067 C 
BRANCH  13  16
ATOM     16  C   UNL     1      45.908 130.977  15.623  1.00  0.00     0.003 A 
ATOM     17  C   UNL     1      46.586 132.036  14.998  1.00  0.00     0.123 A 
ATOM     18  C   UNL     1      46.039 129.673  15.086  1.00  0.00    -0.037 A 
ATOM     19  N   UNL     1      47.326 131.816  13.880  1.00  0.00    -0.228 NA
ATOM     20  C   UNL     1      46.799 129.490  13.922  1.00  0.00     0.064 A 
ATOM     21  C   UNL     1      47.442 130.580  13.333  1.00  0.00     0.213 A 
ATOM     22  C   UNL     1      45.376 128.479  15.720  1.00  0.00     0.045 C 
ATOM     23  F   UNL     1      48.186 130.406  12.213  1.00  0.00    -0.185 F 
ENDBRANCH  13  16
ENDBRANCH   5   6
ENDBRANCH   1   5
TORSDOF 5
ENDMDL
MODEL 4
REMARK VINA RESULT:      -6.4      1.603      1.914
REMARK SMILES C#CCOCn1nc2cc(-c3cnc(F)cc3C)ccc2c1C
REMARK SMILES IDX 4 1 3 2 2 3 1 4 5 5 6 6 7 7 22 8 8 9 21 10 9 11 20 12 10 13
REMARK SMILES IDX 19 14 23 15 11 16 12 17 17 18 13 19 16 20 14 21 18 22 15 23
REMARK H PARENT
ROOT
ATOM      1  O   UNL     1      44.022 128.485  23.660  1.00  0.00    -0.347 OA
ENDROOT
BRANCH   1   2
ATOM      2  C   UNL     1      45.083 127.569  23.496  1.00  0.00     0.251 C 
BRANCH   2   3
ATOM      3  C   UNL     1      44.548 126.316  22.964  1.00  0.00    -0.078 C 
ATOM      4  C   UNL     1      44.105 125.283  22.527  1.00  0.00     0.006 C 
ENDBRANCH   2   3
ENDBRANCH   1   2
BRANCH   1   5
ATOM      5  C   UNL     1      44.496 129.810  23.528  1.00  0.00     0.306 C 
BRANCH   5   6
ATOM      6  N   UNL     1      44.487 130.219  22.124  1.00  0.00    -0.243 N 
ATOM      7  N   UNL     1      45.313 129.713  21.214  1.00  0.00    -0.170 NA
ATOM      8  C   UNL     1      43.679 131.152  21.558  1.00  0.00     0.046 A 
ATOM      9  C   UNL     1      45.021 130.319  20.050  1.00  0.00     0.093 A 
ATOM     10  C   UNL     1      44.001 131.216  20.218  1.00  0.00     0.023 A 
ATOM     11  C   UNL     1      45.611 130.102  18.809  1.00  0.00     0.039 A 
ATOM     12  C   UNL     1      43.484 131.955  19.156  1.00  0.00     0.013 A 
ATOM     13  C   UNL     1      45.130 130.846  17.707  1.00  0.00    -0.014 A 
ATOM     14  C   UNL     1      44.060 131.762  17.887  1.00  0.00     0.009 A 
ATOM     15  C   UNL     1      42.567 131.880  22.250  1.00  0.00     0.067 C 
BRANCH  13  16
ATOM     16  C   UNL     1      45.714 130.648  16.361  1.00  0.00     0.003 A 
ATOM     17  C   UNL     1      46.940 129.973  16.246  1.00  0.00     0.123 A 
ATOM     18  C   UNL     1      45.077 131.109  15.184  1.00  0.00    -0.037 A 
ATOM     19  N   UNL     1      47.518 129.797  15.029  1.00  0.00    -0.228 NA
ATOM     20  C   UNL     1      45.714 130.922  13.948  1.00  0.00     0.064 A 
ATOM     21  C   UNL     1      46.939 130.257  13.891  1.00  0.00     0.213 A 
ATOM     22  C   UNL     1      43.743 131.807  15.218  1.00  0.00     0.045 C 
ATOM     23  F   UNL     1      47.553 130.064  12.697  1.00  0.00    -0.185 F 
ENDBRANCH  13  16
ENDBRANCH   5   6
ENDBRANCH   1   5
TORSDOF 5
ENDMDL
MODEL 5
REMARK VINA RESULT:      -5.9      1.194      1.515
REMARK SMILES C#CCOCn1nc2cc(-c3cnc(F)cc3C)ccc2c1C
REMARK SMILES IDX 4 1 3 2 2 3 1 4 5 5 6 6 7 7 22 8 8 9 21 10 9 11 20 12 10 13
REMARK SMILES IDX 19 14 23 15 11 16 12 17 17 18 13 19 16 20 14 21 18 22 15 23
REMARK H PARENT
ROOT
ATOM      1  O   UNL     1      43.344 131.686  23.668  1.00  0.00    -0.347 OA
ENDROOT
BRANCH   1   2
ATOM      2  C   UNL     1      42.621 130.482  23.796  1.00  0.00     0.251 C 
BRANCH   2   3
ATOM      3  C   UNL     1      43.566 129.381  23.984  1.00  0.00    -0.078 C 
ATOM      4  C   UNL     1      44.344 128.473  24.140  1.00  0.00     0.006 C 
ENDBRANCH   2   3
ENDBRANCH   1   2
BRANCH   1   5
ATOM      5  C   UNL     1      44.614 131.435  23.098  1.00  0.00     0.306 C 
BRANCH   5   6
ATOM      6  N   UNL     1      44.527 131.433  21.638  1.00  0.00    -0.243 N 
ATOM      7  N   UNL     1      45.513 131.014  20.852  1.00  0.00    -0.170 NA
ATOM      8  C   UNL     1      43.476 131.859  20.890  1.00  0.00     0.046 A 
ATOM      9  C   UNL     1      45.083 131.160  19.587  1.00  0.00     0.093 A 
ATOM     10  C   UNL     1      43.814 131.673  19.565  1.00  0.00     0.023 A 
ATOM     11  C   UNL     1      45.763 130.836  18.417  1.00  0.00     0.039 A 
ATOM     12  C   UNL     1      43.125 131.891  18.375  1.00  0.00     0.013 A 
ATOM     13  C   UNL     1      45.107 131.059  17.184  1.00  0.00    -0.014 A 
ATOM     14  C   UNL     1      43.784 131.576  17.172  1.00  0.00     0.009 A 
ATOM     15  C   UNL     1      42.156 132.326  21.423  1.00  0.00     0.067 C 
BRANCH  13  16
ATOM     16  C   UNL     1      45.780 130.723  15.909  1.00  0.00     0.003 A 
ATOM     17  C   UNL     1      46.981 129.996  15.946  1.00  0.00     0.123 A 
ATOM     18  C   UNL     1      45.252 131.103  14.651  1.00  0.00    -0.037 A 
ATOM     19  N   UNL     1      47.638 129.693  14.797  1.00  0.00    -0.228 NA
ATOM     20  C   UNL     1      45.970 130.785  13.489  1.00  0.00     0.064 A 
ATOM     21  C   UNL     1      47.166 130.072  13.583  1.00  0.00     0.213 A 
ATOM     22  C   UNL     1      43.951 131.849  14.524  1.00  0.00     0.045 C 
ATOM     23  F   UNL     1      47.857 129.754  12.461  1.00  0.00    -0.185 F 
ENDBRANCH  13  16
ENDBRANCH   5   6
ENDBRANCH   1   5
TORSDOF 5
ENDMDL
MODEL 6
REMARK VINA RESULT:      -5.2      1.326      1.918
REMARK SMILES C#CCOCn1nc2cc(-c3cnc(F)cc3C)ccc2c1C
REMARK SMILES IDX 4 1 3 2 2 3 1 4 5 5 6 6 7 7 22 8 8 9 21 10 9 11 20 12 10 13
REMARK SMILES IDX 19 14 23 15 11 16 12 17 17 18 13 19 16 20 14 21 18 22 15 23
REMARK H PARENT
ROOT
ATOM      1  O   UNL     1      44.892 129.693  22.733  1.00  0.00    -0.347 OA
ENDROOT
BRANCH   1   2
ATOM      2  C   UNL     1      43.909 128.693  22.577  1.00  0.00     0.251 C 
BRANCH   2   3
ATOM      3  C   UNL     1      42.973 128.769  23.699  1.00  0.00    -0.078 C 
ATOM      4  C   UNL     1      42.203 128.831  24.624  1.00  0.00     0.006 C 
ENDBRANCH   2   3
ENDBRANCH   1   2
BRANCH   1   5
ATOM      5  C   UNL     1      44.399 130.937  22.277  1.00  0.00     0.306 C 
BRANCH   5   6
ATOM      6  N   UNL     1      44.535 131.038  20.824  1.00  0.00    -0.243 N 
ATOM      7  N   UNL     1      45.545 130.500  20.149  1.00  0.00    -0.170 NA
ATOM      8  C   UNL     1      43.695 131.686  19.975  1.00  0.00     0.046 A 
ATOM      9  C   UNL     1      45.342 130.795  18.853  1.00  0.00     0.093 A 
ATOM     10  C   UNL     1      44.194 131.524  18.700  1.00  0.00     0.023 A 
ATOM     11  C   UNL     1      46.128 130.427  17.766  1.00  0.00     0.039 A 
ATOM     12  C   UNL     1      43.738 131.930  17.448  1.00  0.00     0.013 A 
ATOM     13  C   UNL     1      45.713 130.836  16.478  1.00  0.00    -0.014 A 
ATOM     14  C   UNL     1      44.511 131.577  16.326  1.00  0.00     0.009 A 
ATOM     15  C   UNL     1      42.405 132.346  20.358  1.00  0.00     0.067 C 
BRANCH  13  16
ATOM     16  C   UNL     1      46.506 130.463  15.285  1.00  0.00     0.003 A 
ATOM     17  C   UNL     1      46.801 129.108  15.061  1.00  0.00     0.123 A 
ATOM     18  C   UNL     1      46.973 131.424  14.355  1.00  0.00    -0.037 A 
ATOM     19  N   UNL     1      47.549 128.734  13.992  1.00  0.00    -0.228 NA
ATOM     20  C   UNL     1      47.756 130.999  13.272  1.00  0.00     0.064 A 
ATOM     21  C   UNL     1      48.031 129.641  13.105  1.00  0.00     0.213 A 
ATOM     22  C   UNL     1      46.667 132.891  14.502  1.00  0.00     0.045 C 
ATOM     23  F   UNL     1      48.779 129.224  12.053  1.00  0.00    -0.185 F 
ENDBRANCH  13  16
ENDBRANCH   5   6
ENDBRANCH   1   5
TORSDOF 5
ENDMDL
MODEL 7
REMARK VINA RESULT:      -5.2      1.678      2.097
REMARK SMILES C#CCOCn1nc2cc(-c3cnc(F)cc3C)ccc2c1C
REMARK SMILES IDX 4 1 3 2 2 3 1 4 5 5 6 6 7 7 22 8 8 9 21 10 9 11 20 12 10 13
REMARK SMILES IDX 19 14 23 15 11 16 12 17 17 18 13 19 16 20 14 21 18 22 15 23
REMARK H PARENT
ROOT
ATOM      1  O   UNL     1      43.174 128.797  24.432  1.00  0.00    -0.347 OA
ENDROOT
BRANCH   1   2
ATOM      2  C   UNL     1      43.238 127.436  24.066  1.00  0.00     0.251 C 
BRANCH   2   3
ATOM      3  C   UNL     1      44.575 126.927  24.371  1.00  0.00    -0.078 C 
ATOM      4  C   UNL     1      45.676 126.506  24.622  1.00  0.00     0.006 C 
ENDBRANCH   2   3
ENDBRANCH   1   2
BRANCH   1   5
ATOM      5  C   UNL     1      44.394 129.443  24.124  1.00  0.00     0.306 C 
BRANCH   5   6
ATOM      6  N   UNL     1      44.373 129.945  22.750  1.00  0.00    -0.243 N 
ATOM      7  N   UNL     1      45.146 129.455  21.786  1.00  0.00    -0.170 NA
ATOM      8  C   UNL     1      43.607 130.958  22.269  1.00  0.00     0.046 A 
ATOM      9  C   UNL     1      44.860 130.154  20.673  1.00  0.00     0.093 A 
ATOM     10  C   UNL     1      43.898 131.094  20.928  1.00  0.00     0.023 A 
ATOM     11  C   UNL     1      45.405 129.988  19.403  1.00  0.00     0.039 A 
ATOM     12  C   UNL     1      43.400 131.930  19.933  1.00  0.00     0.013 A 
ATOM     13  C   UNL     1      44.942 130.830  18.367  1.00  0.00    -0.014 A 
ATOM     14  C   UNL     1      43.931 131.790  18.637  1.00  0.00     0.009 A 
ATOM     15  C   UNL     1      42.557 131.700  23.040  1.00  0.00     0.067 C 
BRANCH  13  16
ATOM     16  C   UNL     1      45.479 130.689  16.995  1.00  0.00     0.003 A 
ATOM     17  C   UNL     1      46.667 129.966  16.801  1.00  0.00     0.123 A 
ATOM     18  C   UNL     1      44.834 131.254  15.867  1.00  0.00    -0.037 A 
ATOM     19  N   UNL     1      47.203 129.841  15.560  1.00  0.00    -0.228 NA
ATOM     20  C   UNL     1      45.428 131.115  14.604  1.00  0.00     0.064 A 
ATOM     21  C   UNL     1      46.617 130.398  14.470  1.00  0.00     0.213 A 
ATOM     22  C   UNL     1      43.537 132.010  15.985  1.00  0.00     0.045 C 
ATOM     23  F   UNL     1      47.189 130.253  13.249  1.00  0.00    -0.185 F 
ENDBRANCH  13  16
ENDBRANCH   5   6
ENDBRANCH   1   5
TORSDOF 5
ENDMDL
MODEL 8
REMARK VINA RESULT:      -5.1      1.824      2.170
REMARK SMILES C#CCOCn1nc2cc(-c3cnc(F)cc3C)ccc2c1C
REMARK SMILES IDX 4 1 3 2 2 3 1 4 5 5 6 6 7 7 22 8 8 9 21 10 9 11 20 12 10 13
REMARK SMILES IDX 19 14 23 15 11 16 12 17 17 18 13 19 16 20 14 21 18 22 15 23
REMARK H PARENT
ROOT
ATOM      1  O   UNL     1      45.392 128.274  22.931  1.00  0.00    -0.347 OA
ENDROOT
BRANCH   1   2
ATOM      2  C   UNL     1      44.561 127.135  22.905  1.00  0.00     0.251 C 
BRANCH   2   3
ATOM      3  C   UNL     1      45.097 126.137  23.832  1.00  0.00    -0.078 C 
ATOM      4  C   UNL     1      45.539 125.315  24.594  1.00  0.00     0.006 C 
ENDBRANCH   2   3
ENDBRANCH   1   2
BRANCH   1   5
ATOM      5  C   UNL     1      44.617 129.447  22.779  1.00  0.00     0.306 C 
BRANCH   5   6
ATOM      6  N   UNL     1      44.729 129.960  21.414  1.00  0.00    -0.243 N 
ATOM      7  N   UNL     1      45.504 129.403  20.489  1.00  0.00    -0.170 NA
ATOM      8  C   UNL     1      44.099 131.050  20.904  1.00  0.00     0.046 A 
ATOM      9  C   UNL     1      45.357 130.136  19.372  1.00  0.00     0.093 A 
ATOM     10  C   UNL     1      44.482 131.167  19.584  1.00  0.00     0.023 A 
ATOM     11  C   UNL     1      45.957 129.926  18.134  1.00  0.00     0.039 A 
ATOM     12  C   UNL     1      44.130 132.058  18.574  1.00  0.00     0.013 A 
ATOM     13  C   UNL     1      45.643 130.820  17.085  1.00  0.00    -0.014 A 
ATOM     14  C   UNL     1      44.720 131.876  17.309  1.00  0.00     0.009 A 
ATOM     15  C   UNL     1      43.085 131.888  21.623  1.00  0.00     0.067 C 
BRANCH  13  16
ATOM     16  C   UNL     1      46.244 130.638  15.744  1.00  0.00     0.003 A 
ATOM     17  C   UNL     1      47.445 129.919  15.630  1.00  0.00     0.123 A 
ATOM     18  C   UNL     1      45.648 131.157  14.569  1.00  0.00    -0.037 A 
ATOM     19  N   UNL     1      48.039 129.756  14.420  1.00  0.00    -0.228 NA
ATOM     20  C   UNL     1      46.300 130.981  13.340  1.00  0.00     0.064 A 
ATOM     21  C   UNL     1      47.499 130.270  13.286  1.00  0.00     0.213 A 
ATOM     22  C   UNL     1      44.341 131.905  14.601  1.00  0.00     0.045 C 
ATOM     23  F   UNL     1      48.128 130.088  12.098  1.00  0.00    -0.185 F 
ENDBRANCH  13  16
ENDBRANCH   5   6
ENDBRANCH   1   5
TORSDOF 5
ENDMDL
MODEL 9
REMARK VINA RESULT:      -5.0      1.192      1.414
REMARK SMILES C#CCOCn1nc2cc(-c3cnc(F)cc3C)ccc2c1C
REMARK SMILES IDX 4 1 3 2 2 3 1 4 5 5 6 6 7 7 22 8 8 9 21 10 9 11 20 12 10 13
REMARK SMILES IDX 19 14 23 15 11 16 12 17 17 18 13 19 16 20 14 21 18 22 15 23
REMARK H PARENT
ROOT
ATOM      1  O   UNL     1      44.817 130.239  24.027  1.00  0.00    -0.347 OA
ENDROOT
BRANCH   1   2
ATOM      2  C   UNL     1      43.911 129.166  23.893  1.00  0.00     0.251 C 
BRANCH   2   3
ATOM      3  C   UNL     1      44.617 127.914  24.166  1.00  0.00    -0.078 C 
ATOM      4  C   UNL     1      45.197 126.882  24.392  1.00  0.00     0.006 C 
ENDBRANCH   2   3
ENDBRANCH   1   2
BRANCH   1   5
ATOM      5  C   UNL     1      44.204 131.449  23.630  1.00  0.00     0.306 C 
BRANCH   5   6
ATOM      6  N   UNL     1      44.066 131.499  22.175  1.00  0.00    -0.243 N 
ATOM      7  N   UNL     1      45.052 131.189  21.341  1.00  0.00    -0.170 NA
ATOM      8  C   UNL     1      42.961 131.872  21.479  1.00  0.00     0.046 A 
ATOM      9  C   UNL     1      44.568 131.351  20.097  1.00  0.00     0.093 A 
ATOM     10  C   UNL     1      43.265 131.766  20.137  1.00  0.00     0.023 A 
ATOM     11  C   UNL     1      45.230 131.127  18.893  1.00  0.00     0.039 A 
ATOM     12  C   UNL     1      42.519 131.976  18.980  1.00  0.00     0.013 A 
ATOM     13  C   UNL     1      44.516 131.348  17.693  1.00  0.00    -0.014 A 
ATOM     14  C   UNL     1      43.158 131.761  17.745  1.00  0.00     0.009 A 
ATOM     15  C   UNL     1      41.629 132.215  22.073  1.00  0.00     0.067 C 
BRANCH  13  16
ATOM     16  C   UNL     1      45.167 131.115  16.383  1.00  0.00     0.003 A 
ATOM     17  C   UNL     1      44.681 131.792  15.254  1.00  0.00     0.123 A 
ATOM     18  C   UNL     1      46.267 130.237  16.231  1.00  0.00    -0.037 A 
ATOM     19  N   UNL     1      45.237 131.581  14.033  1.00  0.00    -0.228 NA
ATOM     20  C   UNL     1      46.803 130.034  14.950  1.00  0.00     0.064 A 
ATOM     21  C   UNL     1      46.274 130.723  13.858  1.00  0.00     0.213 A 
ATOM     22  C   UNL     1      46.872 129.503  17.399  1.00  0.00     0.045 C 
ATOM     23  F   UNL     1      46.796 130.538  12.621  1.00  0.00    -0.185 F 
ENDBRANCH  13  16
ENDBRANCH   5   6
ENDBRANCH   1   5
TORSDOF 5
ENDMDL


