REMARK SMILES C=Cc1ccc(-c2cccc3cc([NH2+]c4ccc(F)cc4C)[n-]c23)[nH+]c1
REMARK SMILES IDX 7 1 8 2 9 3 10 4 11 5 12 6 13 7 23 8 24 9 6 10 3 11 4 12
REMARK SMILES IDX 26 13 5 14 25 15 2 17 1 18 14 19 15 22 16 23 21 24 17 25
REMARK SMILES IDX 20 26 18 27 22 28 19 29
REMARK H PARENT 25 16 14 20 14 21
ROOT
ATOM      1  C   UNL     1       0.195   1.719   1.687  1.00  0.00     0.032 A 
ATOM      2  C   UNL     1       0.772   2.483   2.729  1.00  0.00     0.014 A 
ATOM      3  C   UNL     1       1.579   3.605   2.442  1.00  0.00     0.001 A 
ATOM      4  C   UNL     1       1.823   3.987   1.112  1.00  0.00     0.007 A 
ATOM      5  C   UNL     1       1.240   3.227   0.102  1.00  0.00    -0.035 A 
ATOM      6  C   UNL     1       1.304   3.367  -1.263  1.00  0.00     0.050 A 
ATOM      7  C   UNL     1       0.519   2.329  -1.754  1.00  0.00     0.036 A 
ATOM      8  N   UNL     1      -0.003   1.568  -0.763  1.00  0.00    -0.609 NA
ATOM      9  C   UNL     1       0.454   2.134   0.371  1.00  0.00    -0.111 A 
ENDROOT
BRANCH   1  10
ATOM     10  C   UNL     1      -0.649   0.537   1.991  1.00  0.00     0.209 A 
ATOM     11  C   UNL     1      -2.257  -1.672   2.592  1.00  0.00     0.038 A 
ATOM     12  C   UNL     1      -1.303  -1.754   1.563  1.00  0.00     0.021 A 
ATOM     13  C   UNL     1      -2.354  -0.473   3.313  1.00  0.00     0.314 A 
ATOM     14  C   UNL     1      -0.502  -0.652   1.262  1.00  0.00     0.080 A 
ATOM     15  N   UNL     1      -1.563   0.591   3.004  1.00  0.00    -0.211 N 
ATOM     16  H   UNL     1      -1.687   1.472   3.551  1.00  0.00     0.453 HD
BRANCH  11  17
ATOM     17  C   UNL     1      -3.143  -2.804   2.962  1.00  0.00     0.006 C 
ATOM     18  C   UNL     1      -3.379  -3.857   2.178  1.00  0.00     0.009 C 
ENDBRANCH  11  17
ENDBRANCH   1  10
BRANCH   7  19
ATOM     19  N   UNL     1       0.350   2.021  -3.146  1.00  0.00    -0.299 N 
ATOM     20  H   UNL     1       0.542   2.876  -3.721  1.00  0.00     0.356 HD
ATOM     21  H   UNL     1      -0.644   1.758  -3.324  1.00  0.00     0.356 HD
BRANCH  19  22
ATOM     22  C   UNL     1       1.265   0.967  -3.517  1.00  0.00     0.136 A 
ATOM     23  C   UNL     1       2.600   1.298  -3.813  1.00  0.00     0.071 A 
ATOM     24  C   UNL     1       0.874  -0.400  -3.538  1.00  0.00     0.013 A 
ATOM     25  C   UNL     1       3.527   0.308  -4.139  1.00  0.00     0.045 A 
ATOM     26  C   UNL     1       1.823  -1.383  -3.872  1.00  0.00     0.048 A 
ATOM     27  C   UNL     1       3.139  -1.030  -4.170  1.00  0.00     0.123 A 
ATOM     28  C   UNL     1      -0.540  -0.826  -3.250  1.00  0.00     0.051 C 
ATOM     29  F   UNL     1       4.044  -1.989  -4.487  1.00  0.00    -0.207 F 
ENDBRANCH  19  22
ENDBRANCH   7  19
TORSDOF 4


