REMARK SMILES CC(F)(F)COC(=O)N(c1cn2ccccc2n1)c1cc2cccc(F)c2[nH]1
REMARK SMILES IDX 6 1 5 2 2 3 1 4 3 5 4 6 7 7 8 8 9 9 10 10 11 11 18 12 12 13
REMARK SMILES IDX 17 14 13 15 16 16 14 17 15 18 19 19 20 20 28 21 21 22 27 23
REMARK SMILES IDX 22 24 25 25 23 26 24 27 26 29
REMARK H PARENT 28 28
ROOT
ATOM      1  O   UNL     1      -0.499   1.051  -2.530  1.00  0.00    -0.442 OA
ENDROOT
BRANCH   1   2
ATOM      2  C   UNL     1      -0.756   1.307  -3.908  1.00  0.00     0.311 C 
BRANCH   2   3
ATOM      3  C   UNL     1      -1.745   2.466  -4.051  1.00  0.00     0.278 C 
ATOM      4  C   UNL     1      -3.098   2.130  -3.424  1.00  0.00     0.091 C 
ATOM      5  F   UNL     1      -1.225   3.593  -3.436  1.00  0.00    -0.203 F 
ATOM      6  F   UNL     1      -1.928   2.740  -5.395  1.00  0.00    -0.203 F 
ENDBRANCH   2   3
ENDBRANCH   1   2
BRANCH   1   7
ATOM      7  C   UNL     1       0.389   0.063  -2.093  1.00  0.00     0.421 C 
ATOM      8  O   UNL     1       1.012  -0.641  -2.935  1.00  0.00    -0.223 OA
BRANCH   7   9
ATOM      9  N   UNL     1       0.595  -0.143  -0.682  1.00  0.00    -0.213 N 
BRANCH   9  10
ATOM     10  C   UNL     1       0.183   0.869   0.257  1.00  0.00     0.163 A 
ATOM     11  C   UNL     1      -0.166   0.649   1.583  1.00  0.00     0.140 A 
ATOM     12  N   UNL     1       0.059   2.183  -0.059  1.00  0.00    -0.211 NA
ATOM     13  N   UNL     1      -0.505   1.841   2.091  1.00  0.00    -0.305 N 
ATOM     14  C   UNL     1      -0.362   2.734   1.097  1.00  0.00     0.139 A 
ATOM     15  C   UNL     1      -0.924   2.169   3.340  1.00  0.00     0.093 A 
ATOM     16  C   UNL     1      -0.645   4.083   1.302  1.00  0.00     0.048 A 
ATOM     17  C   UNL     1      -1.223   3.513   3.605  1.00  0.00     0.018 A 
ATOM     18  C   UNL     1      -1.081   4.470   2.580  1.00  0.00     0.005 A 
ENDBRANCH   9  10
BRANCH   9  19
ATOM     19  C   UNL     1       1.218  -1.356  -0.216  1.00  0.00     0.123 A 
ATOM     20  C   UNL     1       2.126  -1.435   0.839  1.00  0.00     0.056 A 
ATOM     21  N   UNL     1       0.992  -2.575  -0.764  1.00  0.00    -0.338 N 
ATOM     22  C   UNL     1       2.453  -2.770   0.920  1.00  0.00     0.005 A 
ATOM     23  C   UNL     1       1.752  -3.429  -0.059  1.00  0.00     0.083 A 
ATOM     24  C   UNL     1       3.314  -3.441   1.786  1.00  0.00     0.010 A 
ATOM     25  C   UNL     1       1.865  -4.808  -0.235  1.00  0.00     0.147 A 
ATOM     26  C   UNL     1       3.449  -4.833   1.631  1.00  0.00     0.004 A 
ATOM     27  C   UNL     1       2.728  -5.514   0.625  1.00  0.00     0.041 A 
ATOM     28  H   UNL     1       0.349  -2.808  -1.553  1.00  0.00     0.168 HD
ATOM     29  F   UNL     1       1.169  -5.452  -1.204  1.00  0.00    -0.205 F 
ENDBRANCH   9  19
ENDBRANCH   7   9
ENDBRANCH   1   7
TORSDOF 6


