REMARK SMILES O=C(c1ccc(F)cc1)[C@H]1O[C@@H]1[C@@H]1CC[C@H]2N=CC[C@@]2(F)C1
REMARK SMILES IDX 10 1 11 2 12 3 2 4 1 5 3 6 4 7 9 8 5 9 8 10 6 11 7 12 13 13
REMARK SMILES IDX 14 14 22 15 15 16 20 17 16 18 19 19 17 20 18 21 21 22
REMARK H PARENT
ROOT
ATOM      1  C   UNL     1       0.160  -0.812   1.897  1.00  0.00     0.219 C 
ATOM      2  O   UNL     1      -1.023  -0.059   2.059  1.00  0.00    -0.361 OA
ATOM      3  C   UNL     1      -0.390   0.027   0.803  1.00  0.00     0.159 C 
ENDROOT
BRANCH   1   4
ATOM      4  C   UNL     1       1.308  -0.209   2.648  1.00  0.00     0.194 C 
ATOM      5  O   UNL     1       1.097   0.270   3.796  1.00  0.00    -0.291 OA
BRANCH   4   6
ATOM      6  C   UNL     1       2.680  -0.191   2.080  1.00  0.00     0.021 A 
ATOM      7  C   UNL     1       2.990  -0.904   0.904  1.00  0.00     0.015 A 
ATOM      8  C   UNL     1       3.700   0.545   2.714  1.00  0.00     0.015 A 
ATOM      9  C   UNL     1       4.283  -0.873   0.376  1.00  0.00     0.040 A 
ATOM     10  C   UNL     1       4.992   0.572   2.180  1.00  0.00     0.040 A 
ATOM     11  C   UNL     1       5.284  -0.135   1.012  1.00  0.00     0.123 A 
ATOM     12  F   UNL     1       6.538  -0.107   0.497  1.00  0.00    -0.207 F 
ENDBRANCH   4   6
ENDBRANCH   1   4
BRANCH   3  13
ATOM     13  C   UNL     1      -1.179  -0.711  -0.292  1.00  0.00     0.024 C 
ATOM     14  C   UNL     1      -0.212  -1.203  -1.399  1.00  0.00     0.009 C 
ATOM     15  C   UNL     1      -2.322   0.184  -0.836  1.00  0.00     0.050 C 
ATOM     16  C   UNL     1      -0.868  -1.189  -2.781  1.00  0.00     0.031 C 
ATOM     17  C   UNL     1      -1.884   1.073  -2.024  1.00  0.00     0.138 C 
ATOM     18  C   UNL     1      -1.231   0.254  -3.170  1.00  0.00     0.142 C 
ATOM     19  C   UNL     1      -3.096   1.742  -2.697  1.00  0.00     0.091 C 
ATOM     20  N   UNL     1      -2.194   0.264  -4.237  1.00  0.00    -0.291 NA
ATOM     21  C   UNL     1      -3.175   1.048  -4.007  1.00  0.00     0.081 C 
ATOM     22  F   UNL     1      -1.004   2.045  -1.572  1.00  0.00    -0.241 F 
ENDBRANCH   3  13
TORSDOF 3


