MODEL 1
REMARK VINA RESULT:     -10.0      0.000      0.000
REMARK SMILES N#Cc1ccc(Nc2ccc3cc[nH]c3c2)c(F)c1
REMARK SMILES IDX 3 1 4 2 5 3 6 4 17 5 18 6 19 7 2 8 1 9 7 10 8 12 9 13 16 14
REMARK SMILES IDX 10 15 15 16 11 17 14 18 12 19 13 20
REMARK H PARENT 7 11 14 21
ROOT
ATOM      1  C   UNL     1      43.887 131.489  21.326  1.00  0.00     0.055 A 
ATOM      2  C   UNL     1      45.052 131.202  20.606  1.00  0.00     0.022 A 
ATOM      3  C   UNL     1      45.061 131.317  19.213  1.00  0.00     0.030 A 
ATOM      4  C   UNL     1      43.901 131.704  18.524  1.00  0.00     0.075 A 
ATOM      5  C   UNL     1      42.739 132.017  19.254  1.00  0.00     0.147 A 
ATOM      6  F   UNL     1      41.626 132.472  18.625  1.00  0.00    -0.205 F 
ATOM      7  C   UNL     1      42.733 131.902  20.649  1.00  0.00     0.061 A 
ENDROOT
BRANCH   1   8
ATOM      8  C   UNL     1      43.879 131.373  22.761  1.00  0.00     0.099 C 
ATOM      9  N   UNL     1      43.873 131.279  23.914  1.00  0.00    -0.192 NA
ENDBRANCH   1   8
BRANCH   4  10
ATOM     10  N   UNL     1      43.943 131.830  17.094  1.00  0.00    -0.353 N 
ATOM     11  H   UNL     1      43.265 132.486  16.644  1.00  0.00     0.167 HD
BRANCH  10  12
ATOM     12  C   UNL     1      44.908 131.175  16.252  1.00  0.00     0.041 A 
ATOM     13  C   UNL     1      45.020 129.762  16.299  1.00  0.00     0.027 A 
ATOM     14  C   UNL     1      45.705 131.909  15.340  1.00  0.00     0.052 A 
ATOM     15  C   UNL     1      45.935 129.084  15.473  1.00  0.00     0.012 A 
ATOM     16  C   UNL     1      46.602 131.206  14.538  1.00  0.00     0.047 A 
ATOM     17  C   UNL     1      46.713 129.843  14.605  1.00  0.00    -0.001 A 
ATOM     18  N   UNL     1      47.444 131.708  13.622  1.00  0.00    -0.361 N 
ATOM     19  C   UNL     1      47.670 129.462  13.691  1.00  0.00     0.028 A 
ATOM     20  C   UNL     1      48.101 130.647  13.101  1.00  0.00     0.083 A 
ATOM     21  H   UNL     1      47.569 132.711  13.361  1.00  0.00     0.166 HD
ENDBRANCH  10  12
ENDBRANCH   4  10
TORSDOF 3
ENDMDL
MODEL 2
REMARK VINA RESULT:      -9.3      1.109      1.571
REMARK SMILES N#Cc1ccc(Nc2ccc3cc[nH]c3c2)c(F)c1
REMARK SMILES IDX 3 1 4 2 5 3 6 4 17 5 18 6 19 7 2 8 1 9 7 10 8 12 9 13 16 14
REMARK SMILES IDX 10 15 15 16 11 17 14 18 12 19 13 20
REMARK H PARENT 7 11 14 21
ROOT
ATOM      1  C   UNL     1      43.876 131.462  21.433  1.00  0.00     0.055 A 
ATOM      2  C   UNL     1      42.716 131.849  20.752  1.00  0.00     0.022 A 
ATOM      3  C   UNL     1      42.728 131.971  19.360  1.00  0.00     0.030 A 
ATOM      4  C   UNL     1      43.904 131.725  18.635  1.00  0.00     0.075 A 
ATOM      5  C   UNL     1      45.061 131.310  19.321  1.00  0.00     0.147 A 
ATOM      6  F   UNL     1      46.190 130.985  18.642  1.00  0.00    -0.205 F 
ATOM      7  C   UNL     1      45.046 131.187  20.715  1.00  0.00     0.061 A 
ENDROOT
BRANCH   1   8
ATOM      8  C   UNL     1      43.863 131.334  22.867  1.00  0.00     0.099 C 
ATOM      9  N   UNL     1      43.852 131.230  24.019  1.00  0.00    -0.192 NA
ENDBRANCH   1   8
BRANCH   4  10
ATOM     10  N   UNL     1      43.884 131.842  17.203  1.00  0.00    -0.353 N 
ATOM     11  H   UNL     1      43.180 132.486  16.778  1.00  0.00     0.167 HD
BRANCH  10  12
ATOM     12  C   UNL     1      44.820 131.191  16.327  1.00  0.00     0.041 A 
ATOM     13  C   UNL     1      44.849 129.774  16.274  1.00  0.00     0.027 A 
ATOM     14  C   UNL     1      45.671 131.939  15.477  1.00  0.00     0.052 A 
ATOM     15  C   UNL     1      45.734 129.103  15.411  1.00  0.00     0.012 A 
ATOM     16  C   UNL     1      46.536 131.243  14.635  1.00  0.00     0.047 A 
ATOM     17  C   UNL     1      46.567 129.875  14.606  1.00  0.00    -0.001 A 
ATOM     18  N   UNL     1      47.419 131.758  13.765  1.00  0.00    -0.361 N 
ATOM     19  C   UNL     1      47.512 129.503  13.676  1.00  0.00     0.028 A 
ATOM     20  C   UNL     1      48.019 130.699  13.176  1.00  0.00     0.083 A 
ATOM     21  H   UNL     1      47.605 132.768  13.577  1.00  0.00     0.166 HD
ENDBRANCH  10  12
ENDBRANCH   4  10
TORSDOF 3
ENDMDL
MODEL 3
REMARK VINA RESULT:      -9.3      1.515      7.076
REMARK SMILES N#Cc1ccc(Nc2ccc3cc[nH]c3c2)c(F)c1
REMARK SMILES IDX 3 1 4 2 5 3 6 4 17 5 18 6 19 7 2 8 1 9 7 10 8 12 9 13 16 14
REMARK SMILES IDX 10 15 15 16 11 17 14 18 12 19 13 20
REMARK H PARENT 7 11 14 21
ROOT
ATOM      1  C   UNL     1      46.725 130.239  14.732  1.00  0.00     0.055 A 
ATOM      2  C   UNL     1      46.833 129.981  16.104  1.00  0.00     0.022 A 
ATOM      3  C   UNL     1      45.866 130.470  16.987  1.00  0.00     0.030 A 
ATOM      4  C   UNL     1      44.791 131.235  16.510  1.00  0.00     0.075 A 
ATOM      5  C   UNL     1      44.671 131.469  15.127  1.00  0.00     0.147 A 
ATOM      6  F   UNL     1      43.601 132.135  14.626  1.00  0.00    -0.205 F 
ATOM      7  C   UNL     1      45.640 130.978  14.246  1.00  0.00     0.061 A 
ENDROOT
BRANCH   1   8
ATOM      8  C   UNL     1      47.720 129.733  13.823  1.00  0.00     0.099 C 
ATOM      9  N   UNL     1      48.519 129.327  13.092  1.00  0.00    -0.192 NA
ENDBRANCH   1   8
BRANCH   4  10
ATOM     10  N   UNL     1      43.802 131.710  17.438  1.00  0.00    -0.353 N 
ATOM     11  H   UNL     1      42.917 132.104  17.046  1.00  0.00     0.167 HD
BRANCH  10  12
ATOM     12  C   UNL     1      43.918 131.606  18.867  1.00  0.00     0.041 A 
ATOM     13  C   UNL     1      45.161 131.226  19.434  1.00  0.00     0.027 A 
ATOM     14  C   UNL     1      42.832 131.929  19.718  1.00  0.00     0.052 A 
ATOM     15  C   UNL     1      45.319 131.137  20.830  1.00  0.00     0.012 A 
ATOM     16  C   UNL     1      43.023 131.829  21.094  1.00  0.00     0.047 A 
ATOM     17  C   UNL     1      44.223 131.445  21.629  1.00  0.00    -0.001 A 
ATOM     18  N   UNL     1      42.129 132.082  22.063  1.00  0.00    -0.361 N 
ATOM     19  C   UNL     1      44.086 131.453  23.000  1.00  0.00     0.028 A 
ATOM     20  C   UNL     1      42.773 131.853  23.230  1.00  0.00     0.083 A 
ATOM     21  H   UNL     1      41.140 132.393  21.944  1.00  0.00     0.166 HD
ENDBRANCH  10  12
ENDBRANCH   4  10
TORSDOF 3
ENDMDL
MODEL 4
REMARK VINA RESULT:      -9.2      1.633      6.860
REMARK SMILES N#Cc1ccc(Nc2ccc3cc[nH]c3c2)c(F)c1
REMARK SMILES IDX 3 1 4 2 5 3 6 4 17 5 18 6 19 7 2 8 1 9 7 10 8 12 9 13 16 14
REMARK SMILES IDX 10 15 15 16 11 17 14 18 12 19 13 20
REMARK H PARENT 7 11 14 21
ROOT
ATOM      1  C   UNL     1      46.511 130.281  14.801  1.00  0.00     0.055 A 
ATOM      2  C   UNL     1      46.467 130.139  16.193  1.00  0.00     0.022 A 
ATOM      3  C   UNL     1      45.391 130.661  16.916  1.00  0.00     0.030 A 
ATOM      4  C   UNL     1      44.358 131.346  16.259  1.00  0.00     0.075 A 
ATOM      5  C   UNL     1      44.393 131.463  14.856  1.00  0.00     0.147 A 
ATOM      6  F   UNL     1      43.370 132.047  14.183  1.00  0.00    -0.205 F 
ATOM      7  C   UNL     1      45.471 130.938  14.134  1.00  0.00     0.061 A 
ENDROOT
BRANCH   1   8
ATOM      8  C   UNL     1      47.618 129.740  14.056  1.00  0.00     0.099 C 
ATOM      9  N   UNL     1      48.508 129.305  13.458  1.00  0.00    -0.192 NA
ENDBRANCH   1   8
BRANCH   4  10
ATOM     10  N   UNL     1      43.255 131.858  17.025  1.00  0.00    -0.353 N 
ATOM     11  H   UNL     1      42.406 132.173  16.504  1.00  0.00     0.167 HD
BRANCH  10  12
ATOM     12  C   UNL     1      43.216 131.891  18.462  1.00  0.00     0.041 A 
ATOM     13  C   UNL     1      42.059 132.388  19.111  1.00  0.00     0.027 A 
ATOM     14  C   UNL     1      44.289 131.385  19.237  1.00  0.00     0.052 A 
ATOM     15  C   UNL     1      41.975 132.414  20.516  1.00  0.00     0.012 A 
ATOM     16  C   UNL     1      44.173 131.426  20.625  1.00  0.00     0.047 A 
ATOM     17  C   UNL     1      43.057 131.924  21.240  1.00  0.00    -0.001 A 
ATOM     18  N   UNL     1      45.070 131.006  21.531  1.00  0.00    -0.361 N 
ATOM     19  C   UNL     1      43.253 131.818  22.599  1.00  0.00     0.028 A 
ATOM     20  C   UNL     1      44.513 131.243  22.740  1.00  0.00     0.083 A 
ATOM     21  H   UNL     1      46.005 130.580  21.345  1.00  0.00     0.166 HD
ENDBRANCH  10  12
ENDBRANCH   4  10
TORSDOF 3
ENDMDL
MODEL 5
REMARK VINA RESULT:      -9.1      1.524      7.090
REMARK SMILES N#Cc1ccc(Nc2ccc3cc[nH]c3c2)c(F)c1
REMARK SMILES IDX 3 1 4 2 5 3 6 4 17 5 18 6 19 7 2 8 1 9 7 10 8 12 9 13 16 14
REMARK SMILES IDX 10 15 15 16 11 17 14 18 12 19 13 20
REMARK H PARENT 7 11 14 21
ROOT
ATOM      1  C   UNL     1      46.983 130.332  14.372  1.00  0.00     0.055 A 
ATOM      2  C   UNL     1      46.840 131.701  14.627  1.00  0.00     0.022 A 
ATOM      3  C   UNL     1      45.856 132.148  15.513  1.00  0.00     0.030 A 
ATOM      4  C   UNL     1      44.995 131.235  16.140  1.00  0.00     0.075 A 
ATOM      5  C   UNL     1      45.161 129.857  15.901  1.00  0.00     0.147 A 
ATOM      6  F   UNL     1      44.398 128.944  16.553  1.00  0.00    -0.205 F 
ATOM      7  C   UNL     1      46.147 129.412  15.014  1.00  0.00     0.061 A 
ENDROOT
BRANCH   1   8
ATOM      8  C   UNL     1      47.998 129.871  13.460  1.00  0.00     0.099 C 
ATOM      9  N   UNL     1      48.814 129.501  12.729  1.00  0.00    -0.192 NA
ENDBRANCH   1   8
BRANCH   4  10
ATOM     10  N   UNL     1      44.004 131.721  17.059  1.00  0.00    -0.353 N 
ATOM     11  H   UNL     1      43.139 132.151  16.660  1.00  0.00     0.167 HD
BRANCH  10  12
ATOM     12  C   UNL     1      44.090 131.582  18.488  1.00  0.00     0.041 A 
ATOM     13  C   UNL     1      45.307 131.142  19.068  1.00  0.00     0.027 A 
ATOM     14  C   UNL     1      43.002 131.928  19.326  1.00  0.00     0.052 A 
ATOM     15  C   UNL     1      45.436 131.017  20.464  1.00  0.00     0.012 A 
ATOM     16  C   UNL     1      43.164 131.791  20.703  1.00  0.00     0.047 A 
ATOM     17  C   UNL     1      44.338 131.350  21.250  1.00  0.00    -0.001 A 
ATOM     18  N   UNL     1      42.262 132.059  21.662  1.00  0.00    -0.361 N 
ATOM     19  C   UNL     1      44.176 131.334  22.618  1.00  0.00     0.028 A 
ATOM     20  C   UNL     1      42.875 131.780  22.835  1.00  0.00     0.083 A 
ATOM     21  H   UNL     1      41.288 132.411  21.532  1.00  0.00     0.166 HD
ENDBRANCH  10  12
ENDBRANCH   4  10
TORSDOF 3
ENDMDL
MODEL 6
REMARK VINA RESULT:      -9.0      1.093      1.428
REMARK SMILES N#Cc1ccc(Nc2ccc3cc[nH]c3c2)c(F)c1
REMARK SMILES IDX 3 1 4 2 5 3 6 4 17 5 18 6 19 7 2 8 1 9 7 10 8 12 9 13 16 14
REMARK SMILES IDX 10 15 15 16 11 17 14 18 12 19 13 20
REMARK H PARENT 7 11 14 21
ROOT
ATOM      1  C   UNL     1      43.957 131.541  21.565  1.00  0.00     0.055 A 
ATOM      2  C   UNL     1      44.973 131.224  20.654  1.00  0.00     0.022 A 
ATOM      3  C   UNL     1      44.744 131.344  19.281  1.00  0.00     0.030 A 
ATOM      4  C   UNL     1      43.494 131.764  18.802  1.00  0.00     0.075 A 
ATOM      5  C   UNL     1      42.485 132.107  19.722  1.00  0.00     0.147 A 
ATOM      6  F   UNL     1      41.293 132.595  19.293  1.00  0.00    -0.205 F 
ATOM      7  C   UNL     1      42.716 131.988  21.096  1.00  0.00     0.061 A 
ENDROOT
BRANCH   1   8
ATOM      8  C   UNL     1      44.194 131.420  22.980  1.00  0.00     0.099 C 
ATOM      9  N   UNL     1      44.385 131.323  24.117  1.00  0.00    -0.192 NA
ENDBRANCH   1   8
BRANCH   4  10
ATOM     10  N   UNL     1      43.292 131.895  17.386  1.00  0.00    -0.353 N 
ATOM     11  H   UNL     1      42.447 132.418  17.061  1.00  0.00     0.167 HD
BRANCH  10  12
ATOM     12  C   UNL     1      44.216 131.422  16.391  1.00  0.00     0.041 A 
ATOM     13  C   UNL     1      43.982 131.730  15.027  1.00  0.00     0.027 A 
ATOM     14  C   UNL     1      45.382 130.705  16.754  1.00  0.00     0.052 A 
ATOM     15  C   UNL     1      44.877 131.305  14.028  1.00  0.00     0.012 A 
ATOM     16  C   UNL     1      46.247 130.298  15.740  1.00  0.00     0.047 A 
ATOM     17  C   UNL     1      46.001 130.587  14.425  1.00  0.00    -0.001 A 
ATOM     18  N   UNL     1      47.392 129.610  15.871  1.00  0.00    -0.361 N 
ATOM     19  C   UNL     1      47.035 130.057  13.686  1.00  0.00     0.028 A 
ATOM     20  C   UNL     1      47.878 129.459  14.618  1.00  0.00     0.083 A 
ATOM     21  H   UNL     1      47.823 129.262  16.756  1.00  0.00     0.166 HD
ENDBRANCH  10  12
ENDBRANCH   4  10
TORSDOF 3
ENDMDL
MODEL 7
REMARK VINA RESULT:      -8.9      1.663      6.844
REMARK SMILES N#Cc1ccc(Nc2ccc3cc[nH]c3c2)c(F)c1
REMARK SMILES IDX 3 1 4 2 5 3 6 4 17 5 18 6 19 7 2 8 1 9 7 10 8 12 9 13 16 14
REMARK SMILES IDX 10 15 15 16 11 17 14 18 12 19 13 20
REMARK H PARENT 7 11 14 21
ROOT
ATOM      1  C   UNL     1      47.102 130.148  14.351  1.00  0.00     0.055 A 
ATOM      2  C   UNL     1      46.910 131.534  14.409  1.00  0.00     0.022 A 
ATOM      3  C   UNL     1      45.815 132.061  15.099  1.00  0.00     0.030 A 
ATOM      4  C   UNL     1      44.891 131.209  15.724  1.00  0.00     0.075 A 
ATOM      5  C   UNL     1      45.103 129.818  15.686  1.00  0.00     0.147 A 
ATOM      6  F   UNL     1      44.274 128.972  16.348  1.00  0.00    -0.205 F 
ATOM      7  C   UNL     1      46.200 129.292  14.995  1.00  0.00     0.061 A 
ENDROOT
BRANCH   1   8
ATOM      8  C   UNL     1      48.232 129.606  13.642  1.00  0.00     0.099 C 
ATOM      9  N   UNL     1      49.139 129.170  13.073  1.00  0.00    -0.192 NA
ENDBRANCH   1   8
BRANCH   4  10
ATOM     10  N   UNL     1      43.784 131.778  16.441  1.00  0.00    -0.353 N 
ATOM     11  H   UNL     1      42.998 132.181  15.882  1.00  0.00     0.167 HD
BRANCH  10  12
ATOM     12  C   UNL     1      43.652 131.758  17.872  1.00  0.00     0.041 A 
ATOM     13  C   UNL     1      42.385 132.012  18.455  1.00  0.00     0.027 A 
ATOM     14  C   UNL     1      44.751 131.434  18.706  1.00  0.00     0.052 A 
ATOM     15  C   UNL     1      42.213 131.976  19.851  1.00  0.00     0.012 A 
ATOM     16  C   UNL     1      44.546 131.409  20.084  1.00  0.00     0.047 A 
ATOM     17  C   UNL     1      43.321 131.672  20.634  1.00  0.00    -0.001 A 
ATOM     18  N   UNL     1      45.448 131.132  21.038  1.00  0.00    -0.361 N 
ATOM     19  C   UNL     1      43.451 131.561  22.001  1.00  0.00     0.028 A 
ATOM     20  C   UNL     1      44.785 131.225  22.213  1.00  0.00     0.083 A 
ATOM     21  H   UNL     1      46.456 130.894  20.905  1.00  0.00     0.166 HD
ENDBRANCH  10  12
ENDBRANCH   4  10
TORSDOF 3
ENDMDL
MODEL 8
REMARK VINA RESULT:      -8.8      1.648      6.886
REMARK SMILES N#Cc1ccc(Nc2ccc3cc[nH]c3c2)c(F)c1
REMARK SMILES IDX 3 1 4 2 5 3 6 4 17 5 18 6 19 7 2 8 1 9 7 10 8 12 9 13 16 14
REMARK SMILES IDX 10 15 15 16 11 17 14 18 12 19 13 20
REMARK H PARENT 7 11 14 21
ROOT
ATOM      1  C   UNL     1      46.879 130.096  14.518  1.00  0.00     0.055 A 
ATOM      2  C   UNL     1      45.781 129.301  14.867  1.00  0.00     0.022 A 
ATOM      3  C   UNL     1      44.712 129.856  15.577  1.00  0.00     0.030 A 
ATOM      4  C   UNL     1      44.738 131.205  15.961  1.00  0.00     0.075 A 
ATOM      5  C   UNL     1      45.832 132.007  15.585  1.00  0.00     0.147 A 
ATOM      6  F   UNL     1      45.850 133.334  15.871  1.00  0.00    -0.205 F 
ATOM      7  C   UNL     1      46.900 131.449  14.874  1.00  0.00     0.061 A 
ENDROOT
BRANCH   1   8
ATOM      8  C   UNL     1      47.978 129.525  13.785  1.00  0.00     0.099 C 
ATOM      9  N   UNL     1      48.861 129.066  13.195  1.00  0.00    -0.192 NA
ENDBRANCH   1   8
BRANCH   4  10
ATOM     10  N   UNL     1      43.619 131.753  16.676  1.00  0.00    -0.353 N 
ATOM     11  H   UNL     1      42.813 132.113  16.115  1.00  0.00     0.167 HD
BRANCH  10  12
ATOM     12  C   UNL     1      43.503 131.766  18.109  1.00  0.00     0.041 A 
ATOM     13  C   UNL     1      42.263 132.117  18.700  1.00  0.00     0.027 A 
ATOM     14  C   UNL     1      44.587 131.382  18.936  1.00  0.00     0.052 A 
ATOM     15  C   UNL     1      42.106 132.118  20.098  1.00  0.00     0.012 A 
ATOM     16  C   UNL     1      44.397 131.394  20.316  1.00  0.00     0.047 A 
ATOM     17  C   UNL     1      43.200 131.752  20.875  1.00  0.00    -0.001 A 
ATOM     18  N   UNL     1      45.290 131.073  21.266  1.00  0.00    -0.361 N 
ATOM     19  C   UNL     1      43.338 131.654  22.243  1.00  0.00     0.028 A 
ATOM     20  C   UNL     1      44.648 131.231  22.446  1.00  0.00     0.083 A 
ATOM     21  H   UNL     1      46.277 130.763  21.126  1.00  0.00     0.166 HD
ENDBRANCH  10  12
ENDBRANCH   4  10
TORSDOF 3
ENDMDL
MODEL 9
REMARK VINA RESULT:      -8.4      1.383      2.140
REMARK SMILES N#Cc1ccc(Nc2ccc3cc[nH]c3c2)c(F)c1
REMARK SMILES IDX 3 1 4 2 5 3 6 4 17 5 18 6 19 7 2 8 1 9 7 10 8 12 9 13 16 14
REMARK SMILES IDX 10 15 15 16 11 17 14 18 12 19 13 20
REMARK H PARENT 7 11 14 21
ROOT
ATOM      1  C   UNL     1      44.036 131.599  21.476  1.00  0.00     0.055 A 
ATOM      2  C   UNL     1      42.819 131.930  20.867  1.00  0.00     0.022 A 
ATOM      3  C   UNL     1      42.689 131.858  19.478  1.00  0.00     0.030 A 
ATOM      4  C   UNL     1      43.778 131.473  18.681  1.00  0.00     0.075 A 
ATOM      5  C   UNL     1      44.991 131.116  19.299  1.00  0.00     0.147 A 
ATOM      6  F   UNL     1      46.037 130.662  18.564  1.00  0.00    -0.205 F 
ATOM      7  C   UNL     1      45.118 131.188  20.691  1.00  0.00     0.061 A 
ENDROOT
BRANCH   1   8
ATOM      8  C   UNL     1      44.168 131.671  22.908  1.00  0.00     0.099 C 
ATOM      9  N   UNL     1      44.274 131.728  24.059  1.00  0.00    -0.192 NA
ENDBRANCH   1   8
BRANCH   4  10
ATOM     10  N   UNL     1      43.612 131.392  17.256  1.00  0.00    -0.353 N 
ATOM     11  H   UNL     1      42.645 131.493  16.873  1.00  0.00     0.167 HD
BRANCH  10  12
ATOM     12  C   UNL     1      44.698 131.260  16.323  1.00  0.00     0.041 A 
ATOM     13  C   UNL     1      45.360 132.426  15.862  1.00  0.00     0.027 A 
ATOM     14  C   UNL     1      45.152 129.986  15.901  1.00  0.00     0.052 A 
ATOM     15  C   UNL     1      46.442 132.335  14.967  1.00  0.00     0.012 A 
ATOM     16  C   UNL     1      46.225 129.932  15.013  1.00  0.00     0.047 A 
ATOM     17  C   UNL     1      46.845 131.066  14.563  1.00  0.00    -0.001 A 
ATOM     18  N   UNL     1      46.799 128.836  14.493  1.00  0.00    -0.361 N 
ATOM     19  C   UNL     1      47.858 130.674  13.716  1.00  0.00     0.028 A 
ATOM     20  C   UNL     1      47.798 129.283  13.698  1.00  0.00     0.083 A 
ATOM     21  H   UNL     1      46.533 127.841  14.665  1.00  0.00     0.166 HD
ENDBRANCH  10  12
ENDBRANCH   4  10
TORSDOF 3
ENDMDL


