REMARK SMILES Nc1ccc(-c2ccc3cc[n-]c(=O)c3c2)cc1C=O
REMARK SMILES IDX 2 1 3 2 4 3 5 4 17 5 18 6 1 7 19 10 20 11 6 12 7 13 16 14
REMARK SMILES IDX 8 15 15 16 9 17 13 18 10 19 12 20 11 21 14 22
REMARK H PARENT 1 8 1 9
ROOT
ATOM      1  C   UNL     1       0.227   3.325   1.379  1.00  0.00     0.042 A 
ATOM      2  C   UNL     1       1.146   2.788   0.467  1.00  0.00     0.027 A 
ATOM      3  C   UNL     1       0.943   1.528  -0.095  1.00  0.00     0.011 A 
ATOM      4  C   UNL     1      -0.186   0.770   0.246  1.00  0.00    -0.018 A 
ATOM      5  C   UNL     1      -1.122   1.310   1.145  1.00  0.00     0.022 A 
ATOM      6  C   UNL     1      -0.943   2.589   1.700  1.00  0.00     0.038 A 
ENDROOT
BRANCH   1   7
ATOM      7  N   UNL     1       0.534   4.580   2.001  1.00  0.00    -0.398 N 
ATOM      8  H   UNL     1       1.321   5.166   1.644  1.00  0.00     0.156 HD
ATOM      9  H   UNL     1       0.104   4.869   2.905  1.00  0.00     0.156 HD
ENDBRANCH   1   7
BRANCH   6  10
ATOM     10  C   UNL     1      -2.022   3.115   2.565  1.00  0.00     0.262 C 
ATOM     11  O   UNL     1      -2.220   4.351   2.701  1.00  0.00    -0.298 OA
ENDBRANCH   6  10
BRANCH   4  12
ATOM     12  C   UNL     1      -0.396  -0.578  -0.341  1.00  0.00    -0.018 A 
ATOM     13  C   UNL     1      -0.127  -0.812  -1.701  1.00  0.00     0.009 A 
ATOM     14  C   UNL     1      -0.865  -1.638   0.457  1.00  0.00     0.019 A 
ATOM     15  C   UNL     1      -0.324  -2.077  -2.258  1.00  0.00     0.009 A 
ATOM     16  C   UNL     1      -1.066  -2.917  -0.096  1.00  0.00     0.007 A 
ATOM     17  C   UNL     1      -0.791  -3.134  -1.466  1.00  0.00    -0.018 A 
ATOM     18  C   UNL     1      -1.533  -3.997   0.680  1.00  0.00     0.086 A 
ATOM     19  C   UNL     1      -0.990  -4.405  -2.019  1.00  0.00    -0.015 A 
ATOM     20  N   UNL     1      -1.713  -5.217   0.106  1.00  0.00    -0.629 NA
ATOM     21  C   UNL     1      -1.455  -5.441  -1.208  1.00  0.00    -0.136 A 
ATOM     22  O   UNL     1      -1.790  -3.851   1.906  1.00  0.00    -0.315 OA
ENDBRANCH   4  12
TORSDOF 3


