REMARK SMILES [O-]C(N[C@H]1Cc2ccccc2[C@H]1O)=C1CCCC1
REMARK SMILES IDX 4 1 5 2 6 3 7 4 8 5 9 6 10 7 11 8 12 9 3 10 2 12 1 13 14 14
REMARK SMILES IDX 15 15 18 16 16 17 17 18 13 19
REMARK H PARENT 3 11 13 20
ROOT
ATOM      1  C   UNL     1       0.883   0.205   1.037  1.00  0.00     0.115 C 
ATOM      2  C   UNL     1       1.767  -1.039   1.301  1.00  0.00     0.063 C 
ATOM      3  C   UNL     1       3.038  -0.735   0.601  1.00  0.00    -0.040 A 
ATOM      4  C   UNL     1       4.173  -1.549   0.546  1.00  0.00     0.004 A 
ATOM      5  C   UNL     1       5.301  -1.092  -0.153  1.00  0.00     0.000 A 
ATOM      6  C   UNL     1       5.282   0.168  -0.776  1.00  0.00     0.000 A 
ATOM      7  C   UNL     1       4.133   0.971  -0.706  1.00  0.00     0.007 A 
ATOM      8  C   UNL     1       3.017   0.493  -0.012  1.00  0.00    -0.014 A 
ATOM      9  C   UNL     1       1.718   1.192   0.172  1.00  0.00     0.167 C 
ENDROOT
BRANCH   1  10
ATOM     10  N   UNL     1      -0.372  -0.172   0.374  1.00  0.00    -0.391 N 
ATOM     11  H   UNL     1      -0.337  -0.929  -0.347  1.00  0.00     0.159 HD
BRANCH  10  12
ATOM     12  C   UNL     1      -1.567   0.614   0.523  1.00  0.00    -0.046 C 
ATOM     13  O   UNL     1      -1.531   1.772   1.296  1.00  0.00    -0.860 OA
BRANCH  12  14
ATOM     14  C   UNL     1      -2.719   0.258  -0.072  1.00  0.00    -0.062 C 
ATOM     15  C   UNL     1      -3.975   1.052   0.045  1.00  0.00     0.032 C 
ATOM     16  C   UNL     1      -2.905  -0.965  -0.902  1.00  0.00     0.032 C 
ATOM     17  C   UNL     1      -4.939   0.392  -0.933  1.00  0.00     0.005 C 
ATOM     18  C   UNL     1      -4.404  -1.017  -1.180  1.00  0.00     0.005 C 
ENDBRANCH  12  14
ENDBRANCH  10  12
ENDBRANCH   1  10
BRANCH   9  19
ATOM     19  O   UNL     1       1.117   1.428  -1.077  1.00  0.00    -0.386 OA
ATOM     20  H   UNL     1       1.481   2.291  -1.408  1.00  0.00     0.211 HD
ENDBRANCH   9  19
TORSDOF 4


