MODEL 1
REMARK VINA RESULT:      -9.9      0.000      0.000
REMARK SMILES C=C1CC[C@@H](c2ccc(C)c(F)c2)[C@@H]2[NH+]=CC[C@H]12
REMARK SMILES IDX 1 1 2 2 3 3 4 4 5 5 14 6 15 7 16 8 17 9 18 10 6 12 7 13
REMARK SMILES IDX 13 14 8 15 11 16 9 17 12 18 10 19
REMARK H PARENT 15 11
ROOT
ATOM      1  C   UNL     1      42.018 132.403  20.960  1.00  0.00     0.008 C 
ATOM      2  C   UNL     1      42.820 132.118  19.921  1.00  0.00    -0.067 C 
ATOM      3  C   UNL     1      42.189 131.889  18.564  1.00  0.00     0.032 C 
ATOM      4  C   UNL     1      43.194 131.981  17.416  1.00  0.00     0.020 C 
ATOM      5  C   UNL     1      44.440 131.144  17.721  1.00  0.00     0.089 C 
ATOM      6  C   UNL     1      45.209 131.761  18.908  1.00  0.00     0.272 C 
ATOM      7  N   UNL     1      46.209 130.837  19.374  1.00  0.00    -0.248 N 
ATOM      8  C   UNL     1      45.956 130.353  20.528  1.00  0.00     0.272 C 
ATOM      9  C   UNL     1      44.695 130.870  21.114  1.00  0.00     0.113 C 
ATOM     10  C   UNL     1      44.324 132.015  20.156  1.00  0.00     0.093 C 
ATOM     11  H   UNL     1      47.031 130.555  18.819  1.00  0.00     0.445 HD
ENDROOT
BRANCH   5  12
ATOM     12  C   UNL     1      45.328 131.016  16.494  1.00  0.00    -0.035 A 
ATOM     13  C   UNL     1      45.783 132.154  15.801  1.00  0.00     0.005 A 
ATOM     14  C   UNL     1      45.732 129.746  16.051  1.00  0.00     0.043 A 
ATOM     15  C   UNL     1      46.610 132.021  14.683  1.00  0.00     0.007 A 
ATOM     16  C   UNL     1      46.561 129.611  14.933  1.00  0.00     0.126 A 
ATOM     17  C   UNL     1      46.995 130.748  14.234  1.00  0.00    -0.015 A 
ATOM     18  F   UNL     1      46.942 128.371  14.534  1.00  0.00    -0.207 F 
ATOM     19  C   UNL     1      47.907 130.606  13.050  1.00  0.00     0.047 C 
ENDBRANCH   5  12
TORSDOF 1
ENDMDL
MODEL 2
REMARK VINA RESULT:      -9.7      1.059      1.552
REMARK SMILES C=C1CC[C@@H](c2ccc(C)c(F)c2)[C@@H]2[NH+]=CC[C@H]12
REMARK SMILES IDX 1 1 2 2 3 3 4 4 5 5 14 6 15 7 16 8 17 9 18 10 6 12 7 13
REMARK SMILES IDX 13 14 8 15 11 16 9 17 12 18 10 19
REMARK H PARENT 15 11
ROOT
ATOM      1  C   UNL     1      41.914 132.734  20.713  1.00  0.00     0.008 C 
ATOM      2  C   UNL     1      42.733 132.290  19.745  1.00  0.00    -0.067 C 
ATOM      3  C   UNL     1      42.144 131.991  18.383  1.00  0.00     0.032 C 
ATOM      4  C   UNL     1      43.201 131.895  17.284  1.00  0.00     0.020 C 
ATOM      5  C   UNL     1      44.356 130.989  17.724  1.00  0.00     0.089 C 
ATOM      6  C   UNL     1      45.123 131.646  18.891  1.00  0.00     0.272 C 
ATOM      7  N   UNL     1      46.017 130.688  19.486  1.00  0.00    -0.248 N 
ATOM      8  C   UNL     1      45.674 130.334  20.662  1.00  0.00     0.272 C 
ATOM      9  C   UNL     1      44.438 131.005  21.137  1.00  0.00     0.113 C 
ATOM     10  C   UNL     1      44.210 132.084  20.065  1.00  0.00     0.093 C 
ATOM     11  H   UNL     1      46.835 130.290  19.000  1.00  0.00     0.445 HD
ENDROOT
BRANCH   5  12
ATOM     12  C   UNL     1      45.282 130.677  16.560  1.00  0.00    -0.035 A 
ATOM     13  C   UNL     1      45.495 129.353  16.131  1.00  0.00     0.005 A 
ATOM     14  C   UNL     1      45.922 131.723  15.874  1.00  0.00     0.043 A 
ATOM     15  C   UNL     1      46.338 129.084  15.051  1.00  0.00     0.007 A 
ATOM     16  C   UNL     1      46.765 131.454  14.791  1.00  0.00     0.126 A 
ATOM     17  C   UNL     1      46.989 130.131  14.381  1.00  0.00    -0.015 A 
ATOM     18  F   UNL     1      47.361 132.487  14.142  1.00  0.00    -0.207 F 
ATOM     19  C   UNL     1      47.873 129.844  13.202  1.00  0.00     0.047 C 
ENDBRANCH   5  12
TORSDOF 1
ENDMDL
MODEL 3
REMARK VINA RESULT:      -9.3      1.370      2.431
REMARK SMILES C=C1CC[C@@H](c2ccc(C)c(F)c2)[C@@H]2[NH+]=CC[C@H]12
REMARK SMILES IDX 1 1 2 2 3 3 4 4 5 5 14 6 15 7 16 8 17 9 18 10 6 12 7 13
REMARK SMILES IDX 13 14 8 15 11 16 9 17 12 18 10 19
REMARK H PARENT 15 11
ROOT
ATOM      1  C   UNL     1      43.315 131.461  22.580  1.00  0.00     0.008 C 
ATOM      2  C   UNL     1      43.769 131.397  21.318  1.00  0.00    -0.067 C 
ATOM      3  C   UNL     1      45.265 131.352  21.090  1.00  0.00     0.032 C 
ATOM      4  C   UNL     1      45.641 130.876  19.687  1.00  0.00     0.020 C 
ATOM      5  C   UNL     1      44.828 131.626  18.627  1.00  0.00     0.089 C 
ATOM      6  C   UNL     1      43.338 131.241  18.739  1.00  0.00     0.272 C 
ATOM      7  N   UNL     1      42.541 132.141  17.947  1.00  0.00    -0.248 N 
ATOM      8  C   UNL     1      41.806 132.917  18.643  1.00  0.00     0.272 C 
ATOM      9  C   UNL     1      41.941 132.695  20.104  1.00  0.00     0.113 C 
ATOM     10  C   UNL     1      42.763 131.396  20.171  1.00  0.00     0.093 C 
ATOM     11  H   UNL     1      42.587 132.190  16.918  1.00  0.00     0.445 HD
ENDROOT
BRANCH   5  12
ATOM     12  C   UNL     1      45.365 131.355  17.231  1.00  0.00    -0.035 A 
ATOM     13  C   UNL     1      45.682 132.409  16.354  1.00  0.00     0.005 A 
ATOM     14  C   UNL     1      45.580 130.033  16.808  1.00  0.00     0.043 A 
ATOM     15  C   UNL     1      46.188 132.144  15.080  1.00  0.00     0.007 A 
ATOM     16  C   UNL     1      46.087 129.767  15.532  1.00  0.00     0.126 A 
ATOM     17  C   UNL     1      46.383 130.821  14.655  1.00  0.00    -0.015 A 
ATOM     18  F   UNL     1      46.293 128.479  15.155  1.00  0.00    -0.207 F 
ATOM     19  C   UNL     1      46.954 130.537  13.296  1.00  0.00     0.047 C 
ENDBRANCH   5  12
TORSDOF 1
ENDMDL
MODEL 4
REMARK VINA RESULT:      -8.6      0.985      1.147
REMARK SMILES C=C1CC[C@@H](c2ccc(C)c(F)c2)[C@@H]2[NH+]=CC[C@H]12
REMARK SMILES IDX 1 1 2 2 3 3 4 4 5 5 14 6 15 7 16 8 17 9 18 10 6 12 7 13
REMARK SMILES IDX 13 14 8 15 11 16 9 17 12 18 10 19
REMARK H PARENT 15 11
ROOT
ATOM      1  C   UNL     1      42.646 131.880  22.464  1.00  0.00     0.008 C 
ATOM      2  C   UNL     1      43.225 131.724  21.262  1.00  0.00    -0.067 C 
ATOM      3  C   UNL     1      42.391 131.970  20.023  1.00  0.00     0.032 C 
ATOM      4  C   UNL     1      43.236 132.162  18.764  1.00  0.00     0.020 C 
ATOM      5  C   UNL     1      44.292 131.058  18.649  1.00  0.00     0.089 C 
ATOM      6  C   UNL     1      45.324 131.199  19.787  1.00  0.00     0.272 C 
ATOM      7  N   UNL     1      46.143 130.016  19.851  1.00  0.00    -0.248 N 
ATOM      8  C   UNL     1      45.937 129.311  20.894  1.00  0.00     0.272 C 
ATOM      9  C   UNL     1      44.909 129.887  21.795  1.00  0.00     0.113 C 
ATOM     10  C   UNL     1      44.685 131.286  21.197  1.00  0.00     0.093 C 
ATOM     11  H   UNL     1      46.803 129.737  19.109  1.00  0.00     0.445 HD
ENDROOT
BRANCH   5  12
ATOM     12  C   UNL     1      44.965 131.083  17.286  1.00  0.00    -0.035 A 
ATOM     13  C   UNL     1      45.356 132.296  16.688  1.00  0.00     0.005 A 
ATOM     14  C   UNL     1      45.232 129.879  16.614  1.00  0.00     0.043 A 
ATOM     15  C   UNL     1      45.986 132.302  15.442  1.00  0.00     0.007 A 
ATOM     16  C   UNL     1      45.863 129.884  15.366  1.00  0.00     0.126 A 
ATOM     17  C   UNL     1      46.233 131.097  14.766  1.00  0.00    -0.015 A 
ATOM     18  F   UNL     1      46.117 128.703  14.746  1.00  0.00    -0.207 F 
ATOM     19  C   UNL     1      46.937 131.101  13.439  1.00  0.00     0.047 C 
ENDBRANCH   5  12
TORSDOF 1
ENDMDL
MODEL 5
REMARK VINA RESULT:      -8.4      1.758      2.994
REMARK SMILES C=C1CC[C@@H](c2ccc(C)c(F)c2)[C@@H]2[NH+]=CC[C@H]12
REMARK SMILES IDX 1 1 2 2 3 3 4 4 5 5 14 6 15 7 16 8 17 9 18 10 6 12 7 13
REMARK SMILES IDX 13 14 8 15 11 16 9 17 12 18 10 19
REMARK H PARENT 15 11
ROOT
ATOM      1  C   UNL     1      43.121 131.729  23.020  1.00  0.00     0.008 C 
ATOM      2  C   UNL     1      43.622 131.557  21.786  1.00  0.00    -0.067 C 
ATOM      3  C   UNL     1      45.124 131.469  21.623  1.00  0.00     0.032 C 
ATOM      4  C   UNL     1      45.545 130.877  20.279  1.00  0.00     0.020 C 
ATOM      5  C   UNL     1      44.789 131.554  19.131  1.00  0.00     0.089 C 
ATOM      6  C   UNL     1      43.288 131.204  19.213  1.00  0.00     0.272 C 
ATOM      7  N   UNL     1      42.541 132.052  18.321  1.00  0.00    -0.248 N 
ATOM      8  C   UNL     1      41.794 132.892  18.924  1.00  0.00     0.272 C 
ATOM      9  C   UNL     1      41.869 132.785  20.402  1.00  0.00     0.113 C 
ATOM     10  C   UNL     1      42.661 131.482  20.604  1.00  0.00     0.093 C 
ATOM     11  H   UNL     1      42.627 132.018  17.294  1.00  0.00     0.445 HD
ENDROOT
BRANCH   5  12
ATOM     12  C   UNL     1      45.374 131.164  17.783  1.00  0.00    -0.035 A 
ATOM     13  C   UNL     1      45.724 129.830  17.498  1.00  0.00     0.005 A 
ATOM     14  C   UNL     1      45.548 132.139  16.787  1.00  0.00     0.043 A 
ATOM     15  C   UNL     1      46.247 129.486  16.251  1.00  0.00     0.007 A 
ATOM     16  C   UNL     1      46.072 131.794  15.537  1.00  0.00     0.126 A 
ATOM     17  C   UNL     1      46.437 130.466  15.265  1.00  0.00    -0.015 A 
ATOM     18  F   UNL     1      46.219 132.756  14.591  1.00  0.00    -0.207 F 
ATOM     19  C   UNL     1      46.973 130.091  13.914  1.00  0.00     0.047 C 
ENDBRANCH   5  12
TORSDOF 1
ENDMDL
MODEL 6
REMARK VINA RESULT:      -8.2      1.422      1.637
REMARK SMILES C=C1CC[C@@H](c2ccc(C)c(F)c2)[C@@H]2[NH+]=CC[C@H]12
REMARK SMILES IDX 1 1 2 2 3 3 4 4 5 5 14 6 15 7 16 8 17 9 18 10 6 12 7 13
REMARK SMILES IDX 13 14 8 15 11 16 9 17 12 18 10 19
REMARK H PARENT 15 11
ROOT
ATOM      1  C   UNL     1      42.316 132.183  21.997  1.00  0.00     0.008 C 
ATOM      2  C   UNL     1      42.937 131.938  20.832  1.00  0.00    -0.067 C 
ATOM      3  C   UNL     1      42.111 131.923  19.564  1.00  0.00     0.032 C 
ATOM      4  C   UNL     1      42.959 132.044  18.298  1.00  0.00     0.020 C 
ATOM      5  C   UNL     1      44.133 131.060  18.340  1.00  0.00     0.089 C 
ATOM      6  C   UNL     1      45.116 131.464  19.459  1.00  0.00     0.272 C 
ATOM      7  N   UNL     1      46.059 130.400  19.686  1.00  0.00    -0.248 N 
ATOM      8  C   UNL     1      45.908 129.819  20.812  1.00  0.00     0.272 C 
ATOM      9  C   UNL     1      44.801 130.388  21.620  1.00  0.00     0.113 C 
ATOM     10  C   UNL     1      44.437 131.663  20.839  1.00  0.00     0.093 C 
ATOM     11  H   UNL     1      46.764 130.103  18.995  1.00  0.00     0.445 HD
ENDROOT
BRANCH   5  12
ATOM     12  C   UNL     1      44.832 130.983  16.992  1.00  0.00    -0.035 A 
ATOM     13  C   UNL     1      46.151 130.505  16.881  1.00  0.00     0.005 A 
ATOM     14  C   UNL     1      44.149 131.367  15.826  1.00  0.00     0.043 A 
ATOM     15  C   UNL     1      46.775 130.427  15.634  1.00  0.00     0.007 A 
ATOM     16  C   UNL     1      44.772 131.289  14.577  1.00  0.00     0.126 A 
ATOM     17  C   UNL     1      46.095 130.829  14.474  1.00  0.00    -0.015 A 
ATOM     18  F   UNL     1      44.083 131.658  13.467  1.00  0.00    -0.207 F 
ATOM     19  C   UNL     1      46.755 130.719  13.130  1.00  0.00     0.047 C 
ENDBRANCH   5  12
TORSDOF 1
ENDMDL
MODEL 7
REMARK VINA RESULT:      -7.7      2.582      6.250
REMARK SMILES C=C1CC[C@@H](c2ccc(C)c(F)c2)[C@@H]2[NH+]=CC[C@H]12
REMARK SMILES IDX 1 1 2 2 3 3 4 4 5 5 14 6 15 7 16 8 17 9 18 10 6 12 7 13
REMARK SMILES IDX 13 14 8 15 11 16 9 17 12 18 10 19
REMARK H PARENT 15 11
ROOT
ATOM      1  C   UNL     1      47.152 130.445  13.307  1.00  0.00     0.008 C 
ATOM      2  C   UNL     1      46.653 130.586  14.545  1.00  0.00    -0.067 C 
ATOM      3  C   UNL     1      47.140 129.651  15.631  1.00  0.00     0.032 C 
ATOM      4  C   UNL     1      46.826 130.156  17.039  1.00  0.00     0.020 C 
ATOM      5  C   UNL     1      45.360 130.590  17.142  1.00  0.00     0.089 C 
ATOM      6  C   UNL     1      45.119 131.835  16.262  1.00  0.00     0.272 C 
ATOM      7  N   UNL     1      43.705 132.074  16.134  1.00  0.00    -0.248 N 
ATOM      8  C   UNL     1      43.258 131.860  14.958  1.00  0.00     0.272 C 
ATOM      9  C   UNL     1      44.308 131.426  14.004  1.00  0.00     0.113 C 
ATOM     10  C   UNL     1      45.603 131.664  14.799  1.00  0.00     0.093 C 
ATOM     11  H   UNL     1      43.099 132.350  16.920  1.00  0.00     0.445 HD
ENDROOT
BRANCH   5  12
ATOM     12  C   UNL     1      44.966 130.850  18.587  1.00  0.00    -0.035 A 
ATOM     13  C   UNL     1      45.757 130.384  19.654  1.00  0.00     0.005 A 
ATOM     14  C   UNL     1      43.807 131.591  18.874  1.00  0.00     0.043 A 
ATOM     15  C   UNL     1      45.389 130.643  20.976  1.00  0.00     0.007 A 
ATOM     16  C   UNL     1      43.438 131.851  20.197  1.00  0.00     0.126 A 
ATOM     17  C   UNL     1      44.220 131.368  21.258  1.00  0.00    -0.015 A 
ATOM     18  F   UNL     1      42.319 132.578  20.443  1.00  0.00    -0.207 F 
ATOM     19  C   UNL     1      43.839 131.671  22.678  1.00  0.00     0.047 C 
ENDBRANCH   5  12
TORSDOF 1
ENDMDL
MODEL 8
REMARK VINA RESULT:      -7.4      2.506      6.231
REMARK SMILES C=C1CC[C@@H](c2ccc(C)c(F)c2)[C@@H]2[NH+]=CC[C@H]12
REMARK SMILES IDX 1 1 2 2 3 3 4 4 5 5 14 6 15 7 16 8 17 9 18 10 6 12 7 13
REMARK SMILES IDX 13 14 8 15 11 16 9 17 12 18 10 19
REMARK H PARENT 15 11
ROOT
ATOM      1  C   UNL     1      47.470 130.272  13.525  1.00  0.00     0.008 C 
ATOM      2  C   UNL     1      46.775 130.512  14.648  1.00  0.00    -0.067 C 
ATOM      3  C   UNL     1      47.100 129.702  15.885  1.00  0.00     0.032 C 
ATOM      4  C   UNL     1      46.554 130.326  17.168  1.00  0.00     0.020 C 
ATOM      5  C   UNL     1      45.082 130.714  16.995  1.00  0.00     0.089 C 
ATOM      6  C   UNL     1      44.959 131.860  15.968  1.00  0.00     0.272 C 
ATOM      7  N   UNL     1      43.580 132.034  15.595  1.00  0.00    -0.248 N 
ATOM      8  C   UNL     1      43.332 131.693  14.391  1.00  0.00     0.272 C 
ATOM      9  C   UNL     1      44.531 131.210  13.662  1.00  0.00     0.113 C 
ATOM     10  C   UNL     1      45.675 131.569  14.624  1.00  0.00     0.093 C 
ATOM     11  H   UNL     1      42.848 132.361  16.245  1.00  0.00     0.445 HD
ENDROOT
BRANCH   5  12
ATOM     12  C   UNL     1      44.455 131.095  18.326  1.00  0.00    -0.035 A 
ATOM     13  C   UNL     1      43.163 131.650  18.391  1.00  0.00     0.005 A 
ATOM     14  C   UNL     1      45.156 130.868  19.521  1.00  0.00     0.043 A 
ATOM     15  C   UNL     1      42.594 131.982  19.623  1.00  0.00     0.007 A 
ATOM     16  C   UNL     1      44.588 131.199  20.755  1.00  0.00     0.126 A 
ATOM     17  C   UNL     1      43.307 131.770  20.813  1.00  0.00    -0.015 A 
ATOM     18  F   UNL     1      45.287 130.958  21.894  1.00  0.00    -0.207 F 
ATOM     19  C   UNL     1      42.685 132.100  22.139  1.00  0.00     0.047 C 
ENDBRANCH   5  12
TORSDOF 1
ENDMDL


