MODEL 1
REMARK VINA RESULT:      -5.8      0.000      0.000
REMARK SMILES CO[C@@H]1CCC[C@@H](c2cc3cc(F)ccc3[nH]2)N1C(=O)C(C)(F)F
REMARK SMILES IDX 3 1 4 2 5 3 6 4 7 5 18 6 2 7 1 8 19 9 20 10 21 11 22 12
REMARK SMILES IDX 23 13 24 14 8 15 9 16 17 17 10 18 16 19 11 20 15 21 12 22
REMARK SMILES IDX 14 23 13 25
REMARK H PARENT 17 24
ROOT
ATOM      1  C   UNL     1      43.143 132.030  20.682  1.00  0.00     0.217 C 
ATOM      2  C   UNL     1      42.040 132.983  20.205  1.00  0.00     0.055 C 
ATOM      3  C   UNL     1      41.281 132.397  19.013  1.00  0.00     0.007 C 
ATOM      4  C   UNL     1      42.246 132.108  17.866  1.00  0.00     0.032 C 
ATOM      5  C   UNL     1      43.380 131.165  18.311  1.00  0.00     0.135 C 
ATOM      6  N   UNL     1      44.020 131.659  19.553  1.00  0.00    -0.303 N 
ENDROOT
BRANCH   1   7
ATOM      7  O   UNL     1      42.536 130.863  21.217  1.00  0.00    -0.362 OA
ATOM      8  C   UNL     1      42.898 130.683  22.568  1.00  0.00     0.197 C 
ENDBRANCH   1   7
BRANCH   6   9
ATOM      9  C   UNL     1      45.389 131.305  19.852  1.00  0.00     0.295 C 
ATOM     10  O   UNL     1      45.873 130.244  19.371  1.00  0.00    -0.268 OA
BRANCH   9  11
ATOM     11  C   UNL     1      46.248 132.152  20.760  1.00  0.00     0.322 C 
ATOM     12  C   UNL     1      45.800 132.056  22.217  1.00  0.00     0.098 C 
ATOM     13  F   UNL     1      46.163 133.478  20.367  1.00  0.00    -0.196 F 
ATOM     14  F   UNL     1      47.568 131.755  20.652  1.00  0.00    -0.196 F 
ENDBRANCH   9  11
ENDBRANCH   6   9
BRANCH   5  15
ATOM     15  C   UNL     1      44.371 131.014  17.178  1.00  0.00     0.039 A 
ATOM     16  C   UNL     1      44.929 132.060  16.442  1.00  0.00     0.034 A 
ATOM     17  N   UNL     1      44.862 129.820  16.772  1.00  0.00    -0.357 N 
ATOM     18  C   UNL     1      45.791 131.451  15.558  1.00  0.00     0.003 A 
ATOM     19  C   UNL     1      45.727 130.101  15.783  1.00  0.00     0.046 A 
ATOM     20  C   UNL     1      46.625 131.997  14.585  1.00  0.00     0.049 A 
ATOM     21  C   UNL     1      46.495 129.199  15.048  1.00  0.00     0.029 A 
ATOM     22  C   UNL     1      47.412 131.111  13.824  1.00  0.00     0.123 A 
ATOM     23  C   UNL     1      47.347 129.718  14.055  1.00  0.00     0.041 A 
ATOM     24  H   UNL     1      44.628 128.876  17.154  1.00  0.00     0.166 HD
ATOM     25  F   UNL     1      48.237 131.598  12.865  1.00  0.00    -0.207 F 
ENDBRANCH   5  15
TORSDOF 4
ENDMDL
MODEL 2
REMARK VINA RESULT:      -5.7      2.301      3.621
REMARK SMILES CO[C@@H]1CCC[C@@H](c2cc3cc(F)ccc3[nH]2)N1C(=O)C(C)(F)F
REMARK SMILES IDX 3 1 4 2 5 3 6 4 7 5 18 6 2 7 1 8 19 9 20 10 21 11 22 12
REMARK SMILES IDX 23 13 24 14 8 15 9 16 17 17 10 18 16 19 11 20 15 21 12 22
REMARK SMILES IDX 14 23 13 25
REMARK H PARENT 17 24
ROOT
ATOM      1  C   UNL     1      43.333 131.006  22.292  1.00  0.00     0.217 C 
ATOM      2  C   UNL     1      43.499 129.549  22.741  1.00  0.00     0.055 C 
ATOM      3  C   UNL     1      44.941 129.075  22.557  1.00  0.00     0.007 C 
ATOM      4  C   UNL     1      45.359 129.216  21.095  1.00  0.00     0.032 C 
ATOM      5  C   UNL     1      45.191 130.666  20.601  1.00  0.00     0.135 C 
ATOM      6  N   UNL     1      43.835 131.175  20.914  1.00  0.00    -0.303 N 
ENDROOT
BRANCH   1   7
ATOM      7  O   UNL     1      44.070 131.840  23.173  1.00  0.00    -0.362 OA
ATOM      8  C   UNL     1      43.346 132.084  24.358  1.00  0.00     0.197 C 
ENDBRANCH   1   7
BRANCH   6   9
ATOM      9  C   UNL     1      43.255 132.227  20.110  1.00  0.00     0.295 C 
ATOM     10  O   UNL     1      43.824 133.352  20.057  1.00  0.00    -0.268 OA
BRANCH   9  11
ATOM     11  C   UNL     1      41.959 132.030  19.360  1.00  0.00     0.322 C 
ATOM     12  C   UNL     1      42.140 132.227  17.855  1.00  0.00     0.098 C 
ATOM     13  F   UNL     1      41.024 132.948  19.808  1.00  0.00    -0.196 F 
ATOM     14  F   UNL     1      41.469 130.760  19.607  1.00  0.00    -0.196 F 
ENDBRANCH   9  11
ENDBRANCH   6   9
BRANCH   5  15
ATOM     15  C   UNL     1      45.497 130.722  19.121  1.00  0.00     0.039 A 
ATOM     16  C   UNL     1      45.952 129.655  18.345  1.00  0.00     0.034 A 
ATOM     17  N   UNL     1      45.322 131.831  18.365  1.00  0.00    -0.357 N 
ATOM     18  C   UNL     1      46.051 130.162  17.068  1.00  0.00     0.003 A 
ATOM     19  C   UNL     1      45.663 131.476  17.116  1.00  0.00     0.046 A 
ATOM     20  C   UNL     1      46.446 129.553  15.880  1.00  0.00     0.049 A 
ATOM     21  C   UNL     1      45.644 132.275  15.973  1.00  0.00     0.029 A 
ATOM     22  C   UNL     1      46.439 130.334  14.709  1.00  0.00     0.123 A 
ATOM     23  C   UNL     1      46.040 131.690  14.755  1.00  0.00     0.041 A 
ATOM     24  H   UNL     1      44.981 132.766  18.683  1.00  0.00     0.166 HD
ATOM     25  F   UNL     1      46.817 129.783  13.529  1.00  0.00    -0.207 F 
ENDBRANCH   5  15
TORSDOF 4
ENDMDL
MODEL 3
REMARK VINA RESULT:      -5.5      0.923      1.529
REMARK SMILES CO[C@@H]1CCC[C@@H](c2cc3cc(F)ccc3[nH]2)N1C(=O)C(C)(F)F
REMARK SMILES IDX 3 1 4 2 5 3 6 4 7 5 18 6 2 7 1 8 19 9 20 10 21 11 22 12
REMARK SMILES IDX 23 13 24 14 8 15 9 16 17 17 10 18 16 19 11 20 15 21 12 22
REMARK SMILES IDX 14 23 13 25
REMARK H PARENT 17 24
ROOT
ATOM      1  C   UNL     1      43.180 132.031  20.618  1.00  0.00     0.217 C 
ATOM      2  C   UNL     1      42.103 132.987  20.091  1.00  0.00     0.055 C 
ATOM      3  C   UNL     1      41.389 132.399  18.873  1.00  0.00     0.007 C 
ATOM      4  C   UNL     1      42.399 132.097  17.767  1.00  0.00     0.032 C 
ATOM      5  C   UNL     1      43.508 131.150  18.264  1.00  0.00     0.135 C 
ATOM      6  N   UNL     1      44.099 131.647  19.528  1.00  0.00    -0.303 N 
ENDROOT
BRANCH   1   7
ATOM      7  O   UNL     1      42.545 130.871  21.135  1.00  0.00    -0.362 OA
ATOM      8  C   UNL     1      43.020 130.573  22.428  1.00  0.00     0.197 C 
ENDBRANCH   1   7
BRANCH   6   9
ATOM      9  C   UNL     1      45.453 131.287  19.884  1.00  0.00     0.295 C 
ATOM     10  O   UNL     1      45.971 130.252  19.381  1.00  0.00    -0.268 OA
BRANCH   9  11
ATOM     11  C   UNL     1      46.255 132.096  20.875  1.00  0.00     0.322 C 
ATOM     12  C   UNL     1      46.151 133.595  20.599  1.00  0.00     0.098 C 
ATOM     13  F   UNL     1      47.589 131.732  20.793  1.00  0.00    -0.196 F 
ATOM     14  F   UNL     1      45.813 131.829  22.158  1.00  0.00    -0.196 F 
ENDBRANCH   9  11
ENDBRANCH   6   9
BRANCH   5  15
ATOM     15  C   UNL     1      44.542 130.985  17.173  1.00  0.00     0.039 A 
ATOM     16  C   UNL     1      45.080 129.772  16.740  1.00  0.00     0.034 A 
ATOM     17  N   UNL     1      45.042 132.020  16.457  1.00  0.00    -0.357 N 
ATOM     18  C   UNL     1      45.940 130.111  15.718  1.00  0.00     0.003 A 
ATOM     19  C   UNL     1      45.893 131.473  15.573  1.00  0.00     0.046 A 
ATOM     20  C   UNL     1      46.746 129.311  14.911  1.00  0.00     0.049 A 
ATOM     21  C   UNL     1      46.651 132.133  14.608  1.00  0.00     0.029 A 
ATOM     22  C   UNL     1      47.525 129.949  13.927  1.00  0.00     0.123 A 
ATOM     23  C   UNL     1      47.479 131.354  13.776  1.00  0.00     0.041 A 
ATOM     24  H   UNL     1      44.807 133.033  16.560  1.00  0.00     0.166 HD
ATOM     25  F   UNL     1      48.326 129.211  13.119  1.00  0.00    -0.207 F 
ENDBRANCH   5  15
TORSDOF 4
ENDMDL
MODEL 4
REMARK VINA RESULT:      -5.3      2.268      3.517
REMARK SMILES CO[C@@H]1CCC[C@@H](c2cc3cc(F)ccc3[nH]2)N1C(=O)C(C)(F)F
REMARK SMILES IDX 3 1 4 2 5 3 6 4 7 5 18 6 2 7 1 8 19 9 20 10 21 11 22 12
REMARK SMILES IDX 23 13 24 14 8 15 9 16 17 17 10 18 16 19 11 20 15 21 12 22
REMARK SMILES IDX 14 23 13 25
REMARK H PARENT 17 24
ROOT
ATOM      1  C   UNL     1      43.702 131.024  22.329  1.00  0.00     0.217 C 
ATOM      2  C   UNL     1      43.758 129.540  22.714  1.00  0.00     0.055 C 
ATOM      3  C   UNL     1      45.111 128.926  22.354  1.00  0.00     0.007 C 
ATOM      4  C   UNL     1      45.379 129.083  20.858  1.00  0.00     0.032 C 
ATOM      5  C   UNL     1      45.315 130.561  20.429  1.00  0.00     0.135 C 
ATOM      6  N   UNL     1      44.065 131.196  20.908  1.00  0.00    -0.303 N 
ENDROOT
BRANCH   1   7
ATOM      7  O   UNL     1      44.617 131.740  23.145  1.00  0.00    -0.362 OA
ATOM      8  C   UNL     1      44.011 132.134  24.355  1.00  0.00     0.197 C 
ENDBRANCH   1   7
BRANCH   6   9
ATOM      9  C   UNL     1      43.517 132.335  20.207  1.00  0.00     0.295 C 
ATOM     10  O   UNL     1      44.237 133.354  20.024  1.00  0.00    -0.268 OA
BRANCH   9  11
ATOM     11  C   UNL     1      42.089 132.354  19.717  1.00  0.00     0.322 C 
ATOM     12  C   UNL     1      41.191 133.198  20.621  1.00  0.00     0.098 C 
ATOM     13  F   UNL     1      41.592 131.061  19.698  1.00  0.00    -0.196 F 
ATOM     14  F   UNL     1      42.047 132.851  18.427  1.00  0.00    -0.196 F 
ENDBRANCH   9  11
ENDBRANCH   6   9
BRANCH   5  15
ATOM     15  C   UNL     1      45.461 130.646  18.927  1.00  0.00     0.039 A 
ATOM     16  C   UNL     1      46.386 129.936  18.159  1.00  0.00     0.034 A 
ATOM     17  N   UNL     1      44.666 131.410  18.142  1.00  0.00    -0.357 N 
ATOM     18  C   UNL     1      46.122 130.301  16.858  1.00  0.00     0.003 A 
ATOM     19  C   UNL     1      45.080 131.191  16.883  1.00  0.00     0.046 A 
ATOM     20  C   UNL     1      46.723 129.904  15.666  1.00  0.00     0.049 A 
ATOM     21  C   UNL     1      44.564 131.748  15.713  1.00  0.00     0.029 A 
ATOM     22  C   UNL     1      46.226 130.451  14.467  1.00  0.00     0.123 A 
ATOM     23  C   UNL     1      45.152 131.368  14.491  1.00  0.00     0.041 A 
ATOM     24  H   UNL     1      43.885 132.033  18.448  1.00  0.00     0.166 HD
ATOM     25  F   UNL     1      46.782 130.094  13.283  1.00  0.00    -0.207 F 
ENDBRANCH   5  15
TORSDOF 4
ENDMDL
MODEL 5
REMARK VINA RESULT:      -5.1      1.218      1.679
REMARK SMILES CO[C@@H]1CCC[C@@H](c2cc3cc(F)ccc3[nH]2)N1C(=O)C(C)(F)F
REMARK SMILES IDX 3 1 4 2 5 3 6 4 7 5 18 6 2 7 1 8 19 9 20 10 21 11 22 12
REMARK SMILES IDX 23 13 24 14 8 15 9 16 17 17 10 18 16 19 11 20 15 21 12 22
REMARK SMILES IDX 14 23 13 25
REMARK H PARENT 17 24
ROOT
ATOM      1  C   UNL     1      42.964 132.565  20.674  1.00  0.00     0.217 C 
ATOM      2  C   UNL     1      41.666 133.084  20.042  1.00  0.00     0.055 C 
ATOM      3  C   UNL     1      41.098 132.078  19.040  1.00  0.00     0.007 C 
ATOM      4  C   UNL     1      42.125 131.786  17.948  1.00  0.00     0.032 C 
ATOM      5  C   UNL     1      43.450 131.277  18.546  1.00  0.00     0.135 C 
ATOM      6  N   UNL     1      43.925 132.178  19.622  1.00  0.00    -0.303 N 
ENDROOT
BRANCH   1   7
ATOM      7  O   UNL     1      42.658 131.435  21.478  1.00  0.00    -0.362 OA
ATOM      8  C   UNL     1      42.526 131.803  22.832  1.00  0.00     0.197 C 
ENDBRANCH   1   7
BRANCH   6   9
ATOM      9  C   UNL     1      45.333 132.250  19.937  1.00  0.00     0.295 C 
ATOM     10  O   UNL     1      46.054 133.111  19.362  1.00  0.00    -0.268 OA
BRANCH   9  11
ATOM     11  C   UNL     1      45.979 131.292  20.910  1.00  0.00     0.322 C 
ATOM     12  C   UNL     1      45.586 129.843  20.625  1.00  0.00     0.098 C 
ATOM     13  F   UNL     1      45.575 131.605  22.198  1.00  0.00    -0.196 F 
ATOM     14  F   UNL     1      47.354 131.422  20.846  1.00  0.00    -0.196 F 
ENDBRANCH   9  11
ENDBRANCH   6   9
BRANCH   5  15
ATOM     15  C   UNL     1      44.467 131.125  17.436  1.00  0.00     0.039 A 
ATOM     16  C   UNL     1      45.151 129.951  17.116  1.00  0.00     0.034 A 
ATOM     17  N   UNL     1      44.803 132.126  16.590  1.00  0.00    -0.357 N 
ATOM     18  C   UNL     1      45.928 130.279  16.028  1.00  0.00     0.003 A 
ATOM     19  C   UNL     1      45.695 131.597  15.737  1.00  0.00     0.046 A 
ATOM     20  C   UNL     1      46.811 129.504  15.280  1.00  0.00     0.049 A 
ATOM     21  C   UNL     1      46.331 132.235  14.673  1.00  0.00     0.029 A 
ATOM     22  C   UNL     1      47.471 130.121  14.199  1.00  0.00     0.123 A 
ATOM     23  C   UNL     1      47.232 131.481  13.897  1.00  0.00     0.041 A 
ATOM     24  H   UNL     1      44.437 133.105  16.592  1.00  0.00     0.166 HD
ATOM     25  F   UNL     1      48.340 129.405  13.444  1.00  0.00    -0.207 F 
ENDBRANCH   5  15
TORSDOF 4
ENDMDL
MODEL 6
REMARK VINA RESULT:      -4.9      1.962      3.210
REMARK SMILES CO[C@@H]1CCC[C@@H](c2cc3cc(F)ccc3[nH]2)N1C(=O)C(C)(F)F
REMARK SMILES IDX 3 1 4 2 5 3 6 4 7 5 18 6 2 7 1 8 19 9 20 10 21 11 22 12
REMARK SMILES IDX 23 13 24 14 8 15 9 16 17 17 10 18 16 19 11 20 15 21 12 22
REMARK SMILES IDX 14 23 13 25
REMARK H PARENT 17 24
ROOT
ATOM      1  C   UNL     1      42.749 130.817  22.041  1.00  0.00     0.217 C 
ATOM      2  C   UNL     1      43.429 129.647  22.762  1.00  0.00     0.055 C 
ATOM      3  C   UNL     1      44.952 129.776  22.711  1.00  0.00     0.007 C 
ATOM      4  C   UNL     1      45.426 129.835  21.260  1.00  0.00     0.032 C 
ATOM      5  C   UNL     1      44.751 130.990  20.496  1.00  0.00     0.135 C 
ATOM      6  N   UNL     1      43.280 130.949  20.669  1.00  0.00    -0.303 N 
ENDROOT
BRANCH   1   7
ATOM      7  O   UNL     1      43.005 132.010  22.767  1.00  0.00    -0.362 OA
ATOM      8  C   UNL     1      42.503 131.915  24.081  1.00  0.00     0.197 C 
ENDBRANCH   1   7
BRANCH   6   9
ATOM      9  C   UNL     1      42.417 131.529  19.666  1.00  0.00     0.295 C 
ATOM     10  O   UNL     1      42.007 130.812  18.712  1.00  0.00    -0.268 OA
BRANCH   9  11
ATOM     11  C   UNL     1      42.022 132.986  19.704  1.00  0.00     0.322 C 
ATOM     12  C   UNL     1      40.944 133.253  20.753  1.00  0.00     0.098 C 
ATOM     13  F   UNL     1      41.526 133.361  18.467  1.00  0.00    -0.196 F 
ATOM     14  F   UNL     1      43.136 133.761  19.975  1.00  0.00    -0.196 F 
ENDBRANCH   9  11
ENDBRANCH   6   9
BRANCH   5  15
ATOM     15  C   UNL     1      45.158 130.925  19.041  1.00  0.00     0.039 A 
ATOM     16  C   UNL     1      44.921 131.915  18.086  1.00  0.00     0.034 A 
ATOM     17  N   UNL     1      45.847 129.890  18.505  1.00  0.00    -0.357 N 
ATOM     18  C   UNL     1      45.498 131.437  16.930  1.00  0.00     0.003 A 
ATOM     19  C   UNL     1      46.047 130.215  17.217  1.00  0.00     0.046 A 
ATOM     20  C   UNL     1      45.579 132.001  15.659  1.00  0.00     0.049 A 
ATOM     21  C   UNL     1      46.717 129.469  16.249  1.00  0.00     0.029 A 
ATOM     22  C   UNL     1      46.249 131.270  14.659  1.00  0.00     0.123 A 
ATOM     23  C   UNL     1      46.816 130.009  14.953  1.00  0.00     0.041 A 
ATOM     24  H   UNL     1      46.167 129.023  18.992  1.00  0.00     0.166 HD
ATOM     25  F   UNL     1      46.351 131.780  13.407  1.00  0.00    -0.207 F 
ENDBRANCH   5  15
TORSDOF 4
ENDMDL
MODEL 7
REMARK VINA RESULT:      -4.7      2.247      3.346
REMARK SMILES CO[C@@H]1CCC[C@@H](c2cc3cc(F)ccc3[nH]2)N1C(=O)C(C)(F)F
REMARK SMILES IDX 3 1 4 2 5 3 6 4 7 5 18 6 2 7 1 8 19 9 20 10 21 11 22 12
REMARK SMILES IDX 23 13 24 14 8 15 9 16 17 17 10 18 16 19 11 20 15 21 12 22
REMARK SMILES IDX 14 23 13 25
REMARK H PARENT 17 24
ROOT
ATOM      1  C   UNL     1      43.725 131.149  22.257  1.00  0.00     0.217 C 
ATOM      2  C   UNL     1      43.763 129.691  22.732  1.00  0.00     0.055 C 
ATOM      3  C   UNL     1      45.112 129.043  22.417  1.00  0.00     0.007 C 
ATOM      4  C   UNL     1      45.389 129.106  20.916  1.00  0.00     0.032 C 
ATOM      5  C   UNL     1      45.343 130.556  20.398  1.00  0.00     0.135 C 
ATOM      6  N   UNL     1      44.096 131.231  20.830  1.00  0.00    -0.303 N 
ENDROOT
BRANCH   1   7
ATOM      7  O   UNL     1      44.643 131.904  23.033  1.00  0.00    -0.362 OA
ATOM      8  C   UNL     1      44.085 132.245  24.282  1.00  0.00     0.197 C 
ENDBRANCH   1   7
BRANCH   6   9
ATOM      9  C   UNL     1      43.564 132.330  20.058  1.00  0.00     0.295 C 
ATOM     10  O   UNL     1      44.300 133.323  19.805  1.00  0.00    -0.268 OA
BRANCH   9  11
ATOM     11  C   UNL     1      42.133 132.342  19.576  1.00  0.00     0.322 C 
ATOM     12  C   UNL     1      41.240 133.196  20.474  1.00  0.00     0.098 C 
ATOM     13  F   UNL     1      41.637 131.049  19.576  1.00  0.00    -0.196 F 
ATOM     14  F   UNL     1      42.084 132.823  18.280  1.00  0.00    -0.196 F 
ENDBRANCH   9  11
ENDBRANCH   6   9
BRANCH   5  15
ATOM     15  C   UNL     1      45.497 130.548  18.894  1.00  0.00     0.039 A 
ATOM     16  C   UNL     1      44.981 131.506  18.019  1.00  0.00     0.034 A 
ATOM     17  N   UNL     1      46.202 129.608  18.221  1.00  0.00    -0.357 N 
ATOM     18  C   UNL     1      45.403 131.108  16.769  1.00  0.00     0.003 A 
ATOM     19  C   UNL     1      46.136 129.961  16.927  1.00  0.00     0.046 A 
ATOM     20  C   UNL     1      45.195 131.684  15.518  1.00  0.00     0.049 A 
ATOM     21  C   UNL     1      46.714 129.307  15.840  1.00  0.00     0.029 A 
ATOM     22  C   UNL     1      45.765 131.046  14.400  1.00  0.00     0.123 A 
ATOM     23  C   UNL     1      46.521 129.862  14.560  1.00  0.00     0.041 A 
ATOM     24  H   UNL     1      46.703 128.784  18.624  1.00  0.00     0.166 HD
ATOM     25  F   UNL     1      45.588 131.570  13.163  1.00  0.00    -0.207 F 
ENDBRANCH   5  15
TORSDOF 4
ENDMDL
MODEL 8
REMARK VINA RESULT:      -4.6      1.069      1.137
REMARK SMILES CO[C@@H]1CCC[C@@H](c2cc3cc(F)ccc3[nH]2)N1C(=O)C(C)(F)F
REMARK SMILES IDX 3 1 4 2 5 3 6 4 7 5 18 6 2 7 1 8 19 9 20 10 21 11 22 12
REMARK SMILES IDX 23 13 24 14 8 15 9 16 17 17 10 18 16 19 11 20 15 21 12 22
REMARK SMILES IDX 14 23 13 25
REMARK H PARENT 17 24
ROOT
ATOM      1  C   UNL     1      43.020 132.522  20.653  1.00  0.00     0.217 C 
ATOM      2  C   UNL     1      41.727 133.145  20.113  1.00  0.00     0.055 C 
ATOM      3  C   UNL     1      41.022 132.200  19.139  1.00  0.00     0.007 C 
ATOM      4  C   UNL     1      41.952 131.852  17.978  1.00  0.00     0.032 C 
ATOM      5  C   UNL     1      43.272 131.237  18.482  1.00  0.00     0.135 C 
ATOM      6  N   UNL     1      43.880 132.083  19.535  1.00  0.00    -0.303 N 
ENDROOT
BRANCH   1   7
ATOM      7  O   UNL     1      42.684 131.404  21.461  1.00  0.00    -0.362 OA
ATOM      8  C   UNL     1      42.522 131.789  22.808  1.00  0.00     0.197 C 
ENDBRANCH   1   7
BRANCH   6   9
ATOM      9  C   UNL     1      45.308 132.046  19.758  1.00  0.00     0.295 C 
ATOM     10  O   UNL     1      46.075 132.645  18.956  1.00  0.00    -0.268 OA
BRANCH   9  11
ATOM     11  C   UNL     1      45.912 131.274  20.907  1.00  0.00     0.322 C 
ATOM     12  C   UNL     1      45.480 129.808  20.894  1.00  0.00     0.098 C 
ATOM     13  F   UNL     1      45.503 131.836  22.104  1.00  0.00    -0.196 F 
ATOM     14  F   UNL     1      47.291 131.352  20.843  1.00  0.00    -0.196 F 
ENDBRANCH   9  11
ENDBRANCH   6   9
BRANCH   5  15
ATOM     15  C   UNL     1      44.200 131.029  17.307  1.00  0.00     0.039 A 
ATOM     16  C   UNL     1      44.093 131.659  16.065  1.00  0.00     0.034 A 
ATOM     17  N   UNL     1      45.284 130.219  17.346  1.00  0.00    -0.357 N 
ATOM     18  C   UNL     1      45.166 131.195  15.338  1.00  0.00     0.003 A 
ATOM     19  C   UNL     1      45.864 130.329  16.139  1.00  0.00     0.046 A 
ATOM     20  C   UNL     1      45.571 131.484  14.037  1.00  0.00     0.049 A 
ATOM     21  C   UNL     1      47.020 129.690  15.694  1.00  0.00     0.029 A 
ATOM     22  C   UNL     1      46.735 130.852  13.558  1.00  0.00     0.123 A 
ATOM     23  C   UNL     1      47.456 129.959  14.382  1.00  0.00     0.041 A 
ATOM     24  H   UNL     1      45.610 129.637  18.150  1.00  0.00     0.166 HD
ATOM     25  F   UNL     1      47.166 131.104  12.297  1.00  0.00    -0.207 F 
ENDBRANCH   5  15
TORSDOF 4
ENDMDL
MODEL 9
REMARK VINA RESULT:      -4.1      1.995      3.517
REMARK SMILES CO[C@@H]1CCC[C@@H](c2cc3cc(F)ccc3[nH]2)N1C(=O)C(C)(F)F
REMARK SMILES IDX 3 1 4 2 5 3 6 4 7 5 18 6 2 7 1 8 19 9 20 10 21 11 22 12
REMARK SMILES IDX 23 13 24 14 8 15 9 16 17 17 10 18 16 19 11 20 15 21 12 22
REMARK SMILES IDX 14 23 13 25
REMARK H PARENT 17 24
ROOT
ATOM      1  C   UNL     1      42.748 130.728  22.079  1.00  0.00     0.217 C 
ATOM      2  C   UNL     1      43.441 129.555  22.784  1.00  0.00     0.055 C 
ATOM      3  C   UNL     1      44.962 129.710  22.749  1.00  0.00     0.007 C 
ATOM      4  C   UNL     1      45.448 129.806  21.303  1.00  0.00     0.032 C 
ATOM      5  C   UNL     1      44.761 130.965  20.557  1.00  0.00     0.135 C 
ATOM      6  N   UNL     1      43.289 130.896  20.716  1.00  0.00    -0.303 N 
ENDROOT
BRANCH   1   7
ATOM      7  O   UNL     1      42.978 131.910  22.831  1.00  0.00    -0.362 OA
ATOM      8  C   UNL     1      42.462 131.783  24.137  1.00  0.00     0.197 C 
ENDBRANCH   1   7
BRANCH   6   9
ATOM      9  C   UNL     1      42.426 131.481  19.716  1.00  0.00     0.295 C 
ATOM     10  O   UNL     1      42.009 130.767  18.763  1.00  0.00    -0.268 OA
BRANCH   9  11
ATOM     11  C   UNL     1      42.038 132.940  19.757  1.00  0.00     0.322 C 
ATOM     12  C   UNL     1      41.526 133.429  18.404  1.00  0.00     0.098 C 
ATOM     13  F   UNL     1      43.143 133.700  20.103  1.00  0.00    -0.196 F 
ATOM     14  F   UNL     1      41.064 133.134  20.720  1.00  0.00    -0.196 F 
ENDBRANCH   9  11
ENDBRANCH   6   9
BRANCH   5  15
ATOM     15  C   UNL     1      45.182 130.935  19.104  1.00  0.00     0.039 A 
ATOM     16  C   UNL     1      45.805 129.864  18.461  1.00  0.00     0.034 A 
ATOM     17  N   UNL     1      44.960 131.954  18.242  1.00  0.00    -0.357 N 
ATOM     18  C   UNL     1      45.958 130.275  17.155  1.00  0.00     0.003 A 
ATOM     19  C   UNL     1      45.438 131.539  17.058  1.00  0.00     0.046 A 
ATOM     20  C   UNL     1      46.509 129.618  16.058  1.00  0.00     0.049 A 
ATOM     21  C   UNL     1      45.434 132.237  15.851  1.00  0.00     0.029 A 
ATOM     22  C   UNL     1      46.522 130.298  14.826  1.00  0.00     0.123 A 
ATOM     23  C   UNL     1      45.987 131.602  14.722  1.00  0.00     0.041 A 
ATOM     24  H   UNL     1      44.502 132.870  18.450  1.00  0.00     0.166 HD
ATOM     25  F   UNL     1      47.050 129.697  13.731  1.00  0.00    -0.207 F 
ENDBRANCH   5  15
TORSDOF 4
ENDMDL


