MODEL 1
REMARK VINA RESULT:      -2.3      0.000      0.000
REMARK SMILES C=Cc1cc(-c2cccc3[nH+]coc23)cc(OC[C@@H](O)CCn2cc(-c3ccc[nH+]c3F)[nH+]n2)c1F
REMARK SMILES IDX 19 1 18 2 17 3 16 4 3 5 4 6 35 7 5 8 15 9 36 10 2 11 1 12
REMARK SMILES IDX 6 13 7 14 14 15 8 16 13 17 10 18 9 19 12 20 11 21 20 23
REMARK SMILES IDX 21 25 22 26 23 27 24 28 34 29 25 30 33 31 26 33 27 34 31 35
REMARK SMILES IDX 28 36 30 37 29 38 32 39
REMARK H PARENT 11 22 20 24 33 32 30 40
ROOT
ATOM      1  C   UNL     1      45.854 124.638  22.440  1.00  0.00     0.156 C 
ENDROOT
BRANCH   1   2
ATOM      2  C   UNL     1      47.215 123.977  22.687  1.00  0.00     0.261 C 
BRANCH   2   3
ATOM      3  O   UNL     1      48.118 124.929  23.243  1.00  0.00    -0.488 OA
BRANCH   3   4
ATOM      4  C   UNL     1      49.429 125.144  22.790  1.00  0.00     0.156 A 
ATOM      5  C   UNL     1      51.512 126.399  22.992  1.00  0.00     0.014 A 
ATOM      6  C   UNL     1      52.045 125.664  21.923  1.00  0.00     0.020 A 
ATOM      7  C   UNL     1      50.189 126.144  23.409  1.00  0.00     0.172 A 
ATOM      8  C   UNL     1      51.297 124.654  21.297  1.00  0.00    -0.010 A 
ATOM      9  C   UNL     1      49.990 124.397  21.738  1.00  0.00     0.058 A 
ATOM     10  F   UNL     1      49.607 126.896  24.378  1.00  0.00    -0.202 F 
BRANCH   5  11
ATOM     11  C   UNL     1      52.353 127.449  23.612  1.00  0.00     0.003 C 
ATOM     12  C   UNL     1      53.336 128.078  22.967  1.00  0.00     0.009 C 
ENDBRANCH   5  11
BRANCH   8  13
ATOM     13  C   UNL     1      51.882 123.873  20.179  1.00  0.00     0.032 A 
ATOM     14  C   UNL     1      53.074 123.125  20.343  1.00  0.00     0.013 A 
ATOM     15  C   UNL     1      51.283 123.831  18.913  1.00  0.00     0.212 A 
ATOM     16  C   UNL     1      53.620 122.388  19.268  1.00  0.00     0.008 A 
ATOM     17  O   UNL     1      50.178 124.403  18.499  1.00  0.00    -0.403 OA
ATOM     18  C   UNL     1      51.816 123.117  17.880  1.00  0.00     0.249 A 
ATOM     19  C   UNL     1      52.987 122.379  18.012  1.00  0.00     0.083 A 
ATOM     20  C   UNL     1      50.030 124.054  17.232  1.00  0.00     0.521 A 
ATOM     21  N   UNL     1      51.032 123.251  16.800  1.00  0.00    -0.176 N 
ATOM     22  H   UNL     1      51.157 122.831  15.853  1.00  0.00     0.457 HD
ENDBRANCH   8  13
ENDBRANCH   3   4
ENDBRANCH   2   3
ENDBRANCH   1   2
BRANCH   1  23
ATOM     23  O   UNL     1      45.024 123.747  21.739  1.00  0.00    -0.389 OA
ATOM     24  H   UNL     1      44.095 123.911  22.049  1.00  0.00     0.211 HD
ENDBRANCH   1  23
BRANCH   1  25
ATOM     25  C   UNL     1      45.192 125.017  23.777  1.00  0.00     0.084 C 
BRANCH  25  26
ATOM     26  C   UNL     1      44.004 124.109  24.133  1.00  0.00     0.272 C 
BRANCH  26  27
ATOM     27  N   UNL     1      42.742 124.669  23.656  1.00  0.00    -0.137 N 
ATOM     28  C   UNL     1      41.606 124.814  24.365  1.00  0.00     0.280 A 
ATOM     29  N   UNL     1      42.527 125.085  22.419  1.00  0.00     0.088 NA
ATOM     30  C   UNL     1      40.670 125.346  23.497  1.00  0.00     0.204 A 
ATOM     31  N   UNL     1      41.276 125.499  22.301  1.00  0.00    -0.143 N 
ATOM     32  H   UNL     1      40.864 125.882  21.422  1.00  0.00     0.342 HD
BRANCH  30  33
ATOM     33  C   UNL     1      39.250 125.666  23.780  1.00  0.00     0.131 A 
ATOM     34  C   UNL     1      38.383 124.663  24.245  1.00  0.00     0.029 A 
ATOM     35  C   UNL     1      38.732 126.964  23.598  1.00  0.00     0.369 A 
ATOM     36  C   UNL     1      37.049 124.959  24.520  1.00  0.00     0.072 A 
ATOM     37  N   UNL     1      37.423 127.225  23.873  1.00  0.00    -0.186 N 
ATOM     38  C   UNL     1      36.582 126.258  24.328  1.00  0.00     0.309 A 
ATOM     39  F   UNL     1      39.510 127.962  23.109  1.00  0.00    -0.135 F 
ATOM     40  H   UNL     1      37.054 128.191  23.728  1.00  0.00     0.456 HD
ENDBRANCH  30  33
ENDBRANCH  26  27
ENDBRANCH  25  26
ENDBRANCH   1  25
TORSDOF 10
ENDMDL
MODEL 2
REMARK VINA RESULT:       0.3      8.523     11.604
REMARK SMILES C=Cc1cc(-c2cccc3[nH+]coc23)cc(OC[C@@H](O)CCn2cc(-c3ccc[nH+]c3F)[nH+]n2)c1F
REMARK SMILES IDX 19 1 18 2 17 3 16 4 3 5 4 6 35 7 5 8 15 9 36 10 2 11 1 12
REMARK SMILES IDX 6 13 7 14 14 15 8 16 13 17 10 18 9 19 12 20 11 21 20 23
REMARK SMILES IDX 21 25 22 26 23 27 24 28 34 29 25 30 33 31 26 33 27 34 31 35
REMARK SMILES IDX 28 36 30 37 29 38 32 39
REMARK H PARENT 11 22 20 24 33 32 30 40
ROOT
ATOM      1  C   UNL     1      44.851 131.017  18.059  1.00  0.00     0.156 C 
ENDROOT
BRANCH   1   2
ATOM      2  C   UNL     1      46.031 131.592  18.850  1.00  0.00     0.261 C 
BRANCH   2   3
ATOM      3  O   UNL     1      45.976 131.132  20.198  1.00  0.00    -0.488 OA
BRANCH   3   4
ATOM      4  C   UNL     1      46.109 131.956  21.327  1.00  0.00     0.156 A 
ATOM      5  C   UNL     1      45.107 132.866  23.358  1.00  0.00     0.014 A 
ATOM      6  C   UNL     1      46.277 133.604  23.589  1.00  0.00     0.020 A 
ATOM      7  C   UNL     1      45.025 132.053  22.207  1.00  0.00     0.172 A 
ATOM      8  C   UNL     1      47.375 133.511  22.719  1.00  0.00    -0.010 A 
ATOM      9  C   UNL     1      47.285 132.682  21.590  1.00  0.00     0.058 A 
ATOM     10  F   UNL     1      43.877 131.395  21.901  1.00  0.00    -0.202 F 
BRANCH   5  11
ATOM     11  C   UNL     1      43.987 133.006  24.315  1.00  0.00     0.003 C 
ATOM     12  C   UNL     1      43.156 132.011  24.625  1.00  0.00     0.009 C 
ENDBRANCH   5  11
BRANCH   8  13
ATOM     13  C   UNL     1      48.611 134.286  22.987  1.00  0.00     0.032 A 
ATOM     14  C   UNL     1      49.494 133.930  24.037  1.00  0.00     0.013 A 
ATOM     15  C   UNL     1      48.969 135.399  22.215  1.00  0.00     0.212 A 
ATOM     16  C   UNL     1      50.667 134.680  24.282  1.00  0.00     0.008 A 
ATOM     17  O   UNL     1      48.355 135.924  21.182  1.00  0.00    -0.403 OA
ATOM     18  C   UNL     1      50.104 136.117  22.457  1.00  0.00     0.249 A 
ATOM     19  C   UNL     1      50.984 135.793  23.484  1.00  0.00     0.083 A 
ATOM     20  C   UNL     1      49.092 136.952  20.794  1.00  0.00     0.521 A 
ATOM     21  N   UNL     1      50.196 137.113  21.563  1.00  0.00    -0.176 N 
ATOM     22  H   UNL     1      50.942 137.836  21.473  1.00  0.00     0.457 HD
ENDBRANCH   8  13
ENDBRANCH   3   4
ENDBRANCH   2   3
ENDBRANCH   1   2
BRANCH   1  23
ATOM     23  O   UNL     1      44.603 129.701  18.482  1.00  0.00    -0.389 OA
ATOM     24  H   UNL     1      43.617 129.592  18.532  1.00  0.00     0.211 HD
ENDBRANCH   1  23
BRANCH   1  25
ATOM     25  C   UNL     1      43.591 131.875  18.278  1.00  0.00     0.084 C 
BRANCH  25  26
ATOM     26  C   UNL     1      42.814 132.136  16.979  1.00  0.00     0.272 C 
BRANCH  26  27
ATOM     27  N   UNL     1      43.560 131.683  15.808  1.00  0.00    -0.137 N 
ATOM     28  C   UNL     1      44.846 131.284  15.777  1.00  0.00     0.280 A 
ATOM     29  N   UNL     1      43.072 131.639  14.579  1.00  0.00     0.088 NA
ATOM     30  C   UNL     1      45.131 130.986  14.457  1.00  0.00     0.204 A 
ATOM     31  N   UNL     1      44.009 131.220  13.744  1.00  0.00    -0.143 N 
ATOM     32  H   UNL     1      43.867 131.092  12.719  1.00  0.00     0.342 HD
BRANCH  30  33
ATOM     33  C   UNL     1      46.422 130.530  13.889  1.00  0.00     0.131 A 
ATOM     34  C   UNL     1      47.075 131.307  12.917  1.00  0.00     0.029 A 
ATOM     35  C   UNL     1      47.028 129.326  14.297  1.00  0.00     0.369 A 
ATOM     36  C   UNL     1      48.294 130.888  12.385  1.00  0.00     0.072 A 
ATOM     37  N   UNL     1      48.218 128.939  13.759  1.00  0.00    -0.186 N 
ATOM     38  C   UNL     1      48.857 129.691  12.822  1.00  0.00     0.309 A 
ATOM     39  F   UNL     1      46.422 128.512  15.199  1.00  0.00    -0.135 F 
ATOM     40  H   UNL     1      48.652 128.041  14.069  1.00  0.00     0.456 HD
ENDBRANCH  30  33
ENDBRANCH  26  27
ENDBRANCH  25  26
ENDBRANCH   1  25
TORSDOF 10
ENDMDL
MODEL 3
REMARK VINA RESULT:       0.5      5.659     10.037
REMARK SMILES C=Cc1cc(-c2cccc3[nH+]coc23)cc(OC[C@@H](O)CCn2cc(-c3ccc[nH+]c3F)[nH+]n2)c1F
REMARK SMILES IDX 19 1 18 2 17 3 16 4 3 5 4 6 35 7 5 8 15 9 36 10 2 11 1 12
REMARK SMILES IDX 6 13 7 14 14 15 8 16 13 17 10 18 9 19 12 20 11 21 20 23
REMARK SMILES IDX 21 25 22 26 23 27 24 28 34 29 25 30 33 31 26 33 27 34 31 35
REMARK SMILES IDX 28 36 30 37 29 38 32 39
REMARK H PARENT 11 22 20 24 33 32 30 40
ROOT
ATOM      1  C   UNL     1      45.083 127.900  23.666  1.00  0.00     0.156 C 
ENDROOT
BRANCH   1   2
ATOM      2  C   UNL     1      43.663 128.268  23.221  1.00  0.00     0.261 C 
BRANCH   2   3
ATOM      3  O   UNL     1      43.439 129.660  23.428  1.00  0.00    -0.488 OA
BRANCH   3   4
ATOM      4  C   UNL     1      43.061 130.565  22.424  1.00  0.00     0.156 A 
ATOM      5  C   UNL     1      41.719 132.497  21.774  1.00  0.00     0.014 A 
ATOM      6  C   UNL     1      42.223 132.393  20.469  1.00  0.00     0.020 A 
ATOM      7  C   UNL     1      42.132 131.562  22.746  1.00  0.00     0.172 A 
ATOM      8  C   UNL     1      43.160 131.403  20.133  1.00  0.00    -0.010 A 
ATOM      9  C   UNL     1      43.577 130.493  21.117  1.00  0.00     0.058 A 
ATOM     10  F   UNL     1      41.598 131.574  23.994  1.00  0.00    -0.202 F 
BRANCH   5  11
ATOM     11  C   UNL     1      40.736 133.565  22.064  1.00  0.00     0.003 C 
ATOM     12  C   UNL     1      39.920 133.546  23.118  1.00  0.00     0.009 C 
ENDBRANCH   5  11
BRANCH   8  13
ATOM     13  C   UNL     1      43.696 131.316  18.752  1.00  0.00     0.032 A 
ATOM     14  C   UNL     1      42.955 131.790  17.641  1.00  0.00     0.013 A 
ATOM     15  C   UNL     1      44.958 130.771  18.481  1.00  0.00     0.212 A 
ATOM     16  C   UNL     1      43.478 131.699  16.331  1.00  0.00     0.008 A 
ATOM     17  O   UNL     1      45.849 130.289  19.313  1.00  0.00    -0.403 OA
ATOM     18  C   UNL     1      45.455 130.688  17.214  1.00  0.00     0.249 A 
ATOM     19  C   UNL     1      44.748 131.140  16.105  1.00  0.00     0.083 A 
ATOM     20  C   UNL     1      46.879 129.907  18.575  1.00  0.00     0.521 A 
ATOM     21  N   UNL     1      46.678 130.136  17.255  1.00  0.00    -0.176 N 
ATOM     22  H   UNL     1      47.326 129.937  16.462  1.00  0.00     0.457 HD
ENDBRANCH   8  13
ENDBRANCH   3   4
ENDBRANCH   2   3
ENDBRANCH   1   2
BRANCH   1  23
ATOM     23  O   UNL     1      45.584 128.909  24.507  1.00  0.00    -0.389 OA
ATOM     24  H   UNL     1      45.106 128.829  25.373  1.00  0.00     0.211 HD
ENDBRANCH   1  23
BRANCH   1  25
ATOM     25  C   UNL     1      45.078 126.557  24.420  1.00  0.00     0.084 C 
BRANCH  25  26
ATOM     26  C   UNL     1      44.857 125.353  23.491  1.00  0.00     0.272 C 
BRANCH  26  27
ATOM     27  N   UNL     1      46.087 124.980  22.798  1.00  0.00    -0.137 N 
ATOM     28  C   UNL     1      47.347 125.150  23.243  1.00  0.00     0.280 A 
ATOM     29  N   UNL     1      46.132 124.446  21.588  1.00  0.00     0.088 NA
ATOM     30  C   UNL     1      48.181 124.688  22.241  1.00  0.00     0.204 A 
ATOM     31  N   UNL     1      47.393 124.262  21.231  1.00  0.00    -0.143 N 
ATOM     32  H   UNL     1      47.692 123.845  20.323  1.00  0.00     0.342 HD
BRANCH  30  33
ATOM     33  C   UNL     1      49.664 124.682  22.227  1.00  0.00     0.131 A 
ATOM     34  C   UNL     1      50.354 124.555  21.010  1.00  0.00     0.029 A 
ATOM     35  C   UNL     1      50.417 124.801  23.411  1.00  0.00     0.369 A 
ATOM     36  C   UNL     1      51.748 124.556  20.989  1.00  0.00     0.072 A 
ATOM     37  N   UNL     1      51.778 124.798  23.362  1.00  0.00    -0.186 N 
ATOM     38  C   UNL     1      52.450 124.681  22.186  1.00  0.00     0.309 A 
ATOM     39  F   UNL     1      49.805 124.882  24.620  1.00  0.00    -0.135 F 
ATOM     40  H   UNL     1      52.322 124.883  24.250  1.00  0.00     0.456 HD
ENDBRANCH  30  33
ENDBRANCH  26  27
ENDBRANCH  25  26
ENDBRANCH   1  25
TORSDOF 10
ENDMDL


