MODEL 1
REMARK VINA RESULT:      -1.0      0.000      0.000
REMARK SMILES CO[C@@H]1CCC[C@@H](c2cc3cc(F)ccc3[nH]2)N1[C@H]1C(=O)c2ccccc21
REMARK SMILES IDX 3 1 4 2 5 3 6 4 7 5 18 6 2 7 1 8 19 9 20 10 27 11 22 12
REMARK SMILES IDX 26 13 23 14 25 15 24 16 21 17 8 18 9 19 17 20 10 21 16 22
REMARK SMILES IDX 11 23 15 24 12 25 14 26 13 28
REMARK H PARENT 17 27
ROOT
ATOM      1  C   UNL     1      45.230 131.563  22.675  1.00  0.00     0.189 C 
ATOM      2  C   UNL     1      46.292 132.684  22.568  1.00  0.00     0.049 C 
ATOM      3  C   UNL     1      46.266 133.417  21.216  1.00  0.00     0.006 C 
ATOM      4  C   UNL     1      44.874 133.376  20.586  1.00  0.00     0.026 C 
ATOM      5  C   UNL     1      44.402 131.916  20.359  1.00  0.00     0.107 C 
ATOM      6  N   UNL     1      45.008 130.964  21.332  1.00  0.00    -0.255 NA
ENDROOT
BRANCH   1   7
ATOM      7  O   UNL     1      44.014 132.102  23.178  1.00  0.00    -0.366 OA
ATOM      8  C   UNL     1      44.153 132.482  24.530  1.00  0.00     0.197 C 
ENDBRANCH   1   7
BRANCH   6   9
ATOM      9  C   UNL     1      44.316 129.643  21.314  1.00  0.00     0.163 C 
ATOM     10  C   UNL     1      45.169 128.550  21.730  1.00  0.00     0.184 C 
ATOM     11  C   UNL     1      43.373 129.420  22.405  1.00  0.00    -0.012 A 
ATOM     12  C   UNL     1      44.170 128.349  22.831  1.00  0.00     0.025 A 
ATOM     13  C   UNL     1      42.205 129.796  23.038  1.00  0.00     0.006 A 
ATOM     14  C   UNL     1      43.862 127.578  23.935  1.00  0.00     0.012 A 
ATOM     15  C   UNL     1      41.859 129.028  24.178  1.00  0.00     0.000 A 
ATOM     16  C   UNL     1      42.674 127.938  24.619  1.00  0.00     0.001 A 
ATOM     17  O   UNL     1      46.241 128.013  21.347  1.00  0.00    -0.292 OA
ENDBRANCH   6   9
BRANCH   5  18
ATOM     18  C   UNL     1      44.747 131.497  18.952  1.00  0.00     0.033 A 
ATOM     19  C   UNL     1      45.791 130.640  18.611  1.00  0.00     0.033 A 
ATOM     20  N   UNL     1      44.033 131.853  17.857  1.00  0.00    -0.357 N 
ATOM     21  C   UNL     1      45.695 130.491  17.245  1.00  0.00     0.003 A 
ATOM     22  C   UNL     1      44.627 131.236  16.822  1.00  0.00     0.046 A 
ATOM     23  C   UNL     1      46.471 129.749  16.357  1.00  0.00     0.049 A 
ATOM     24  C   UNL     1      44.257 131.292  15.480  1.00  0.00     0.029 A 
ATOM     25  C   UNL     1      46.123 129.784  14.993  1.00  0.00     0.123 A 
ATOM     26  C   UNL     1      45.022 130.555  14.557  1.00  0.00     0.041 A 
ATOM     27  H   UNL     1      43.195 132.475  17.822  1.00  0.00     0.166 HD
ATOM     28  F   UNL     1      46.852 129.079  14.093  1.00  0.00    -0.207 F 
ENDBRANCH   5  18
TORSDOF 3
ENDMDL
MODEL 2
REMARK VINA RESULT:      -0.9      3.146      6.365
REMARK SMILES CO[C@@H]1CCC[C@@H](c2cc3cc(F)ccc3[nH]2)N1[C@H]1C(=O)c2ccccc21
REMARK SMILES IDX 3 1 4 2 5 3 6 4 7 5 18 6 2 7 1 8 19 9 20 10 27 11 22 12
REMARK SMILES IDX 26 13 23 14 25 15 24 16 21 17 8 18 9 19 17 20 10 21 16 22
REMARK SMILES IDX 11 23 15 24 12 25 14 26 13 28
REMARK H PARENT 17 27
ROOT
ATOM      1  C   UNL     1      43.203 130.871  22.618  1.00  0.00     0.189 C 
ATOM      2  C   UNL     1      41.820 130.322  23.043  1.00  0.00     0.049 C 
ATOM      3  C   UNL     1      41.908 129.022  23.860  1.00  0.00     0.006 C 
ATOM      4  C   UNL     1      43.231 128.929  24.621  1.00  0.00     0.026 C 
ATOM      5  C   UNL     1      44.441 128.980  23.651  1.00  0.00     0.107 C 
ATOM      6  N   UNL     1      44.139 129.735  22.403  1.00  0.00    -0.255 NA
ENDROOT
BRANCH   1   7
ATOM      7  O   UNL     1      43.706 131.735  23.629  1.00  0.00    -0.366 OA
ATOM      8  C   UNL     1      42.659 132.233  24.434  1.00  0.00     0.197 C 
ENDBRANCH   1   7
BRANCH   6   9
ATOM      9  C   UNL     1      45.380 130.050  21.636  1.00  0.00     0.163 C 
ATOM     10  C   UNL     1      45.734 129.019  20.683  1.00  0.00     0.184 C 
ATOM     11  C   UNL     1      45.228 131.062  20.596  1.00  0.00    -0.012 A 
ATOM     12  C   UNL     1      45.577 130.092  19.648  1.00  0.00     0.025 A 
ATOM     13  C   UNL     1      44.938 132.373  20.271  1.00  0.00     0.006 A 
ATOM     14  C   UNL     1      45.651 130.360  18.294  1.00  0.00     0.012 A 
ATOM     15  C   UNL     1      45.000 132.683  18.890  1.00  0.00     0.000 A 
ATOM     16  C   UNL     1      45.349 131.693  17.918  1.00  0.00     0.001 A 
ATOM     17  O   UNL     1      46.040 127.799  20.709  1.00  0.00    -0.292 OA
ENDBRANCH   6   9
BRANCH   5  18
ATOM     18  C   UNL     1      44.859 127.572  23.308  1.00  0.00     0.033 A 
ATOM     19  C   UNL     1      46.093 127.010  23.626  1.00  0.00     0.033 A 
ATOM     20  N   UNL     1      44.050 126.664  22.710  1.00  0.00    -0.357 N 
ATOM     21  C   UNL     1      46.014 125.708  23.183  1.00  0.00     0.003 A 
ATOM     22  C   UNL     1      44.771 125.533  22.635  1.00  0.00     0.046 A 
ATOM     23  C   UNL     1      46.947 124.674  23.232  1.00  0.00     0.049 A 
ATOM     24  C   UNL     1      44.370 124.311  22.098  1.00  0.00     0.029 A 
ATOM     25  C   UNL     1      46.573 123.426  22.698  1.00  0.00     0.123 A 
ATOM     26  C   UNL     1      45.291 123.247  22.131  1.00  0.00     0.041 A 
ATOM     27  H   UNL     1      43.071 126.810  22.378  1.00  0.00     0.166 HD
ATOM     28  F   UNL     1      47.451 122.393  22.723  1.00  0.00    -0.207 F 
ENDBRANCH   5  18
TORSDOF 3
ENDMDL
MODEL 3
REMARK VINA RESULT:      -0.6      3.272      6.963
REMARK SMILES CO[C@@H]1CCC[C@@H](c2cc3cc(F)ccc3[nH]2)N1[C@H]1C(=O)c2ccccc21
REMARK SMILES IDX 3 1 4 2 5 3 6 4 7 5 18 6 2 7 1 8 19 9 20 10 27 11 22 12
REMARK SMILES IDX 26 13 23 14 25 15 24 16 21 17 8 18 9 19 17 20 10 21 16 22
REMARK SMILES IDX 11 23 15 24 12 25 14 26 13 28
REMARK H PARENT 17 27
ROOT
ATOM      1  C   UNL     1      44.525 132.427  22.137  1.00  0.00     0.189 C 
ATOM      2  C   UNL     1      44.586 132.901  23.609  1.00  0.00     0.049 C 
ATOM      3  C   UNL     1      44.542 131.744  24.621  1.00  0.00     0.006 C 
ATOM      4  C   UNL     1      45.108 130.456  24.023  1.00  0.00     0.026 C 
ATOM      5  C   UNL     1      44.319 130.030  22.758  1.00  0.00     0.107 C 
ATOM      6  N   UNL     1      43.705 131.188  22.052  1.00  0.00    -0.255 NA
ENDROOT
BRANCH   1   7
ATOM      7  O   UNL     1      45.840 132.176  21.659  1.00  0.00    -0.366 OA
ATOM      8  C   UNL     1      46.665 133.307  21.837  1.00  0.00     0.197 C 
ENDBRANCH   1   7
BRANCH   6   9
ATOM      9  C   UNL     1      43.231 130.814  20.688  1.00  0.00     0.163 C 
ATOM     10  C   UNL     1      42.612 131.916  19.980  1.00  0.00     0.184 C 
ATOM     11  C   UNL     1      44.279 130.662  19.685  1.00  0.00    -0.012 A 
ATOM     12  C   UNL     1      43.701 131.718  18.968  1.00  0.00     0.025 A 
ATOM     13  C   UNL     1      45.403 129.981  19.259  1.00  0.00     0.006 A 
ATOM     14  C   UNL     1      44.215 132.183  17.773  1.00  0.00     0.012 A 
ATOM     15  C   UNL     1      45.959 130.433  18.037  1.00  0.00     0.000 A 
ATOM     16  C   UNL     1      45.376 131.516  17.307  1.00  0.00     0.001 A 
ATOM     17  O   UNL     1      41.622 132.676  20.135  1.00  0.00    -0.292 OA
ENDBRANCH   6   9
BRANCH   5  18
ATOM     18  C   UNL     1      43.246 129.045  23.153  1.00  0.00     0.033 A 
ATOM     19  C   UNL     1      41.949 129.390  23.523  1.00  0.00     0.033 A 
ATOM     20  N   UNL     1      43.403 127.699  23.123  1.00  0.00    -0.357 N 
ATOM     21  C   UNL     1      41.309 128.189  23.734  1.00  0.00     0.003 A 
ATOM     22  C   UNL     1      42.214 127.190  23.486  1.00  0.00     0.046 A 
ATOM     23  C   UNL     1      39.999 127.913  24.120  1.00  0.00     0.049 A 
ATOM     24  C   UNL     1      41.873 125.844  23.606  1.00  0.00     0.029 A 
ATOM     25  C   UNL     1      39.623 126.563  24.249  1.00  0.00     0.123 A 
ATOM     26  C   UNL     1      40.556 125.533  23.995  1.00  0.00     0.041 A 
ATOM     27  H   UNL     1      44.264 127.167  22.870  1.00  0.00     0.166 HD
ATOM     28  F   UNL     1      38.358 126.249  24.625  1.00  0.00    -0.207 F 
ENDBRANCH   5  18
TORSDOF 3
ENDMDL
MODEL 4
REMARK VINA RESULT:      -0.5      1.842      2.762
REMARK SMILES CO[C@@H]1CCC[C@@H](c2cc3cc(F)ccc3[nH]2)N1[C@H]1C(=O)c2ccccc21
REMARK SMILES IDX 3 1 4 2 5 3 6 4 7 5 18 6 2 7 1 8 19 9 20 10 27 11 22 12
REMARK SMILES IDX 26 13 23 14 25 15 24 16 21 17 8 18 9 19 17 20 10 21 16 22
REMARK SMILES IDX 11 23 15 24 12 25 14 26 13 28
REMARK H PARENT 17 27
ROOT
ATOM      1  C   UNL     1      42.681 132.528  21.194  1.00  0.00     0.189 C 
ATOM      2  C   UNL     1      41.743 133.388  20.314  1.00  0.00     0.049 C 
ATOM      3  C   UNL     1      41.655 132.894  18.860  1.00  0.00     0.006 C 
ATOM      4  C   UNL     1      41.920 131.392  18.763  1.00  0.00     0.026 C 
ATOM      5  C   UNL     1      43.324 131.033  19.317  1.00  0.00     0.107 C 
ATOM      6  N   UNL     1      43.788 131.992  20.358  1.00  0.00    -0.255 NA
ENDROOT
BRANCH   1   7
ATOM      7  O   UNL     1      41.946 131.459  21.775  1.00  0.00    -0.366 OA
ATOM      8  C   UNL     1      41.775 131.660  23.162  1.00  0.00     0.197 C 
ENDBRANCH   1   7
BRANCH   6   9
ATOM      9  C   UNL     1      44.971 131.468  21.101  1.00  0.00     0.163 C 
ATOM     10  C   UNL     1      45.076 131.996  22.445  1.00  0.00     0.184 C 
ATOM     11  C   UNL     1      44.851 130.092  21.571  1.00  0.00    -0.012 A 
ATOM     12  C   UNL     1      44.960 130.567  22.885  1.00  0.00     0.025 A 
ATOM     13  C   UNL     1      44.712 128.755  21.256  1.00  0.00     0.006 A 
ATOM     14  C   UNL     1      44.924 129.736  23.988  1.00  0.00     0.012 A 
ATOM     15  C   UNL     1      44.669 127.872  22.364  1.00  0.00     0.000 A 
ATOM     16  C   UNL     1      44.772 128.354  23.706  1.00  0.00     0.001 A 
ATOM     17  O   UNL     1      45.210 133.122  22.990  1.00  0.00    -0.292 OA
ENDBRANCH   6   9
BRANCH   5  18
ATOM     18  C   UNL     1      44.312 131.000  18.177  1.00  0.00     0.033 A 
ATOM     19  C   UNL     1      45.110 129.907  17.848  1.00  0.00     0.033 A 
ATOM     20  N   UNL     1      44.484 132.012  17.292  1.00  0.00    -0.357 N 
ATOM     21  C   UNL     1      45.797 130.296  16.720  1.00  0.00     0.003 A 
ATOM     22  C   UNL     1      45.398 131.570  16.412  1.00  0.00     0.046 A 
ATOM     23  C   UNL     1      46.736 129.614  15.948  1.00  0.00     0.049 A 
ATOM     24  C   UNL     1      45.909 132.253  15.310  1.00  0.00     0.029 A 
ATOM     25  C   UNL     1      47.271 130.277  14.827  1.00  0.00     0.123 A 
ATOM     26  C   UNL     1      46.861 131.592  14.511  1.00  0.00     0.041 A 
ATOM     27  H   UNL     1      44.007 132.940  17.290  1.00  0.00     0.166 HD
ATOM     28  F   UNL     1      48.190 129.652  14.050  1.00  0.00    -0.207 F 
ENDBRANCH   5  18
TORSDOF 3
ENDMDL
MODEL 5
REMARK VINA RESULT:      -0.4      1.863      3.070
REMARK SMILES CO[C@@H]1CCC[C@@H](c2cc3cc(F)ccc3[nH]2)N1[C@H]1C(=O)c2ccccc21
REMARK SMILES IDX 3 1 4 2 5 3 6 4 7 5 18 6 2 7 1 8 19 9 20 10 27 11 22 12
REMARK SMILES IDX 26 13 23 14 25 15 24 16 21 17 8 18 9 19 17 20 10 21 16 22
REMARK SMILES IDX 11 23 15 24 12 25 14 26 13 28
REMARK H PARENT 17 27
ROOT
ATOM      1  C   UNL     1      42.793 132.621  20.529  1.00  0.00     0.189 C 
ATOM      2  C   UNL     1      41.855 133.401  19.577  1.00  0.00     0.049 C 
ATOM      3  C   UNL     1      41.807 132.812  18.157  1.00  0.00     0.006 C 
ATOM      4  C   UNL     1      42.106 131.313  18.163  1.00  0.00     0.026 C 
ATOM      5  C   UNL     1      43.505 131.021  18.767  1.00  0.00     0.107 C 
ATOM      6  N   UNL     1      43.928 132.056  19.752  1.00  0.00    -0.255 NA
ENDROOT
BRANCH   1   7
ATOM      7  O   UNL     1      42.067 131.576  21.165  1.00  0.00    -0.366 OA
ATOM      8  C   UNL     1      41.815 131.889  22.518  1.00  0.00     0.197 C 
ENDBRANCH   1   7
BRANCH   6   9
ATOM      9  C   UNL     1      45.106 131.608  20.550  1.00  0.00     0.163 C 
ATOM     10  C   UNL     1      45.634 132.645  21.412  1.00  0.00     0.184 C 
ATOM     11  C   UNL     1      44.798 130.728  21.673  1.00  0.00    -0.012 A 
ATOM     12  C   UNL     1      45.311 131.706  22.536  1.00  0.00     0.025 A 
ATOM     13  C   UNL     1      44.298 129.517  22.108  1.00  0.00     0.006 A 
ATOM     14  C   UNL     1      45.350 131.548  23.908  1.00  0.00     0.012 A 
ATOM     15  C   UNL     1      44.320 129.321  23.512  1.00  0.00     0.000 A 
ATOM     16  C   UNL     1      44.837 130.319  24.396  1.00  0.00     0.001 A 
ATOM     17  O   UNL     1      46.136 133.791  21.282  1.00  0.00    -0.292 OA
ENDBRANCH   6   9
BRANCH   5  18
ATOM     18  C   UNL     1      44.517 130.935  17.651  1.00  0.00     0.033 A 
ATOM     19  C   UNL     1      45.254 129.798  17.332  1.00  0.00     0.033 A 
ATOM     20  N   UNL     1      44.772 131.941  16.779  1.00  0.00    -0.357 N 
ATOM     21  C   UNL     1      45.992 130.152  16.224  1.00  0.00     0.003 A 
ATOM     22  C   UNL     1      45.679 131.450  15.918  1.00  0.00     0.046 A 
ATOM     23  C   UNL     1      46.906 129.419  15.470  1.00  0.00     0.049 A 
ATOM     24  C   UNL     1      46.258 132.109  14.835  1.00  0.00     0.029 A 
ATOM     25  C   UNL     1      47.508 130.056  14.368  1.00  0.00     0.123 A 
ATOM     26  C   UNL     1      47.187 131.395  14.054  1.00  0.00     0.041 A 
ATOM     27  H   UNL     1      44.353 132.897  16.774  1.00  0.00     0.166 HD
ATOM     28  F   UNL     1      48.405 129.380  13.608  1.00  0.00    -0.207 F 
ENDBRANCH   5  18
TORSDOF 3
ENDMDL
MODEL 6
REMARK VINA RESULT:      -0.3      0.738      1.208
REMARK SMILES CO[C@@H]1CCC[C@@H](c2cc3cc(F)ccc3[nH]2)N1[C@H]1C(=O)c2ccccc21
REMARK SMILES IDX 3 1 4 2 5 3 6 4 7 5 18 6 2 7 1 8 19 9 20 10 27 11 22 12
REMARK SMILES IDX 26 13 23 14 25 15 24 16 21 17 8 18 9 19 17 20 10 21 16 22
REMARK SMILES IDX 11 23 15 24 12 25 14 26 13 28
REMARK H PARENT 17 27
ROOT
ATOM      1  C   UNL     1      45.219 131.596  22.613  1.00  0.00     0.189 C 
ATOM      2  C   UNL     1      46.239 132.754  22.506  1.00  0.00     0.049 C 
ATOM      3  C   UNL     1      46.217 133.457  21.139  1.00  0.00     0.006 C 
ATOM      4  C   UNL     1      44.843 133.349  20.477  1.00  0.00     0.026 C 
ATOM      5  C   UNL     1      44.433 131.867  20.272  1.00  0.00     0.107 C 
ATOM      6  N   UNL     1      45.052 130.960  21.278  1.00  0.00    -0.255 NA
ENDROOT
BRANCH   1   7
ATOM      7  O   UNL     1      43.971 132.097  23.076  1.00  0.00    -0.366 OA
ATOM      8  C   UNL     1      44.062 132.511  24.422  1.00  0.00     0.197 C 
ENDBRANCH   1   7
BRANCH   6   9
ATOM      9  C   UNL     1      44.412 129.613  21.274  1.00  0.00     0.163 C 
ATOM     10  C   UNL     1      45.316 128.554  21.671  1.00  0.00     0.184 C 
ATOM     11  C   UNL     1      43.502 129.353  22.384  1.00  0.00    -0.012 A 
ATOM     12  C   UNL     1      44.349 128.314  22.792  1.00  0.00     0.025 A 
ATOM     13  C   UNL     1      42.333 129.682  23.042  1.00  0.00     0.006 A 
ATOM     14  C   UNL     1      44.095 127.530  23.901  1.00  0.00     0.012 A 
ATOM     15  C   UNL     1      42.042 128.901  24.188  1.00  0.00     0.000 A 
ATOM     16  C   UNL     1      42.907 127.844  24.610  1.00  0.00     0.001 A 
ATOM     17  O   UNL     1      46.399 128.059  21.264  1.00  0.00    -0.292 OA
ENDBRANCH   6   9
BRANCH   5  18
ATOM     18  C   UNL     1      44.829 131.432  18.882  1.00  0.00     0.033 A 
ATOM     19  C   UNL     1      44.541 132.138  17.717  1.00  0.00     0.033 A 
ATOM     20  N   UNL     1      45.577 130.335  18.614  1.00  0.00    -0.357 N 
ATOM     21  C   UNL     1      45.138 131.415  16.708  1.00  0.00     0.003 A 
ATOM     22  C   UNL     1      45.752 130.334  17.283  1.00  0.00     0.046 A 
ATOM     23  C   UNL     1      45.184 131.642  15.333  1.00  0.00     0.049 A 
ATOM     24  C   UNL     1      46.458 129.402  16.524  1.00  0.00     0.029 A 
ATOM     25  C   UNL     1      45.889 130.718  14.539  1.00  0.00     0.123 A 
ATOM     26  C   UNL     1      46.521 129.602  15.132  1.00  0.00     0.041 A 
ATOM     27  H   UNL     1      45.943 129.635  19.297  1.00  0.00     0.166 HD
ATOM     28  F   UNL     1      45.957 130.898  13.197  1.00  0.00    -0.207 F 
ENDBRANCH   5  18
TORSDOF 3
ENDMDL
MODEL 7
REMARK VINA RESULT:       0.2      1.925      3.111
REMARK SMILES CO[C@@H]1CCC[C@@H](c2cc3cc(F)ccc3[nH]2)N1[C@H]1C(=O)c2ccccc21
REMARK SMILES IDX 3 1 4 2 5 3 6 4 7 5 18 6 2 7 1 8 19 9 20 10 27 11 22 12
REMARK SMILES IDX 26 13 23 14 25 15 24 16 21 17 8 18 9 19 17 20 10 21 16 22
REMARK SMILES IDX 11 23 15 24 12 25 14 26 13 28
REMARK H PARENT 17 27
ROOT
ATOM      1  C   UNL     1      42.758 132.655  20.813  1.00  0.00     0.189 C 
ATOM      2  C   UNL     1      41.856 133.539  19.919  1.00  0.00     0.049 C 
ATOM      3  C   UNL     1      41.718 133.005  18.483  1.00  0.00     0.006 C 
ATOM      4  C   UNL     1      41.898 131.488  18.430  1.00  0.00     0.026 C 
ATOM      5  C   UNL     1      43.288 131.068  18.976  1.00  0.00     0.107 C 
ATOM      6  N   UNL     1      43.821 132.031  19.980  1.00  0.00    -0.255 NA
ENDROOT
BRANCH   1   7
ATOM      7  O   UNL     1      41.974 131.648  21.439  1.00  0.00    -0.366 OA
ATOM      8  C   UNL     1      41.768 131.944  22.803  1.00  0.00     0.197 C 
ENDBRANCH   1   7
BRANCH   6   9
ATOM      9  C   UNL     1      44.984 131.466  20.723  1.00  0.00     0.163 C 
ATOM     10  C   UNL     1      45.630 132.433  21.586  1.00  0.00     0.184 C 
ATOM     11  C   UNL     1      44.643 130.588  21.837  1.00  0.00    -0.012 A 
ATOM     12  C   UNL     1      45.269 131.497  22.701  1.00  0.00     0.025 A 
ATOM     13  C   UNL     1      44.058 129.413  22.266  1.00  0.00     0.006 A 
ATOM     14  C   UNL     1      45.345 131.302  24.067  1.00  0.00     0.012 A 
ATOM     15  C   UNL     1      44.114 129.182  23.662  1.00  0.00     0.000 A 
ATOM     16  C   UNL     1      44.745 130.111  24.548  1.00  0.00     0.001 A 
ATOM     17  O   UNL     1      46.224 133.535  21.461  1.00  0.00    -0.292 OA
ENDBRANCH   6   9
BRANCH   5  18
ATOM     18  C   UNL     1      44.254 130.944  17.825  1.00  0.00     0.033 A 
ATOM     19  C   UNL     1      44.406 131.884  16.809  1.00  0.00     0.033 A 
ATOM     20  N   UNL     1      45.142 129.929  17.685  1.00  0.00    -0.357 N 
ATOM     21  C   UNL     1      45.426 131.396  16.023  1.00  0.00     0.003 A 
ATOM     22  C   UNL     1      45.846 130.216  16.577  1.00  0.00     0.046 A 
ATOM     23  C   UNL     1      46.010 131.914  14.868  1.00  0.00     0.049 A 
ATOM     24  C   UNL     1      46.881 129.468  16.017  1.00  0.00     0.029 A 
ATOM     25  C   UNL     1      47.058 131.183  14.278  1.00  0.00     0.123 A 
ATOM     26  C   UNL     1      47.490 129.964  14.849  1.00  0.00     0.041 A 
ATOM     27  H   UNL     1      45.258 129.098  18.306  1.00  0.00     0.166 HD
ATOM     28  F   UNL     1      47.653 131.648  13.152  1.00  0.00    -0.207 F 
ENDBRANCH   5  18
TORSDOF 3
ENDMDL
MODEL 8
REMARK VINA RESULT:       0.2      7.518      9.983
REMARK SMILES CO[C@@H]1CCC[C@@H](c2cc3cc(F)ccc3[nH]2)N1[C@H]1C(=O)c2ccccc21
REMARK SMILES IDX 3 1 4 2 5 3 6 4 7 5 18 6 2 7 1 8 19 9 20 10 27 11 22 12
REMARK SMILES IDX 26 13 23 14 25 15 24 16 21 17 8 18 9 19 17 20 10 21 16 22
REMARK SMILES IDX 11 23 15 24 12 25 14 26 13 28
REMARK H PARENT 17 27
ROOT
ATOM      1  C   UNL     1      51.172 122.889  20.292  1.00  0.00     0.189 C 
ATOM      2  C   UNL     1      50.389 122.377  19.060  1.00  0.00     0.049 C 
ATOM      3  C   UNL     1      48.977 122.976  18.947  1.00  0.00     0.006 C 
ATOM      4  C   UNL     1      48.900 124.354  19.605  1.00  0.00     0.026 C 
ATOM      5  C   UNL     1      49.283 124.281  21.107  1.00  0.00     0.107 C 
ATOM      6  N   UNL     1      50.221 123.163  21.402  1.00  0.00    -0.255 NA
ENDROOT
BRANCH   1   7
ATOM      7  O   UNL     1      51.881 124.073  19.951  1.00  0.00    -0.366 OA
ATOM      8  C   UNL     1      52.456 123.965  18.667  1.00  0.00     0.197 C 
ENDBRANCH   1   7
BRANCH   6   9
ATOM      9  C   UNL     1      50.825 123.295  22.760  1.00  0.00     0.163 C 
ATOM     10  C   UNL     1      52.240 123.600  22.724  1.00  0.00     0.184 C 
ATOM     11  C   UNL     1      50.501 124.530  23.467  1.00  0.00    -0.012 A 
ATOM     12  C   UNL     1      51.865 124.852  23.460  1.00  0.00     0.025 A 
ATOM     13  C   UNL     1      49.535 125.331  24.042  1.00  0.00     0.006 A 
ATOM     14  C   UNL     1      52.364 126.013  24.018  1.00  0.00     0.012 A 
ATOM     15  C   UNL     1      50.010 126.533  24.622  1.00  0.00     0.000 A 
ATOM     16  C   UNL     1      51.400 126.869  24.610  1.00  0.00     0.001 A 
ATOM     17  O   UNL     1      53.292 123.064  22.289  1.00  0.00    -0.292 OA
ENDBRANCH   6   9
BRANCH   5  18
ATOM     18  C   UNL     1      48.028 124.126  21.929  1.00  0.00     0.033 A 
ATOM     19  C   UNL     1      47.034 125.094  22.053  1.00  0.00     0.033 A 
ATOM     20  N   UNL     1      47.688 122.992  22.588  1.00  0.00    -0.357 N 
ATOM     21  C   UNL     1      46.063 124.507  22.834  1.00  0.00     0.003 A 
ATOM     22  C   UNL     1      46.489 123.242  23.141  1.00  0.00     0.046 A 
ATOM     23  C   UNL     1      44.840 125.000  23.286  1.00  0.00     0.049 A 
ATOM     24  C   UNL     1      45.722 122.378  23.921  1.00  0.00     0.029 A 
ATOM     25  C   UNL     1      44.042 124.152  24.076  1.00  0.00     0.123 A 
ATOM     26  C   UNL     1      44.482 122.847  24.394  1.00  0.00     0.041 A 
ATOM     27  H   UNL     1      48.239 122.108  22.654  1.00  0.00     0.166 HD
ATOM     28  F   UNL     1      42.846 124.592  24.539  1.00  0.00    -0.207 F 
ENDBRANCH   5  18
TORSDOF 3
ENDMDL
MODEL 9
REMARK VINA RESULT:       0.7      3.310      6.339
REMARK SMILES CO[C@@H]1CCC[C@@H](c2cc3cc(F)ccc3[nH]2)N1[C@H]1C(=O)c2ccccc21
REMARK SMILES IDX 3 1 4 2 5 3 6 4 7 5 18 6 2 7 1 8 19 9 20 10 27 11 22 12
REMARK SMILES IDX 26 13 23 14 25 15 24 16 21 17 8 18 9 19 17 20 10 21 16 22
REMARK SMILES IDX 11 23 15 24 12 25 14 26 13 28
REMARK H PARENT 17 27
ROOT
ATOM      1  C   UNL     1      43.972 130.444  22.289  1.00  0.00     0.189 C 
ATOM      2  C   UNL     1      44.350 129.697  23.590  1.00  0.00     0.049 C 
ATOM      3  C   UNL     1      45.057 130.593  24.620  1.00  0.00     0.006 C 
ATOM      4  C   UNL     1      44.648 132.058  24.462  1.00  0.00     0.026 C 
ATOM      5  C   UNL     1      44.985 132.584  23.042  1.00  0.00     0.107 C 
ATOM      6  N   UNL     1      44.981 131.503  22.017  1.00  0.00    -0.255 NA
ENDROOT
BRANCH   1   7
ATOM      7  O   UNL     1      42.680 131.023  22.427  1.00  0.00    -0.366 OA
ATOM      8  C   UNL     1      41.894 130.289  23.341  1.00  0.00     0.197 C 
ENDBRANCH   1   7
BRANCH   6   9
ATOM      9  C   UNL     1      44.987 132.057  20.632  1.00  0.00     0.163 C 
ATOM     10  C   UNL     1      45.236 131.051  19.620  1.00  0.00     0.184 C 
ATOM     11  C   UNL     1      43.673 132.384  20.088  1.00  0.00    -0.012 A 
ATOM     12  C   UNL     1      43.886 131.426  19.088  1.00  0.00     0.025 A 
ATOM     13  C   UNL     1      42.529 133.153  20.172  1.00  0.00     0.006 A 
ATOM     14  C   UNL     1      42.958 131.155  18.100  1.00  0.00     0.012 A 
ATOM     15  C   UNL     1      41.554 132.900  19.176  1.00  0.00     0.000 A 
ATOM     16  C   UNL     1      41.764 131.918  18.158  1.00  0.00     0.001 A 
ATOM     17  O   UNL     1      46.156 130.246  19.321  1.00  0.00    -0.292 OA
ENDBRANCH   6   9
BRANCH   5  18
ATOM     18  C   UNL     1      46.337 133.254  23.071  1.00  0.00     0.033 A 
ATOM     19  C   UNL     1      46.980 133.795  21.960  1.00  0.00     0.033 A 
ATOM     20  N   UNL     1      47.052 133.471  24.201  1.00  0.00    -0.357 N 
ATOM     21  C   UNL     1      48.139 134.349  22.457  1.00  0.00     0.003 A 
ATOM     22  C   UNL     1      48.152 134.135  23.810  1.00  0.00     0.046 A 
ATOM     23  C   UNL     1      49.171 135.027  21.810  1.00  0.00     0.049 A 
ATOM     24  C   UNL     1      49.199 134.584  24.614  1.00  0.00     0.029 A 
ATOM     25  C   UNL     1      50.242 135.494  22.595  1.00  0.00     0.123 A 
ATOM     26  C   UNL     1      50.257 135.271  23.990  1.00  0.00     0.041 A 
ATOM     27  H   UNL     1      46.803 133.185  25.174  1.00  0.00     0.166 HD
ATOM     28  F   UNL     1      51.269 136.156  22.006  1.00  0.00    -0.207 F 
ENDBRANCH   5  18
TORSDOF 3
ENDMDL


