MODEL 1
REMARK VINA RESULT:     -11.7      0.000      0.000
REMARK SMILES Cc1c([NH2+]c2c3o[n-]cc-3cc(-n3nc4ccccc4[nH+]3)c2=O)cc(-c2ccc([O-])cc2)c2cc[nH]c12
REMARK SMILES IDX 4 1 3 4 2 5 37 6 24 7 36 8 33 9 25 10 35 11 34 12 1 13 26 15
REMARK SMILES IDX 27 16 32 17 28 18 31 19 29 20 30 21 5 22 6 23 22 24 7 25
REMARK SMILES IDX 10 26 12 27 8 28 9 29 11 30 23 31 13 32 14 33 21 34 15 35
REMARK SMILES IDX 20 36 16 37 19 38 17 39 18 40
REMARK H PARENT 4 2 4 3 36 14 21 41
ROOT
ATOM      1  N   UNL     1      45.005 130.789  22.259  1.00  0.00    -0.275 N 
ATOM      2  H   UNL     1      46.050 130.781  22.262  1.00  0.00     0.358 HD
ATOM      3  H   UNL     1      44.726 131.525  22.948  1.00  0.00     0.358 HD
ENDROOT
BRANCH   1   4
ATOM      4  C   UNL     1      44.527 129.488  22.683  1.00  0.00     0.140 A 
ATOM      5  C   UNL     1      43.297 129.325  23.393  1.00  0.00     0.034 A 
ATOM      6  C   UNL     1      42.934 128.022  23.769  1.00  0.00     0.055 A 
ATOM      7  C   UNL     1      45.316 128.342  22.388  1.00  0.00     0.078 A 
ATOM      8  N   UNL     1      41.842 127.648  24.464  1.00  0.00    -0.361 N 
ATOM      9  C   UNL     1      43.715 126.932  23.479  1.00  0.00     0.008 A 
ATOM     10  C   UNL     1      44.922 127.050  22.784  1.00  0.00    -0.003 A 
ATOM     11  C   UNL     1      41.936 126.310  24.624  1.00  0.00     0.083 A 
ATOM     12  C   UNL     1      43.093 125.827  24.029  1.00  0.00     0.028 A 
ATOM     13  C   UNL     1      42.380 130.467  23.752  1.00  0.00     0.053 C 
ATOM     14  H   UNL     1      41.076 128.258  24.827  1.00  0.00     0.166 HD
BRANCH  10  15
ATOM     15  C   UNL     1      45.776 125.878  22.482  1.00  0.00    -0.018 A 
ATOM     16  C   UNL     1      47.086 126.053  22.002  1.00  0.00     0.008 A 
ATOM     17  C   UNL     1      45.290 124.578  22.698  1.00  0.00     0.008 A 
ATOM     18  C   UNL     1      47.889 124.942  21.727  1.00  0.00    -0.008 A 
ATOM     19  C   UNL     1      46.097 123.469  22.420  1.00  0.00    -0.008 A 
ATOM     20  C   UNL     1      47.396 123.650  21.936  1.00  0.00    -0.109 A 
ATOM     21  O   UNL     1      48.197 122.548  21.665  1.00  0.00    -0.872 OA
ENDBRANCH  10  15
ENDBRANCH   1   4
BRANCH   1  22
ATOM     22  C   UNL     1      44.462 131.169  20.970  1.00  0.00     0.227 A 
ATOM     23  C   UNL     1      43.269 131.887  20.866  1.00  0.00     0.179 A 
ATOM     24  C   UNL     1      45.170 130.934  19.755  1.00  0.00     0.274 A 
ATOM     25  O   UNL     1      42.450 132.306  21.799  1.00  0.00    -0.553 OA
ATOM     26  C   UNL     1      42.752 132.306  19.610  1.00  0.00     0.005 A 
ATOM     27  C   UNL     1      44.644 131.355  18.488  1.00  0.00     0.182 A 
ATOM     28  N   UNL     1      41.446 132.958  21.271  1.00  0.00    -0.512 NA
ATOM     29  C   UNL     1      41.598 132.981  19.924  1.00  0.00    -0.098 A 
ATOM     30  C   UNL     1      43.415 132.053  18.424  1.00  0.00     0.049 A 
ATOM     31  O   UNL     1      46.280 130.338  19.795  1.00  0.00    -0.280 OA
BRANCH  27  32
ATOM     32  N   UNL     1      45.365 131.087  17.269  1.00  0.00    -0.008 N 
ATOM     33  N   UNL     1      45.621 132.009  16.340  1.00  0.00     0.054 NA
ATOM     34  N   UNL     1      45.855 129.894  16.934  1.00  0.00    -0.161 N 
ATOM     35  C   UNL     1      46.303 131.360  15.380  1.00  0.00     0.249 A 
ATOM     36  C   UNL     1      46.449 130.058  15.745  1.00  0.00     0.198 A 
ATOM     37  C   UNL     1      46.829 131.858  14.192  1.00  0.00     0.064 A 
ATOM     38  C   UNL     1      47.133 129.134  14.961  1.00  0.00     0.058 A 
ATOM     39  C   UNL     1      47.526 130.955  13.364  1.00  0.00     0.005 A 
ATOM     40  C   UNL     1      47.678 129.599  13.749  1.00  0.00     0.005 A 
ATOM     41  H   UNL     1      45.812 129.020  17.503  1.00  0.00     0.340 HD
ENDBRANCH  27  32
ENDBRANCH   1  22
TORSDOF 4
ENDMDL


