REMARK SMILES O=C(CCc1c(F)cc2ncccc2c1F)c1ccccc1
REMARK SMILES IDX 3 1 2 2 1 3 17 4 18 5 22 6 19 7 21 8 20 9 4 10 5 11 6 12
REMARK SMILES IDX 15 13 8 14 14 15 9 16 13 17 10 18 12 19 11 20 7 21 16 22
REMARK H PARENT
ROOT
ATOM      1  C   UNL     1       3.816   1.000  -1.364  1.00  0.00     0.086 C 
ENDROOT
BRANCH   1   2
ATOM      2  C   UNL     1       3.740   0.329  -0.013  1.00  0.00     0.163 C 
ATOM      3  O   UNL     1       4.545   0.707   0.882  1.00  0.00    -0.294 OA
BRANCH   2   4
ATOM      4  C   UNL     1       2.703  -0.683   0.327  1.00  0.00     0.017 A 
ATOM      5  C   UNL     1       2.078  -1.471  -0.661  1.00  0.00     0.012 A 
ATOM      6  C   UNL     1       2.295  -0.835   1.667  1.00  0.00     0.012 A 
ATOM      7  C   UNL     1       1.053  -2.358  -0.319  1.00  0.00     0.001 A 
ATOM      8  C   UNL     1       1.271  -1.724   2.003  1.00  0.00     0.001 A 
ATOM      9  C   UNL     1       0.646  -2.481   1.011  1.00  0.00     0.000 A 
ENDBRANCH   2   4
ENDBRANCH   1   2
BRANCH   1  10
ATOM     10  C   UNL     1       2.806   2.152  -1.495  1.00  0.00     0.050 C 
BRANCH  10  11
ATOM     11  C   UNL     1       1.378   1.657  -1.489  1.00  0.00     0.025 A 
ATOM     12  C   UNL     1       0.827   1.083  -2.650  1.00  0.00     0.131 A 
ATOM     13  C   UNL     1       0.620   1.678  -0.300  1.00  0.00     0.138 A 
ATOM     14  C   UNL     1      -0.452   0.521  -2.623  1.00  0.00     0.068 A 
ATOM     15  C   UNL     1      -0.658   1.095  -0.269  1.00  0.00     0.036 A 
ATOM     16  C   UNL     1      -1.192   0.513  -1.440  1.00  0.00     0.076 A 
ATOM     17  C   UNL     1      -1.417   1.056   0.910  1.00  0.00     0.015 A 
ATOM     18  N   UNL     1      -2.423  -0.066  -1.411  1.00  0.00    -0.256 NA
ATOM     19  C   UNL     1      -2.676   0.452   0.907  1.00  0.00     0.021 A 
ATOM     20  C   UNL     1      -3.168  -0.107  -0.274  1.00  0.00     0.112 A 
ATOM     21  F   UNL     1       1.541   1.042  -3.804  1.00  0.00    -0.207 F 
ATOM     22  F   UNL     1       1.145   2.222   0.830  1.00  0.00    -0.206 F 
ENDBRANCH  10  11
ENDBRANCH   1  10
TORSDOF 4


