REMARK SMILES Cc1cc(O[C@@H]2C=CC(O)=CO2)ccc1/C(O)=N/[C@H]1CC12CCC2
REMARK SMILES IDX 4 1 13 2 14 3 15 4 2 5 1 6 3 7 5 8 6 9 9 10 11 11 8 12 12 13
REMARK SMILES IDX 7 14 10 15 16 17 18 18 19 19 20 20 21 21 22 22 24 23 23 24
REMARK SMILES IDX 17 25
REMARK H PARENT 10 16 17 26
ROOT
ATOM      1  C   UNL     1       2.290   0.273   0.604  1.00  0.00     0.124 A 
ATOM      2  C   UNL     1       1.958  -1.091   0.655  1.00  0.00     0.047 A 
ATOM      3  C   UNL     1       0.762  -1.546   0.100  1.00  0.00     0.018 A 
ATOM      4  C   UNL     1      -0.130  -0.655  -0.520  1.00  0.00     0.039 A 
ATOM      5  C   UNL     1       0.209   0.721  -0.593  1.00  0.00    -0.035 A 
ATOM      6  C   UNL     1      -0.682   1.730  -1.271  1.00  0.00     0.045 C 
ATOM      7  C   UNL     1       1.411   1.166  -0.015  1.00  0.00     0.050 A 
ENDROOT
BRANCH   1   8
ATOM      8  O   UNL     1       3.477   0.783   1.154  1.00  0.00    -0.451 OA
BRANCH   8   9
ATOM      9  C   UNL     1       4.494   0.000   1.775  1.00  0.00     0.388 C 
ATOM     10  C   UNL     1       7.037   0.420   0.522  1.00  0.00     0.150 C 
ATOM     11  C   UNL     1       6.249  -0.570   0.103  1.00  0.00     0.238 C 
ATOM     12  C   UNL     1       6.677   1.165   1.741  1.00  0.00     0.053 C 
ATOM     13  O   UNL     1       5.079  -0.882   0.807  1.00  0.00    -0.455 OA
ATOM     14  C   UNL     1       5.520   0.931   2.366  1.00  0.00     0.066 C 
BRANCH  10  15
ATOM     15  O   UNL     1       8.203   0.723  -0.176  1.00  0.00    -0.505 OA
ATOM     16  H   UNL     1       8.819   1.466   0.130  1.00  0.00     0.293 HD
ENDBRANCH  10  15
ENDBRANCH   8   9
ENDBRANCH   1   8
BRANCH   4  17
ATOM     17  C   UNL     1      -1.402  -1.194  -1.062  1.00  0.00     0.214 C 
BRANCH  17  18
ATOM     18  N   UNL     1      -2.507  -0.534  -0.893  1.00  0.00    -0.247 NA
BRANCH  18  19
ATOM     19  C   UNL     1      -3.795  -1.003  -1.385  1.00  0.00     0.116 C 
ATOM     20  C   UNL     1      -4.623  -1.760  -0.339  1.00  0.00     0.037 C 
ATOM     21  C   UNL     1      -4.951  -0.317  -0.702  1.00  0.00    -0.005 C 
ATOM     22  C   UNL     1      -4.994   0.685   0.416  1.00  0.00     0.009 C 
ATOM     23  C   UNL     1      -6.338  -0.030  -1.199  1.00  0.00     0.009 C 
ATOM     24  C   UNL     1      -6.424   1.012  -0.063  1.00  0.00     0.001 C 
ENDBRANCH  18  19
ENDBRANCH  17  18
BRANCH  17  25
ATOM     25  O   UNL     1      -1.420  -2.420  -1.731  1.00  0.00    -0.493 OA
ATOM     26  H   UNL     1      -0.570  -2.936  -1.923  1.00  0.00     0.295 HD
ENDBRANCH  17  25
ENDBRANCH   4  17
TORSDOF 7


