REMARK SMILES Cc1cccc(/C(O)=N/c2ccc(-c3ccc(C)c4n[nH]cc34)cc2C(=O)[O-])c1
REMARK SMILES IDX 9 1 7 2 8 3 6 5 5 6 29 7 4 8 2 9 3 10 1 11 10 12 11 13 25 14
REMARK SMILES IDX 12 15 24 16 13 17 26 18 27 19 28 20 14 21 15 22 23 23 16 24
REMARK SMILES IDX 22 25 19 26 17 27 21 28 20 29 18 30
REMARK H PARENT 8 4 21 31
ROOT
ATOM      1  N   UNL     1       2.072  -0.849   0.915  1.00  0.00    -0.213 NA
ENDROOT
BRANCH   1   2
ATOM      2  C   UNL     1       2.605  -2.034   1.018  1.00  0.00     0.218 C 
BRANCH   2   3
ATOM      3  O   UNL     1       2.498  -2.975  -0.013  1.00  0.00    -0.493 OA
ATOM      4  H   UNL     1       2.124  -2.756  -0.926  1.00  0.00     0.295 HD
ENDBRANCH   2   3
BRANCH   2   5
ATOM      5  C   UNL     1       3.377  -2.388   2.235  1.00  0.00     0.037 A 
ATOM      6  C   UNL     1       3.546  -1.460   3.281  1.00  0.00     0.014 A 
ATOM      7  C   UNL     1       3.958  -3.663   2.359  1.00  0.00     0.017 A 
ATOM      8  C   UNL     1       4.282  -1.800   4.418  1.00  0.00     0.001 A 
ATOM      9  C   UNL     1       4.683  -4.012   3.510  1.00  0.00    -0.050 A 
ATOM     10  C   UNL     1       4.855  -3.067   4.531  1.00  0.00     0.003 A 
ATOM     11  C   UNL     1       5.331  -5.362   3.613  1.00  0.00     0.044 C 
ENDBRANCH   2   5
ENDBRANCH   1   2
BRANCH   1  12
ATOM     12  C   UNL     1       1.224  -0.379  -0.144  1.00  0.00     0.076 A 
ATOM     13  C   UNL     1       0.099  -1.133  -0.520  1.00  0.00     0.030 A 
ATOM     14  C   UNL     1       1.440   0.893  -0.731  1.00  0.00     0.024 A 
ATOM     15  C   UNL     1      -0.777  -0.666  -1.499  1.00  0.00     0.011 A 
ATOM     16  C   UNL     1       0.544   1.349  -1.716  1.00  0.00     0.021 A 
ATOM     17  C   UNL     1      -0.565   0.580  -2.102  1.00  0.00    -0.017 A 
BRANCH  14  18
ATOM     18  C   UNL     1       2.592   1.755  -0.355  1.00  0.00     0.074 C 
ATOM     19  O   UNL     1       3.488   1.344   0.429  1.00  0.00    -0.545 OA
ATOM     20  O   UNL     1       2.704   3.040  -0.875  1.00  0.00    -0.545 OA
ENDBRANCH  14  18
BRANCH  17  21
ATOM     21  C   UNL     1      -1.496   1.069  -3.145  1.00  0.00    -0.007 A 
ATOM     22  C   UNL     1      -1.887   0.234  -4.216  1.00  0.00     0.010 A 
ATOM     23  C   UNL     1      -2.038   2.362  -3.120  1.00  0.00     0.028 A 
ATOM     24  C   UNL     1      -2.769   0.701  -5.215  1.00  0.00     0.006 A 
ATOM     25  C   UNL     1      -1.935   3.401  -2.219  1.00  0.00     0.114 A 
ATOM     26  C   UNL     1      -2.896   2.815  -4.089  1.00  0.00     0.096 A 
ATOM     27  C   UNL     1      -3.279   2.016  -5.170  1.00  0.00    -0.023 A 
ATOM     28  N   UNL     1      -2.705   4.413  -2.673  1.00  0.00    -0.284 N 
ATOM     29  N   UNL     1      -3.298   4.069  -3.810  1.00  0.00    -0.175 NA
ATOM     30  C   UNL     1      -4.253   2.507  -6.198  1.00  0.00     0.047 C 
ATOM     31  H   UNL     1      -2.835   5.337  -2.204  1.00  0.00     0.189 HD
ENDBRANCH  17  21
ENDBRANCH   1  12
TORSDOF 6


