REMARK SMILES Cc1cc(O[C@@H]2C=CC(O)=CO2)ccc1/C(O)=N/[C@H]1CC12CCC2
REMARK SMILES IDX 4 1 13 2 14 3 15 4 2 5 1 6 3 7 5 8 6 9 9 10 11 11 8 12 12 13
REMARK SMILES IDX 7 14 10 15 16 17 18 18 19 19 20 20 21 21 22 22 24 23 23 24
REMARK SMILES IDX 17 25
REMARK H PARENT 10 16 17 26
ROOT
ATOM      1  C   UNL     1       2.231   0.104  -2.936  1.00  0.00     0.124 A 
ATOM      2  C   UNL     1       2.690   1.269  -2.320  1.00  0.00     0.047 A 
ATOM      3  C   UNL     1       2.327   1.569  -1.007  1.00  0.00     0.018 A 
ATOM      4  C   UNL     1       1.494   0.707  -0.275  1.00  0.00     0.039 A 
ATOM      5  C   UNL     1       1.040  -0.493  -0.884  1.00  0.00    -0.035 A 
ATOM      6  C   UNL     1       0.176  -1.485  -0.147  1.00  0.00     0.045 C 
ATOM      7  C   UNL     1       1.404  -0.774  -2.214  1.00  0.00     0.050 A 
ENDROOT
BRANCH   1   8
ATOM      8  O   UNL     1       2.621  -0.141  -4.262  1.00  0.00    -0.451 OA
BRANCH   8   9
ATOM      9  C   UNL     1       2.207  -1.259  -5.044  1.00  0.00     0.388 C 
ATOM     10  C   UNL     1       0.919  -1.832  -7.541  1.00  0.00     0.150 C 
ATOM     11  C   UNL     1       0.183  -1.624  -6.449  1.00  0.00     0.238 C 
ATOM     12  C   UNL     1       2.371  -1.588  -7.492  1.00  0.00     0.053 C 
ATOM     13  O   UNL     1       0.790  -1.197  -5.262  1.00  0.00    -0.455 OA
ATOM     14  C   UNL     1       2.970  -1.262  -6.343  1.00  0.00     0.066 C 
BRANCH  10  15
ATOM     15  O   UNL     1       0.310  -2.250  -8.721  1.00  0.00    -0.505 OA
ATOM     16  H   UNL     1       0.850  -2.405  -9.563  1.00  0.00     0.293 HD
ENDBRANCH  10  15
ENDBRANCH   8   9
ENDBRANCH   1   8
BRANCH   4  17
ATOM     17  C   UNL     1       1.115   1.097   1.105  1.00  0.00     0.214 C 
BRANCH  17  18
ATOM     18  N   UNL     1      -0.102   0.913   1.520  1.00  0.00    -0.247 NA
BRANCH  18  19
ATOM     19  C   UNL     1      -0.552   1.288   2.854  1.00  0.00     0.116 C 
ATOM     20  C   UNL     1      -1.703   0.412   3.363  1.00  0.00     0.037 C 
ATOM     21  C   UNL     1      -0.289   0.235   3.904  1.00  0.00    -0.005 C 
ATOM     22  C   UNL     1      -0.098   0.376   5.385  1.00  0.00     0.009 C 
ATOM     23  C   UNL     1       0.320  -1.135   3.816  1.00  0.00     0.009 C 
ATOM     24  C   UNL     1       0.532  -1.032   5.341  1.00  0.00     0.001 C 
ENDBRANCH  18  19
ENDBRANCH  17  18
BRANCH  17  25
ATOM     25  O   UNL     1       2.056   1.684   1.955  1.00  0.00    -0.493 OA
ATOM     26  H   UNL     1       3.026   1.792   1.684  1.00  0.00     0.295 HD
ENDBRANCH  17  25
ENDBRANCH   4  17
TORSDOF 7


