REMARK SMILES CC[C@H](O)C(=O)[N@H+]1C[C@@H](c2ccc3cc[nH]c3c2)[C@@H](C)C[C@H]1F
REMARK SMILES IDX 5 1 6 2 3 3 2 4 1 5 4 6 7 8 8 9 22 10 9 11 21 12 19 13 23 15
REMARK SMILES IDX 20 16 10 17 11 18 18 19 12 20 17 21 13 22 16 23 14 24 15 25
REMARK H PARENT 4 7 7 14 16 26
ROOT
ATOM      1  C   UNL     1      -3.909  -0.157   1.345  1.00  0.00     0.343 C 
ATOM      2  O   UNL     1      -3.625  -0.172   2.536  1.00  0.00    -0.228 OA
ENDROOT
BRANCH   1   3
ATOM      3  C   UNL     1      -5.062   0.699   0.868  1.00  0.00     0.243 C 
BRANCH   3   4
ATOM      4  C   UNL     1      -4.561   2.023   0.260  1.00  0.00     0.043 C 
ATOM      5  C   UNL     1      -3.860   2.927   1.277  1.00  0.00     0.007 C 
ENDBRANCH   3   4
BRANCH   3   6
ATOM      6  O   UNL     1      -5.951   0.945   1.929  1.00  0.00    -0.379 OA
ATOM      7  H   UNL     1      -6.795   1.278   1.526  1.00  0.00     0.211 HD
ENDBRANCH   3   6
ENDBRANCH   1   3
BRANCH   1   8
ATOM      8  N   UNL     1      -3.115  -0.916   0.395  1.00  0.00    -0.240 N 
ATOM      9  C   UNL     1      -1.701  -0.488   0.448  1.00  0.00     0.281 C 
ATOM     10  C   UNL     1      -3.256  -2.369   0.643  1.00  0.00     0.374 C 
ATOM     11  C   UNL     1      -0.869  -1.225  -0.627  1.00  0.00     0.078 C 
ATOM     12  C   UNL     1      -2.456  -3.190  -0.386  1.00  0.00     0.107 C 
ATOM     13  C   UNL     1      -0.973  -2.765  -0.471  1.00  0.00     0.008 C 
ATOM     14  H   UNL     1      -3.479  -0.717  -0.568  1.00  0.00     0.359 HD
ATOM     15  F   UNL     1      -2.853  -2.702   1.928  1.00  0.00    -0.185 F 
ATOM     16  C   UNL     1      -0.151  -3.329   0.704  1.00  0.00     0.009 C 
BRANCH  11  17
ATOM     17  C   UNL     1       0.570  -0.739  -0.727  1.00  0.00    -0.037 A 
ATOM     18  C   UNL     1       1.179  -0.649  -2.009  1.00  0.00     0.005 A 
ATOM     19  C   UNL     1       1.339  -0.430   0.425  1.00  0.00     0.031 A 
ATOM     20  C   UNL     1       2.515  -0.236  -2.149  1.00  0.00     0.010 A 
ATOM     21  C   UNL     1       2.660  -0.024   0.247  1.00  0.00     0.046 A 
ATOM     22  C   UNL     1       3.225   0.071  -0.994  1.00  0.00    -0.001 A 
ATOM     23  N   UNL     1       3.545   0.310   1.201  1.00  0.00    -0.361 N 
ATOM     24  C   UNL     1       4.528   0.486  -0.825  1.00  0.00     0.028 A 
ATOM     25  C   UNL     1       4.689   0.624   0.550  1.00  0.00     0.083 A 
ATOM     26  H   UNL     1       3.388   0.324   2.233  1.00  0.00     0.166 HD
ENDBRANCH  11  17
ENDBRANCH   1   8
TORSDOF 5


