MODEL 1
REMARK VINA RESULT:      -5.0      0.000      0.000
REMARK SMILES C=C[C@@H](C)/N=C(\S)Oc1c(N)cccc1[NH2+]c1ccc(C)c(F)c1
REMARK SMILES IDX 6 1 7 2 5 4 3 5 4 6 2 7 1 8 8 9 9 10 10 11 15 12 12 13 14 14
REMARK SMILES IDX 13 15 11 16 16 19 17 22 18 23 24 24 19 25 22 26 20 27 23 28
REMARK SMILES IDX 21 29
REMARK H PARENT 7 3 11 17 11 18 16 20 16 21
ROOT
ATOM      1  C   UNL     1      44.909 131.740  21.453  1.00  0.00     0.249 C 
ENDROOT
BRANCH   1   2
ATOM      2  S   UNL     1      45.928 133.001  20.678  1.00  0.00    -0.085 SA
ATOM      3  H   UNL     1      45.621 133.934  21.685  1.00  0.00     0.113 HD
ENDBRANCH   1   2
BRANCH   1   4
ATOM      4  N   UNL     1      44.903 131.553  22.744  1.00  0.00    -0.238 NA
BRANCH   4   5
ATOM      5  C   UNL     1      43.834 130.922  23.519  1.00  0.00     0.129 C 
ATOM      6  C   UNL     1      43.329 131.884  24.602  1.00  0.00     0.038 C 
BRANCH   5   7
ATOM      7  C   UNL     1      44.366 129.659  24.147  1.00  0.00    -0.008 C 
ATOM      8  C   UNL     1      43.761 128.482  23.954  1.00  0.00     0.006 C 
ENDBRANCH   5   7
ENDBRANCH   4   5
ENDBRANCH   1   4
BRANCH   1   9
ATOM      9  O   UNL     1      44.111 130.943  20.624  1.00  0.00    -0.425 OA
BRANCH   9  10
ATOM     10  C   UNL     1      43.503 131.418  19.454  1.00  0.00     0.213 A 
ATOM     11  C   UNL     1      42.285 132.132  19.511  1.00  0.00     0.081 A 
ATOM     12  C   UNL     1      44.120 131.178  18.206  1.00  0.00     0.180 A 
ATOM     13  C   UNL     1      41.664 132.537  18.323  1.00  0.00     0.030 A 
ATOM     14  C   UNL     1      43.480 131.606  17.030  1.00  0.00     0.072 A 
ATOM     15  C   UNL     1      42.256 132.271  17.091  1.00  0.00     0.009 A 
BRANCH  11  16
ATOM     16  N   UNL     1      41.689 132.481  20.766  1.00  0.00    -0.396 N 
ATOM     17  H   UNL     1      41.395 131.740  21.438  1.00  0.00     0.156 HD
ATOM     18  H   UNL     1      41.477 133.472  21.017  1.00  0.00     0.156 HD
ENDBRANCH  11  16
BRANCH  12  19
ATOM     19  N   UNL     1      45.364 130.449  18.122  1.00  0.00    -0.278 N 
ATOM     20  H   UNL     1      46.029 130.778  18.861  1.00  0.00     0.358 HD
ATOM     21  H   UNL     1      45.194 129.432  18.309  1.00  0.00     0.358 HD
BRANCH  19  22
ATOM     22  C   UNL     1      45.969 130.645  16.824  1.00  0.00     0.137 A 
ATOM     23  C   UNL     1      46.053 131.931  16.268  1.00  0.00     0.068 A 
ATOM     24  C   UNL     1      46.471 129.550  16.090  1.00  0.00     0.107 A 
ATOM     25  C   UNL     1      46.614 132.122  15.005  1.00  0.00     0.012 A 
ATOM     26  C   UNL     1      47.033 129.743  14.825  1.00  0.00     0.132 A 
ATOM     27  C   UNL     1      47.119 131.032  14.278  1.00  0.00    -0.015 A 
ATOM     28  F   UNL     1      47.500 128.670  14.138  1.00  0.00    -0.206 F 
ATOM     29  C   UNL     1      47.684 131.243  12.903  1.00  0.00     0.047 C 
ENDBRANCH  19  22
ENDBRANCH  12  19
ENDBRANCH   9  10
ENDBRANCH   1   9
TORSDOF 9
ENDMDL
MODEL 2
REMARK VINA RESULT:      -4.8      1.605      1.949
REMARK SMILES C=C[C@@H](C)/N=C(\S)Oc1c(N)cccc1[NH2+]c1ccc(C)c(F)c1
REMARK SMILES IDX 6 1 7 2 5 4 3 5 4 6 2 7 1 8 8 9 9 10 10 11 15 12 12 13 14 14
REMARK SMILES IDX 13 15 11 16 16 19 17 22 18 23 24 24 19 25 22 26 20 27 23 28
REMARK SMILES IDX 21 29
REMARK H PARENT 7 3 11 17 11 18 16 20 16 21
ROOT
ATOM      1  C   UNL     1      44.185 130.352  22.588  1.00  0.00     0.249 C 
ENDROOT
BRANCH   1   2
ATOM      2  S   UNL     1      43.743 130.984  24.211  1.00  0.00    -0.085 SA
ATOM      3  H   UNL     1      42.392 131.119  23.842  1.00  0.00     0.113 HD
ENDBRANCH   1   2
BRANCH   1   4
ATOM      4  N   UNL     1      44.191 129.076  22.321  1.00  0.00    -0.238 NA
BRANCH   4   5
ATOM      5  C   UNL     1      43.827 128.000  23.245  1.00  0.00     0.129 C 
ATOM      6  C   UNL     1      43.492 128.579  24.625  1.00  0.00     0.038 C 
BRANCH   5   7
ATOM      7  C   UNL     1      44.980 127.034  23.348  1.00  0.00    -0.008 C 
ATOM      8  C   UNL     1      45.699 126.698  22.272  1.00  0.00     0.006 C 
ENDBRANCH   5   7
ENDBRANCH   4   5
ENDBRANCH   1   4
BRANCH   1   9
ATOM      9  O   UNL     1      44.537 131.279  21.599  1.00  0.00    -0.425 OA
BRANCH   9  10
ATOM     10  C   UNL     1      43.687 131.635  20.543  1.00  0.00     0.213 A 
ATOM     11  C   UNL     1      42.466 132.303  20.790  1.00  0.00     0.081 A 
ATOM     12  C   UNL     1      44.060 131.320  19.218  1.00  0.00     0.180 A 
ATOM     13  C   UNL     1      41.604 132.587  19.723  1.00  0.00     0.030 A 
ATOM     14  C   UNL     1      43.181 131.628  18.165  1.00  0.00     0.072 A 
ATOM     15  C   UNL     1      41.958 132.246  18.420  1.00  0.00     0.009 A 
BRANCH  11  16
ATOM     16  N   UNL     1      42.108 132.727  22.111  1.00  0.00    -0.396 N 
ATOM     17  H   UNL     1      42.632 133.496  22.582  1.00  0.00     0.156 HD
ATOM     18  H   UNL     1      41.361 132.246  22.658  1.00  0.00     0.156 HD
ENDBRANCH  11  16
BRANCH  12  19
ATOM     19  N   UNL     1      45.302 130.637  18.939  1.00  0.00    -0.278 N 
ATOM     20  H   UNL     1      46.076 131.035  19.522  1.00  0.00     0.358 HD
ATOM     21  H   UNL     1      45.221 129.627  19.208  1.00  0.00     0.358 HD
BRANCH  19  22
ATOM     22  C   UNL     1      45.645 130.776  17.542  1.00  0.00     0.137 A 
ATOM     23  C   UNL     1      45.035 131.768  16.759  1.00  0.00     0.068 A 
ATOM     24  C   UNL     1      46.585 129.913  16.942  1.00  0.00     0.107 A 
ATOM     25  C   UNL     1      45.345 131.891  15.403  1.00  0.00     0.012 A 
ATOM     26  C   UNL     1      46.895 130.038  15.584  1.00  0.00     0.132 A 
ATOM     27  C   UNL     1      46.286 131.036  14.808  1.00  0.00    -0.015 A 
ATOM     28  F   UNL     1      47.797 129.189  15.031  1.00  0.00    -0.206 F 
ATOM     29  C   UNL     1      46.582 131.151  13.340  1.00  0.00     0.047 C 
ENDBRANCH  19  22
ENDBRANCH  12  19
ENDBRANCH   9  10
ENDBRANCH   1   9
TORSDOF 9
ENDMDL
MODEL 3
REMARK VINA RESULT:      -4.8      1.682      2.227
REMARK SMILES C=C[C@@H](C)/N=C(\S)Oc1c(N)cccc1[NH2+]c1ccc(C)c(F)c1
REMARK SMILES IDX 6 1 7 2 5 4 3 5 4 6 2 7 1 8 8 9 9 10 10 11 15 12 12 13 14 14
REMARK SMILES IDX 13 15 11 16 16 19 17 22 18 23 24 24 19 25 22 26 20 27 23 28
REMARK SMILES IDX 21 29
REMARK H PARENT 7 3 11 17 11 18 16 20 16 21
ROOT
ATOM      1  C   UNL     1      44.303 130.670  23.391  1.00  0.00     0.249 C 
ENDROOT
BRANCH   1   2
ATOM      2  S   UNL     1      44.782 132.146  24.298  1.00  0.00    -0.085 SA
ATOM      3  H   UNL     1      45.819 131.460  24.957  1.00  0.00     0.113 HD
ENDBRANCH   1   2
BRANCH   1   4
ATOM      4  N   UNL     1      43.757 129.642  23.981  1.00  0.00    -0.238 NA
BRANCH   4   5
ATOM      5  C   UNL     1      44.151 128.242  23.814  1.00  0.00     0.129 C 
ATOM      6  C   UNL     1      45.118 128.103  22.632  1.00  0.00     0.038 C 
BRANCH   5   7
ATOM      7  C   UNL     1      42.915 127.412  23.580  1.00  0.00    -0.008 C 
ATOM      8  C   UNL     1      41.698 127.887  23.868  1.00  0.00     0.006 C 
ENDBRANCH   5   7
ENDBRANCH   4   5
ENDBRANCH   1   4
BRANCH   1   9
ATOM      9  O   UNL     1      44.541 130.643  22.012  1.00  0.00    -0.425 OA
BRANCH   9  10
ATOM     10  C   UNL     1      43.760 131.346  21.084  1.00  0.00     0.213 A 
ATOM     11  C   UNL     1      42.508 131.887  21.455  1.00  0.00     0.081 A 
ATOM     12  C   UNL     1      44.235 131.512  19.765  1.00  0.00     0.180 A 
ATOM     13  C   UNL     1      41.717 132.526  20.491  1.00  0.00     0.030 A 
ATOM     14  C   UNL     1      43.425 132.168  18.821  1.00  0.00     0.072 A 
ATOM     15  C   UNL     1      42.172 132.660  19.182  1.00  0.00     0.009 A 
BRANCH  11  16
ATOM     16  N   UNL     1      42.046 131.825  22.809  1.00  0.00    -0.396 N 
ATOM     17  H   UNL     1      41.340 132.507  23.162  1.00  0.00     0.156 HD
ATOM     18  H   UNL     1      42.440 131.142  23.493  1.00  0.00     0.156 HD
ENDBRANCH  11  16
BRANCH  12  19
ATOM     19  N   UNL     1      45.511 130.967  19.361  1.00  0.00    -0.278 N 
ATOM     20  H   UNL     1      46.292 131.558  19.731  1.00  0.00     0.358 HD
ATOM     21  H   UNL     1      45.638 130.014  19.778  1.00  0.00     0.358 HD
BRANCH  19  22
ATOM     22  C   UNL     1      45.598 130.919  17.919  1.00  0.00     0.137 A 
ATOM     23  C   UNL     1      45.679 132.106  17.174  1.00  0.00     0.068 A 
ATOM     24  C   UNL     1      45.589 129.685  17.238  1.00  0.00     0.107 A 
ATOM     25  C   UNL     1      45.739 132.066  15.781  1.00  0.00     0.012 A 
ATOM     26  C   UNL     1      45.651 129.646  15.842  1.00  0.00     0.132 A 
ATOM     27  C   UNL     1      45.737 130.836  15.104  1.00  0.00    -0.015 A 
ATOM     28  F   UNL     1      45.632 128.444  15.212  1.00  0.00    -0.206 F 
ATOM     29  C   UNL     1      45.762 130.805  13.602  1.00  0.00     0.047 C 
ENDBRANCH  19  22
ENDBRANCH  12  19
ENDBRANCH   9  10
ENDBRANCH   1   9
TORSDOF 9
ENDMDL
MODEL 4
REMARK VINA RESULT:      -4.4      2.095      2.930
REMARK SMILES C=C[C@@H](C)/N=C(\S)Oc1c(N)cccc1[NH2+]c1ccc(C)c(F)c1
REMARK SMILES IDX 6 1 7 2 5 4 3 5 4 6 2 7 1 8 8 9 9 10 10 11 15 12 12 13 14 14
REMARK SMILES IDX 13 15 11 16 16 19 17 22 18 23 24 24 19 25 22 26 20 27 23 28
REMARK SMILES IDX 21 29
REMARK H PARENT 7 3 11 17 11 18 16 20 16 21
ROOT
ATOM      1  C   UNL     1      44.427 128.920  22.368  1.00  0.00     0.249 C 
ENDROOT
BRANCH   1   2
ATOM      2  S   UNL     1      45.724 127.979  21.555  1.00  0.00    -0.085 SA
ATOM      3  H   UNL     1      44.885 127.671  20.469  1.00  0.00     0.113 HD
ENDBRANCH   1   2
BRANCH   1   4
ATOM      4  N   UNL     1      43.391 128.342  22.911  1.00  0.00    -0.238 NA
BRANCH   4   5
ATOM      5  C   UNL     1      43.299 127.858  24.290  1.00  0.00     0.129 C 
ATOM      6  C   UNL     1      44.369 126.790  24.547  1.00  0.00     0.038 C 
BRANCH   5   7
ATOM      7  C   UNL     1      41.923 127.285  24.515  1.00  0.00    -0.008 C 
ATOM      8  C   UNL     1      40.828 128.042  24.385  1.00  0.00     0.006 C 
ENDBRANCH   5   7
ENDBRANCH   4   5
ENDBRANCH   1   4
BRANCH   1   9
ATOM      9  O   UNL     1      44.550 130.314  22.398  1.00  0.00    -0.425 OA
BRANCH   9  10
ATOM     10  C   UNL     1      43.726 131.174  21.659  1.00  0.00     0.213 A 
ATOM     11  C   UNL     1      42.514 131.658  22.202  1.00  0.00     0.081 A 
ATOM     12  C   UNL     1      44.117 131.559  20.358  1.00  0.00     0.180 A 
ATOM     13  C   UNL     1      41.676 132.461  21.419  1.00  0.00     0.030 A 
ATOM     14  C   UNL     1      43.262 132.377  19.598  1.00  0.00     0.072 A 
ATOM     15  C   UNL     1      42.047 132.813  20.123  1.00  0.00     0.009 A 
BRANCH  11  16
ATOM     16  N   UNL     1      42.140 131.368  23.555  1.00  0.00    -0.396 N 
ATOM     17  H   UNL     1      42.801 131.557  24.340  1.00  0.00     0.156 HD
ATOM     18  H   UNL     1      41.232 130.911  23.787  1.00  0.00     0.156 HD
ENDBRANCH  11  16
BRANCH  12  19
ATOM     19  N   UNL     1      45.350 131.078  19.781  1.00  0.00    -0.278 N 
ATOM     20  H   UNL     1      46.151 131.687  20.072  1.00  0.00     0.358 HD
ATOM     21  H   UNL     1      45.562 130.118  20.144  1.00  0.00     0.358 HD
BRANCH  19  22
ATOM     22  C   UNL     1      45.258 131.078  18.339  1.00  0.00     0.137 A 
ATOM     23  C   UNL     1      44.195 131.731  17.696  1.00  0.00     0.068 A 
ATOM     24  C   UNL     1      46.225 130.413  17.555  1.00  0.00     0.107 A 
ATOM     25  C   UNL     1      44.088 131.714  16.305  1.00  0.00     0.012 A 
ATOM     26  C   UNL     1      46.117 130.398  16.161  1.00  0.00     0.132 A 
ATOM     27  C   UNL     1      45.055 131.057  15.526  1.00  0.00    -0.015 A 
ATOM     28  F   UNL     1      47.057 129.743  15.433  1.00  0.00    -0.206 F 
ATOM     29  C   UNL     1      44.909 131.010  14.031  1.00  0.00     0.047 C 
ENDBRANCH  19  22
ENDBRANCH  12  19
ENDBRANCH   9  10
ENDBRANCH   1   9
TORSDOF 9
ENDMDL
MODEL 5
REMARK VINA RESULT:      -4.0      1.202      1.509
REMARK SMILES C=C[C@@H](C)/N=C(\S)Oc1c(N)cccc1[NH2+]c1ccc(C)c(F)c1
REMARK SMILES IDX 6 1 7 2 5 4 3 5 4 6 2 7 1 8 8 9 9 10 10 11 15 12 12 13 14 14
REMARK SMILES IDX 13 15 11 16 16 19 17 22 18 23 24 24 19 25 22 26 20 27 23 28
REMARK SMILES IDX 21 29
REMARK H PARENT 7 3 11 17 11 18 16 20 16 21
ROOT
ATOM      1  C   UNL     1      45.285 130.447  20.990  1.00  0.00     0.249 C 
ENDROOT
BRANCH   1   2
ATOM      2  S   UNL     1      46.981 130.836  20.540  1.00  0.00    -0.085 SA
ATOM      3  H   UNL     1      47.124 129.620  19.845  1.00  0.00     0.113 HD
ENDBRANCH   1   2
BRANCH   1   4
ATOM      4  N   UNL     1      44.927 129.250  21.367  1.00  0.00    -0.238 NA
BRANCH   4   5
ATOM      5  C   UNL     1      44.665 128.821  22.742  1.00  0.00     0.129 C 
ATOM      6  C   UNL     1      44.822 127.300  22.859  1.00  0.00     0.038 C 
BRANCH   5   7
ATOM      7  C   UNL     1      43.268 129.235  23.125  1.00  0.00    -0.008 C 
ATOM      8  C   UNL     1      42.395 128.351  23.619  1.00  0.00     0.006 C 
ENDBRANCH   5   7
ENDBRANCH   4   5
ENDBRANCH   1   4
BRANCH   1   9
ATOM      9  O   UNL     1      44.337 131.474  20.918  1.00  0.00    -0.425 OA
BRANCH   9  10
ATOM     10  C   UNL     1      43.573 131.736  19.772  1.00  0.00     0.213 A 
ATOM     11  C   UNL     1      42.314 132.370  19.871  1.00  0.00     0.081 A 
ATOM     12  C   UNL     1      44.073 131.360  18.506  1.00  0.00     0.180 A 
ATOM     13  C   UNL     1      41.541 132.559  18.719  1.00  0.00     0.030 A 
ATOM     14  C   UNL     1      43.281 131.572  17.364  1.00  0.00     0.072 A 
ATOM     15  C   UNL     1      42.021 132.157  17.474  1.00  0.00     0.009 A 
BRANCH  11  16
ATOM     16  N   UNL     1      41.826 132.855  21.128  1.00  0.00    -0.396 N 
ATOM     17  H   UNL     1      40.986 133.473  21.169  1.00  0.00     0.156 HD
ATOM     18  H   UNL     1      42.324 132.657  22.024  1.00  0.00     0.156 HD
ENDBRANCH  11  16
BRANCH  12  19
ATOM     19  N   UNL     1      45.357 130.710  18.378  1.00  0.00    -0.278 N 
ATOM     20  H   UNL     1      46.051 131.144  19.030  1.00  0.00     0.358 HD
ATOM     21  H   UNL     1      45.275 129.703  18.661  1.00  0.00     0.358 HD
BRANCH  19  22
ATOM     22  C   UNL     1      45.843 130.830  17.023  1.00  0.00     0.137 A 
ATOM     23  C   UNL     1      45.649 132.020  16.303  1.00  0.00     0.068 A 
ATOM     24  C   UNL     1      46.508 129.755  16.398  1.00  0.00     0.107 A 
ATOM     25  C   UNL     1      46.095 132.133  14.986  1.00  0.00     0.012 A 
ATOM     26  C   UNL     1      46.956 129.870  15.079  1.00  0.00     0.132 A 
ATOM     27  C   UNL     1      46.763 131.063  14.367  1.00  0.00    -0.015 A 
ATOM     28  F   UNL     1      47.584 128.816  14.499  1.00  0.00    -0.206 F 
ATOM     29  C   UNL     1      47.204 131.181  12.936  1.00  0.00     0.047 C 
ENDBRANCH  19  22
ENDBRANCH  12  19
ENDBRANCH   9  10
ENDBRANCH   1   9
TORSDOF 9
ENDMDL
MODEL 6
REMARK VINA RESULT:      -4.0      1.571      1.980
REMARK SMILES C=C[C@@H](C)/N=C(\S)Oc1c(N)cccc1[NH2+]c1ccc(C)c(F)c1
REMARK SMILES IDX 6 1 7 2 5 4 3 5 4 6 2 7 1 8 8 9 9 10 10 11 15 12 12 13 14 14
REMARK SMILES IDX 13 15 11 16 16 19 17 22 18 23 24 24 19 25 22 26 20 27 23 28
REMARK SMILES IDX 21 29
REMARK H PARENT 7 3 11 17 11 18 16 20 16 21
ROOT
ATOM      1  C   UNL     1      45.303 129.322  21.659  1.00  0.00     0.249 C 
ENDROOT
BRANCH   1   2
ATOM      2  S   UNL     1      46.137 127.731  21.609  1.00  0.00    -0.085 SA
ATOM      3  H   UNL     1      47.391 128.331  21.823  1.00  0.00     0.113 HD
ENDBRANCH   1   2
BRANCH   1   4
ATOM      4  N   UNL     1      44.329 129.567  22.492  1.00  0.00    -0.238 NA
BRANCH   4   5
ATOM      5  C   UNL     1      44.271 129.154  23.895  1.00  0.00     0.129 C 
ATOM      6  C   UNL     1      43.843 127.685  23.996  1.00  0.00     0.038 C 
BRANCH   5   7
ATOM      7  C   UNL     1      43.289 130.036  24.623  1.00  0.00    -0.008 C 
ATOM      8  C   UNL     1      42.678 131.051  24.002  1.00  0.00     0.006 C 
ENDBRANCH   5   7
ENDBRANCH   4   5
ENDBRANCH   1   4
BRANCH   1   9
ATOM      9  O   UNL     1      45.724 130.310  20.760  1.00  0.00    -0.425 OA
BRANCH   9  10
ATOM     10  C   UNL     1      44.854 130.971  19.882  1.00  0.00     0.213 A 
ATOM     11  C   UNL     1      43.856 131.843  20.373  1.00  0.00     0.081 A 
ATOM     12  C   UNL     1      44.982 130.760  18.492  1.00  0.00     0.180 A 
ATOM     13  C   UNL     1      42.957 132.438  19.480  1.00  0.00     0.030 A 
ATOM     14  C   UNL     1      44.073 131.380  17.617  1.00  0.00     0.072 A 
ATOM     15  C   UNL     1      43.062 132.204  18.111  1.00  0.00     0.009 A 
BRANCH  11  16
ATOM     16  N   UNL     1      43.767 132.157  21.768  1.00  0.00    -0.396 N 
ATOM     17  H   UNL     1      43.677 133.147  22.085  1.00  0.00     0.156 HD
ATOM     18  H   UNL     1      43.848 131.420  22.503  1.00  0.00     0.156 HD
ENDBRANCH  11  16
BRANCH  12  19
ATOM     19  N   UNL     1      45.993 129.873  17.966  1.00  0.00    -0.278 N 
ATOM     20  H   UNL     1      46.853 129.906  18.563  1.00  0.00     0.358 HD
ATOM     21  H   UNL     1      45.650 128.884  17.997  1.00  0.00     0.358 HD
BRANCH  19  22
ATOM     22  C   UNL     1      46.342 130.260  16.618  1.00  0.00     0.137 A 
ATOM     23  C   UNL     1      45.887 131.478  16.089  1.00  0.00     0.068 A 
ATOM     24  C   UNL     1      47.131 129.417  15.808  1.00  0.00     0.107 A 
ATOM     25  C   UNL     1      46.200 131.844  14.780  1.00  0.00     0.012 A 
ATOM     26  C   UNL     1      47.445 129.785  14.497  1.00  0.00     0.132 A 
ATOM     27  C   UNL     1      46.992 131.007  13.977  1.00  0.00    -0.015 A 
ATOM     28  F   UNL     1      48.199 128.951  13.737  1.00  0.00    -0.206 F 
ATOM     29  C   UNL     1      47.290 131.392  12.556  1.00  0.00     0.047 C 
ENDBRANCH  19  22
ENDBRANCH  12  19
ENDBRANCH   9  10
ENDBRANCH   1   9
TORSDOF 9
ENDMDL
MODEL 7
REMARK VINA RESULT:      -3.9      2.854      3.954
REMARK SMILES C=C[C@@H](C)/N=C(\S)Oc1c(N)cccc1[NH2+]c1ccc(C)c(F)c1
REMARK SMILES IDX 6 1 7 2 5 4 3 5 4 6 2 7 1 8 8 9 9 10 10 11 15 12 12 13 14 14
REMARK SMILES IDX 13 15 11 16 16 19 17 22 18 23 24 24 19 25 22 26 20 27 23 28
REMARK SMILES IDX 21 29
REMARK H PARENT 7 3 11 17 11 18 16 20 16 21
ROOT
ATOM      1  C   UNL     1      44.831 127.953  22.877  1.00  0.00     0.249 C 
ENDROOT
BRANCH   1   2
ATOM      2  S   UNL     1      45.221 128.104  24.625  1.00  0.00    -0.085 SA
ATOM      3  H   UNL     1      45.042 126.724  24.831  1.00  0.00     0.113 HD
ENDBRANCH   1   2
BRANCH   1   4
ATOM      4  N   UNL     1      44.097 126.979  22.414  1.00  0.00    -0.238 NA
BRANCH   4   5
ATOM      5  C   UNL     1      44.045 125.613  22.940  1.00  0.00     0.129 C 
ATOM      6  C   UNL     1      45.087 124.736  22.235  1.00  0.00     0.038 C 
BRANCH   5   7
ATOM      7  C   UNL     1      42.660 125.059  22.723  1.00  0.00    -0.008 C 
ATOM      8  C   UNL     1      41.573 125.771  23.039  1.00  0.00     0.006 C 
ENDBRANCH   5   7
ENDBRANCH   4   5
ENDBRANCH   1   4
BRANCH   1   9
ATOM      9  O   UNL     1      45.348 128.918  22.005  1.00  0.00    -0.425 OA
BRANCH   9  10
ATOM     10  C   UNL     1      44.621 130.038  21.580  1.00  0.00     0.213 A 
ATOM     11  C   UNL     1      43.578 130.567  22.373  1.00  0.00     0.081 A 
ATOM     12  C   UNL     1      44.940 130.642  20.344  1.00  0.00     0.180 A 
ATOM     13  C   UNL     1      42.823 131.645  21.894  1.00  0.00     0.030 A 
ATOM     14  C   UNL     1      44.173 131.730  19.893  1.00  0.00     0.072 A 
ATOM     15  C   UNL     1      43.116 132.219  20.660  1.00  0.00     0.009 A 
BRANCH  11  16
ATOM     16  N   UNL     1      43.299 130.042  23.677  1.00  0.00    -0.396 N 
ATOM     17  H   UNL     1      42.315 129.884  23.986  1.00  0.00     0.156 HD
ATOM     18  H   UNL     1      44.058 129.860  24.369  1.00  0.00     0.156 HD
ENDBRANCH  11  16
BRANCH  12  19
ATOM     19  N   UNL     1      46.001 130.119  19.515  1.00  0.00    -0.278 N 
ATOM     20  H   UNL     1      46.912 130.574  19.760  1.00  0.00     0.358 HD
ATOM     21  H   UNL     1      46.124 129.094  19.698  1.00  0.00     0.358 HD
BRANCH  19  22
ATOM     22  C   UNL     1      45.712 130.367  18.121  1.00  0.00     0.137 A 
ATOM     23  C   UNL     1      46.594 129.922  17.124  1.00  0.00     0.068 A 
ATOM     24  C   UNL     1      44.549 131.068  17.740  1.00  0.00     0.107 A 
ATOM     25  C   UNL     1      46.332 130.180  15.778  1.00  0.00     0.012 A 
ATOM     26  C   UNL     1      44.286 131.324  16.391  1.00  0.00     0.132 A 
ATOM     27  C   UNL     1      45.170 130.872  15.399  1.00  0.00    -0.015 A 
ATOM     28  F   UNL     1      43.164 132.009  16.054  1.00  0.00    -0.206 F 
ATOM     29  C   UNL     1      44.917 131.179  13.951  1.00  0.00     0.047 C 
ENDBRANCH  19  22
ENDBRANCH  12  19
ENDBRANCH   9  10
ENDBRANCH   1   9
TORSDOF 9
ENDMDL
MODEL 8
REMARK VINA RESULT:      -3.5      2.818      4.213
REMARK SMILES C=C[C@@H](C)/N=C(\S)Oc1c(N)cccc1[NH2+]c1ccc(C)c(F)c1
REMARK SMILES IDX 6 1 7 2 5 4 3 5 4 6 2 7 1 8 8 9 9 10 10 11 15 12 12 13 14 14
REMARK SMILES IDX 13 15 11 16 16 19 17 22 18 23 24 24 19 25 22 26 20 27 23 28
REMARK SMILES IDX 21 29
REMARK H PARENT 7 3 11 17 11 18 16 20 16 21
ROOT
ATOM      1  C   UNL     1      44.813 127.744  23.014  1.00  0.00     0.249 C 
ENDROOT
BRANCH   1   2
ATOM      2  S   UNL     1      45.122 128.480  24.624  1.00  0.00    -0.085 SA
ATOM      3  H   UNL     1      45.996 127.439  24.984  1.00  0.00     0.113 HD
ENDBRANCH   1   2
BRANCH   1   4
ATOM      4  N   UNL     1      44.722 126.453  22.850  1.00  0.00    -0.238 NA
BRANCH   4   5
ATOM      5  C   UNL     1      44.467 125.466  23.902  1.00  0.00     0.129 C 
ATOM      6  C   UNL     1      45.713 124.601  24.127  1.00  0.00     0.038 C 
BRANCH   5   7
ATOM      7  C   UNL     1      43.299 124.607  23.492  1.00  0.00    -0.008 C 
ATOM      8  C   UNL     1      43.217 124.091  22.261  1.00  0.00     0.006 C 
ENDBRANCH   5   7
ENDBRANCH   4   5
ENDBRANCH   1   4
BRANCH   1   9
ATOM      9  O   UNL     1      44.678 128.602  21.917  1.00  0.00    -0.425 OA
BRANCH   9  10
ATOM     10  C   UNL     1      44.045 129.851  21.991  1.00  0.00     0.213 A 
ATOM     11  C   UNL     1      42.918 130.042  22.822  1.00  0.00     0.081 A 
ATOM     12  C   UNL     1      44.543 130.926  21.224  1.00  0.00     0.180 A 
ATOM     13  C   UNL     1      42.263 131.280  22.827  1.00  0.00     0.030 A 
ATOM     14  C   UNL     1      43.873 132.162  21.256  1.00  0.00     0.072 A 
ATOM     15  C   UNL     1      42.736 132.331  22.044  1.00  0.00     0.009 A 
BRANCH  11  16
ATOM     16  N   UNL     1      42.452 129.001  23.689  1.00  0.00    -0.396 N 
ATOM     17  H   UNL     1      42.269 129.192  24.698  1.00  0.00     0.156 HD
ATOM     18  H   UNL     1      42.340 128.018  23.356  1.00  0.00     0.156 HD
ENDBRANCH  11  16
BRANCH  12  19
ATOM     19  N   UNL     1      45.693 130.756  20.365  1.00  0.00    -0.278 N 
ATOM     20  H   UNL     1      46.434 131.455  20.607  1.00  0.00     0.358 HD
ATOM     21  H   UNL     1      46.116 129.810  20.522  1.00  0.00     0.358 HD
BRANCH  19  22
ATOM     22  C   UNL     1      45.312 130.931  18.982  1.00  0.00     0.137 A 
ATOM     23  C   UNL     1      44.055 131.463  18.655  1.00  0.00     0.068 A 
ATOM     24  C   UNL     1      46.189 130.561  17.941  1.00  0.00     0.107 A 
ATOM     25  C   UNL     1      43.672 131.611  17.322  1.00  0.00     0.012 A 
ATOM     26  C   UNL     1      45.805 130.712  16.606  1.00  0.00     0.132 A 
ATOM     27  C   UNL     1      44.549 131.249  16.286  1.00  0.00    -0.015 A 
ATOM     28  F   UNL     1      46.665 130.340  15.624  1.00  0.00    -0.206 F 
ATOM     29  C   UNL     1      44.113 131.376  14.854  1.00  0.00     0.047 C 
ENDBRANCH  19  22
ENDBRANCH  12  19
ENDBRANCH   9  10
ENDBRANCH   1   9
TORSDOF 9
ENDMDL
MODEL 9
REMARK VINA RESULT:      -3.5      2.521      3.663
REMARK SMILES C=C[C@@H](C)/N=C(\S)Oc1c(N)cccc1[NH2+]c1ccc(C)c(F)c1
REMARK SMILES IDX 6 1 7 2 5 4 3 5 4 6 2 7 1 8 8 9 9 10 10 11 15 12 12 13 14 14
REMARK SMILES IDX 13 15 11 16 16 19 17 22 18 23 24 24 19 25 22 26 20 27 23 28
REMARK SMILES IDX 21 29
REMARK H PARENT 7 3 11 17 11 18 16 20 16 21
ROOT
ATOM      1  C   UNL     1      44.377 128.523  23.390  1.00  0.00     0.249 C 
ENDROOT
BRANCH   1   2
ATOM      2  S   UNL     1      42.645 128.105  23.150  1.00  0.00    -0.085 SA
ATOM      3  H   UNL     1      42.252 128.915  24.232  1.00  0.00     0.113 HD
ENDBRANCH   1   2
BRANCH   1   4
ATOM      4  N   UNL     1      45.145 127.848  24.199  1.00  0.00    -0.238 NA
BRANCH   4   5
ATOM      5  C   UNL     1      45.661 126.497  23.972  1.00  0.00     0.129 C 
ATOM      6  C   UNL     1      46.237 126.383  22.555  1.00  0.00     0.038 C 
BRANCH   5   7
ATOM      7  C   UNL     1      44.541 125.507  24.163  1.00  0.00    -0.008 C 
ATOM      8  C   UNL     1      44.777 124.274  24.624  1.00  0.00     0.006 C 
ENDBRANCH   5   7
ENDBRANCH   4   5
ENDBRANCH   1   4
BRANCH   1   9
ATOM      9  O   UNL     1      44.890 129.615  22.681  1.00  0.00    -0.425 OA
BRANCH   9  10
ATOM     10  C   UNL     1      44.084 130.616  22.122  1.00  0.00     0.213 A 
ATOM     11  C   UNL     1      42.990 131.149  22.841  1.00  0.00     0.081 A 
ATOM     12  C   UNL     1      44.374 131.095  20.826  1.00  0.00     0.180 A 
ATOM     13  C   UNL     1      42.160 132.100  22.234  1.00  0.00     0.030 A 
ATOM     14  C   UNL     1      43.531 132.058  20.245  1.00  0.00     0.072 A 
ATOM     15  C   UNL     1      42.427 132.547  20.942  1.00  0.00     0.009 A 
BRANCH  11  16
ATOM     16  N   UNL     1      42.733 130.759  24.195  1.00  0.00    -0.396 N 
ATOM     17  H   UNL     1      43.299 130.009  24.649  1.00  0.00     0.156 HD
ATOM     18  H   UNL     1      41.943 131.166  24.743  1.00  0.00     0.156 HD
ENDBRANCH  11  16
BRANCH  12  19
ATOM     19  N   UNL     1      45.486 130.565  20.070  1.00  0.00    -0.278 N 
ATOM     20  H   UNL     1      46.373 131.053  20.338  1.00  0.00     0.358 HD
ATOM     21  H   UNL     1      45.624 129.553  20.304  1.00  0.00     0.358 HD
BRANCH  19  22
ATOM     22  C   UNL     1      45.258 130.746  18.655  1.00  0.00     0.137 A 
ATOM     23  C   UNL     1      44.159 131.494  18.204  1.00  0.00     0.068 A 
ATOM     24  C   UNL     1      46.124 130.165  17.706  1.00  0.00     0.107 A 
ATOM     25  C   UNL     1      43.920 131.651  16.838  1.00  0.00     0.012 A 
ATOM     26  C   UNL     1      45.884 130.324  16.338  1.00  0.00     0.132 A 
ATOM     27  C   UNL     1      44.787 131.077  15.894  1.00  0.00    -0.015 A 
ATOM     28  F   UNL     1      46.729 129.746  15.447  1.00  0.00    -0.206 F 
ATOM     29  C   UNL     1      44.499 131.219  14.426  1.00  0.00     0.047 C 
ENDBRANCH  19  22
ENDBRANCH  12  19
ENDBRANCH   9  10
ENDBRANCH   1   9
TORSDOF 9
ENDMDL


