REMARK SMILES C=C[C@H]1CN[C@H](c2c[nH+]c3ocnc3c2)N(/C(S)=N\c2cccc(SC(F)(F)F)c2)C1
REMARK SMILES IDX 19 1 17 2 18 3 16 5 31 6 6 7 3 8 5 9 4 10 7 12 15 13 8 14
REMARK SMILES IDX 14 15 9 16 13 17 10 18 12 19 11 20 2 22 1 23 20 24 21 25
REMARK SMILES IDX 30 26 22 27 24 28 23 29 25 30 26 31 27 32 28 33 29 34
REMARK H PARENT 18 4 5 11 9 21
ROOT
ATOM      1  N   UNL     1      -0.356   1.610  -2.183  1.00  0.00    -0.225 NA
ENDROOT
BRANCH   1   2
ATOM      2  C   UNL     1       0.136   2.224  -1.144  1.00  0.00     0.162 C 
BRANCH   2   3
ATOM      3  S   UNL     1       0.909   3.819  -1.389  1.00  0.00    -0.106 SA
ATOM      4  H   UNL     1      -0.303   4.504  -1.183  1.00  0.00     0.111 HD
ENDBRANCH   2   3
BRANCH   2   5
ATOM      5  N   UNL     1       0.154   1.635   0.173  1.00  0.00    -0.331 N 
ATOM      6  C   UNL     1      -0.624   2.280   1.238  1.00  0.00     0.129 C 
ATOM      7  C   UNL     1       0.841   0.359   0.489  1.00  0.00     0.189 C 
ATOM      8  C   UNL     1       0.205   2.355   2.520  1.00  0.00     0.045 C 
ATOM      9  N   UNL     1       1.605   0.492   1.743  1.00  0.00    -0.293 NA
ATOM     10  C   UNL     1       0.759   0.963   2.844  1.00  0.00     0.092 C 
ATOM     11  H   UNL     1       1.966  -0.455   2.009  1.00  0.00     0.125 HD
BRANCH   7  12
ATOM     12  C   UNL     1       1.799  -0.075  -0.603  1.00  0.00     0.055 A 
ATOM     13  C   UNL     1       1.628  -1.322  -1.249  1.00  0.00     0.053 A 
ATOM     14  C   UNL     1       2.908   0.742  -0.963  1.00  0.00     0.317 A 
ATOM     15  C   UNL     1       2.537  -1.658  -2.244  1.00  0.00     0.179 A 
ATOM     16  N   UNL     1       3.771   0.353  -1.950  1.00  0.00    -0.177 N 
ATOM     17  N   UNL     1       2.570  -2.757  -3.015  1.00  0.00    -0.209 NA
ATOM     18  C   UNL     1       3.561  -0.834  -2.567  1.00  0.00     0.399 A 
ATOM     19  C   UNL     1       3.663  -2.523  -3.793  1.00  0.00     0.316 A 
ATOM     20  O   UNL     1       4.260  -1.370  -3.528  1.00  0.00    -0.391 OA
ATOM     21  H   UNL     1       4.576   0.960  -2.224  1.00  0.00     0.457 HD
ENDBRANCH   7  12
BRANCH   8  22
ATOM     22  C   UNL     1      -0.644   2.862   3.660  1.00  0.00    -0.028 C 
ATOM     23  C   UNL     1      -0.561   4.123   4.093  1.00  0.00     0.004 C 
ENDBRANCH   8  22
ENDBRANCH   2   5
ENDBRANCH   1   2
BRANCH   1  24
ATOM     24  C   UNL     1      -1.083   0.374  -2.190  1.00  0.00     0.067 A 
ATOM     25  C   UNL     1      -0.819  -0.563  -3.198  1.00  0.00     0.028 A 
ATOM     26  C   UNL     1      -2.116   0.125  -1.272  1.00  0.00     0.043 A 
ATOM     27  C   UNL     1      -1.521  -1.771  -3.239  1.00  0.00     0.003 A 
ATOM     28  C   UNL     1      -2.821  -1.084  -1.313  1.00  0.00     0.018 A 
ATOM     29  C   UNL     1      -2.516  -2.035  -2.294  1.00  0.00     0.015 A 
BRANCH  28  30
ATOM     30  S   UNL     1      -4.161  -1.387  -0.157  1.00  0.00    -0.015 SA
BRANCH  30  31
ATOM     31  C   UNL     1      -3.103  -2.107   1.141  1.00  0.00     0.446 C 
ATOM     32  F   UNL     1      -2.389  -3.180   0.639  1.00  0.00    -0.160 F 
ATOM     33  F   UNL     1      -2.229  -1.151   1.621  1.00  0.00    -0.160 F 
ATOM     34  F   UNL     1      -3.902  -2.545   2.180  1.00  0.00    -0.160 F 
ENDBRANCH  30  31
ENDBRANCH  28  30
ENDBRANCH   1  24
TORSDOF 8


