REMARK SMILES NN[C@H]1CCC[C@@H]2C=c3ccccc3=C[C@]12c1cc(F)cc(F)c1[O-]
REMARK SMILES IDX 3 1 4 2 5 3 6 4 7 5 8 6 9 7 10 8 11 9 12 10 13 11 14 12
REMARK SMILES IDX 15 13 16 14 2 15 1 17 17 20 18 21 24 22 19 23 22 24 21 25
REMARK SMILES IDX 25 26 20 27 23 28
REMARK H PARENT 2 16 1 18 1 19
ROOT
ATOM      1  C   UNL     1       0.030  -1.572   1.900  1.00  0.00     0.084 C 
ATOM      2  C   UNL     1       1.182  -2.601   1.794  1.00  0.00     0.022 C 
ATOM      3  C   UNL     1       2.541  -2.001   2.200  1.00  0.00     0.002 C 
ATOM      4  C   UNL     1       2.687  -0.503   1.872  1.00  0.00     0.009 C 
ATOM      5  C   UNL     1       1.791  -0.077   0.693  1.00  0.00     0.028 C 
ATOM      6  C   UNL     1       2.107   1.348   0.311  1.00  0.00    -0.014 C 
ATOM      7  C   UNL     1       1.490   2.378   0.911  1.00  0.00    -0.022 A 
ATOM      8  C   UNL     1       1.937   3.692   0.683  1.00  0.00     0.008 A 
ATOM      9  C   UNL     1       1.361   4.764   1.369  1.00  0.00     0.001 A 
ATOM     10  C   UNL     1       0.333   4.538   2.285  1.00  0.00     0.001 A 
ATOM     11  C   UNL     1      -0.141   3.243   2.503  1.00  0.00     0.008 A 
ATOM     12  C   UNL     1       0.409   2.155   1.801  1.00  0.00    -0.022 A 
ATOM     13  C   UNL     1      -0.121   0.924   1.951  1.00  0.00    -0.005 C 
ATOM     14  C   UNL     1       0.267  -0.255   1.046  1.00  0.00     0.037 C 
ENDROOT
BRANCH   1  15
ATOM     15  N   UNL     1      -1.275  -2.189   1.591  1.00  0.00    -0.256 NA
ATOM     16  H   UNL     1      -1.172  -2.800   0.746  1.00  0.00     0.141 HD
BRANCH  15  17
ATOM     17  N   UNL     1      -1.668  -3.009   2.667  1.00  0.00    -0.271 NA
ATOM     18  H   UNL     1      -2.077  -2.383   3.398  1.00  0.00     0.137 HD
ATOM     19  H   UNL     1      -2.460  -3.607   2.337  1.00  0.00     0.137 HD
ENDBRANCH  15  17
ENDBRANCH   1  15
BRANCH  14  20
ATOM     20  C   UNL     1      -0.600  -0.227  -0.259  1.00  0.00    -0.038 A 
ATOM     21  C   UNL     1      -1.699   0.669  -0.388  1.00  0.00     0.043 A 
ATOM     22  C   UNL     1      -0.371  -1.117  -1.349  1.00  0.00    -0.068 A 
ATOM     23  C   UNL     1      -2.478   0.711  -1.545  1.00  0.00     0.126 A 
ATOM     24  C   UNL     1      -1.159  -1.058  -2.505  1.00  0.00     0.118 A 
ATOM     25  C   UNL     1      -2.203  -0.144  -2.605  1.00  0.00     0.077 A 
ATOM     26  O   UNL     1       0.621  -2.086  -1.308  1.00  0.00    -0.870 OA
ATOM     27  F   UNL     1      -3.509   1.587  -1.636  1.00  0.00    -0.207 F 
ATOM     28  F   UNL     1      -0.916  -1.905  -3.536  1.00  0.00    -0.208 F 
ENDBRANCH  14  20
TORSDOF 3


