MODEL 1
REMARK VINA RESULT:      -9.4      0.000      0.000
REMARK SMILES C[C@@H]1CCc2ccc(-c3cccnc3F)nc2[C@H]1F
REMARK SMILES IDX 1 1 2 2 3 3 4 4 5 5 6 6 7 7 8 8 16 9 17 10 18 11 19 12 9 13
REMARK SMILES IDX 10 14 14 15 11 16 13 17 12 18 15 19
REMARK H PARENT
ROOT
ATOM      1  C   UNL     1      44.699 131.222  22.971  1.00  0.00     0.011 C 
ATOM      2  C   UNL     1      44.292 131.736  21.585  1.00  0.00     0.027 C 
ATOM      3  C   UNL     1      42.781 131.555  21.368  1.00  0.00     0.011 C 
ATOM      4  C   UNL     1      42.350 132.197  20.045  1.00  0.00     0.038 C 
ATOM      5  C   UNL     1      43.238 131.795  18.892  1.00  0.00    -0.023 A 
ATOM      6  C   UNL     1      42.794 132.001  17.580  1.00  0.00     0.008 A 
ATOM      7  C   UNL     1      43.622 131.695  16.501  1.00  0.00     0.029 A 
ATOM      8  C   UNL     1      44.911 131.190  16.737  1.00  0.00     0.075 A 
ATOM      9  N   UNL     1      45.323 131.006  18.021  1.00  0.00    -0.249 NA
ATOM     10  C   UNL     1      44.547 131.309  19.096  1.00  0.00     0.079 A 
ATOM     11  C   UNL     1      45.074 131.003  20.477  1.00  0.00     0.218 C 
ATOM     12  F   UNL     1      46.411 131.360  20.545  1.00  0.00    -0.240 F 
ENDROOT
BRANCH   8  13
ATOM     13  C   UNL     1      45.825 130.846  15.618  1.00  0.00     0.055 A 
ATOM     14  C   UNL     1      46.494 131.850  14.894  1.00  0.00     0.017 A 
ATOM     15  C   UNL     1      46.066 129.503  15.267  1.00  0.00     0.222 A 
ATOM     16  C   UNL     1      47.359 131.511  13.854  1.00  0.00     0.021 A 
ATOM     17  N   UNL     1      46.914 129.202  14.247  1.00  0.00    -0.228 NA
ATOM     18  C   UNL     1      47.558 130.168  13.541  1.00  0.00     0.114 A 
ATOM     19  F   UNL     1      45.440 128.490  15.917  1.00  0.00    -0.184 F 
ENDBRANCH   8  13
TORSDOF 1
ENDMDL
MODEL 2
REMARK VINA RESULT:      -9.0      1.266      1.574
REMARK SMILES C[C@@H]1CCc2ccc(-c3cccnc3F)nc2[C@H]1F
REMARK SMILES IDX 1 1 2 2 3 3 4 4 5 5 6 6 7 7 8 8 16 9 17 10 18 11 19 12 9 13
REMARK SMILES IDX 10 14 14 15 11 16 13 17 12 18 15 19
REMARK H PARENT
ROOT
ATOM      1  C   UNL     1      44.598 131.517  23.282  1.00  0.00     0.011 C 
ATOM      2  C   UNL     1      44.194 131.970  21.873  1.00  0.00     0.027 C 
ATOM      3  C   UNL     1      42.679 131.814  21.671  1.00  0.00     0.011 C 
ATOM      4  C   UNL     1      42.255 132.398  20.320  1.00  0.00     0.038 C 
ATOM      5  C   UNL     1      43.128 131.918  19.185  1.00  0.00    -0.023 A 
ATOM      6  C   UNL     1      42.682 132.068  17.866  1.00  0.00     0.008 A 
ATOM      7  C   UNL     1      43.497 131.689  16.800  1.00  0.00     0.029 A 
ATOM      8  C   UNL     1      44.775 131.166  17.056  1.00  0.00     0.075 A 
ATOM      9  N   UNL     1      45.190 131.038  18.346  1.00  0.00    -0.249 NA
ATOM     10  C   UNL     1      44.426 131.412  19.408  1.00  0.00     0.079 A 
ATOM     11  C   UNL     1      44.953 131.164  20.800  1.00  0.00     0.218 C 
ATOM     12  F   UNL     1      46.299 131.493  20.844  1.00  0.00    -0.240 F 
ENDROOT
BRANCH   8  13
ATOM     13  C   UNL     1      45.675 130.746  15.952  1.00  0.00     0.055 A 
ATOM     14  C   UNL     1      45.858 129.385  15.645  1.00  0.00     0.017 A 
ATOM     15  C   UNL     1      46.352 131.701  15.167  1.00  0.00     0.222 A 
ATOM     16  C   UNL     1      46.697 129.006  14.596  1.00  0.00     0.021 A 
ATOM     17  N   UNL     1      47.165 131.302  14.153  1.00  0.00    -0.228 NA
ATOM     18  C   UNL     1      47.349 129.989  13.854  1.00  0.00     0.114 A 
ATOM     19  F   UNL     1      46.229 133.027  15.424  1.00  0.00    -0.184 F 
ENDBRANCH   8  13
TORSDOF 1
ENDMDL
MODEL 3
REMARK VINA RESULT:      -8.6      1.392      6.130
REMARK SMILES C[C@@H]1CCc2ccc(-c3cccnc3F)nc2[C@H]1F
REMARK SMILES IDX 1 1 2 2 3 3 4 4 5 5 6 6 7 7 8 8 16 9 17 10 18 11 19 12 9 13
REMARK SMILES IDX 10 14 14 15 11 16 13 17 12 18 15 19
REMARK H PARENT
ROOT
ATOM      1  C   UNL     1      48.139 129.630  13.896  1.00  0.00     0.011 C 
ATOM      2  C   UNL     1      46.739 129.902  14.460  1.00  0.00     0.027 C 
ATOM      3  C   UNL     1      46.032 130.994  13.643  1.00  0.00     0.011 C 
ATOM      4  C   UNL     1      44.585 131.165  14.115  1.00  0.00     0.038 C 
ATOM      5  C   UNL     1      44.479 131.287  15.616  1.00  0.00    -0.023 A 
ATOM      6  C   UNL     1      43.300 131.788  16.182  1.00  0.00     0.008 A 
ATOM      7  C   UNL     1      43.156 131.851  17.568  1.00  0.00     0.029 A 
ATOM      8  C   UNL     1      44.196 131.398  18.394  1.00  0.00     0.075 A 
ATOM      9  N   UNL     1      45.329 130.907  17.821  1.00  0.00    -0.249 NA
ATOM     10  C   UNL     1      45.495 130.817  16.474  1.00  0.00     0.079 A 
ATOM     11  C   UNL     1      46.817 130.321  15.942  1.00  0.00     0.218 C 
ATOM     12  F   UNL     1      47.241 129.243  16.703  1.00  0.00    -0.240 F 
ENDROOT
BRANCH   8  13
ATOM     13  C   UNL     1      44.087 131.450  19.875  1.00  0.00     0.055 A 
ATOM     14  C   UNL     1      42.896 131.861  20.500  1.00  0.00     0.017 A 
ATOM     15  C   UNL     1      45.168 131.067  20.693  1.00  0.00     0.222 A 
ATOM     16  C   UNL     1      42.805 131.893  21.892  1.00  0.00     0.021 A 
ATOM     17  N   UNL     1      45.052 131.110  22.048  1.00  0.00    -0.228 NA
ATOM     18  C   UNL     1      43.905 131.510  22.657  1.00  0.00     0.114 A 
ATOM     19  F   UNL     1      46.349 130.676  20.151  1.00  0.00    -0.184 F 
ENDBRANCH   8  13
TORSDOF 1
ENDMDL
MODEL 4
REMARK VINA RESULT:      -8.3      1.845      6.236
REMARK SMILES C[C@@H]1CCc2ccc(-c3cccnc3F)nc2[C@H]1F
REMARK SMILES IDX 1 1 2 2 3 3 4 4 5 5 6 6 7 7 8 8 16 9 17 10 18 11 19 12 9 13
REMARK SMILES IDX 10 14 14 15 11 16 13 17 12 18 15 19
REMARK H PARENT
ROOT
ATOM      1  C   UNL     1      48.125 129.658  13.836  1.00  0.00     0.011 C 
ATOM      2  C   UNL     1      46.723 129.930  14.395  1.00  0.00     0.027 C 
ATOM      3  C   UNL     1      46.025 131.032  13.583  1.00  0.00     0.011 C 
ATOM      4  C   UNL     1      44.576 131.205  14.049  1.00  0.00     0.038 C 
ATOM      5  C   UNL     1      44.462 131.314  15.551  1.00  0.00    -0.023 A 
ATOM      6  C   UNL     1      43.282 131.816  16.115  1.00  0.00     0.008 A 
ATOM      7  C   UNL     1      43.131 131.869  17.500  1.00  0.00     0.029 A 
ATOM      8  C   UNL     1      44.165 131.404  18.328  1.00  0.00     0.075 A 
ATOM      9  N   UNL     1      45.299 130.914  17.757  1.00  0.00    -0.249 NA
ATOM     10  C   UNL     1      45.473 130.834  16.410  1.00  0.00     0.079 A 
ATOM     11  C   UNL     1      46.795 130.337  15.881  1.00  0.00     0.218 C 
ATOM     12  F   UNL     1      47.211 129.252  16.635  1.00  0.00    -0.240 F 
ENDROOT
BRANCH   8  13
ATOM     13  C   UNL     1      44.049 131.445  19.808  1.00  0.00     0.055 A 
ATOM     14  C   UNL     1      45.091 130.978  20.630  1.00  0.00     0.017 A 
ATOM     15  C   UNL     1      42.900 131.975  20.430  1.00  0.00     0.222 A 
ATOM     16  C   UNL     1      44.973 131.035  22.019  1.00  0.00     0.021 A 
ATOM     17  N   UNL     1      42.812 132.016  21.786  1.00  0.00    -0.228 NA
ATOM     18  C   UNL     1      43.813 131.562  22.585  1.00  0.00     0.114 A 
ATOM     19  F   UNL     1      41.855 132.427  19.692  1.00  0.00    -0.184 F 
ENDBRANCH   8  13
TORSDOF 1
ENDMDL
MODEL 5
REMARK VINA RESULT:      -7.9      1.596      6.187
REMARK SMILES C[C@@H]1CCc2ccc(-c3cccnc3F)nc2[C@H]1F
REMARK SMILES IDX 1 1 2 2 3 3 4 4 5 5 6 6 7 7 8 8 16 9 17 10 18 11 19 12 9 13
REMARK SMILES IDX 10 14 14 15 11 16 13 17 12 18 15 19
REMARK H PARENT
ROOT
ATOM      1  C   UNL     1      47.287 130.296  14.395  1.00  0.00     0.011 C 
ATOM      2  C   UNL     1      45.930 130.444  15.095  1.00  0.00     0.027 C 
ATOM      3  C   UNL     1      45.098 131.549  14.425  1.00  0.00     0.011 C 
ATOM      4  C   UNL     1      43.691 131.600  15.030  1.00  0.00     0.038 C 
ATOM      5  C   UNL     1      43.712 131.608  16.539  1.00  0.00    -0.023 A 
ATOM      6  C   UNL     1      42.563 131.998  17.239  1.00  0.00     0.008 A 
ATOM      7  C   UNL     1      42.540 131.954  18.633  1.00  0.00     0.029 A 
ATOM      8  C   UNL     1      43.671 131.505  19.332  1.00  0.00     0.075 A 
ATOM      9  N   UNL     1      44.773 131.123  18.630  1.00  0.00    -0.249 NA
ATOM     10  C   UNL     1      44.824 131.139  17.270  1.00  0.00     0.079 A 
ATOM     11  C   UNL     1      46.117 130.761  16.592  1.00  0.00     0.218 C 
ATOM     12  F   UNL     1      46.663 129.659  17.230  1.00  0.00    -0.240 F 
ENDROOT
BRANCH   8  13
ATOM     13  C   UNL     1      43.692 131.446  20.816  1.00  0.00     0.055 A 
ATOM     14  C   UNL     1      42.655 132.014  21.579  1.00  0.00     0.017 A 
ATOM     15  C   UNL     1      44.741 130.798  21.499  1.00  0.00     0.222 A 
ATOM     16  C   UNL     1      42.682 131.939  22.971  1.00  0.00     0.021 A 
ATOM     17  N   UNL     1      44.742 130.742  22.858  1.00  0.00    -0.228 NA
ATOM     18  C   UNL     1      43.745 131.293  23.600  1.00  0.00     0.114 A 
ATOM     19  F   UNL     1      45.777 130.245  20.821  1.00  0.00    -0.184 F 
ENDBRANCH   8  13
TORSDOF 1
ENDMDL
MODEL 6
REMARK VINA RESULT:      -7.8      1.169      1.301
REMARK SMILES C[C@@H]1CCc2ccc(-c3cccnc3F)nc2[C@H]1F
REMARK SMILES IDX 1 1 2 2 3 3 4 4 5 5 6 6 7 7 8 8 16 9 17 10 18 11 19 12 9 13
REMARK SMILES IDX 10 14 14 15 11 16 13 17 12 18 15 19
REMARK H PARENT
ROOT
ATOM      1  C   UNL     1      44.603 131.569  23.792  1.00  0.00     0.011 C 
ATOM      2  C   UNL     1      44.068 132.043  22.435  1.00  0.00     0.027 C 
ATOM      3  C   UNL     1      42.547 131.839  22.356  1.00  0.00     0.011 C 
ATOM      4  C   UNL     1      41.993 132.442  21.062  1.00  0.00     0.038 C 
ATOM      5  C   UNL     1      42.782 132.021  19.845  1.00  0.00    -0.023 A 
ATOM      6  C   UNL     1      42.221 132.188  18.573  1.00  0.00     0.008 A 
ATOM      7  C   UNL     1      42.956 131.865  17.433  1.00  0.00     0.029 A 
ATOM      8  C   UNL     1      44.267 131.381  17.567  1.00  0.00     0.075 A 
ATOM      9  N   UNL     1      44.793 131.234  18.814  1.00  0.00    -0.249 NA
ATOM     10  C   UNL     1      44.110 131.555  19.945  1.00  0.00     0.079 A 
ATOM     11  C   UNL     1      44.760 131.291  21.281  1.00  0.00     0.218 C 
ATOM     12  F   UNL     1      46.093 131.665  21.222  1.00  0.00    -0.240 F 
ENDROOT
BRANCH   8  13
ATOM     13  C   UNL     1      45.084 131.020  16.380  1.00  0.00     0.055 A 
ATOM     14  C   UNL     1      44.727 131.460  15.093  1.00  0.00     0.017 A 
ATOM     15  C   UNL     1      46.253 130.244  16.516  1.00  0.00     0.222 A 
ATOM     16  C   UNL     1      45.512 131.123  13.990  1.00  0.00     0.021 A 
ATOM     17  N   UNL     1      46.998 129.929  15.422  1.00  0.00    -0.228 NA
ATOM     18  C   UNL     1      46.656 130.348  14.176  1.00  0.00     0.114 A 
ATOM     19  F   UNL     1      46.642 129.776  17.728  1.00  0.00    -0.184 F 
ENDBRANCH   8  13
TORSDOF 1
ENDMDL
MODEL 7
REMARK VINA RESULT:      -7.6      1.977      2.911
REMARK SMILES C[C@@H]1CCc2ccc(-c3cccnc3F)nc2[C@H]1F
REMARK SMILES IDX 1 1 2 2 3 3 4 4 5 5 6 6 7 7 8 8 16 9 17 10 18 11 19 12 9 13
REMARK SMILES IDX 10 14 14 15 11 16 13 17 12 18 15 19
REMARK H PARENT
ROOT
ATOM      1  C   UNL     1      40.869 133.383  21.192  1.00  0.00     0.011 C 
ATOM      2  C   UNL     1      41.948 132.325  20.933  1.00  0.00     0.027 C 
ATOM      3  C   UNL     1      43.008 132.354  22.045  1.00  0.00     0.011 C 
ATOM      4  C   UNL     1      44.006 131.207  21.865  1.00  0.00     0.038 C 
ATOM      5  C   UNL     1      44.530 131.114  20.452  1.00  0.00    -0.023 A 
ATOM      6  C   UNL     1      45.686 130.366  20.197  1.00  0.00     0.008 A 
ATOM      7  C   UNL     1      46.153 130.216  18.891  1.00  0.00     0.029 A 
ATOM      8  C   UNL     1      45.451 130.811  17.831  1.00  0.00     0.075 A 
ATOM      9  N   UNL     1      44.326 131.526  18.103  1.00  0.00    -0.249 NA
ATOM     10  C   UNL     1      43.834 131.679  19.362  1.00  0.00     0.079 A 
ATOM     11  C   UNL     1      42.618 132.549  19.562  1.00  0.00     0.218 C 
ATOM     12  F   UNL     1      41.702 132.293  18.555  1.00  0.00    -0.240 F 
ENDROOT
BRANCH   8  13
ATOM     13  C   UNL     1      45.915 130.681  16.426  1.00  0.00     0.055 A 
ATOM     14  C   UNL     1      46.141 129.417  15.852  1.00  0.00     0.017 A 
ATOM     15  C   UNL     1      46.117 131.821  15.623  1.00  0.00     0.222 A 
ATOM     16  C   UNL     1      46.564 129.311  14.527  1.00  0.00     0.021 A 
ATOM     17  N   UNL     1      46.532 131.687  14.335  1.00  0.00    -0.228 NA
ATOM     18  C   UNL     1      46.757 130.469  13.776  1.00  0.00     0.114 A 
ATOM     19  F   UNL     1      45.931 133.068  16.124  1.00  0.00    -0.184 F 
ENDBRANCH   8  13
TORSDOF 1
ENDMDL
MODEL 8
REMARK VINA RESULT:      -7.4      1.609      2.471
REMARK SMILES C[C@@H]1CCc2ccc(-c3cccnc3F)nc2[C@H]1F
REMARK SMILES IDX 1 1 2 2 3 3 4 4 5 5 6 6 7 7 8 8 16 9 17 10 18 11 19 12 9 13
REMARK SMILES IDX 10 14 14 15 11 16 13 17 12 18 15 19
REMARK H PARENT
ROOT
ATOM      1  C   UNL     1      40.857 133.360  21.327  1.00  0.00     0.011 C 
ATOM      2  C   UNL     1      41.930 132.316  20.992  1.00  0.00     0.027 C 
ATOM      3  C   UNL     1      43.021 132.300  22.074  1.00  0.00     0.011 C 
ATOM      4  C   UNL     1      44.014 131.163  21.816  1.00  0.00     0.038 C 
ATOM      5  C   UNL     1      44.497 131.132  20.386  1.00  0.00    -0.023 A 
ATOM      6  C   UNL     1      45.646 130.397  20.066  1.00  0.00     0.008 A 
ATOM      7  C   UNL     1      46.075 130.304  18.743  1.00  0.00     0.029 A 
ATOM      8  C   UNL     1      45.342 130.941  17.729  1.00  0.00     0.075 A 
ATOM      9  N   UNL     1      44.225 131.643  18.064  1.00  0.00    -0.249 NA
ATOM     10  C   UNL     1      43.770 131.741  19.342  1.00  0.00     0.079 A 
ATOM     11  C   UNL     1      42.559 132.600  19.614  1.00  0.00     0.218 C 
ATOM     12  F   UNL     1      41.614 132.384  18.624  1.00  0.00    -0.240 F 
ENDROOT
BRANCH   8  13
ATOM     13  C   UNL     1      45.765 130.872  16.308  1.00  0.00     0.055 A 
ATOM     14  C   UNL     1      46.265 132.007  15.644  1.00  0.00     0.017 A 
ATOM     15  C   UNL     1      45.698 129.660  15.591  1.00  0.00     0.222 A 
ATOM     16  C   UNL     1      46.670 131.923  14.312  1.00  0.00     0.021 A 
ATOM     17  N   UNL     1      46.099 129.608  14.292  1.00  0.00    -0.228 NA
ATOM     18  C   UNL     1      46.578 130.703  13.645  1.00  0.00     0.114 A 
ATOM     19  F   UNL     1      45.211 128.534  16.170  1.00  0.00    -0.184 F 
ENDBRANCH   8  13
TORSDOF 1
ENDMDL
MODEL 9
REMARK VINA RESULT:      -7.0      2.168      6.509
REMARK SMILES C[C@@H]1CCc2ccc(-c3cccnc3F)nc2[C@H]1F
REMARK SMILES IDX 1 1 2 2 3 3 4 4 5 5 6 6 7 7 8 8 16 9 17 10 18 11 19 12 9 13
REMARK SMILES IDX 10 14 14 15 11 16 13 17 12 18 15 19
REMARK H PARENT
ROOT
ATOM      1  C   UNL     1      46.932 130.232  14.935  1.00  0.00     0.011 C 
ATOM      2  C   UNL     1      45.595 130.440  15.658  1.00  0.00     0.027 C 
ATOM      3  C   UNL     1      44.838 131.633  15.053  1.00  0.00     0.011 C 
ATOM      4  C   UNL     1      43.444 131.754  15.676  1.00  0.00     0.038 C 
ATOM      5  C   UNL     1      43.478 131.686  17.184  1.00  0.00    -0.023 A 
ATOM      6  C   UNL     1      42.366 132.121  17.915  1.00  0.00     0.008 A 
ATOM      7  C   UNL     1      42.351 132.010  19.305  1.00  0.00     0.029 A 
ATOM      8  C   UNL     1      43.453 131.447  19.968  1.00  0.00     0.075 A 
ATOM      9  N   UNL     1      44.519 131.024  19.235  1.00  0.00    -0.249 NA
ATOM     10  C   UNL     1      44.560 131.103  17.878  1.00  0.00     0.079 A 
ATOM     11  C   UNL     1      45.817 130.668  17.166  1.00  0.00     0.218 C 
ATOM     12  F   UNL     1      46.288 129.500  17.743  1.00  0.00    -0.240 F 
ENDROOT
BRANCH   8  13
ATOM     13  C   UNL     1      43.482 131.313  21.447  1.00  0.00     0.055 A 
ATOM     14  C   UNL     1      44.399 130.454  22.079  1.00  0.00     0.017 A 
ATOM     15  C   UNL     1      42.606 132.062  22.258  1.00  0.00     0.222 A 
ATOM     16  C   UNL     1      44.422 130.348  23.470  1.00  0.00     0.021 A 
ATOM     17  N   UNL     1      42.650 131.938  23.612  1.00  0.00    -0.228 NA
ATOM     18  C   UNL     1      43.531 131.106  24.228  1.00  0.00     0.114 A 
ATOM     19  F   UNL     1      41.689 132.897  21.708  1.00  0.00    -0.184 F 
ENDBRANCH   8  13
TORSDOF 1
ENDMDL


