MODEL 1
REMARK VINA RESULT:      -9.8      0.000      0.000
REMARK SMILES Cc1cc([NH2+]N)c2cc3ccccc3cc2c1
REMARK SMILES IDX 5 1 4 4 2 5 3 6 17 7 16 8 7 9 15 10 8 11 14 12 9 13 13 14
REMARK SMILES IDX 10 15 12 16 11 17 1 18 6 19
REMARK H PARENT 5 2 5 3 6 20 6 21
ROOT
ATOM      1  N   UNL     1      41.767 132.859  19.042  1.00  0.00    -0.239 N 
ATOM      2  H   UNL     1      42.052 133.698  18.486  1.00  0.00     0.376 HD
ATOM      3  H   UNL     1      41.143 132.276  18.434  1.00  0.00     0.376 HD
ENDROOT
BRANCH   1   4
ATOM      4  C   UNL     1      42.934 132.119  19.466  1.00  0.00     0.156 A 
ATOM      5  C   UNL     1      44.262 131.206  21.304  1.00  0.00    -0.045 A 
ATOM      6  C   UNL     1      43.153 131.924  20.841  1.00  0.00     0.073 A 
ATOM      7  C   UNL     1      45.192 130.705  20.389  1.00  0.00     0.012 A 
ATOM      8  C   UNL     1      45.012 130.895  19.013  1.00  0.00    -0.011 A 
ATOM      9  C   UNL     1      43.882 131.608  18.534  1.00  0.00     0.045 A 
ATOM     10  C   UNL     1      45.959 130.383  18.112  1.00  0.00     0.017 A 
ATOM     11  C   UNL     1      43.739 131.799  17.142  1.00  0.00     0.023 A 
ATOM     12  C   UNL     1      45.804 130.570  16.734  1.00  0.00    -0.018 A 
ATOM     13  C   UNL     1      44.686 131.285  16.245  1.00  0.00    -0.018 A 
ATOM     14  C   UNL     1      46.751 130.058  15.832  1.00  0.00     0.009 A 
ATOM     15  C   UNL     1      44.537 131.475  14.862  1.00  0.00     0.009 A 
ATOM     16  C   UNL     1      46.589 130.254  14.458  1.00  0.00     0.001 A 
ATOM     17  C   UNL     1      45.486 130.960  13.974  1.00  0.00     0.001 A 
ATOM     18  C   UNL     1      44.489 131.039  22.779  1.00  0.00     0.044 C 
ENDBRANCH   1   4
BRANCH   1  19
ATOM     19  N   UNL     1      41.047 133.267  20.183  1.00  0.00    -0.178 NA
ATOM     20  H   UNL     1      40.104 132.809  20.160  1.00  0.00     0.183 HD
ATOM     21  H   UNL     1      40.877 134.297  20.105  1.00  0.00     0.183 HD
ENDBRANCH   1  19
TORSDOF 2
ENDMDL
MODEL 2
REMARK VINA RESULT:      -9.5      1.900      5.410
REMARK SMILES Cc1cc([NH2+]N)c2cc3ccccc3cc2c1
REMARK SMILES IDX 5 1 4 4 2 5 3 6 17 7 16 8 7 9 15 10 8 11 14 12 9 13 13 14
REMARK SMILES IDX 10 15 12 16 11 17 1 18 6 19
REMARK H PARENT 5 2 5 3 6 20 6 21
ROOT
ATOM      1  N   UNL     1      43.097 132.166  14.664  1.00  0.00    -0.239 N 
ATOM      2  H   UNL     1      42.298 132.102  15.335  1.00  0.00     0.376 HD
ATOM      3  H   UNL     1      43.270 133.183  14.477  1.00  0.00     0.376 HD
ENDROOT
BRANCH   1   4
ATOM      4  C   UNL     1      44.268 131.522  15.215  1.00  0.00     0.156 A 
ATOM      5  C   UNL     1      46.397 130.388  14.819  1.00  0.00    -0.045 A 
ATOM      6  C   UNL     1      45.240 131.011  14.337  1.00  0.00     0.073 A 
ATOM      7  C   UNL     1      46.575 130.233  16.197  1.00  0.00     0.012 A 
ATOM      8  C   UNL     1      45.618 130.717  17.099  1.00  0.00    -0.011 A 
ATOM      9  C   UNL     1      44.450 131.365  16.618  1.00  0.00     0.045 A 
ATOM     10  C   UNL     1      45.819 130.550  18.478  1.00  0.00     0.017 A 
ATOM     11  C   UNL     1      43.495 131.824  17.552  1.00  0.00     0.023 A 
ATOM     12  C   UNL     1      44.871 131.017  19.396  1.00  0.00    -0.018 A 
ATOM     13  C   UNL     1      43.700 131.657  18.930  1.00  0.00    -0.018 A 
ATOM     14  C   UNL     1      45.070 130.851  20.776  1.00  0.00     0.009 A 
ATOM     15  C   UNL     1      42.748 132.119  19.853  1.00  0.00     0.009 A 
ATOM     16  C   UNL     1      44.115 131.316  21.684  1.00  0.00     0.001 A 
ATOM     17  C   UNL     1      42.958 131.948  21.225  1.00  0.00     0.001 A 
ATOM     18  C   UNL     1      47.404 129.823  13.860  1.00  0.00     0.044 C 
ENDBRANCH   1   4
BRANCH   1  19
ATOM     19  N   UNL     1      42.754 131.529  13.454  1.00  0.00    -0.178 NA
ATOM     20  H   UNL     1      43.363 131.914  12.693  1.00  0.00     0.183 HD
ATOM     21  H   UNL     1      41.772 131.802  13.213  1.00  0.00     0.183 HD
ENDBRANCH   1  19
TORSDOF 2
ENDMDL
MODEL 3
REMARK VINA RESULT:      -8.9      1.921      2.873
REMARK SMILES Cc1cc([NH2+]N)c2cc3ccccc3cc2c1
REMARK SMILES IDX 5 1 4 4 2 5 3 6 17 7 16 8 7 9 15 10 8 11 14 12 9 13 13 14
REMARK SMILES IDX 10 15 12 16 11 17 1 18 6 19
REMARK H PARENT 5 2 5 3 6 20 6 21
ROOT
ATOM      1  N   UNL     1      45.611 130.600  21.020  1.00  0.00    -0.239 N 
ATOM      2  H   UNL     1      46.172 129.911  20.469  1.00  0.00     0.376 HD
ATOM      3  H   UNL     1      46.276 131.318  21.395  1.00  0.00     0.376 HD
ENDROOT
BRANCH   1   4
ATOM      4  C   UNL     1      44.597 131.202  20.185  1.00  0.00     0.156 A 
ATOM      5  C   UNL     1      42.477 132.411  20.033  1.00  0.00    -0.045 A 
ATOM      6  C   UNL     1      43.483 131.805  20.796  1.00  0.00     0.073 A 
ATOM      7  C   UNL     1      42.558 132.385  18.638  1.00  0.00     0.012 A 
ATOM      8  C   UNL     1      43.647 131.780  17.998  1.00  0.00    -0.011 A 
ATOM      9  C   UNL     1      44.679 131.176  18.764  1.00  0.00     0.045 A 
ATOM     10  C   UNL     1      43.706 131.766  16.596  1.00  0.00     0.017 A 
ATOM     11  C   UNL     1      45.753 130.558  18.088  1.00  0.00     0.023 A 
ATOM     12  C   UNL     1      44.780 131.157  15.936  1.00  0.00    -0.018 A 
ATOM     13  C   UNL     1      45.810 130.547  16.687  1.00  0.00    -0.018 A 
ATOM     14  C   UNL     1      44.841 131.144  14.532  1.00  0.00     0.009 A 
ATOM     15  C   UNL     1      46.883 129.933  16.021  1.00  0.00     0.009 A 
ATOM     16  C   UNL     1      45.915 130.529  13.882  1.00  0.00     0.001 A 
ATOM     17  C   UNL     1      46.933 129.926  14.624  1.00  0.00     0.001 A 
ATOM     18  C   UNL     1      41.283 133.020  20.709  1.00  0.00     0.044 C 
ENDBRANCH   1   4
BRANCH   1  19
ATOM     19  N   UNL     1      44.984 129.946  22.100  1.00  0.00    -0.178 NA
ATOM     20  H   UNL     1      44.739 128.972  21.800  1.00  0.00     0.183 HD
ATOM     21  H   UNL     1      44.077 130.434  22.289  1.00  0.00     0.183 HD
ENDBRANCH   1  19
TORSDOF 2
ENDMDL
MODEL 4
REMARK VINA RESULT:      -8.9      0.838      1.079
REMARK SMILES Cc1cc([NH2+]N)c2cc3ccccc3cc2c1
REMARK SMILES IDX 5 1 4 4 2 5 3 6 17 7 16 8 7 9 15 10 8 11 14 12 9 13 13 14
REMARK SMILES IDX 10 15 12 16 11 17 1 18 6 19
REMARK H PARENT 5 2 5 3 6 20 6 21
ROOT
ATOM      1  N   UNL     1      42.099 132.432  17.915  1.00  0.00    -0.239 N 
ATOM      2  H   UNL     1      42.381 133.260  17.342  1.00  0.00     0.376 HD
ATOM      3  H   UNL     1      41.540 131.797  17.296  1.00  0.00     0.376 HD
ENDROOT
BRANCH   1   4
ATOM      4  C   UNL     1      43.267 131.766  18.443  1.00  0.00     0.156 A 
ATOM      5  C   UNL     1      44.487 130.943  20.395  1.00  0.00    -0.045 A 
ATOM      6  C   UNL     1      43.381 131.591  19.834  1.00  0.00     0.073 A 
ATOM      7  C   UNL     1      45.520 130.495  19.566  1.00  0.00     0.012 A 
ATOM      8  C   UNL     1      45.445 130.667  18.178  1.00  0.00    -0.011 A 
ATOM      9  C   UNL     1      44.319 131.309  17.599  1.00  0.00     0.045 A 
ATOM     10  C   UNL     1      46.494 130.209  17.365  1.00  0.00     0.017 A 
ATOM     11  C   UNL     1      44.283 131.484  16.198  1.00  0.00     0.023 A 
ATOM     12  C   UNL     1      46.444 130.380  15.977  1.00  0.00    -0.018 A 
ATOM     13  C   UNL     1      45.331 131.024  15.389  1.00  0.00    -0.018 A 
ATOM     14  C   UNL     1      47.492 129.921  15.162  1.00  0.00     0.009 A 
ATOM     15  C   UNL     1      45.288 131.198  13.996  1.00  0.00     0.009 A 
ATOM     16  C   UNL     1      47.436 130.101  13.778  1.00  0.00     0.001 A 
ATOM     17  C   UNL     1      46.337 130.737  13.196  1.00  0.00     0.001 A 
ATOM     18  C   UNL     1      44.599 130.797  21.885  1.00  0.00     0.044 C 
ENDBRANCH   1   4
BRANCH   1  19
ATOM     19  N   UNL     1      41.290 132.853  18.990  1.00  0.00    -0.178 NA
ATOM     20  H   UNL     1      41.911 133.082  19.803  1.00  0.00     0.183 HD
ATOM     21  H   UNL     1      40.701 132.040  19.289  1.00  0.00     0.183 HD
ENDBRANCH   1  19
TORSDOF 2
ENDMDL
MODEL 5
REMARK VINA RESULT:      -8.6      2.623      6.041
REMARK SMILES Cc1cc([NH2+]N)c2cc3ccccc3cc2c1
REMARK SMILES IDX 5 1 4 4 2 5 3 6 17 7 16 8 7 9 15 10 8 11 14 12 9 13 13 14
REMARK SMILES IDX 10 15 12 16 11 17 1 18 6 19
REMARK H PARENT 5 2 5 3 6 20 6 21
ROOT
ATOM      1  N   UNL     1      47.026 129.826  16.521  1.00  0.00    -0.239 N 
ATOM      2  H   UNL     1      47.702 130.434  17.039  1.00  0.00     0.376 HD
ATOM      3  H   UNL     1      46.964 128.916  17.036  1.00  0.00     0.376 HD
ENDROOT
BRANCH   1   4
ATOM      4  C   UNL     1      45.737 130.473  16.431  1.00  0.00     0.156 A 
ATOM      5  C   UNL     1      43.954 131.367  15.017  1.00  0.00    -0.045 A 
ATOM      6  C   UNL     1      45.204 130.752  15.160  1.00  0.00     0.073 A 
ATOM      7  C   UNL     1      43.238 131.749  16.155  1.00  0.00     0.012 A 
ATOM      8  C   UNL     1      43.748 131.499  17.435  1.00  0.00    -0.011 A 
ATOM      9  C   UNL     1      45.007 130.861  17.589  1.00  0.00     0.045 A 
ATOM     10  C   UNL     1      43.010 131.891  18.563  1.00  0.00     0.017 A 
ATOM     11  C   UNL     1      45.501 130.641  18.893  1.00  0.00     0.023 A 
ATOM     12  C   UNL     1      43.506 131.661  19.852  1.00  0.00    -0.018 A 
ATOM     13  C   UNL     1      44.761 131.033  20.018  1.00  0.00    -0.018 A 
ATOM     14  C   UNL     1      42.768 132.052  20.982  1.00  0.00     0.009 A 
ATOM     15  C   UNL     1      45.257 130.808  21.313  1.00  0.00     0.009 A 
ATOM     16  C   UNL     1      43.274 131.821  22.264  1.00  0.00     0.001 A 
ATOM     17  C   UNL     1      44.514 131.201  22.429  1.00  0.00     0.001 A 
ATOM     18  C   UNL     1      43.422 131.682  13.649  1.00  0.00     0.044 C 
ENDBRANCH   1   4
BRANCH   1  19
ATOM     19  N   UNL     1      47.508 129.585  15.218  1.00  0.00    -0.178 NA
ATOM     20  H   UNL     1      47.724 130.507  14.769  1.00  0.00     0.183 HD
ATOM     21  H   UNL     1      46.730 129.160  14.660  1.00  0.00     0.183 HD
ENDBRANCH   1  19
TORSDOF 2
ENDMDL
MODEL 6
REMARK VINA RESULT:      -8.5      2.127      3.098
REMARK SMILES Cc1cc([NH2+]N)c2cc3ccccc3cc2c1
REMARK SMILES IDX 5 1 4 4 2 5 3 6 17 7 16 8 7 9 15 10 8 11 14 12 9 13 13 14
REMARK SMILES IDX 10 15 12 16 11 17 1 18 6 19
REMARK H PARENT 5 2 5 3 6 20 6 21
ROOT
ATOM      1  N   UNL     1      45.909 130.130  20.212  1.00  0.00    -0.239 N 
ATOM      2  H   UNL     1      46.120 129.182  19.825  1.00  0.00     0.376 HD
ATOM      3  H   UNL     1      46.817 130.650  20.284  1.00  0.00     0.376 HD
ENDROOT
BRANCH   1   4
ATOM      4  C   UNL     1      44.969 130.822  19.359  1.00  0.00     0.156 A 
ATOM      5  C   UNL     1      42.896 132.102  19.159  1.00  0.00    -0.045 A 
ATOM      6  C   UNL     1      43.832 131.412  19.938  1.00  0.00     0.073 A 
ATOM      7  C   UNL     1      43.071 132.175  17.774  1.00  0.00     0.012 A 
ATOM      8  C   UNL     1      44.185 131.585  17.163  1.00  0.00    -0.011 A 
ATOM      9  C   UNL     1      45.147 130.897  17.948  1.00  0.00     0.045 A 
ATOM     10  C   UNL     1      44.339 131.671  15.771  1.00  0.00     0.017 A 
ATOM     11  C   UNL     1      46.249 130.296  17.301  1.00  0.00     0.023 A 
ATOM     12  C   UNL     1      45.439 131.080  15.139  1.00  0.00    -0.018 A 
ATOM     13  C   UNL     1      46.400 130.386  15.909  1.00  0.00    -0.018 A 
ATOM     14  C   UNL     1      45.596 131.166  13.746  1.00  0.00     0.009 A 
ATOM     15  C   UNL     1      47.500 129.790  15.272  1.00  0.00     0.009 A 
ATOM     16  C   UNL     1      46.695 130.569  13.124  1.00  0.00     0.001 A 
ATOM     17  C   UNL     1      47.645 129.882  13.884  1.00  0.00     0.001 A 
ATOM     18  C   UNL     1      41.675 132.696  19.798  1.00  0.00     0.044 C 
ENDBRANCH   1   4
BRANCH   1  19
ATOM     19  N   UNL     1      45.348 130.003  21.499  1.00  0.00    -0.178 NA
ATOM     20  H   UNL     1      44.693 129.186  21.496  1.00  0.00     0.183 HD
ATOM     21  H   UNL     1      44.762 130.852  21.681  1.00  0.00     0.183 HD
ENDBRANCH   1  19
TORSDOF 2
ENDMDL
MODEL 7
REMARK VINA RESULT:      -7.5      2.124      2.897
REMARK SMILES Cc1cc([NH2+]N)c2cc3ccccc3cc2c1
REMARK SMILES IDX 5 1 4 4 2 5 3 6 17 7 16 8 7 9 15 10 8 11 14 12 9 13 13 14
REMARK SMILES IDX 10 15 12 16 11 17 1 18 6 19
REMARK H PARENT 5 2 5 3 6 20 6 21
ROOT
ATOM      1  N   UNL     1      46.689 131.577  20.885  1.00  0.00    -0.239 N 
ATOM      2  H   UNL     1      46.820 130.760  21.526  1.00  0.00     0.376 HD
ATOM      3  H   UNL     1      47.305 131.425  20.051  1.00  0.00     0.376 HD
ENDROOT
BRANCH   1   4
ATOM      4  C   UNL     1      45.300 131.696  20.504  1.00  0.00     0.156 A 
ATOM      5  C   UNL     1      42.972 131.985  21.192  1.00  0.00    -0.045 A 
ATOM      6  C   UNL     1      44.329 131.854  21.509  1.00  0.00     0.073 A 
ATOM      7  C   UNL     1      42.565 131.918  19.857  1.00  0.00     0.012 A 
ATOM      8  C   UNL     1      43.504 131.746  18.832  1.00  0.00    -0.011 A 
ATOM      9  C   UNL     1      44.885 131.629  19.144  1.00  0.00     0.045 A 
ATOM     10  C   UNL     1      43.072 131.683  17.499  1.00  0.00     0.017 A 
ATOM     11  C   UNL     1      45.805 131.437  18.090  1.00  0.00     0.023 A 
ATOM     12  C   UNL     1      43.993 131.501  16.460  1.00  0.00    -0.018 A 
ATOM     13  C   UNL     1      45.369 131.376  16.758  1.00  0.00    -0.018 A 
ATOM     14  C   UNL     1      43.562 131.438  15.125  1.00  0.00     0.009 A 
ATOM     15  C   UNL     1      46.290 131.188  15.714  1.00  0.00     0.009 A 
ATOM     16  C   UNL     1      44.489 131.252  14.096  1.00  0.00     0.001 A 
ATOM     17  C   UNL     1      45.848 131.127  14.389  1.00  0.00     0.001 A 
ATOM     18  C   UNL     1      41.953 132.121  22.286  1.00  0.00     0.044 C 
ENDBRANCH   1   4
BRANCH   1  19
ATOM     19  N   UNL     1      47.085 132.761  21.539  1.00  0.00    -0.178 NA
ATOM     20  H   UNL     1      46.834 132.679  22.554  1.00  0.00     0.183 HD
ATOM     21  H   UNL     1      46.511 133.549  21.156  1.00  0.00     0.183 HD
ENDBRANCH   1  19
TORSDOF 2
ENDMDL


