REMARK SMILES Cc1n[nH]c2cc([C@@]34C(=O)NC[C@@H]3NCC[C@@H]4C)ccc12
REMARK SMILES IDX 1 1 2 2 3 3 4 4 5 5 6 6 7 7 19 8 20 9 21 10 8 12 9 13 13 14
REMARK SMILES IDX 17 15 11 16 12 17 14 18 16 19 15 20 10 21 18 22
REMARK H PARENT 4 11 11 23 14 24
ROOT
ATOM      1  C   UNL     1       4.324  -0.028  -3.533  1.00  0.00     0.069 C 
ATOM      2  C   UNL     1       3.359   0.662  -2.627  1.00  0.00     0.067 A 
ATOM      3  N   UNL     1       3.313   2.002  -2.435  1.00  0.00    -0.180 NA
ATOM      4  N   UNL     1       2.311   2.265  -1.603  1.00  0.00    -0.278 N 
ATOM      5  C   UNL     1       1.716   1.107  -1.271  1.00  0.00     0.066 A 
ATOM      6  C   UNL     1       0.620   0.909  -0.437  1.00  0.00     0.033 A 
ATOM      7  C   UNL     1       0.153  -0.422  -0.238  1.00  0.00    -0.028 A 
ATOM      8  C   UNL     1       0.824  -1.485  -0.917  1.00  0.00     0.006 A 
ATOM      9  C   UNL     1       1.928  -1.241  -1.752  1.00  0.00     0.012 A 
ATOM     10  C   UNL     1       2.345   0.075  -1.899  1.00  0.00     0.023 A 
ATOM     11  H   UNL     1       2.044   3.221  -1.280  1.00  0.00     0.190 HD
ENDROOT
BRANCH   7  12
ATOM     12  C   UNL     1      -1.045  -0.752   0.675  1.00  0.00     0.094 C 
ATOM     13  C   UNL     1      -1.723   0.480   1.213  1.00  0.00     0.232 C 
ATOM     14  C   UNL     1      -2.206  -1.380  -0.184  1.00  0.00     0.093 C 
ATOM     15  C   UNL     1      -0.621  -1.729   1.827  1.00  0.00     0.009 C 
ATOM     16  N   UNL     1      -2.990   0.722   0.644  1.00  0.00    -0.354 N 
ATOM     17  C   UNL     1      -3.301  -0.293  -0.337  1.00  0.00     0.136 C 
ATOM     18  N   UNL     1      -2.738  -2.625   0.413  1.00  0.00    -0.311 NA
ATOM     19  C   UNL     1      -1.830  -2.157   2.685  1.00  0.00     0.020 C 
ATOM     20  C   UNL     1      -3.075  -2.473   1.836  1.00  0.00     0.081 C 
ATOM     21  O   UNL     1      -1.226   1.249   2.079  1.00  0.00    -0.274 OA
ATOM     22  C   UNL     1       0.514  -1.195   2.720  1.00  0.00     0.009 C 
ATOM     23  H   UNL     1      -3.569   1.572   0.823  1.00  0.00     0.163 HD
ATOM     24  H   UNL     1      -3.597  -2.920  -0.107  1.00  0.00     0.123 HD
ENDBRANCH   7  12
TORSDOF 1


