REMARK SMILES C=Cc1cc([C@@H]2O[C@H]2c2ccccc2)c(N)c([O-])c1[NH2+]c1ccc(C)c(F)c1
REMARK SMILES IDX 3 1 4 2 5 3 15 4 17 5 18 6 19 7 2 8 1 9 20 10 21 13 22 14
REMARK SMILES IDX 28 15 23 16 26 17 24 18 27 19 25 20 6 21 7 22 8 23 9 24
REMARK SMILES IDX 10 25 14 26 11 27 13 28 12 29 16 30
REMARK H PARENT 20 11 20 12 16 31 16 32
ROOT
ATOM      1  C   UNL     1       0.799  -1.287   1.659  1.00  0.00     0.035 A 
ATOM      2  C   UNL     1      -0.026  -2.088   0.854  1.00  0.00     0.023 A 
ATOM      3  C   UNL     1       0.488  -2.802  -0.234  1.00  0.00     0.007 A 
ATOM      4  C   UNL     1       1.873  -2.770  -0.496  1.00  0.00     0.035 A 
ATOM      5  C   UNL     1       2.711  -1.971   0.302  1.00  0.00    -0.020 A 
ATOM      6  O   UNL     1       4.074  -1.927   0.020  1.00  0.00    -0.867 OA
ATOM      7  C   UNL     1       2.190  -1.219   1.381  1.00  0.00     0.136 A 
ENDROOT
BRANCH   1   8
ATOM      8  C   UNL     1       0.202  -0.556   2.804  1.00  0.00     0.006 C 
ATOM      9  C   UNL     1      -0.984   0.047   2.731  1.00  0.00     0.009 C 
ENDBRANCH   1   8
BRANCH   7  10
ATOM     10  N   UNL     1       3.067  -0.349   2.144  1.00  0.00    -0.281 N 
ATOM     11  H   UNL     1       2.897  -0.478   3.167  1.00  0.00     0.358 HD
ATOM     12  H   UNL     1       4.072  -0.599   2.003  1.00  0.00     0.358 HD
BRANCH  10  13
ATOM     13  C   UNL     1       2.882   1.028   1.749  1.00  0.00     0.137 A 
ATOM     14  C   UNL     1       2.320   1.960   2.639  1.00  0.00     0.068 A 
ATOM     15  C   UNL     1       3.277   1.461   0.470  1.00  0.00     0.107 A 
ATOM     16  C   UNL     1       2.137   3.290   2.252  1.00  0.00     0.012 A 
ATOM     17  C   UNL     1       3.095   2.792   0.082  1.00  0.00     0.132 A 
ATOM     18  C   UNL     1       2.529   3.717   0.974  1.00  0.00    -0.015 A 
ATOM     19  F   UNL     1       3.470   3.178  -1.164  1.00  0.00    -0.206 F 
ATOM     20  C   UNL     1       2.311   5.140   0.548  1.00  0.00     0.047 C 
ENDBRANCH  10  13
ENDBRANCH   7  10
BRANCH   3  21
ATOM     21  C   UNL     1      -0.452  -3.641  -1.058  1.00  0.00     0.185 C 
ATOM     22  O   UNL     1      -0.486  -3.214  -2.402  1.00  0.00    -0.359 OA
ATOM     23  C   UNL     1      -1.630  -2.936  -1.630  1.00  0.00     0.183 C 
BRANCH  23  24
ATOM     24  C   UNL     1      -2.785  -3.811  -2.014  1.00  0.00    -0.016 A 
ATOM     25  C   UNL     1      -3.500  -4.503  -1.024  1.00  0.00     0.006 A 
ATOM     26  C   UNL     1      -3.197  -3.897  -3.353  1.00  0.00     0.006 A 
ATOM     27  C   UNL     1      -4.598  -5.295  -1.375  1.00  0.00     0.000 A 
ATOM     28  C   UNL     1      -4.295  -4.690  -3.700  1.00  0.00     0.000 A 
ATOM     29  C   UNL     1      -4.994  -5.391  -2.713  1.00  0.00     0.000 A 
ENDBRANCH  23  24
ENDBRANCH   3  21
BRANCH   4  30
ATOM     30  N   UNL     1       2.441  -3.552  -1.560  1.00  0.00    -0.399 N 
ATOM     31  H   UNL     1       3.457  -3.494  -1.792  1.00  0.00     0.156 HD
ATOM     32  H   UNL     1       1.873  -4.232  -2.111  1.00  0.00     0.156 HD
ENDBRANCH   4  30
TORSDOF 6


