REMARK SMILES O/C(=C\C[C@@H]1CCC[C@@H]2C=c3ccccc3=C[C@@]12F)c1ccccc1
REMARK SMILES IDX 3 1 2 2 1 3 20 5 21 6 25 7 22 8 24 9 23 10 4 11 5 12 6 13
REMARK SMILES IDX 18 14 7 15 17 16 9 17 8 18 16 19 10 20 15 21 11 22 14 23
REMARK SMILES IDX 12 24 13 25 19 26
REMARK H PARENT 1 4
ROOT
ATOM      1  C   UNL     1      -1.053  -1.778   1.860  1.00  0.00     0.020 C 
ENDROOT
BRANCH   1   2
ATOM      2  C   UNL     1      -0.869  -2.495   2.978  1.00  0.00     0.118 C 
BRANCH   2   3
ATOM      3  O   UNL     1       0.395  -2.522   3.572  1.00  0.00    -0.508 OA
ATOM      4  H   UNL     1       0.593  -3.094   4.384  1.00  0.00     0.293 HD
ENDBRANCH   2   3
BRANCH   2   5
ATOM      5  C   UNL     1      -1.990  -3.249   3.596  1.00  0.00     0.016 A 
ATOM      6  C   UNL     1      -2.932  -3.933   2.803  1.00  0.00     0.012 A 
ATOM      7  C   UNL     1      -2.113  -3.300   4.996  1.00  0.00     0.012 A 
ATOM      8  C   UNL     1      -3.976  -4.645   3.402  1.00  0.00     0.001 A 
ATOM      9  C   UNL     1      -3.160  -4.013   5.589  1.00  0.00     0.001 A 
ATOM     10  C   UNL     1      -4.091  -4.684   4.793  1.00  0.00     0.000 A 
ENDBRANCH   2   5
ENDBRANCH   1   2
BRANCH   1  11
ATOM     11  C   UNL     1       0.075  -1.013   1.216  1.00  0.00     0.038 C 
BRANCH  11  12
ATOM     12  C   UNL     1      -0.353  -0.347  -0.120  1.00  0.00     0.035 C 
ATOM     13  C   UNL     1      -0.592  -1.453  -1.186  1.00  0.00     0.007 C 
ATOM     14  C   UNL     1       0.709   0.671  -0.636  1.00  0.00     0.139 C 
ATOM     15  C   UNL     1      -0.949  -0.879  -2.562  1.00  0.00     0.001 C 
ATOM     16  C   UNL     1       0.903   1.870   0.279  1.00  0.00     0.023 C 
ATOM     17  C   UNL     1       0.300   1.222  -2.023  1.00  0.00     0.054 C 
ATOM     18  C   UNL     1       0.126   0.097  -3.048  1.00  0.00     0.011 C 
ATOM     19  C   UNL     1       1.518   2.980  -0.183  1.00  0.00    -0.020 A 
ATOM     20  C   UNL     1       1.304   2.257  -2.470  1.00  0.00    -0.011 C 
ATOM     21  C   UNL     1       1.909   3.993   0.711  1.00  0.00     0.008 A 
ATOM     22  C   UNL     1       1.799   3.132  -1.572  1.00  0.00    -0.022 A 
ATOM     23  C   UNL     1       2.634   5.096   0.255  1.00  0.00     0.001 A 
ATOM     24  C   UNL     1       2.557   4.233  -2.006  1.00  0.00     0.008 A 
ATOM     25  C   UNL     1       2.971   5.207  -1.095  1.00  0.00     0.001 A 
ATOM     26  F   UNL     1       1.933   0.025  -0.750  1.00  0.00    -0.238 F 
ENDBRANCH  11  12
ENDBRANCH   1  11
TORSDOF 5


