REMARK SMILES Cn1[nH+]nc2cc([N-]C(=O)c3cc(F)c[nH]3)ccc21
REMARK SMILES IDX 8 1 7 2 2 3 3 4 19 5 4 6 18 7 5 8 17 9 6 10 1 11 9 13 10 14
REMARK SMILES IDX 11 15 12 16 16 17 13 18 15 19 14 21
REMARK H PARENT 3 12 16 20
ROOT
ATOM      1  N   UNL     1       0.102  -2.164  -0.824  1.00  0.00    -0.621 NA
ENDROOT
BRANCH   1   2
ATOM      2  C   UNL     1      -0.456  -0.847  -0.927  1.00  0.00    -0.131 A 
ATOM      3  N   UNL     1      -2.325   2.760  -1.423  1.00  0.00    -0.132 N 
ATOM      4  N   UNL     1      -3.470   2.306  -1.924  1.00  0.00    -0.016 N 
ATOM      5  C   UNL     1      -1.557   1.685  -1.189  1.00  0.00     0.133 A 
ATOM      6  N   UNL     1      -3.479   0.977  -2.013  1.00  0.00     0.025 NA
ATOM      7  C   UNL     1      -0.256   1.597  -0.702  1.00  0.00     0.033 A 
ATOM      8  C   UNL     1      -2.276   0.586  -1.550  1.00  0.00     0.161 A 
ATOM      9  C   UNL     1       0.300   0.309  -0.577  1.00  0.00    -0.013 A 
ATOM     10  C   UNL     1      -1.762  -0.702  -1.442  1.00  0.00     0.021 A 
ATOM     11  C   UNL     1      -1.974   4.165  -1.257  1.00  0.00     0.226 C 
ATOM     12  H   UNL     1      -4.266   2.913  -2.223  1.00  0.00     0.526 HD
ENDBRANCH   1   2
BRANCH   1  13
ATOM     13  C   UNL     1       1.172  -2.561   0.042  1.00  0.00     0.102 C 
ATOM     14  O   UNL     1       1.984  -3.436  -0.361  1.00  0.00    -0.313 OA
BRANCH  13  15
ATOM     15  C   UNL     1       1.314  -2.019   1.407  1.00  0.00     0.066 A 
ATOM     16  C   UNL     1       2.461  -2.095   2.179  1.00  0.00     0.069 A 
ATOM     17  N   UNL     1       0.324  -1.416   2.099  1.00  0.00    -0.357 N 
ATOM     18  C   UNL     1       2.141  -1.496   3.378  1.00  0.00     0.141 A 
ATOM     19  C   UNL     1       0.827  -1.091   3.304  1.00  0.00     0.122 A 
ATOM     20  H   UNL     1      -0.658  -1.253   1.784  1.00  0.00     0.166 HD
ATOM     21  F   UNL     1       2.965  -1.346   4.442  1.00  0.00    -0.205 F 
ENDBRANCH  13  15
ENDBRANCH   1  13
TORSDOF 3


