REMARK SMILES Cc1ccc([C@H]2O[C@@H]2C(=O)c2ccc(F)cc2)cc1F
REMARK SMILES IDX 6 1 7 2 8 3 5 4 2 5 3 6 19 7 4 8 18 9 1 10 20 11 9 12 10 13
REMARK SMILES IDX 11 14 12 15 17 16 13 17 16 18 14 19 15 20
REMARK H PARENT
ROOT
ATOM      1  C   UNL     1       0.099   0.001  -0.283  1.00  0.00     0.186 C 
ATOM      2  O   UNL     1       0.969   0.757   0.526  1.00  0.00    -0.356 OA
ATOM      3  C   UNL     1       1.116  -0.642   0.584  1.00  0.00     0.224 C 
ENDROOT
BRANCH   1   4
ATOM      4  C   UNL     1      -1.305  -0.015   0.248  1.00  0.00    -0.013 A 
ATOM      5  C   UNL     1      -3.981  -0.051   1.123  1.00  0.00    -0.015 A 
ATOM      6  C   UNL     1      -3.199   1.106   1.274  1.00  0.00     0.007 A 
ATOM      7  C   UNL     1      -3.420  -1.183   0.511  1.00  0.00     0.126 A 
ATOM      8  C   UNL     1      -1.874   1.127   0.830  1.00  0.00     0.007 A 
ATOM      9  C   UNL     1      -2.089  -1.165   0.082  1.00  0.00     0.046 A 
ATOM     10  C   UNL     1      -5.418  -0.056   1.558  1.00  0.00     0.047 C 
ATOM     11  F   UNL     1      -4.163  -2.304   0.324  1.00  0.00    -0.207 F 
ENDBRANCH   1   4
BRANCH   3  12
ATOM     12  C   UNL     1       2.377  -1.083  -0.097  1.00  0.00     0.194 C 
ATOM     13  O   UNL     1       2.280  -1.784  -1.141  1.00  0.00    -0.291 OA
BRANCH  12  14
ATOM     14  C   UNL     1       3.719  -0.745   0.447  1.00  0.00     0.021 A 
ATOM     15  C   UNL     1       4.883  -1.094  -0.262  1.00  0.00     0.015 A 
ATOM     16  C   UNL     1       3.855  -0.071   1.678  1.00  0.00     0.015 A 
ATOM     17  C   UNL     1       6.148  -0.778   0.247  1.00  0.00     0.040 A 
ATOM     18  C   UNL     1       5.119   0.240   2.182  1.00  0.00     0.040 A 
ATOM     19  C   UNL     1       6.265  -0.117   1.471  1.00  0.00     0.123 A 
ATOM     20  F   UNL     1       7.488   0.187   1.967  1.00  0.00    -0.207 F 
ENDBRANCH  12  14
ENDBRANCH   3  12
TORSDOF 3


