REMARK SMILES CC(=O)c1ccc([C@@H]2CC[C@H]3CC(=O)[N-][C@@]3(Nc3ccc(C)c(F)c3)C2)cn1
REMARK SMILES IDX 8 1 9 2 10 3 11 4 12 5 13 6 14 7 15 8 16 9 26 10 7 11 4 12
REMARK SMILES IDX 5 13 28 14 6 15 27 16 2 17 1 18 3 19 17 20 18 22 19 23 25 24
REMARK SMILES IDX 20 25 23 26 21 27 24 28 22 29
REMARK H PARENT 17 21
ROOT
ATOM      1  C   UNL     1      -0.454   0.229   1.918  1.00  0.00     0.021 C 
ATOM      2  C   UNL     1       0.240   1.549   2.272  1.00  0.00     0.009 C 
ATOM      3  C   UNL     1       1.667   1.531   1.737  1.00  0.00     0.005 C 
ATOM      4  C   UNL     1       1.724   1.342   0.199  1.00  0.00     0.002 C 
ATOM      5  C   UNL     1       3.138   0.866  -0.189  1.00  0.00     0.059 C 
ATOM      6  C   UNL     1       2.961  -0.605  -0.185  1.00  0.00     0.053 C 
ATOM      7  O   UNL     1       3.912  -1.430  -0.191  1.00  0.00    -0.320 OA
ATOM      8  N   UNL     1       1.603  -1.006  -0.177  1.00  0.00    -0.631 NA
ATOM      9  C   UNL     1       0.797   0.196  -0.341  1.00  0.00    -0.028 C 
ATOM     10  C   UNL     1      -0.566   0.092   0.394  1.00  0.00     0.017 C 
ENDROOT
BRANCH   1  11
ATOM     11  C   UNL     1      -1.819   0.131   2.576  1.00  0.00    -0.026 A 
ATOM     12  C   UNL     1      -4.320  -0.117   3.804  1.00  0.00     0.106 A 
ATOM     13  C   UNL     1      -4.070   0.966   2.948  1.00  0.00     0.032 A 
ATOM     14  N   UNL     1      -3.337  -1.034   4.021  1.00  0.00    -0.253 NA
ATOM     15  C   UNL     1      -2.822   1.087   2.336  1.00  0.00     0.008 A 
ATOM     16  C   UNL     1      -2.114  -0.938   3.437  1.00  0.00     0.115 A 
BRANCH  12  17
ATOM     17  C   UNL     1      -5.631  -0.277   4.470  1.00  0.00     0.178 C 
ATOM     18  C   UNL     1      -5.887  -1.438   5.380  1.00  0.00     0.095 C 
ATOM     19  O   UNL     1      -6.549   0.565   4.277  1.00  0.00    -0.293 OA
ENDBRANCH  12  17
ENDBRANCH   1  11
BRANCH   9  20
ATOM     20  N   UNL     1       0.547   0.409  -1.783  1.00  0.00    -0.396 N 
ATOM     21  H   UNL     1       0.874   1.308  -2.207  1.00  0.00     0.159 HD
BRANCH  20  22
ATOM     22  C   UNL     1      -0.198  -0.467  -2.659  1.00  0.00     0.036 A 
ATOM     23  C   UNL     1      -0.669   0.041  -3.881  1.00  0.00     0.026 A 
ATOM     24  C   UNL     1      -0.452  -1.817  -2.346  1.00  0.00     0.065 A 
ATOM     25  C   UNL     1      -1.388  -0.769  -4.763  1.00  0.00     0.008 A 
ATOM     26  C   UNL     1      -1.173  -2.629  -3.229  1.00  0.00     0.128 A 
ATOM     27  C   UNL     1      -1.639  -2.112  -4.447  1.00  0.00    -0.015 A 
ATOM     28  F   UNL     1      -1.412  -3.923  -2.896  1.00  0.00    -0.207 F 
ATOM     29  C   UNL     1      -2.431  -2.979  -5.383  1.00  0.00     0.047 C 
ENDBRANCH  20  22
ENDBRANCH   9  20
TORSDOF 4


