REMARK SMILES [H]/N=C(C)/C(=C/O)C(=O)Oc1c(N)cc(-c2ccc(C(C)=O)[nH+]c2)cc1[NH2+]c1ccc(C)c(F)c1
REMARK SMILES IDX 8 1 9 2 5 3 3 4 4 5 2 6 1 7 6 8 7 9 10 11 11 12 12 13 26 14
REMARK SMILES IDX 14 15 25 16 15 17 13 18 27 21 28 24 29 25 35 26 30 27 33 28
REMARK SMILES IDX 31 29 34 30 32 31 16 32 17 33 24 34 18 35 23 36 19 37 20 39
REMARK SMILES IDX 22 40 21 41
REMARK H PARENT 7 10 13 19 13 20 27 22 27 23 23 38
ROOT
ATOM      1  C   UNL     1      -3.063   0.222  -2.263  1.00  0.00     0.348 C 
ATOM      2  O   UNL     1      -3.153   0.985  -1.262  1.00  0.00    -0.246 OA
ENDROOT
BRANCH   1   3
ATOM      3  C   UNL     1      -3.870   0.501  -3.477  1.00  0.00     0.115 C 
BRANCH   3   4
ATOM      4  C   UNL     1      -4.308   1.893  -3.768  1.00  0.00     0.046 C 
ATOM      5  C   UNL     1      -3.447   3.067  -3.394  1.00  0.00     0.067 C 
BRANCH   4   6
ATOM      6  N   UNL     1      -5.464   2.100  -4.320  1.00  0.00    -0.305 NA
ATOM      7  H   UNL     1      -5.812   3.065  -4.529  1.00  0.00     0.187 HD
ENDBRANCH   4   6
ENDBRANCH   3   4
BRANCH   3   8
ATOM      8  C   UNL     1      -4.214  -0.490  -4.319  1.00  0.00     0.200 C 
BRANCH   8   9
ATOM      9  O   UNL     1      -3.864  -1.813  -4.072  1.00  0.00    -0.515 OA
ATOM     10  H   UNL     1      -4.126  -2.539  -4.721  1.00  0.00     0.292 HD
ENDBRANCH   8   9
ENDBRANCH   3   8
ENDBRANCH   1   3
BRANCH   1  11
ATOM     11  O   UNL     1      -2.182  -0.868  -2.239  1.00  0.00    -0.414 OA
BRANCH  11  12
ATOM     12  C   UNL     1      -1.468  -1.265  -1.100  1.00  0.00     0.214 A 
ATOM     13  C   UNL     1      -2.138  -1.628   0.090  1.00  0.00     0.082 A 
ATOM     14  C   UNL     1      -0.059  -1.326  -1.158  1.00  0.00     0.180 A 
ATOM     15  C   UNL     1      -1.396  -1.972   1.227  1.00  0.00     0.039 A 
ATOM     16  C   UNL     1       0.662  -1.693  -0.008  1.00  0.00     0.081 A 
ATOM     17  C   UNL     1       0.006  -2.004   1.191  1.00  0.00    -0.004 A 
BRANCH  13  18
ATOM     18  N   UNL     1      -3.569  -1.718   0.140  1.00  0.00    -0.395 N 
ATOM     19  H   UNL     1      -4.056  -1.944   1.035  1.00  0.00     0.156 HD
ATOM     20  H   UNL     1      -4.153  -1.651  -0.722  1.00  0.00     0.156 HD
ENDBRANCH  13  18
BRANCH  14  21
ATOM     21  N   UNL     1       0.657  -0.995  -2.370  1.00  0.00    -0.278 N 
ATOM     22  H   UNL     1       0.025  -0.973  -3.201  1.00  0.00     0.358 HD
ATOM     23  H   UNL     1       1.365  -1.744  -2.557  1.00  0.00     0.358 HD
BRANCH  21  24
ATOM     24  C   UNL     1       1.306   0.285  -2.228  1.00  0.00     0.137 A 
ATOM     25  C   UNL     1       2.688   0.359  -1.972  1.00  0.00     0.068 A 
ATOM     26  C   UNL     1       0.559   1.474  -2.299  1.00  0.00     0.107 A 
ATOM     27  C   UNL     1       3.309   1.600  -1.808  1.00  0.00     0.012 A 
ATOM     28  C   UNL     1       1.178   2.714  -2.120  1.00  0.00     0.132 A 
ATOM     29  C   UNL     1       2.564   2.786  -1.893  1.00  0.00    -0.015 A 
ATOM     30  F   UNL     1       0.426   3.840  -2.156  1.00  0.00    -0.206 F 
ATOM     31  C   UNL     1       3.233   4.111  -1.663  1.00  0.00     0.047 C 
ENDBRANCH  21  24
ENDBRANCH  14  21
BRANCH  17  32
ATOM     32  C   UNL     1       0.782  -2.381   2.400  1.00  0.00     0.046 A 
ATOM     33  C   UNL     1       1.907  -3.212   2.302  1.00  0.00     0.022 A 
ATOM     34  C   UNL     1       0.409  -1.914   3.670  1.00  0.00     0.315 A 
ATOM     35  C   UNL     1       2.625  -3.561   3.445  1.00  0.00     0.084 A 
ATOM     36  N   UNL     1       1.124  -2.262   4.775  1.00  0.00    -0.208 N 
ATOM     37  C   UNL     1       2.221  -3.076   4.700  1.00  0.00     0.246 A 
ATOM     38  H   UNL     1       0.806  -1.881   5.691  1.00  0.00     0.454 HD
BRANCH  37  39
ATOM     39  C   UNL     1       2.985  -3.450   5.920  1.00  0.00     0.223 C 
ATOM     40  O   UNL     1       3.991  -4.204   5.824  1.00  0.00    -0.288 OA
ATOM     41  C   UNL     1       2.591  -2.956   7.278  1.00  0.00     0.100 C 
ENDBRANCH  37  39
ENDBRANCH  17  32
ENDBRANCH  11  12
ENDBRANCH   1  11
TORSDOF 12


