MODEL 1
REMARK VINA RESULT:      -7.2      0.000      0.000
REMARK SMILES O=C1NC[C@H](/C(O)=[N+]2/CCC[C@H](c3ccc4cc(F)ccc4n3)[C@@H]2F)N1
REMARK SMILES IDX 8 1 9 2 10 3 11 4 12 5 24 6 25 7 6 8 7 9 5 11 26 12 4 13
REMARK SMILES IDX 2 14 3 15 1 17 13 19 23 20 14 21 22 22 15 23 21 24 16 25
REMARK SMILES IDX 20 26 17 27 18 28 19 29
REMARK H PARENT 7 10 26 16 3 18
ROOT
ATOM      1  N   UNL     1      44.324 132.014  20.769  1.00  0.00    -0.168 N 
ATOM      2  C   UNL     1      43.044 132.668  20.422  1.00  0.00     0.357 C 
ATOM      3  C   UNL     1      42.277 131.849  19.376  1.00  0.00     0.074 C 
ATOM      4  C   UNL     1      43.095 131.602  18.094  1.00  0.00     0.026 C 
ATOM      5  C   UNL     1      44.616 131.754  18.307  1.00  0.00     0.142 C 
ATOM      6  C   UNL     1      45.047 131.274  19.708  1.00  0.00     0.454 C 
ATOM      7  F   UNL     1      44.806 129.918  19.853  1.00  0.00    -0.174 F 
ENDROOT
BRANCH   1   8
ATOM      8  C   UNL     1      44.814 132.143  21.986  1.00  0.00     0.361 C 
BRANCH   8   9
ATOM      9  O   UNL     1      45.995 132.867  22.178  1.00  0.00    -0.462 OA
ATOM     10  H   UNL     1      46.014 133.765  22.646  1.00  0.00     0.299 HD
ENDBRANCH   8   9
BRANCH   8  11
ATOM     11  C   UNL     1      44.170 131.486  23.200  1.00  0.00     0.240 C 
ATOM     12  N   UNL     1      44.529 130.073  23.275  1.00  0.00    -0.321 N 
ATOM     13  C   UNL     1      42.615 131.517  23.109  1.00  0.00     0.158 C 
ATOM     14  C   UNL     1      43.338 129.323  23.268  1.00  0.00     0.315 C 
ATOM     15  N   UNL     1      42.187 130.126  23.176  1.00  0.00    -0.335 N 
ATOM     16  H   UNL     1      45.495 129.688  23.370  1.00  0.00     0.166 HD
ATOM     17  O   UNL     1      43.307 128.067  23.344  1.00  0.00    -0.249 OA
ATOM     18  H   UNL     1      41.200 129.785  23.151  1.00  0.00     0.165 HD
ENDBRANCH   8  11
ENDBRANCH   1   8
BRANCH   5  19
ATOM     19  C   UNL     1      45.391 131.051  17.214  1.00  0.00     0.054 A 
ATOM     20  N   UNL     1      45.848 131.759  16.143  1.00  0.00    -0.252 NA
ATOM     21  C   UNL     1      45.658 129.674  17.297  1.00  0.00     0.025 A 
ATOM     22  C   UNL     1      46.553 131.175  15.138  1.00  0.00     0.071 A 
ATOM     23  C   UNL     1      46.380 129.047  16.280  1.00  0.00     0.012 A 
ATOM     24  C   UNL     1      46.999 131.941  14.054  1.00  0.00     0.032 A 
ATOM     25  C   UNL     1      46.837 129.792  15.186  1.00  0.00     0.003 A 
ATOM     26  C   UNL     1      47.724 131.337  13.023  1.00  0.00     0.041 A 
ATOM     27  C   UNL     1      47.566 129.193  14.149  1.00  0.00     0.049 A 
ATOM     28  C   UNL     1      48.007 129.967  13.069  1.00  0.00     0.123 A 
ATOM     29  F   UNL     1      48.711 129.387  12.065  1.00  0.00    -0.207 F 
ENDBRANCH   5  19
TORSDOF 4
ENDMDL
MODEL 2
REMARK VINA RESULT:      -6.5      1.500      1.632
REMARK SMILES O=C1NC[C@H](/C(O)=[N+]2/CCC[C@H](c3ccc4cc(F)ccc4n3)[C@@H]2F)N1
REMARK SMILES IDX 8 1 9 2 10 3 11 4 12 5 24 6 25 7 6 8 7 9 5 11 26 12 4 13
REMARK SMILES IDX 2 14 3 15 1 17 13 19 23 20 14 21 22 22 15 23 21 24 16 25
REMARK SMILES IDX 20 26 17 27 18 28 19 29
REMARK H PARENT 7 10 26 16 3 18
ROOT
ATOM      1  N   UNL     1      42.829 132.077  21.252  1.00  0.00    -0.168 N 
ATOM      2  C   UNL     1      41.835 133.035  20.720  1.00  0.00     0.357 C 
ATOM      3  C   UNL     1      41.280 132.555  19.373  1.00  0.00     0.074 C 
ATOM      4  C   UNL     1      42.382 132.318  18.323  1.00  0.00     0.026 C 
ATOM      5  C   UNL     1      43.777 132.106  18.946  1.00  0.00     0.142 C 
ATOM      6  C   UNL     1      43.693 131.354  20.290  1.00  0.00     0.454 C 
ATOM      7  F   UNL     1      43.195 130.075  20.102  1.00  0.00    -0.174 F 
ENDROOT
BRANCH   1   8
ATOM      8  C   UNL     1      42.957 131.926  22.555  1.00  0.00     0.361 C 
BRANCH   8   9
ATOM      9  O   UNL     1      41.947 132.393  23.403  1.00  0.00    -0.462 OA
ATOM     10  H   UNL     1      41.868 132.098  24.369  1.00  0.00     0.299 HD
ENDBRANCH   8   9
BRANCH   8  11
ATOM     11  C   UNL     1      44.197 131.307  23.188  1.00  0.00     0.240 C 
ATOM     12  N   UNL     1      44.649 130.153  22.418  1.00  0.00    -0.321 N 
ATOM     13  C   UNL     1      43.897 130.764  24.617  1.00  0.00     0.158 C 
ATOM     14  C   UNL     1      44.664 129.038  23.277  1.00  0.00     0.315 C 
ATOM     15  N   UNL     1      44.234 129.348  24.581  1.00  0.00    -0.335 N 
ATOM     16  H   UNL     1      44.959 130.162  21.421  1.00  0.00     0.166 HD
ATOM     17  O   UNL     1      45.030 127.889  22.919  1.00  0.00    -0.249 OA
ATOM     18  H   UNL     1      44.162 128.677  25.379  1.00  0.00     0.165 HD
ENDBRANCH   8  11
ENDBRANCH   1   8
BRANCH   5  19
ATOM     19  C   UNL     1      44.707 131.412  17.975  1.00  0.00     0.054 A 
ATOM     20  N   UNL     1      44.731 131.793  16.667  1.00  0.00    -0.252 NA
ATOM     21  C   UNL     1      45.558 130.383  18.410  1.00  0.00     0.025 A 
ATOM     22  C   UNL     1      45.551 131.204  15.757  1.00  0.00     0.071 A 
ATOM     23  C   UNL     1      46.412 129.759  17.499  1.00  0.00     0.012 A 
ATOM     24  C   UNL     1      45.539 131.625  14.422  1.00  0.00     0.032 A 
ATOM     25  C   UNL     1      46.418 130.164  16.159  1.00  0.00     0.003 A 
ATOM     26  C   UNL     1      46.384 131.017  13.490  1.00  0.00     0.041 A 
ATOM     27  C   UNL     1      47.264 129.559  15.218  1.00  0.00     0.049 A 
ATOM     28  C   UNL     1      47.245 129.987  13.885  1.00  0.00     0.123 A 
ATOM     29  F   UNL     1      48.063 129.402  12.976  1.00  0.00    -0.207 F 
ENDBRANCH   5  19
TORSDOF 4
ENDMDL
MODEL 3
REMARK VINA RESULT:      -6.4      2.022      3.242
REMARK SMILES O=C1NC[C@H](/C(O)=[N+]2/CCC[C@H](c3ccc4cc(F)ccc4n3)[C@@H]2F)N1
REMARK SMILES IDX 8 1 9 2 10 3 11 4 12 5 24 6 25 7 6 8 7 9 5 11 26 12 4 13
REMARK SMILES IDX 2 14 3 15 1 17 13 19 23 20 14 21 22 22 15 23 21 24 16 25
REMARK SMILES IDX 20 26 17 27 18 28 19 29
REMARK H PARENT 7 10 26 16 3 18
ROOT
ATOM      1  N   UNL     1      43.823 130.455  22.684  1.00  0.00    -0.168 N 
ATOM      2  C   UNL     1      45.019 131.020  23.345  1.00  0.00     0.357 C 
ATOM      3  C   UNL     1      45.450 132.328  22.671  1.00  0.00     0.074 C 
ATOM      4  C   UNL     1      45.723 132.163  21.164  1.00  0.00     0.026 C 
ATOM      5  C   UNL     1      45.040 130.920  20.558  1.00  0.00     0.142 C 
ATOM      6  C   UNL     1      43.676 130.638  21.221  1.00  0.00     0.454 C 
ATOM      7  F   UNL     1      42.793 131.677  20.979  1.00  0.00    -0.174 F 
ENDROOT
BRANCH   1   8
ATOM      8  C   UNL     1      42.950 129.766  23.392  1.00  0.00     0.361 C 
BRANCH   8   9
ATOM      9  O   UNL     1      41.673 130.293  23.610  1.00  0.00    -0.462 OA
ATOM     10  H   UNL     1      41.513 131.280  23.778  1.00  0.00     0.299 HD
ENDBRANCH   8   9
BRANCH   8  11
ATOM     11  C   UNL     1      43.295 128.429  24.036  1.00  0.00     0.240 C 
ATOM     12  N   UNL     1      44.083 127.604  23.126  1.00  0.00    -0.321 N 
ATOM     13  C   UNL     1      42.014 127.599  24.348  1.00  0.00     0.158 C 
ATOM     14  C   UNL     1      43.391 126.394  22.929  1.00  0.00     0.315 C 
ATOM     15  N   UNL     1      42.171 126.342  23.629  1.00  0.00    -0.335 N 
ATOM     16  H   UNL     1      45.020 127.844  22.733  1.00  0.00     0.166 HD
ATOM     17  O   UNL     1      43.821 125.456  22.209  1.00  0.00    -0.249 OA
ATOM     18  H   UNL     1      41.495 125.546  23.627  1.00  0.00     0.165 HD
ENDBRANCH   8  11
ENDBRANCH   1   8
BRANCH   5  19
ATOM     19  C   UNL     1      44.913 131.047  19.055  1.00  0.00     0.054 A 
ATOM     20  N   UNL     1      45.905 130.574  18.248  1.00  0.00    -0.252 NA
ATOM     21  C   UNL     1      43.776 131.638  18.479  1.00  0.00     0.025 A 
ATOM     22  C   UNL     1      45.836 130.660  16.893  1.00  0.00     0.071 A 
ATOM     23  C   UNL     1      43.678 131.740  17.091  1.00  0.00     0.012 A 
ATOM     24  C   UNL     1      46.880 130.165  16.103  1.00  0.00     0.032 A 
ATOM     25  C   UNL     1      44.709 131.251  16.280  1.00  0.00     0.003 A 
ATOM     26  C   UNL     1      46.806 130.255  14.710  1.00  0.00     0.041 A 
ATOM     27  C   UNL     1      44.641 131.337  14.882  1.00  0.00     0.049 A 
ATOM     28  C   UNL     1      45.690 130.839  14.100  1.00  0.00     0.123 A 
ATOM     29  F   UNL     1      45.625 130.923  12.748  1.00  0.00    -0.207 F 
ENDBRANCH   5  19
TORSDOF 4
ENDMDL
MODEL 4
REMARK VINA RESULT:      -6.2      1.638      2.153
REMARK SMILES O=C1NC[C@H](/C(O)=[N+]2/CCC[C@H](c3ccc4cc(F)ccc4n3)[C@@H]2F)N1
REMARK SMILES IDX 8 1 9 2 10 3 11 4 12 5 24 6 25 7 6 8 7 9 5 11 26 12 4 13
REMARK SMILES IDX 2 14 3 15 1 17 13 19 23 20 14 21 22 22 15 23 21 24 16 25
REMARK SMILES IDX 20 26 17 27 18 28 19 29
REMARK H PARENT 7 10 26 16 3 18
ROOT
ATOM      1  N   UNL     1      43.426 132.002  22.618  1.00  0.00    -0.168 N 
ATOM      2  C   UNL     1      42.303 132.925  22.342  1.00  0.00     0.357 C 
ATOM      3  C   UNL     1      41.511 132.469  21.110  1.00  0.00     0.074 C 
ATOM      4  C   UNL     1      42.390 132.334  19.852  1.00  0.00     0.026 C 
ATOM      5  C   UNL     1      43.890 132.174  20.174  1.00  0.00     0.142 C 
ATOM      6  C   UNL     1      44.112 131.366  21.469  1.00  0.00     0.454 C 
ATOM      7  F   UNL     1      43.645 130.070  21.320  1.00  0.00    -0.174 F 
ENDROOT
BRANCH   1   8
ATOM      8  C   UNL     1      43.820 131.807  23.861  1.00  0.00     0.361 C 
BRANCH   8   9
ATOM      9  O   UNL     1      44.458 132.845  24.549  1.00  0.00    -0.462 OA
ATOM     10  H   UNL     1      44.733 133.709  24.098  1.00  0.00     0.299 HD
ENDBRANCH   8   9
BRANCH   8  11
ATOM     11  C   UNL     1      43.658 130.468  24.569  1.00  0.00     0.240 C 
ATOM     12  N   UNL     1      44.792 129.594  24.288  1.00  0.00    -0.321 N 
ATOM     13  C   UNL     1      42.403 129.701  24.058  1.00  0.00     0.158 C 
ATOM     14  C   UNL     1      44.294 128.412  23.708  1.00  0.00     0.315 C 
ATOM     15  N   UNL     1      42.895 128.426  23.555  1.00  0.00    -0.335 N 
ATOM     16  H   UNL     1      45.791 129.786  24.523  1.00  0.00     0.166 HD
ATOM     17  O   UNL     1      45.021 127.443  23.368  1.00  0.00    -0.249 OA
ATOM     18  H   UNL     1      42.313 127.660  23.146  1.00  0.00     0.165 HD
ENDBRANCH   8  11
ENDBRANCH   1   8
BRANCH   5  19
ATOM     19  C   UNL     1      44.636 131.570  19.005  1.00  0.00     0.054 A 
ATOM     20  N   UNL     1      44.172 131.751  17.736  1.00  0.00    -0.252 NA
ATOM     21  C   UNL     1      45.814 130.832  19.211  1.00  0.00     0.025 A 
ATOM     22  C   UNL     1      44.809 131.233  16.652  1.00  0.00     0.071 A 
ATOM     23  C   UNL     1      46.490 130.289  18.117  1.00  0.00     0.012 A 
ATOM     24  C   UNL     1      44.293 131.441  15.368  1.00  0.00     0.032 A 
ATOM     25  C   UNL     1      45.993 130.483  16.822  1.00  0.00     0.003 A 
ATOM     26  C   UNL     1      44.950 130.907  14.256  1.00  0.00     0.041 A 
ATOM     27  C   UNL     1      46.648 129.952  15.702  1.00  0.00     0.049 A 
ATOM     28  C   UNL     1      46.125 130.164  14.422  1.00  0.00     0.123 A 
ATOM     29  F   UNL     1      46.758 129.649  13.338  1.00  0.00    -0.207 F 
ENDBRANCH   5  19
TORSDOF 4
ENDMDL
MODEL 5
REMARK VINA RESULT:      -5.6      0.915      1.431
REMARK SMILES O=C1NC[C@H](/C(O)=[N+]2/CCC[C@H](c3ccc4cc(F)ccc4n3)[C@@H]2F)N1
REMARK SMILES IDX 8 1 9 2 10 3 11 4 12 5 24 6 25 7 6 8 7 9 5 11 26 12 4 13
REMARK SMILES IDX 2 14 3 15 1 17 13 19 23 20 14 21 22 22 15 23 21 24 16 25
REMARK SMILES IDX 20 26 17 27 18 28 19 29
REMARK H PARENT 7 10 26 16 3 18
ROOT
ATOM      1  N   UNL     1      44.182 131.729  20.561  1.00  0.00    -0.168 N 
ATOM      2  C   UNL     1      42.800 132.256  20.579  1.00  0.00     0.357 C 
ATOM      3  C   UNL     1      41.944 131.582  19.500  1.00  0.00     0.074 C 
ATOM      4  C   UNL     1      42.536 131.734  18.086  1.00  0.00     0.026 C 
ATOM      5  C   UNL     1      44.046 132.049  18.092  1.00  0.00     0.142 C 
ATOM      6  C   UNL     1      44.771 131.344  19.257  1.00  0.00     0.454 C 
ATOM      7  F   UNL     1      44.699 129.968  19.113  1.00  0.00    -0.174 F 
ENDROOT
BRANCH   1   8
ATOM      8  C   UNL     1      44.869 131.661  21.684  1.00  0.00     0.361 C 
BRANCH   8   9
ATOM      9  O   UNL     1      46.206 132.073  21.697  1.00  0.00    -0.462 OA
ATOM     10  H   UNL     1      46.646 132.519  20.901  1.00  0.00     0.299 HD
ENDBRANCH   8   9
BRANCH   8  11
ATOM     11  C   UNL     1      44.279 131.096  22.970  1.00  0.00     0.240 C 
ATOM     12  N   UNL     1      44.467 129.650  23.033  1.00  0.00    -0.321 N 
ATOM     13  C   UNL     1      42.739 131.319  23.037  1.00  0.00     0.158 C 
ATOM     14  C   UNL     1      43.199 129.054  23.163  1.00  0.00     0.315 C 
ATOM     15  N   UNL     1      42.152 129.994  23.174  1.00  0.00    -0.335 N 
ATOM     16  H   UNL     1      45.383 129.148  23.037  1.00  0.00     0.166 HD
ATOM     17  O   UNL     1      43.021 127.812  23.266  1.00  0.00    -0.249 OA
ATOM     18  H   UNL     1      41.133 129.778  23.257  1.00  0.00     0.165 HD
ENDBRANCH   8  11
ENDBRANCH   1   8
BRANCH   5  19
ATOM     19  C   UNL     1      44.677 131.714  16.758  1.00  0.00     0.054 A 
ATOM     20  N   UNL     1      45.815 130.965  16.715  1.00  0.00    -0.252 NA
ATOM     21  C   UNL     1      44.096 132.157  15.559  1.00  0.00     0.025 A 
ATOM     22  C   UNL     1      46.418 130.633  15.542  1.00  0.00     0.071 A 
ATOM     23  C   UNL     1      44.692 131.831  14.339  1.00  0.00     0.012 A 
ATOM     24  C   UNL     1      47.588 129.865  15.546  1.00  0.00     0.032 A 
ATOM     25  C   UNL     1      45.862 131.064  14.317  1.00  0.00     0.003 A 
ATOM     26  C   UNL     1      48.205 129.525  14.338  1.00  0.00     0.041 A 
ATOM     27  C   UNL     1      46.486 130.718  13.110  1.00  0.00     0.049 A 
ATOM     28  C   UNL     1      47.656 129.950  13.123  1.00  0.00     0.123 A 
ATOM     29  F   UNL     1      48.259 129.617  11.955  1.00  0.00    -0.207 F 
ENDBRANCH   5  19
TORSDOF 4
ENDMDL
MODEL 6
REMARK VINA RESULT:      -5.5      2.522      4.026
REMARK SMILES O=C1NC[C@H](/C(O)=[N+]2/CCC[C@H](c3ccc4cc(F)ccc4n3)[C@@H]2F)N1
REMARK SMILES IDX 8 1 9 2 10 3 11 4 12 5 24 6 25 7 6 8 7 9 5 11 26 12 4 13
REMARK SMILES IDX 2 14 3 15 1 17 13 19 23 20 14 21 22 22 15 23 21 24 16 25
REMARK SMILES IDX 20 26 17 27 18 28 19 29
REMARK H PARENT 7 10 26 16 3 18
ROOT
ATOM      1  N   UNL     1      44.442 129.304  22.942  1.00  0.00    -0.168 N 
ATOM      2  C   UNL     1      44.820 130.427  23.827  1.00  0.00     0.357 C 
ATOM      3  C   UNL     1      44.225 131.746  23.321  1.00  0.00     0.074 C 
ATOM      4  C   UNL     1      44.636 132.070  21.872  1.00  0.00     0.026 C 
ATOM      5  C   UNL     1      45.097 130.828  21.081  1.00  0.00     0.142 C 
ATOM      6  C   UNL     1      44.309 129.566  21.490  1.00  0.00     0.454 C 
ATOM      7  F   UNL     1      42.968 129.707  21.174  1.00  0.00    -0.174 F 
ENDROOT
BRANCH   1   8
ATOM      8  C   UNL     1      44.284 128.098  23.451  1.00  0.00     0.361 C 
BRANCH   8   9
ATOM      9  O   UNL     1      43.162 127.828  24.242  1.00  0.00    -0.462 OA
ATOM     10  H   UNL     1      42.392 127.257  23.917  1.00  0.00     0.299 HD
ENDBRANCH   8   9
BRANCH   8  11
ATOM     11  C   UNL     1      45.309 126.988  23.255  1.00  0.00     0.240 C 
ATOM     12  N   UNL     1      44.707 125.840  22.584  1.00  0.00    -0.321 N 
ATOM     13  C   UNL     1      45.830 126.446  24.620  1.00  0.00     0.158 C 
ATOM     14  C   UNL     1      44.870 124.717  23.416  1.00  0.00     0.315 C 
ATOM     15  N   UNL     1      45.528 125.022  24.622  1.00  0.00    -0.335 N 
ATOM     16  H   UNL     1      44.278 125.839  21.632  1.00  0.00     0.166 HD
ATOM     17  O   UNL     1      44.476 123.562  23.111  1.00  0.00    -0.249 OA
ATOM     18  H   UNL     1      45.752 124.347  25.388  1.00  0.00     0.165 HD
ENDBRANCH   8  11
ENDBRANCH   1   8
BRANCH   5  19
ATOM     19  C   UNL     1      45.022 131.073  19.590  1.00  0.00     0.054 A 
ATOM     20  N   UNL     1      45.846 130.389  18.747  1.00  0.00    -0.252 NA
ATOM     21  C   UNL     1      44.100 131.992  19.060  1.00  0.00     0.025 A 
ATOM     22  C   UNL     1      45.814 130.570  17.400  1.00  0.00     0.071 A 
ATOM     23  C   UNL     1      44.043 132.198  17.681  1.00  0.00     0.012 A 
ATOM     24  C   UNL     1      46.682 129.849  16.572  1.00  0.00     0.032 A 
ATOM     25  C   UNL     1      44.902 131.488  16.833  1.00  0.00     0.003 A 
ATOM     26  C   UNL     1      46.646 130.037  15.187  1.00  0.00     0.041 A 
ATOM     27  C   UNL     1      44.870 131.671  15.443  1.00  0.00     0.049 A 
ATOM     28  C   UNL     1      45.743 130.945  14.624  1.00  0.00     0.123 A 
ATOM     29  F   UNL     1      45.712 131.123  13.279  1.00  0.00    -0.207 F 
ENDBRANCH   5  19
TORSDOF 4
ENDMDL
MODEL 7
REMARK VINA RESULT:      -5.3      1.818      2.832
REMARK SMILES O=C1NC[C@H](/C(O)=[N+]2/CCC[C@H](c3ccc4cc(F)ccc4n3)[C@@H]2F)N1
REMARK SMILES IDX 8 1 9 2 10 3 11 4 12 5 24 6 25 7 6 8 7 9 5 11 26 12 4 13
REMARK SMILES IDX 2 14 3 15 1 17 13 19 23 20 14 21 22 22 15 23 21 24 16 25
REMARK SMILES IDX 20 26 17 27 18 28 19 29
REMARK H PARENT 7 10 26 16 3 18
ROOT
ATOM      1  N   UNL     1      43.388 131.561  22.943  1.00  0.00    -0.168 N 
ATOM      2  C   UNL     1      42.351 132.595  23.157  1.00  0.00     0.357 C 
ATOM      3  C   UNL     1      41.249 132.491  22.096  1.00  0.00     0.074 C 
ATOM      4  C   UNL     1      41.791 132.593  20.658  1.00  0.00     0.026 C 
ATOM      5  C   UNL     1      43.295 132.264  20.553  1.00  0.00     0.142 C 
ATOM      6  C   UNL     1      43.709 131.165  21.553  1.00  0.00     0.454 C 
ATOM      7  F   UNL     1      43.067 129.973  21.258  1.00  0.00    -0.174 F 
ENDROOT
BRANCH   1   8
ATOM      8  C   UNL     1      44.030 131.058  23.979  1.00  0.00     0.361 C 
BRANCH   8   9
ATOM      9  O   UNL     1      45.151 131.726  24.482  1.00  0.00    -0.462 OA
ATOM     10  H   UNL     1      45.578 131.483  25.368  1.00  0.00     0.299 HD
ENDBRANCH   8   9
BRANCH   8  11
ATOM     11  C   UNL     1      43.632 129.737  24.624  1.00  0.00     0.240 C 
ATOM     12  N   UNL     1      44.499 128.656  24.167  1.00  0.00    -0.321 N 
ATOM     13  C   UNL     1      42.189 129.315  24.216  1.00  0.00     0.158 C 
ATOM     14  C   UNL     1      43.686 127.667  23.581  1.00  0.00     0.315 C 
ATOM     15  N   UNL     1      42.321 128.007  23.590  1.00  0.00    -0.335 N 
ATOM     16  H   UNL     1      45.533 128.599  24.298  1.00  0.00     0.166 HD
ATOM     17  O   UNL     1      44.133 126.590  23.106  1.00  0.00    -0.249 OA
ATOM     18  H   UNL     1      41.541 127.427  23.207  1.00  0.00     0.165 HD
ENDBRANCH   8  11
ENDBRANCH   1   8
BRANCH   5  19
ATOM     19  C   UNL     1      43.674 131.900  19.134  1.00  0.00     0.054 A 
ATOM     20  N   UNL     1      44.866 131.287  18.887  1.00  0.00    -0.252 NA
ATOM     21  C   UNL     1      42.805 132.176  18.066  1.00  0.00     0.025 A 
ATOM     22  C   UNL     1      45.251 130.935  17.631  1.00  0.00     0.071 A 
ATOM     23  C   UNL     1      43.172 131.826  16.766  1.00  0.00     0.012 A 
ATOM     24  C   UNL     1      46.486 130.310  17.423  1.00  0.00     0.032 A 
ATOM     25  C   UNL     1      44.403 131.200  16.533  1.00  0.00     0.003 A 
ATOM     26  C   UNL     1      46.878 129.950  16.131  1.00  0.00     0.041 A 
ATOM     27  C   UNL     1      44.802 130.835  15.240  1.00  0.00     0.049 A 
ATOM     28  C   UNL     1      46.039 130.211  15.041  1.00  0.00     0.123 A 
ATOM     29  F   UNL     1      46.426 129.858  13.790  1.00  0.00    -0.207 F 
ENDBRANCH   5  19
TORSDOF 4
ENDMDL
MODEL 8
REMARK VINA RESULT:      -5.3      3.038      4.626
REMARK SMILES O=C1NC[C@H](/C(O)=[N+]2/CCC[C@H](c3ccc4cc(F)ccc4n3)[C@@H]2F)N1
REMARK SMILES IDX 8 1 9 2 10 3 11 4 12 5 24 6 25 7 6 8 7 9 5 11 26 12 4 13
REMARK SMILES IDX 2 14 3 15 1 17 13 19 23 20 14 21 22 22 15 23 21 24 16 25
REMARK SMILES IDX 20 26 17 27 18 28 19 29
REMARK H PARENT 7 10 26 16 3 18
ROOT
ATOM      1  N   UNL     1      45.779 132.620  22.553  1.00  0.00    -0.168 N 
ATOM      2  C   UNL     1      44.652 132.215  23.421  1.00  0.00     0.357 C 
ATOM      3  C   UNL     1      44.008 130.920  22.913  1.00  0.00     0.074 C 
ATOM      4  C   UNL     1      43.524 131.025  21.455  1.00  0.00     0.026 C 
ATOM      5  C   UNL     1      44.215 132.158  20.667  1.00  0.00     0.142 C 
ATOM      6  C   UNL     1      45.684 132.340  21.101  1.00  0.00     0.454 C 
ATOM      7  F   UNL     1      46.423 131.206  20.807  1.00  0.00    -0.174 F 
ENDROOT
BRANCH   1   8
ATOM      8  C   UNL     1      46.808 133.258  23.075  1.00  0.00     0.361 C 
BRANCH   8   9
ATOM      9  O   UNL     1      46.724 133.742  24.384  1.00  0.00    -0.462 OA
ATOM     10  H   UNL     1      46.944 133.171  25.191  1.00  0.00     0.299 HD
ENDBRANCH   8   9
BRANCH   8  11
ATOM     11  C   UNL     1      48.080 133.541  22.285  1.00  0.00     0.240 C 
ATOM     12  N   UNL     1      49.255 133.441  23.145  1.00  0.00    -0.321 N 
ATOM     13  C   UNL     1      48.094 134.995  21.727  1.00  0.00     0.158 C 
ATOM     14  C   UNL     1      49.935 134.673  23.094  1.00  0.00     0.315 C 
ATOM     15  N   UNL     1      49.293 135.617  22.271  1.00  0.00    -0.335 N 
ATOM     16  H   UNL     1      49.568 132.591  23.663  1.00  0.00     0.166 HD
ATOM     17  O   UNL     1      51.006 134.903  23.714  1.00  0.00    -0.249 OA
ATOM     18  H   UNL     1      49.616 136.594  22.090  1.00  0.00     0.165 HD
ENDBRANCH   8  11
ENDBRANCH   1   8
BRANCH   5  19
ATOM     19  C   UNL     1      44.099 131.934  19.175  1.00  0.00     0.054 A 
ATOM     20  N   UNL     1      45.218 131.697  18.435  1.00  0.00    -0.252 NA
ATOM     21  C   UNL     1      42.844 131.955  18.543  1.00  0.00     0.025 A 
ATOM     22  C   UNL     1      45.166 131.485  17.093  1.00  0.00     0.071 A 
ATOM     23  C   UNL     1      42.759 131.740  17.167  1.00  0.00     0.012 A 
ATOM     24  C   UNL     1      46.342 131.250  16.372  1.00  0.00     0.032 A 
ATOM     25  C   UNL     1      43.922 131.502  16.424  1.00  0.00     0.003 A 
ATOM     26  C   UNL     1      46.284 131.032  14.992  1.00  0.00     0.041 A 
ATOM     27  C   UNL     1      43.871 131.281  15.040  1.00  0.00     0.049 A 
ATOM     28  C   UNL     1      45.053 131.047  14.328  1.00  0.00     0.123 A 
ATOM     29  F   UNL     1      45.004 130.835  12.989  1.00  0.00    -0.207 F 
ENDBRANCH   5  19
TORSDOF 4
ENDMDL
MODEL 9
REMARK VINA RESULT:      -5.2      1.256      1.441
REMARK SMILES O=C1NC[C@H](/C(O)=[N+]2/CCC[C@H](c3ccc4cc(F)ccc4n3)[C@@H]2F)N1
REMARK SMILES IDX 8 1 9 2 10 3 11 4 12 5 24 6 25 7 6 8 7 9 5 11 26 12 4 13
REMARK SMILES IDX 2 14 3 15 1 17 13 19 23 20 14 21 22 22 15 23 21 24 16 25
REMARK SMILES IDX 20 26 17 27 18 28 19 29
REMARK H PARENT 7 10 26 16 3 18
ROOT
ATOM      1  N   UNL     1      44.424 131.965  20.296  1.00  0.00    -0.168 N 
ATOM      2  C   UNL     1      43.210 132.704  19.884  1.00  0.00     0.357 C 
ATOM      3  C   UNL     1      42.459 131.950  18.780  1.00  0.00     0.074 C 
ATOM      4  C   UNL     1      43.336 131.668  17.546  1.00  0.00     0.026 C 
ATOM      5  C   UNL     1      44.847 131.720  17.851  1.00  0.00     0.142 C 
ATOM      6  C   UNL     1      45.161 131.195  19.268  1.00  0.00     0.454 C 
ATOM      7  F   UNL     1      44.827 129.855  19.375  1.00  0.00    -0.174 F 
ENDROOT
BRANCH   1   8
ATOM      8  C   UNL     1      44.846 132.048  21.542  1.00  0.00     0.361 C 
BRANCH   8   9
ATOM      9  O   UNL     1      45.991 132.797  21.831  1.00  0.00    -0.462 OA
ATOM     10  H   UNL     1      45.947 133.731  22.220  1.00  0.00     0.299 HD
ENDBRANCH   8   9
BRANCH   8  11
ATOM     11  C   UNL     1      44.163 131.310  22.686  1.00  0.00     0.240 C 
ATOM     12  N   UNL     1      42.712 131.354  22.537  1.00  0.00    -0.321 N 
ATOM     13  C   UNL     1      44.461 131.983  24.059  1.00  0.00     0.158 C 
ATOM     14  C   UNL     1      42.175 131.948  23.695  1.00  0.00     0.315 C 
ATOM     15  N   UNL     1      43.164 132.332  24.620  1.00  0.00    -0.335 N 
ATOM     16  H   UNL     1      42.163 130.965  21.739  1.00  0.00     0.166 HD
ATOM     17  O   UNL     1      40.942 132.113  23.885  1.00  0.00    -0.249 OA
ATOM     18  H   UNL     1      42.996 132.793  25.543  1.00  0.00     0.165 HD
ENDBRANCH   8  11
ENDBRANCH   1   8
BRANCH   5  19
ATOM     19  C   UNL     1      45.642 130.983  16.795  1.00  0.00     0.054 A 
ATOM     20  N   UNL     1      46.104 131.653  15.702  1.00  0.00    -0.252 NA
ATOM     21  C   UNL     1      45.920 129.613  16.934  1.00  0.00     0.025 A 
ATOM     22  C   UNL     1      46.826 131.038  14.728  1.00  0.00     0.071 A 
ATOM     23  C   UNL     1      46.660 128.954  15.950  1.00  0.00     0.012 A 
ATOM     24  C   UNL     1      47.277 131.766  13.621  1.00  0.00     0.032 A 
ATOM     25  C   UNL     1      47.122 129.661  14.834  1.00  0.00     0.003 A 
ATOM     26  C   UNL     1      48.019 131.130  12.622  1.00  0.00     0.041 A 
ATOM     27  C   UNL     1      47.869 129.030  13.828  1.00  0.00     0.049 A 
ATOM     28  C   UNL     1      48.315 129.766  12.724  1.00  0.00     0.123 A 
ATOM     29  F   UNL     1      49.036 129.155  11.752  1.00  0.00    -0.207 F 
ENDBRANCH   5  19
TORSDOF 4
ENDMDL


