REMARK SMILES C=Cc1cccc(-c2ccc3c(c2)[C@H](N=[N+]=[N-])CC3)c1
REMARK SMILES IDX 8 1 9 2 10 3 11 4 12 5 13 6 14 7 18 8 19 9 7 10 3 11 4 12
REMARK SMILES IDX 20 13 5 14 6 15 2 16 1 17 15 18 16 19 17 20
REMARK H PARENT
ROOT
ATOM      1  C   UNL     1       0.304  -1.030   0.199  1.00  0.00    -0.018 A 
ATOM      2  C   UNL     1      -0.171  -2.353   0.356  1.00  0.00     0.009 A 
ATOM      3  C   UNL     1      -1.541  -2.637   0.252  1.00  0.00     0.004 A 
ATOM      4  C   UNL     1      -2.427  -1.592  -0.011  1.00  0.00    -0.044 A 
ATOM      5  C   UNL     1      -1.980  -0.305  -0.161  1.00  0.00    -0.035 A 
ATOM      6  C   UNL     1      -0.621   0.004  -0.064  1.00  0.00     0.013 A 
ATOM      7  C   UNL     1      -3.087   0.642  -0.436  1.00  0.00     0.104 C 
ATOM      8  C   UNL     1      -4.342  -0.262  -0.502  1.00  0.00     0.019 C 
ATOM      9  C   UNL     1      -3.896  -1.697  -0.159  1.00  0.00     0.036 C 
ENDROOT
BRANCH   1  10
ATOM     10  C   UNL     1       1.755  -0.731   0.309  1.00  0.00    -0.018 A 
ATOM     11  C   UNL     1       4.084  -1.329  -0.151  1.00  0.00    -0.026 A 
ATOM     12  C   UNL     1       4.500  -0.160   0.515  1.00  0.00     0.008 A 
ATOM     13  C   UNL     1       2.708  -1.598  -0.257  1.00  0.00     0.016 A 
ATOM     14  C   UNL     1       3.558   0.704   1.078  1.00  0.00     0.001 A 
ATOM     15  C   UNL     1       2.196   0.422   0.979  1.00  0.00     0.009 A 
BRANCH  11  16
ATOM     16  C   UNL     1       5.040  -2.275  -0.779  1.00  0.00     0.000 C 
ATOM     17  C   UNL     1       6.342  -2.326  -0.493  1.00  0.00     0.009 C 
ENDBRANCH  11  16
ENDBRANCH   1  10
BRANCH   7  18
ATOM     18  N   UNL     1      -3.187   1.615   0.646  1.00  0.00    -0.086 NA
BRANCH  18  19
ATOM     19  N   UNL     1      -3.992   2.545   0.589  1.00  0.00     0.002 N 
ATOM     20  N   UNL     1      -4.796   3.473   0.532  1.00  0.00    -0.003 NA
ENDBRANCH  18  19
ENDBRANCH   7  18
TORSDOF 4


