REMARK SMILES Fc1c[nH]/c(=N\c2cnc3[nH]ccc3c2)c(N=C=S)c1
REMARK SMILES IDX 5 1 16 2 20 3 2 4 1 5 3 6 4 7 6 9 7 10 8 11 9 12 10 13 15 14
REMARK SMILES IDX 14 15 11 16 13 17 12 18 17 20 18 21 19 22
REMARK H PARENT 4 8 11 19
ROOT
ATOM      1  C   UNL     1       0.919   0.981  -1.578  1.00  0.00     0.157 A 
ATOM      2  C   UNL     1       0.998   1.004  -2.984  1.00  0.00     0.120 A 
ATOM      3  C   UNL     1       1.770   2.005  -3.603  1.00  0.00     0.074 A 
ATOM      4  C   UNL     1       2.450   2.942  -2.830  1.00  0.00     0.141 A 
ATOM      5  F   UNL     1       3.197   3.906  -3.422  1.00  0.00    -0.205 F 
ATOM      6  C   UNL     1       2.367   2.872  -1.441  1.00  0.00     0.123 A 
ATOM      7  N   UNL     1       1.621   1.903  -0.845  1.00  0.00    -0.342 N 
ATOM      8  H   UNL     1       1.635   1.871   0.197  1.00  0.00     0.168 HD
ENDROOT
BRANCH   1   9
ATOM      9  N   UNL     1       0.204   0.050  -1.006  1.00  0.00    -0.227 NA
BRANCH   9  10
ATOM     10  C   UNL     1      -0.089  -0.087   0.392  1.00  0.00     0.085 A 
ATOM     11  C   UNL     1      -0.625   0.995   1.142  1.00  0.00     0.142 A 
ATOM     12  N   UNL     1      -0.959   0.833   2.458  1.00  0.00    -0.236 NA
ATOM     13  C   UNL     1      -0.787  -0.382   3.035  1.00  0.00     0.137 A 
ATOM     14  C   UNL     1       0.046  -1.348   1.003  1.00  0.00     0.042 A 
ATOM     15  C   UNL     1      -0.305  -1.454   2.344  1.00  0.00     0.021 A 
ATOM     16  N   UNL     1      -1.072  -0.704   4.305  1.00  0.00    -0.346 N 
ATOM     17  C   UNL     1      -0.278  -2.521   3.215  1.00  0.00     0.030 A 
ATOM     18  C   UNL     1      -0.760  -2.016   4.421  1.00  0.00     0.085 A 
ATOM     19  H   UNL     1      -1.456  -0.078   5.047  1.00  0.00     0.167 HD
ENDBRANCH   9  10
ENDBRANCH   1   9
BRANCH   2  20
ATOM     20  N   UNL     1       0.282   0.018  -3.749  1.00  0.00    -0.191 NA
BRANCH  20  21
ATOM     21  C   UNL     1       0.290  -0.041  -5.021  1.00  0.00     0.064 C 
ATOM     22  S   UNL     1       0.300  -0.117  -6.630  1.00  0.00    -0.006 S 
ENDBRANCH  20  21
ENDBRANCH   2  20
TORSDOF 4


