REMARK SMILES Cc1ccc([NH2+]c2ccc([C@@H]3O[C@H]3c3ccccc3)c(N)c2[O-])cc1F
REMARK SMILES IDX 7 1 8 2 9 3 10 4 20 5 22 6 23 7 6 8 5 11 2 12 3 13 25 14
REMARK SMILES IDX 4 15 24 16 1 17 26 18 21 19 11 22 12 23 13 24 14 25 15 26
REMARK SMILES IDX 19 27 16 28 18 29 17 30
REMARK H PARENT 6 9 6 10 21 20 21 21
ROOT
ATOM      1  C   UNL     1      -0.030   0.525  -2.290  1.00  0.00     0.128 A 
ATOM      2  C   UNL     1      -0.930   1.289  -1.531  1.00  0.00     0.068 A 
ATOM      3  C   UNL     1      -1.583   0.733  -0.433  1.00  0.00     0.015 A 
ATOM      4  C   UNL     1      -1.343  -0.597  -0.054  1.00  0.00     0.007 A 
ATOM      5  C   UNL     1      -0.464  -1.390  -0.828  1.00  0.00     0.035 A 
ATOM      6  C   UNL     1       0.198  -0.820  -1.934  1.00  0.00    -0.021 A 
ATOM      7  O   UNL     1       1.077  -1.593  -2.685  1.00  0.00    -0.867 OA
ENDROOT
BRANCH   1   8
ATOM      8  N   UNL     1       0.668   1.129  -3.401  1.00  0.00    -0.282 N 
ATOM      9  H   UNL     1       0.089   1.897  -3.818  1.00  0.00     0.358 HD
ATOM     10  H   UNL     1       0.817   0.427  -4.163  1.00  0.00     0.358 HD
BRANCH   8  11
ATOM     11  C   UNL     1       1.929   1.667  -2.953  1.00  0.00     0.137 A 
ATOM     12  C   UNL     1       4.384   2.702  -2.030  1.00  0.00    -0.015 A 
ATOM     13  C   UNL     1       3.202   3.444  -1.882  1.00  0.00     0.012 A 
ATOM     14  C   UNL     1       4.332   1.437  -2.638  1.00  0.00     0.132 A 
ATOM     15  C   UNL     1       1.985   2.931  -2.339  1.00  0.00     0.068 A 
ATOM     16  C   UNL     1       3.114   0.925  -3.095  1.00  0.00     0.107 A 
ATOM     17  C   UNL     1       5.693   3.245  -1.533  1.00  0.00     0.047 C 
ATOM     18  F   UNL     1       5.462   0.699  -2.786  1.00  0.00    -0.206 F 
ENDBRANCH   8  11
ENDBRANCH   1   8
BRANCH   5  19
ATOM     19  N   UNL     1      -0.250  -2.774  -0.512  1.00  0.00    -0.399 N 
ATOM     20  H   UNL     1       0.440  -3.351  -1.042  1.00  0.00     0.156 HD
ATOM     21  H   UNL     1      -0.813  -3.263   0.215  1.00  0.00     0.156 HD
ENDBRANCH   5  19
BRANCH   4  22
ATOM     22  C   UNL     1      -2.060  -1.169   1.144  1.00  0.00     0.185 C 
ATOM     23  O   UNL     1      -2.235  -0.206   2.159  1.00  0.00    -0.359 OA
ATOM     24  C   UNL     1      -1.277  -1.209   2.408  1.00  0.00     0.183 C 
BRANCH  24  25
ATOM     25  C   UNL     1      -1.758  -2.164   3.463  1.00  0.00    -0.016 A 
ATOM     26  C   UNL     1      -1.564  -3.545   3.306  1.00  0.00     0.006 A 
ATOM     27  C   UNL     1      -2.349  -1.681   4.644  1.00  0.00     0.006 A 
ATOM     28  C   UNL     1      -1.987  -4.434   4.300  1.00  0.00     0.000 A 
ATOM     29  C   UNL     1      -2.768  -2.573   5.637  1.00  0.00     0.000 A 
ATOM     30  C   UNL     1      -2.591  -3.948   5.463  1.00  0.00     0.000 A 
ENDBRANCH  24  25
ENDBRANCH   4  22
TORSDOF 5


