MODEL 1
REMARK VINA RESULT:      -4.2      0.000      0.000
REMARK SMILES Cc1ccc(-c2ccc(OC(=O)[C@H]3CCC3(C)C)cc2)c2c[n-]nc12
REMARK SMILES IDX 10 1 9 2 6 3 7 4 20 5 8 6 19 7 5 8 2 9 3 10 25 11 4 12 24 13
REMARK SMILES IDX 21 14 23 15 22 16 1 17 11 18 12 19 13 20 14 21 16 22 15 23
REMARK SMILES IDX 17 24 18 25
REMARK H PARENT
ROOT
ATOM      1  O   UNL     1      48.220 124.403  22.531  1.00  0.00    -0.426 OA
ENDROOT
BRANCH   1   2
ATOM      2  C   UNL     1      46.914 124.793  22.858  1.00  0.00     0.130 A 
ATOM      3  C   UNL     1      44.294 125.652  23.448  1.00  0.00    -0.018 A 
ATOM      4  C   UNL     1      44.699 124.342  23.757  1.00  0.00     0.012 A 
ATOM      5  C   UNL     1      45.204 126.517  22.818  1.00  0.00     0.012 A 
ATOM      6  C   UNL     1      45.997 123.915  23.464  1.00  0.00     0.048 A 
ATOM      7  C   UNL     1      46.501 126.088  22.525  1.00  0.00     0.048 A 
BRANCH   3   8
ATOM      8  C   UNL     1      42.913 126.098  23.748  1.00  0.00    -0.011 A 
ATOM      9  C   UNL     1      40.254 126.952  24.351  1.00  0.00    -0.027 A 
ATOM     10  C   UNL     1      41.328 127.867  24.378  1.00  0.00     0.006 A 
ATOM     11  C   UNL     1      40.546 125.634  23.993  1.00  0.00     0.050 A 
ATOM     12  C   UNL     1      42.643 127.444  24.084  1.00  0.00     0.010 A 
ATOM     13  N   UNL     1      39.685 124.611  23.845  1.00  0.00    -0.367 NA
ATOM     14  C   UNL     1      41.819 125.223  23.709  1.00  0.00    -0.014 A 
ATOM     15  N   UNL     1      40.390 123.550  23.465  1.00  0.00    -0.581 NA
ATOM     16  C   UNL     1      41.695 123.894  23.369  1.00  0.00    -0.113 A 
ATOM     17  C   UNL     1      38.848 127.400  24.616  1.00  0.00     0.046 C 
ENDBRANCH   3   8
ENDBRANCH   1   2
BRANCH   1  18
ATOM     18  C   UNL     1      49.363 124.698  23.285  1.00  0.00     0.314 C 
ATOM     19  O   UNL     1      49.400 124.440  24.520  1.00  0.00    -0.251 OA
BRANCH  18  20
ATOM     20  C   UNL     1      50.496 125.440  22.618  1.00  0.00     0.105 C 
ATOM     21  C   UNL     1      50.956 126.719  23.329  1.00  0.00     0.016 C 
ATOM     22  C   UNL     1      51.910 124.840  22.810  1.00  0.00    -0.022 C 
ATOM     23  C   UNL     1      52.361 126.147  23.478  1.00  0.00     0.008 C 
ATOM     24  C   UNL     1      52.627 124.576  21.475  1.00  0.00     0.012 C 
ATOM     25  C   UNL     1      52.024 123.633  23.764  1.00  0.00     0.012 C 
ENDBRANCH  18  20
ENDBRANCH   1  18
TORSDOF 4
ENDMDL
MODEL 2
REMARK VINA RESULT:      -3.9      4.004      4.978
REMARK SMILES Cc1ccc(-c2ccc(OC(=O)[C@H]3CCC3(C)C)cc2)c2c[n-]nc12
REMARK SMILES IDX 10 1 9 2 6 3 7 4 20 5 8 6 19 7 5 8 2 9 3 10 25 11 4 12 24 13
REMARK SMILES IDX 21 14 23 15 22 16 1 17 11 18 12 19 13 20 14 21 16 22 15 23
REMARK SMILES IDX 17 24 18 25
REMARK H PARENT
ROOT
ATOM      1  O   UNL     1      46.926 124.700  23.642  1.00  0.00    -0.426 OA
ENDROOT
BRANCH   1   2
ATOM      2  C   UNL     1      46.236 125.852  23.240  1.00  0.00     0.130 A 
ATOM      3  C   UNL     1      44.856 128.204  22.526  1.00  0.00    -0.018 A 
ATOM      4  C   UNL     1      45.488 127.425  21.542  1.00  0.00     0.012 A 
ATOM      5  C   UNL     1      44.944 127.809  23.870  1.00  0.00     0.012 A 
ATOM      6  C   UNL     1      46.174 126.259  21.895  1.00  0.00     0.048 A 
ATOM      7  C   UNL     1      45.630 126.643  24.222  1.00  0.00     0.048 A 
BRANCH   3   8
ATOM      8  C   UNL     1      44.141 129.446  22.149  1.00  0.00    -0.011 A 
ATOM      9  C   UNL     1      42.748 131.829  21.407  1.00  0.00    -0.027 A 
ATOM     10  C   UNL     1      42.266 131.006  22.448  1.00  0.00     0.006 A 
ATOM     11  C   UNL     1      43.938 131.441  20.785  1.00  0.00     0.050 A 
ATOM     12  C   UNL     1      42.952 129.828  22.812  1.00  0.00     0.010 A 
ATOM     13  N   UNL     1      44.610 132.090  19.818  1.00  0.00    -0.367 NA
ATOM     14  C   UNL     1      44.602 130.298  21.137  1.00  0.00    -0.014 A 
ATOM     15  N   UNL     1      45.701 131.379  19.548  1.00  0.00    -0.581 NA
ATOM     16  C   UNL     1      45.725 130.283  20.340  1.00  0.00    -0.113 A 
ATOM     17  C   UNL     1      42.054 133.107  21.044  1.00  0.00     0.046 C 
ENDBRANCH   3   8
ENDBRANCH   1   2
BRANCH   1  18
ATOM     18  C   UNL     1      48.294 124.639  23.937  1.00  0.00     0.314 C 
ATOM     19  O   UNL     1      48.889 125.643  24.419  1.00  0.00    -0.251 OA
BRANCH  18  20
ATOM     20  C   UNL     1      49.062 123.397  23.555  1.00  0.00     0.105 C 
ATOM     21  C   UNL     1      48.288 122.377  22.711  1.00  0.00     0.016 C 
ATOM     22  C   UNL     1      50.085 123.555  22.405  1.00  0.00    -0.022 C 
ATOM     23  C   UNL     1      49.321 122.498  21.596  1.00  0.00     0.008 C 
ATOM     24  C   UNL     1      51.498 123.094  22.802  1.00  0.00     0.012 C 
ATOM     25  C   UNL     1      50.114 124.922  21.690  1.00  0.00     0.012 C 
ENDBRANCH  18  20
ENDBRANCH   1  18
TORSDOF 4
ENDMDL
MODEL 3
REMARK VINA RESULT:      -3.8      7.888     10.456
REMARK SMILES Cc1ccc(-c2ccc(OC(=O)[C@H]3CCC3(C)C)cc2)c2c[n-]nc12
REMARK SMILES IDX 10 1 9 2 6 3 7 4 20 5 8 6 19 7 5 8 2 9 3 10 25 11 4 12 24 13
REMARK SMILES IDX 21 14 23 15 22 16 1 17 11 18 12 19 13 20 14 21 16 22 15 23
REMARK SMILES IDX 17 24 18 25
REMARK H PARENT
ROOT
ATOM      1  O   UNL     1      42.334 132.386  21.019  1.00  0.00    -0.426 OA
ENDROOT
BRANCH   1   2
ATOM      2  C   UNL     1      43.138 131.908  19.975  1.00  0.00     0.130 A 
ATOM      3  C   UNL     1      44.687 130.980  17.810  1.00  0.00    -0.018 A 
ATOM      4  C   UNL     1      45.283 131.217  19.059  1.00  0.00     0.012 A 
ATOM      5  C   UNL     1      43.316 131.236  17.648  1.00  0.00     0.012 A 
ATOM      6  C   UNL     1      44.517 131.679  20.134  1.00  0.00     0.048 A 
ATOM      7  C   UNL     1      42.551 131.697  18.723  1.00  0.00     0.048 A 
BRANCH   3   8
ATOM      8  C   UNL     1      45.505 130.503  16.670  1.00  0.00    -0.011 A 
ATOM      9  C   UNL     1      47.104 129.585  14.486  1.00  0.00    -0.027 A 
ATOM     10  C   UNL     1      46.499 128.668  15.373  1.00  0.00     0.006 A 
ATOM     11  C   UNL     1      46.863 130.943  14.709  1.00  0.00     0.050 A 
ATOM     12  C   UNL     1      45.712 129.122  16.454  1.00  0.00     0.010 A 
ATOM     13  N   UNL     1      47.282 131.985  13.970  1.00  0.00    -0.367 NA
ATOM     14  C   UNL     1      46.102 131.383  15.757  1.00  0.00    -0.014 A 
ATOM     15  N   UNL     1      46.796 133.089  14.528  1.00  0.00    -0.581 NA
ATOM     16  C   UNL     1      46.068 132.753  15.618  1.00  0.00    -0.113 A 
ATOM     17  C   UNL     1      47.902 129.113  13.308  1.00  0.00     0.046 C 
ENDBRANCH   3   8
ENDBRANCH   1   2
BRANCH   1  18
ATOM     18  C   UNL     1      42.512 132.088  22.376  1.00  0.00     0.314 C 
ATOM     19  O   UNL     1      41.651 132.445  23.228  1.00  0.00    -0.251 OA
BRANCH  18  20
ATOM     20  C   UNL     1      43.806 131.444  22.811  1.00  0.00     0.105 C 
ATOM     21  C   UNL     1      44.277 131.802  24.226  1.00  0.00     0.016 C 
ATOM     22  C   UNL     1      43.721 129.957  23.229  1.00  0.00    -0.022 C 
ATOM     23  C   UNL     1      44.237 130.331  24.625  1.00  0.00     0.008 C 
ATOM     24  C   UNL     1      44.703 129.066  22.449  1.00  0.00     0.012 C 
ATOM     25  C   UNL     1      42.310 129.334  23.281  1.00  0.00     0.012 C 
ENDBRANCH  18  20
ENDBRANCH   1  18
TORSDOF 4
ENDMDL
MODEL 4
REMARK VINA RESULT:      -3.6      7.825     10.307
REMARK SMILES Cc1ccc(-c2ccc(OC(=O)[C@H]3CCC3(C)C)cc2)c2c[n-]nc12
REMARK SMILES IDX 10 1 9 2 6 3 7 4 20 5 8 6 19 7 5 8 2 9 3 10 25 11 4 12 24 13
REMARK SMILES IDX 21 14 23 15 22 16 1 17 11 18 12 19 13 20 14 21 16 22 15 23
REMARK SMILES IDX 17 24 18 25
REMARK H PARENT
ROOT
ATOM      1  O   UNL     1      42.400 132.258  20.911  1.00  0.00    -0.426 OA
ENDROOT
BRANCH   1   2
ATOM      2  C   UNL     1      43.188 132.038  19.773  1.00  0.00     0.130 A 
ATOM      3  C   UNL     1      44.706 131.647  17.429  1.00  0.00    -0.018 A 
ATOM      4  C   UNL     1      45.305 131.517  18.693  1.00  0.00     0.012 A 
ATOM      5  C   UNL     1      43.349 131.999  17.350  1.00  0.00     0.012 A 
ATOM      6  C   UNL     1      44.554 131.712  19.856  1.00  0.00     0.048 A 
ATOM      7  C   UNL     1      42.599 132.193  18.513  1.00  0.00     0.048 A 
BRANCH   3   8
ATOM      8  C   UNL     1      45.508 131.452  16.198  1.00  0.00    -0.011 A 
ATOM      9  C   UNL     1      47.034 131.078  13.811  1.00  0.00    -0.027 A 
ATOM     10  C   UNL     1      46.780 132.374  14.309  1.00  0.00     0.006 A 
ATOM     11  C   UNL     1      46.534 130.002  14.547  1.00  0.00     0.050 A 
ATOM     12  C   UNL     1      46.023 132.559  15.486  1.00  0.00     0.010 A 
ATOM     13  N   UNL     1      46.697 128.690  14.302  1.00  0.00    -0.367 NA
ATOM     14  C   UNL     1      45.799 130.180  15.687  1.00  0.00    -0.014 A 
ATOM     15  N   UNL     1      46.080 128.024  15.273  1.00  0.00    -0.581 NA
ATOM     16  C   UNL     1      45.527 128.907  16.136  1.00  0.00    -0.113 A 
ATOM     17  C   UNL     1      47.876 130.869  12.589  1.00  0.00     0.046 C 
ENDBRANCH   3   8
ENDBRANCH   1   2
BRANCH   1  18
ATOM     18  C   UNL     1      42.482 131.527  22.103  1.00  0.00     0.314 C 
ATOM     19  O   UNL     1      41.452 131.332  22.806  1.00  0.00    -0.251 OA
BRANCH  18  20
ATOM     20  C   UNL     1      43.841 131.083  22.587  1.00  0.00     0.105 C 
ATOM     21  C   UNL     1      44.510 132.009  23.611  1.00  0.00     0.016 C 
ATOM     22  C   UNL     1      43.854 129.941  23.631  1.00  0.00    -0.022 C 
ATOM     23  C   UNL     1      44.564 130.871  24.624  1.00  0.00     0.008 C 
ATOM     24  C   UNL     1      44.729 128.752  23.198  1.00  0.00     0.012 C 
ATOM     25  C   UNL     1      42.481 129.472  24.158  1.00  0.00     0.012 C 
ENDBRANCH  18  20
ENDBRANCH   1  18
TORSDOF 4
ENDMDL
MODEL 5
REMARK VINA RESULT:      -3.5      1.347      1.777
REMARK SMILES Cc1ccc(-c2ccc(OC(=O)[C@H]3CCC3(C)C)cc2)c2c[n-]nc12
REMARK SMILES IDX 10 1 9 2 6 3 7 4 20 5 8 6 19 7 5 8 2 9 3 10 25 11 4 12 24 13
REMARK SMILES IDX 21 14 23 15 22 16 1 17 11 18 12 19 13 20 14 21 16 22 15 23
REMARK SMILES IDX 17 24 18 25
REMARK H PARENT
ROOT
ATOM      1  O   UNL     1      48.849 124.326  22.984  1.00  0.00    -0.426 OA
ENDROOT
BRANCH   1   2
ATOM      2  C   UNL     1      47.595 124.915  23.196  1.00  0.00     0.130 A 
ATOM      3  C   UNL     1      45.117 126.170  23.677  1.00  0.00    -0.018 A 
ATOM      4  C   UNL     1      45.270 125.295  22.589  1.00  0.00     0.012 A 
ATOM      5  C   UNL     1      46.221 126.431  24.504  1.00  0.00     0.012 A 
ATOM      6  C   UNL     1      46.499 124.672  22.348  1.00  0.00     0.048 A 
ATOM      7  C   UNL     1      47.449 125.808  24.262  1.00  0.00     0.048 A 
BRANCH   3   8
ATOM      8  C   UNL     1      43.817 126.838  23.921  1.00  0.00    -0.011 A 
ATOM      9  C   UNL     1      41.312 128.122  24.417  1.00  0.00    -0.027 A 
ATOM     10  C   UNL     1      42.516 128.859  24.431  1.00  0.00     0.006 A 
ATOM     11  C   UNL     1      41.402 126.759  24.126  1.00  0.00     0.050 A 
ATOM     12  C   UNL     1      43.753 128.225  24.189  1.00  0.00     0.010 A 
ATOM     13  N   UNL     1      40.395 125.876  24.002  1.00  0.00    -0.367 NA
ATOM     14  C   UNL     1      42.601 126.143  23.893  1.00  0.00    -0.014 A 
ATOM     15  N   UNL     1      40.933 124.701  23.688  1.00  0.00    -0.581 NA
ATOM     16  C   UNL     1      42.277 124.834  23.610  1.00  0.00    -0.113 A 
ATOM     17  C   UNL     1      39.989 128.794  24.625  1.00  0.00     0.046 C 
ENDBRANCH   3   8
ENDBRANCH   1   2
BRANCH   1  18
ATOM     18  C   UNL     1      49.949 124.961  22.393  1.00  0.00     0.314 C 
ATOM     19  O   UNL     1      50.123 126.203  22.534  1.00  0.00    -0.251 OA
BRANCH  18  20
ATOM     20  C   UNL     1      50.850 124.154  21.490  1.00  0.00     0.105 C 
ATOM     21  C   UNL     1      51.275 124.850  20.190  1.00  0.00     0.016 C 
ATOM     22  C   UNL     1      52.336 124.064  21.912  1.00  0.00    -0.022 C 
ATOM     23  C   UNL     1      52.741 124.721  20.585  1.00  0.00     0.008 C 
ATOM     24  C   UNL     1      52.830 122.612  22.033  1.00  0.00     0.012 C 
ATOM     25  C   UNL     1      52.760 124.911  23.130  1.00  0.00     0.012 C 
ENDBRANCH  18  20
ENDBRANCH   1  18
TORSDOF 4
ENDMDL
MODEL 6
REMARK VINA RESULT:      -3.3      1.938      3.037
REMARK SMILES Cc1ccc(-c2ccc(OC(=O)[C@H]3CCC3(C)C)cc2)c2c[n-]nc12
REMARK SMILES IDX 10 1 9 2 6 3 7 4 20 5 8 6 19 7 5 8 2 9 3 10 25 11 4 12 24 13
REMARK SMILES IDX 21 14 23 15 22 16 1 17 11 18 12 19 13 20 14 21 16 22 15 23
REMARK SMILES IDX 17 24 18 25
REMARK H PARENT
ROOT
ATOM      1  O   UNL     1      49.947 123.546  22.492  1.00  0.00    -0.426 OA
ENDROOT
BRANCH   1   2
ATOM      2  C   UNL     1      48.546 123.532  22.516  1.00  0.00     0.130 A 
ATOM      3  C   UNL     1      45.730 123.564  22.643  1.00  0.00    -0.018 A 
ATOM      4  C   UNL     1      46.382 123.228  21.446  1.00  0.00     0.012 A 
ATOM      5  C   UNL     1      46.498 123.908  23.767  1.00  0.00     0.012 A 
ATOM      6  C   UNL     1      47.779 123.213  21.380  1.00  0.00     0.048 A 
ATOM      7  C   UNL     1      47.894 123.893  23.700  1.00  0.00     0.048 A 
BRANCH   3   8
ATOM      8  C   UNL     1      44.249 123.591  22.705  1.00  0.00    -0.011 A 
ATOM      9  C   UNL     1      41.394 123.650  22.799  1.00  0.00    -0.027 A 
ATOM     10  C   UNL     1      42.080 122.455  22.496  1.00  0.00     0.006 A 
ATOM     11  C   UNL     1      42.168 124.780  23.074  1.00  0.00     0.050 A 
ATOM     12  C   UNL     1      43.491 122.427  22.446  1.00  0.00     0.010 A 
ATOM     13  N   UNL     1      41.740 126.002  23.440  1.00  0.00    -0.367 NA
ATOM     14  C   UNL     1      43.534 124.753  23.025  1.00  0.00    -0.014 A 
ATOM     15  N   UNL     1      42.817 126.759  23.629  1.00  0.00    -0.581 NA
ATOM     16  C   UNL     1      43.926 126.023  23.388  1.00  0.00    -0.113 A 
ATOM     17  C   UNL     1      39.898 123.680  22.902  1.00  0.00     0.046 C 
ENDBRANCH   3   8
ENDBRANCH   1   2
BRANCH   1  18
ATOM     18  C   UNL     1      50.737 124.626  22.079  1.00  0.00     0.314 C 
ATOM     19  O   UNL     1      50.321 125.419  21.190  1.00  0.00    -0.251 OA
BRANCH  18  20
ATOM     20  C   UNL     1      52.137 124.750  22.629  1.00  0.00     0.105 C 
ATOM     21  C   UNL     1      52.454 126.074  23.335  1.00  0.00     0.016 C 
ATOM     22  C   UNL     1      52.421 123.993  23.949  1.00  0.00    -0.022 C 
ATOM     23  C   UNL     1      52.777 125.326  24.623  1.00  0.00     0.008 C 
ATOM     24  C   UNL     1      53.624 123.041  23.839  1.00  0.00     0.012 C 
ATOM     25  C   UNL     1      51.215 123.307  24.624  1.00  0.00     0.012 C 
ENDBRANCH  18  20
ENDBRANCH   1  18
TORSDOF 4
ENDMDL
MODEL 7
REMARK VINA RESULT:      -3.3      1.805      2.824
REMARK SMILES Cc1ccc(-c2ccc(OC(=O)[C@H]3CCC3(C)C)cc2)c2c[n-]nc12
REMARK SMILES IDX 10 1 9 2 6 3 7 4 20 5 8 6 19 7 5 8 2 9 3 10 25 11 4 12 24 13
REMARK SMILES IDX 21 14 23 15 22 16 1 17 11 18 12 19 13 20 14 21 16 22 15 23
REMARK SMILES IDX 17 24 18 25
REMARK H PARENT
ROOT
ATOM      1  O   UNL     1      50.729 123.891  24.069  1.00  0.00    -0.426 OA
ENDROOT
BRANCH   1   2
ATOM      2  C   UNL     1      49.360 124.190  24.050  1.00  0.00     0.130 A 
ATOM      3  C   UNL     1      46.628 124.886  23.985  1.00  0.00    -0.018 A 
ATOM      4  C   UNL     1      47.021 123.542  23.870  1.00  0.00     0.012 A 
ATOM      5  C   UNL     1      47.614 125.878  24.106  1.00  0.00     0.012 A 
ATOM      6  C   UNL     1      48.376 123.196  23.901  1.00  0.00     0.048 A 
ATOM      7  C   UNL     1      48.967 125.530  24.136  1.00  0.00     0.048 A 
BRANCH   3   8
ATOM      8  C   UNL     1      45.193 125.250  23.939  1.00  0.00    -0.011 A 
ATOM      9  C   UNL     1      42.425 125.960  23.875  1.00  0.00    -0.027 A 
ATOM     10  C   UNL     1      43.421 126.914  23.577  1.00  0.00     0.006 A 
ATOM     11  C   UNL     1      42.851 124.663  24.172  1.00  0.00     0.050 A 
ATOM     12  C   UNL     1      44.788 126.565  23.612  1.00  0.00     0.010 A 
ATOM     13  N   UNL     1      42.089 123.585  24.428  1.00  0.00    -0.367 NA
ATOM     14  C   UNL     1      44.175 124.324  24.207  1.00  0.00    -0.014 A 
ATOM     15  N   UNL     1      42.909 122.557  24.624  1.00  0.00    -0.581 NA
ATOM     16  C   UNL     1      44.188 122.976  24.491  1.00  0.00    -0.113 A 
ATOM     17  C   UNL     1      40.969 126.308  23.795  1.00  0.00     0.046 C 
ENDBRANCH   3   8
ENDBRANCH   1   2
BRANCH   1  18
ATOM     18  C   UNL     1      51.570 123.887  22.950  1.00  0.00     0.314 C 
ATOM     19  O   UNL     1      52.823 123.833  23.091  1.00  0.00    -0.251 OA
BRANCH  18  20
ATOM     20  C   UNL     1      50.956 124.071  21.583  1.00  0.00     0.105 C 
ATOM     21  C   UNL     1      51.376 125.344  20.837  1.00  0.00     0.016 C 
ATOM     22  C   UNL     1      51.561 123.218  20.443  1.00  0.00    -0.022 C 
ATOM     23  C   UNL     1      51.931 124.505  19.692  1.00  0.00     0.008 C 
ATOM     24  C   UNL     1      50.503 122.382  19.703  1.00  0.00     0.012 C 
ATOM     25  C   UNL     1      52.805 122.376  20.796  1.00  0.00     0.012 C 
ENDBRANCH  18  20
ENDBRANCH   1  18
TORSDOF 4
ENDMDL
MODEL 8
REMARK VINA RESULT:      -2.9      7.900     10.507
REMARK SMILES Cc1ccc(-c2ccc(OC(=O)[C@H]3CCC3(C)C)cc2)c2c[n-]nc12
REMARK SMILES IDX 10 1 9 2 6 3 7 4 20 5 8 6 19 7 5 8 2 9 3 10 25 11 4 12 24 13
REMARK SMILES IDX 21 14 23 15 22 16 1 17 11 18 12 19 13 20 14 21 16 22 15 23
REMARK SMILES IDX 17 24 18 25
REMARK H PARENT
ROOT
ATOM      1  O   UNL     1      41.907 132.357  20.737  1.00  0.00    -0.426 OA
ENDROOT
BRANCH   1   2
ATOM      2  C   UNL     1      42.726 132.194  19.611  1.00  0.00     0.130 A 
ATOM      3  C   UNL     1      44.443 131.823  17.406  1.00  0.00    -0.018 A 
ATOM      4  C   UNL     1      43.066 132.021  17.208  1.00  0.00     0.012 A 
ATOM      5  C   UNL     1      44.946 131.787  18.716  1.00  0.00     0.012 A 
ATOM      6  C   UNL     1      42.213 132.204  18.301  1.00  0.00     0.048 A 
ATOM      7  C   UNL     1      44.093 131.970  19.807  1.00  0.00     0.048 A 
BRANCH   3   8
ATOM      8  C   UNL     1      45.341 131.617  16.246  1.00  0.00    -0.011 A 
ATOM      9  C   UNL     1      47.055 131.220  13.993  1.00  0.00    -0.027 A 
ATOM     10  C   UNL     1      46.787 132.519  14.476  1.00  0.00     0.006 A 
ATOM     11  C   UNL     1      46.472 130.152  14.678  1.00  0.00     0.050 A 
ATOM     12  C   UNL     1      45.938 132.716  15.586  1.00  0.00     0.010 A 
ATOM     13  N   UNL     1      46.627 128.837  14.439  1.00  0.00    -0.367 NA
ATOM     14  C   UNL     1      45.648 130.341  15.753  1.00  0.00    -0.014 A 
ATOM     15  N   UNL     1      45.916 128.181  15.350  1.00  0.00    -0.581 NA
ATOM     16  C   UNL     1      45.311 129.072  16.169  1.00  0.00    -0.113 A 
ATOM     17  C   UNL     1      47.992 130.998  12.845  1.00  0.00     0.046 C 
ENDBRANCH   3   8
ENDBRANCH   1   2
BRANCH   1  18
ATOM     18  C   UNL     1      42.264 132.027  22.050  1.00  0.00     0.314 C 
ATOM     19  O   UNL     1      42.407 132.929  22.921  1.00  0.00    -0.251 OA
BRANCH  18  20
ATOM     20  C   UNL     1      42.593 130.588  22.369  1.00  0.00     0.105 C 
ATOM     21  C   UNL     1      43.689 129.955  21.504  1.00  0.00     0.016 C 
ATOM     22  C   UNL     1      43.465 130.351  23.626  1.00  0.00    -0.022 C 
ATOM     23  C   UNL     1      44.529 129.680  22.746  1.00  0.00     0.008 C 
ATOM     24  C   UNL     1      42.815 129.377  24.623  1.00  0.00     0.012 C 
ATOM     25  C   UNL     1      44.011 131.609  24.335  1.00  0.00     0.012 C 
ENDBRANCH  18  20
ENDBRANCH   1  18
TORSDOF 4
ENDMDL
MODEL 9
REMARK VINA RESULT:      -2.6      3.541      4.426
REMARK SMILES Cc1ccc(-c2ccc(OC(=O)[C@H]3CCC3(C)C)cc2)c2c[n-]nc12
REMARK SMILES IDX 10 1 9 2 6 3 7 4 20 5 8 6 19 7 5 8 2 9 3 10 25 11 4 12 24 13
REMARK SMILES IDX 21 14 23 15 22 16 1 17 11 18 12 19 13 20 14 21 16 22 15 23
REMARK SMILES IDX 17 24 18 25
REMARK H PARENT
ROOT
ATOM      1  O   UNL     1      48.132 124.684  22.723  1.00  0.00    -0.426 OA
ENDROOT
BRANCH   1   2
ATOM      2  C   UNL     1      47.203 125.716  22.917  1.00  0.00     0.130 A 
ATOM      3  C   UNL     1      45.286 127.760  23.224  1.00  0.00    -0.018 A 
ATOM      4  C   UNL     1      46.071 127.353  24.316  1.00  0.00     0.012 A 
ATOM      5  C   UNL     1      45.451 127.117  21.987  1.00  0.00     0.012 A 
ATOM      6  C   UNL     1      47.022 126.339  24.165  1.00  0.00     0.048 A 
ATOM      7  C   UNL     1      46.401 126.104  21.838  1.00  0.00     0.048 A 
BRANCH   3   8
ATOM      8  C   UNL     1      44.271 128.826  23.391  1.00  0.00    -0.011 A 
ATOM      9  C   UNL     1      42.298 130.872  23.695  1.00  0.00    -0.027 A 
ATOM     10  C   UNL     1      42.243 129.696  24.473  1.00  0.00     0.006 A 
ATOM     11  C   UNL     1      43.364 130.997  22.801  1.00  0.00     0.050 A 
ATOM     12  C   UNL     1      43.216 128.684  24.321  1.00  0.00     0.010 A 
ATOM     13  N   UNL     1      43.652 132.042  22.004  1.00  0.00    -0.367 NA
ATOM     14  C   UNL     1      44.305 130.016  22.651  1.00  0.00    -0.014 A 
ATOM     15  N   UNL     1      44.770 131.745  21.348  1.00  0.00    -0.581 NA
ATOM     16  C   UNL     1      45.195 130.517  21.726  1.00  0.00    -0.113 A 
ATOM     17  C   UNL     1      41.298 131.973  23.882  1.00  0.00     0.046 C 
ENDBRANCH   3   8
ENDBRANCH   1   2
BRANCH   1  18
ATOM     18  C   UNL     1      48.058 123.709  21.721  1.00  0.00     0.314 C 
ATOM     19  O   UNL     1      46.983 123.524  21.086  1.00  0.00    -0.251 OA
BRANCH  18  20
ATOM     20  C   UNL     1      49.249 122.808  21.500  1.00  0.00     0.105 C 
ATOM     21  C   UNL     1      49.488 122.375  20.048  1.00  0.00     0.016 C 
ATOM     22  C   UNL     1      50.636 123.495  21.510  1.00  0.00    -0.022 C 
ATOM     23  C   UNL     1      50.873 123.012  20.072  1.00  0.00     0.008 C 
ATOM     24  C   UNL     1      51.605 122.857  22.520  1.00  0.00     0.012 C 
ATOM     25  C   UNL     1      50.643 125.035  21.612  1.00  0.00     0.012 C 
ENDBRANCH  18  20
ENDBRANCH   1  18
TORSDOF 4
ENDMDL


