REMARK SMILES Nc1cc(O)c(F)cc1Nc1ccc2cc[nH]c2c1
REMARK SMILES IDX 2 1 3 2 4 3 6 4 7 5 8 6 9 7 1 8 10 11 11 13 12 14 19 15
REMARK SMILES IDX 13 16 18 17 14 18 17 19 15 20 16 21 5 23
REMARK H PARENT 1 9 1 10 10 12 17 22 5 24
ROOT
ATOM      1  C   UNL     1       0.748   0.132  -2.419  1.00  0.00     0.059 A 
ATOM      2  C   UNL     1       0.365   0.427  -3.737  1.00  0.00     0.077 A 
ATOM      3  C   UNL     1      -0.914   0.093  -4.199  1.00  0.00     0.153 A 
ATOM      4  C   UNL     1      -1.817  -0.545  -3.343  1.00  0.00     0.167 A 
ATOM      5  F   UNL     1      -3.055  -0.879  -3.785  1.00  0.00    -0.203 F 
ATOM      6  C   UNL     1      -1.449  -0.837  -2.027  1.00  0.00     0.071 A 
ATOM      7  C   UNL     1      -0.180  -0.483  -1.548  1.00  0.00     0.065 A 
ENDROOT
BRANCH   1   8
ATOM      8  N   UNL     1       2.087   0.424  -1.997  1.00  0.00    -0.397 N 
ATOM      9  H   UNL     1       2.747   0.922  -2.635  1.00  0.00     0.156 HD
ATOM     10  H   UNL     1       2.456   0.099  -1.078  1.00  0.00     0.156 HD
ENDBRANCH   1   8
BRANCH   7  11
ATOM     11  N   UNL     1       0.150  -0.778  -0.183  1.00  0.00    -0.354 N 
ATOM     12  H   UNL     1      -0.008  -1.756   0.150  1.00  0.00     0.167 HD
BRANCH  11  13
ATOM     13  C   UNL     1       0.508   0.223   0.788  1.00  0.00     0.041 A 
ATOM     14  C   UNL     1       0.323   1.609   0.528  1.00  0.00     0.027 A 
ATOM     15  C   UNL     1       1.032  -0.186   2.034  1.00  0.00     0.052 A 
ATOM     16  C   UNL     1       0.673   2.574   1.490  1.00  0.00     0.012 A 
ATOM     17  C   UNL     1       1.367   0.795   2.964  1.00  0.00     0.047 A 
ATOM     18  C   UNL     1       1.195   2.127   2.700  1.00  0.00    -0.001 A 
ATOM     19  N   UNL     1       1.879   0.616   4.193  1.00  0.00    -0.361 N 
ATOM     20  C   UNL     1       1.616   2.826   3.809  1.00  0.00     0.028 A 
ATOM     21  C   UNL     1       2.034   1.855   4.714  1.00  0.00     0.083 A 
ATOM     22  H   UNL     1       2.112  -0.292   4.654  1.00  0.00     0.166 HD
ENDBRANCH  11  13
ENDBRANCH   7  11
BRANCH   3  23
ATOM     23  O   UNL     1      -1.294   0.385  -5.507  1.00  0.00    -0.505 OA
ATOM     24  H   UNL     1      -0.662   0.845  -6.152  1.00  0.00     0.293 HD
ENDBRANCH   3  23
TORSDOF 4


