REMARK SMILES c1cc(-c2ccc3[nH]ccc3c2)cc([C@@H]2CO2)c1
REMARK SMILES IDX 4 1 5 2 6 3 7 4 8 5 9 6 10 7 11 8 12 9 3 11 1 12 2 13 18 14
REMARK SMILES IDX 14 15 13 16 15 17 16 18 17 19
REMARK H PARENT 8 10
ROOT
ATOM      1  C   UNL     1      -0.747   1.410   1.267  1.00  0.00    -0.018 A 
ATOM      2  C   UNL     1      -1.816   1.110   2.155  1.00  0.00     0.011 A 
ATOM      3  C   UNL     1      -2.242   2.047   3.114  1.00  0.00     0.027 A 
ATOM      4  C   UNL     1      -1.585   3.273   3.164  1.00  0.00     0.045 A 
ATOM      5  N   UNL     1      -1.833   4.299   3.994  1.00  0.00    -0.361 N 
ATOM      6  C   UNL     1      -0.945   5.265   3.663  1.00  0.00     0.083 A 
ATOM      7  C   UNL     1      -0.129   4.847   2.616  1.00  0.00     0.028 A 
ATOM      8  C   UNL     1      -0.556   3.572   2.314  1.00  0.00    -0.000 A 
ATOM      9  C   UNL     1      -0.107   2.670   1.353  1.00  0.00     0.019 A 
ATOM     10  H   UNL     1      -2.561   4.347   4.741  1.00  0.00     0.166 HD
ENDROOT
BRANCH   1  11
ATOM     11  C   UNL     1      -0.306   0.414   0.258  1.00  0.00    -0.018 A 
ATOM     12  C   UNL     1      -0.832  -1.300  -1.388  1.00  0.00     0.001 A 
ATOM     13  C   UNL     1      -1.249  -0.360  -0.443  1.00  0.00     0.009 A 
ATOM     14  C   UNL     1       0.528  -1.477  -1.649  1.00  0.00     0.006 A 
ATOM     15  C   UNL     1       1.482  -0.703  -0.974  1.00  0.00    -0.016 A 
ATOM     16  C   UNL     1       1.063   0.228  -0.011  1.00  0.00     0.015 A 
BRANCH  15  17
ATOM     17  C   UNL     1       2.945  -0.917  -1.225  1.00  0.00     0.174 C 
ATOM     18  C   UNL     1       3.684   0.235  -1.792  1.00  0.00     0.198 C 
ATOM     19  O   UNL     1       3.256  -0.838  -2.597  1.00  0.00    -0.368 OA
ENDBRANCH  15  17
ENDBRANCH   1  11
TORSDOF 2


