REMARK SMILES Cc1[n-]nc2c1ccc1c(NN)cccc12
REMARK SMILES IDX 11 1 10 3 2 4 3 5 6 6 4 7 5 8 7 9 16 10 8 11 15 12 9 13
REMARK SMILES IDX 14 14 13 15 1 16 12 17
REMARK H PARENT 11 2 12 18 12 19
ROOT
ATOM      1  N   UNL     1      -2.799   0.349  -1.574  1.00  0.00    -0.324 N 
ATOM      2  H   UNL     1      -2.599  -0.342  -2.328  1.00  0.00     0.181 HD
ENDROOT
BRANCH   1   3
ATOM      3  C   UNL     1      -1.740   0.830  -0.717  1.00  0.00     0.056 A 
ATOM      4  C   UNL     1       3.046  -1.780   0.346  1.00  0.00    -0.139 A 
ATOM      5  N   UNL     1       3.601  -0.811   1.110  1.00  0.00    -0.578 NA
ATOM      6  C   UNL     1       1.801  -1.358  -0.058  1.00  0.00    -0.019 A 
ATOM      7  N   UNL     1       2.753   0.210   1.192  1.00  0.00    -0.367 NA
ATOM      8  C   UNL     1       1.655  -0.116   0.482  1.00  0.00     0.055 A 
ATOM      9  C   UNL     1       0.806  -1.961  -0.817  1.00  0.00     0.009 A 
ATOM     10  C   UNL     1       0.492   0.636   0.293  1.00  0.00     0.008 A 
ATOM     11  C   UNL     1      -0.381  -1.240  -1.037  1.00  0.00     0.011 A 
ATOM     12  C   UNL     1       0.339   1.899   0.876  1.00  0.00     0.011 A 
ATOM     13  C   UNL     1      -0.553   0.074  -0.505  1.00  0.00     0.008 A 
ATOM     14  C   UNL     1      -0.839   2.615   0.686  1.00  0.00     0.003 A 
ATOM     15  C   UNL     1      -1.866   2.090  -0.098  1.00  0.00     0.028 A 
ATOM     16  C   UNL     1       3.681  -3.101   0.065  1.00  0.00     0.019 C 
ENDBRANCH   1   3
BRANCH   1  17
ATOM     17  N   UNL     1      -4.129   0.785  -1.453  1.00  0.00    -0.250 NA
ATOM     18  H   UNL     1      -4.402   0.720  -0.446  1.00  0.00     0.143 HD
ATOM     19  H   UNL     1      -4.172   1.786  -1.751  1.00  0.00     0.143 HD
ENDBRANCH   1  17
TORSDOF 2


