REMARK SMILES C=C[C@H]1CC[C@H](c2cccc3ccoc23)N(C(=O)[C@@H](C)c2[nH]cc[nH+]2)C1
REMARK SMILES IDX 17 1 18 2 16 3 3 4 4 5 26 6 5 7 6 8 2 9 1 10 7 11 8 12 15 13
REMARK SMILES IDX 9 14 14 15 11 16 10 17 13 18 12 19 19 20 20 21 21 22 22 23
REMARK SMILES IDX 25 24 23 25 24 26
REMARK H PARENT 22 27 25 28
ROOT
ATOM      1  C   UNL     1      -1.069   0.251   0.416  1.00  0.00     0.238 C 
ATOM      2  O   UNL     1      -1.320   1.031   1.373  1.00  0.00    -0.274 OA
ENDROOT
BRANCH   1   3
ATOM      3  N   UNL     1      -1.129  -1.170   0.642  1.00  0.00    -0.334 N 
ATOM      4  C   UNL     1      -2.364  -3.011   1.748  1.00  0.00     0.031 C 
ATOM      5  C   UNL     1      -1.442  -4.009   1.038  1.00  0.00     0.012 C 
ATOM      6  C   UNL     1      -2.462  -1.718   0.928  1.00  0.00     0.127 C 
ATOM      7  C   UNL     1      -0.048  -3.406   0.879  1.00  0.00     0.031 C 
ATOM      8  C   UNL     1      -0.089  -2.075   0.100  1.00  0.00     0.119 C 
BRANCH   4   9
ATOM      9  C   UNL     1      -3.735  -3.617   1.929  1.00  0.00    -0.030 C 
ATOM     10  C   UNL     1      -4.159  -4.056   3.118  1.00  0.00     0.004 C 
ENDBRANCH   4   9
BRANCH   8  11
ATOM     11  C   UNL     1       1.293  -1.452   0.149  1.00  0.00     0.018 A 
ATOM     12  C   UNL     1       1.794  -0.851   1.329  1.00  0.00     0.010 A 
ATOM     13  C   UNL     1       2.158  -1.515  -0.949  1.00  0.00     0.139 A 
ATOM     14  C   UNL     1       3.102  -0.320   1.370  1.00  0.00     0.001 A 
ATOM     15  O   UNL     1       1.922  -2.030  -2.132  1.00  0.00    -0.464 OA
ATOM     16  C   UNL     1       3.425  -1.000  -0.902  1.00  0.00     0.021 A 
ATOM     17  C   UNL     1       3.935  -0.390   0.241  1.00  0.00     0.012 A 
ATOM     18  C   UNL     1       3.005  -1.861  -2.867  1.00  0.00     0.196 A 
ATOM     19  C   UNL     1       3.993  -1.214  -2.135  1.00  0.00     0.050 A 
ENDBRANCH   8  11
ENDBRANCH   1   3
BRANCH   1  20
ATOM     20  C   UNL     1      -0.803   0.814  -0.961  1.00  0.00     0.189 C 
ATOM     21  C   UNL     1      -1.991   1.651  -1.445  1.00  0.00     0.031 C 
BRANCH  20  22
ATOM     22  C   UNL     1       0.463   1.631  -0.991  1.00  0.00     0.264 A 
ATOM     23  N   UNL     1       0.723   2.670  -0.171  1.00  0.00    -0.247 N 
ATOM     24  N   UNL     1       1.428   1.467  -1.914  1.00  0.00    -0.247 N 
ATOM     25  C   UNL     1       1.907   3.160  -0.578  1.00  0.00     0.240 A 
ATOM     26  C   UNL     1       2.342   2.417  -1.652  1.00  0.00     0.240 A 
ATOM     27  H   UNL     1       0.130   3.044   0.602  1.00  0.00     0.311 HD
ATOM     28  H   UNL     1       1.454   0.767  -2.692  1.00  0.00     0.311 HD
ENDBRANCH  20  22
ENDBRANCH   1  20
TORSDOF 5


