REMARK SMILES C=Cc1cc(-c2cccc3ncoc23)cc(OC[C@@H](O)CCn2cc(-c3cccnc3F)n[nH+]2)c1F
REMARK SMILES IDX 19 1 18 2 17 3 16 4 3 5 4 6 35 7 5 8 15 9 36 10 2 11 1 12
REMARK SMILES IDX 6 13 7 14 14 15 8 16 13 17 10 18 9 19 12 20 11 21 20 22
REMARK SMILES IDX 21 24 22 25 23 26 24 27 34 28 25 29 33 30 26 32 27 33 31 34
REMARK SMILES IDX 28 35 30 36 29 37 32 38
REMARK H PARENT 20 23 34 31
ROOT
ATOM      1  C   UNL     1       1.779   0.697  -0.509  1.00  0.00     0.154 C 
ENDROOT
BRANCH   1   2
ATOM      2  C   UNL     1       0.294   0.331  -0.392  1.00  0.00     0.261 C 
BRANCH   2   3
ATOM      3  O   UNL     1      -0.519   1.453  -0.731  1.00  0.00    -0.488 OA
BRANCH   3   4
ATOM      4  C   UNL     1      -1.922   1.450  -0.727  1.00  0.00     0.156 A 
ATOM      5  C   UNL     1      -3.993   2.692  -1.082  1.00  0.00     0.014 A 
ATOM      6  C   UNL     1      -4.727   1.536  -0.753  1.00  0.00     0.020 A 
ATOM      7  C   UNL     1      -2.588   2.631  -1.078  1.00  0.00     0.172 A 
ATOM      8  C   UNL     1      -4.074   0.346  -0.396  1.00  0.00    -0.010 A 
ATOM      9  C   UNL     1      -2.670   0.310  -0.384  1.00  0.00     0.058 A 
ATOM     10  F   UNL     1      -1.854   3.728  -1.401  1.00  0.00    -0.202 F 
BRANCH   5  11
ATOM     11  C   UNL     1      -4.660   3.960  -1.472  1.00  0.00     0.003 C 
ATOM     12  C   UNL     1      -5.905   4.282  -1.121  1.00  0.00     0.009 C 
ENDBRANCH   5  11
BRANCH   8  13
ATOM     13  C   UNL     1      -4.856  -0.866  -0.046  1.00  0.00     0.027 A 
ATOM     14  C   UNL     1      -4.474  -2.150  -0.506  1.00  0.00     0.013 A 
ATOM     15  C   UNL     1      -6.002  -0.801   0.756  1.00  0.00     0.162 A 
ATOM     16  C   UNL     1      -5.232  -3.293  -0.165  1.00  0.00     0.003 A 
ATOM     17  O   UNL     1      -6.556   0.238   1.323  1.00  0.00    -0.443 OA
ATOM     18  C   UNL     1      -6.730  -1.905   1.083  1.00  0.00     0.110 A 
ATOM     19  C   UNL     1      -6.378  -3.177   0.641  1.00  0.00     0.032 A 
ATOM     20  C   UNL     1      -7.607  -0.220   1.982  1.00  0.00     0.309 A 
ATOM     21  N   UNL     1      -7.766  -1.565   1.867  1.00  0.00    -0.217 NA
ENDBRANCH   8  13
ENDBRANCH   3   4
ENDBRANCH   2   3
ENDBRANCH   1   2
BRANCH   1  22
ATOM     22  O   UNL     1       2.058   1.142  -1.812  1.00  0.00    -0.390 OA
ATOM     23  H   UNL     1       2.097   0.335  -2.389  1.00  0.00     0.211 HD
ENDBRANCH   1  22
BRANCH   1  24
ATOM     24  C   UNL     1       2.158   1.791   0.507  1.00  0.00     0.063 C 
BRANCH  24  25
ATOM     25  C   UNL     1       3.649   2.153   0.462  1.00  0.00     0.195 C 
BRANCH  25  26
ATOM     26  N   UNL     1       4.478   1.014   0.852  1.00  0.00    -0.136 N 
ATOM     27  C   UNL     1       5.178   0.208   0.036  1.00  0.00     0.188 A 
ATOM     28  N   UNL     1       4.631   0.577   2.090  1.00  0.00    -0.017 N 
ATOM     29  C   UNL     1       5.770  -0.748   0.847  1.00  0.00     0.166 A 
ATOM     30  N   UNL     1       5.416  -0.488   2.126  1.00  0.00     0.025 NA
ATOM     31  H   UNL     1       4.193   1.011   2.933  1.00  0.00     0.526 HD
BRANCH  29  32
ATOM     32  C   UNL     1       6.664  -1.861   0.447  1.00  0.00     0.063 A 
ATOM     33  C   UNL     1       7.476  -2.478   1.414  1.00  0.00     0.017 A 
ATOM     34  C   UNL     1       6.724  -2.343  -0.878  1.00  0.00     0.222 A 
ATOM     35  C   UNL     1       8.327  -3.523   1.058  1.00  0.00     0.021 A 
ATOM     36  N   UNL     1       7.563  -3.367  -1.194  1.00  0.00    -0.228 NA
ATOM     37  C   UNL     1       8.360  -3.957  -0.266  1.00  0.00     0.114 A 
ATOM     38  F   UNL     1       5.933  -1.832  -1.852  1.00  0.00    -0.184 F 
ENDBRANCH  29  32
ENDBRANCH  25  26
ENDBRANCH  24  25
ENDBRANCH   1  24
TORSDOF 10


