REMARK SMILES Cc1c([NH2+]c2c3o[n-]cc-3cc(-n3nc4ccccc4n3)c2=O)cc(-c2ccc(O)cc2)c2cc[nH]c12
REMARK SMILES IDX 1 1 2 2 3 3 24 4 25 5 33 6 34 7 35 8 36 9 37 10 4 12 5 15
REMARK SMILES IDX 6 16 22 17 7 18 10 19 12 20 8 21 9 22 11 23 23 24 13 25
REMARK SMILES IDX 14 26 21 27 15 28 20 29 16 30 19 31 17 32 18 33 26 34 27 35
REMARK SMILES IDX 32 36 28 37 31 38 29 39 30 40
REMARK H PARENT 36 11 4 13 4 14 30 41
ROOT
ATOM      1  C   UNL     1       4.433  -1.704  -0.903  1.00  0.00     0.053 C 
ATOM      2  C   UNL     1       3.220  -0.964  -1.414  1.00  0.00     0.034 A 
ATOM      3  C   UNL     1       2.660   0.144  -0.704  1.00  0.00     0.140 A 
ATOM      4  C   UNL     1       1.585   0.870  -1.282  1.00  0.00     0.078 A 
ATOM      5  C   UNL     1       1.004   0.486  -2.504  1.00  0.00    -0.003 A 
ATOM      6  C   UNL     1       1.531  -0.643  -3.137  1.00  0.00     0.008 A 
ATOM      7  C   UNL     1       1.131  -1.295  -4.288  1.00  0.00     0.028 A 
ATOM      8  C   UNL     1       1.991  -2.373  -4.420  1.00  0.00     0.083 A 
ATOM      9  N   UNL     1       2.880  -2.402  -3.405  1.00  0.00    -0.361 N 
ATOM     10  C   UNL     1       2.594  -1.343  -2.618  1.00  0.00     0.055 A 
ATOM     11  H   UNL     1       3.609  -3.134  -3.268  1.00  0.00     0.166 HD
ENDROOT
BRANCH   3  12
ATOM     12  N   UNL     1       3.172   0.570   0.585  1.00  0.00    -0.275 N 
ATOM     13  H   UNL     1       3.971  -0.009   0.920  1.00  0.00     0.358 HD
ATOM     14  H   UNL     1       3.532   1.548   0.489  1.00  0.00     0.358 HD
BRANCH  12  15
ATOM     15  C   UNL     1       2.132   0.508   1.589  1.00  0.00     0.226 A 
ATOM     16  C   UNL     1       1.520   1.665   2.062  1.00  0.00     0.179 A 
ATOM     17  C   UNL     1       1.667  -0.730   2.114  1.00  0.00     0.270 A 
ATOM     18  O   UNL     1       1.736   2.920   1.755  1.00  0.00    -0.553 OA
ATOM     19  C   UNL     1       0.478   1.618   3.026  1.00  0.00     0.005 A 
ATOM     20  C   UNL     1       0.612  -0.779   3.088  1.00  0.00     0.140 A 
ATOM     21  N   UNL     1       0.930   3.700   2.429  1.00  0.00    -0.512 NA
ATOM     22  C   UNL     1       0.140   2.934   3.222  1.00  0.00    -0.098 A 
ATOM     23  C   UNL     1       0.014   0.423   3.544  1.00  0.00     0.045 A 
ATOM     24  O   UNL     1       2.199  -1.797   1.708  1.00  0.00    -0.281 OA
BRANCH  20  25
ATOM     25  N   UNL     1       0.137  -2.038   3.616  1.00  0.00    -0.146 N 
ATOM     26  N   UNL     1       0.601  -3.232   3.243  1.00  0.00    -0.148 NA
ATOM     27  N   UNL     1      -0.825  -2.130   4.535  1.00  0.00    -0.148 NA
ATOM     28  C   UNL     1      -0.101  -4.119   3.961  1.00  0.00     0.113 A 
ATOM     29  C   UNL     1      -0.975  -3.445   4.753  1.00  0.00     0.113 A 
ATOM     30  C   UNL     1      -0.018  -5.508   3.961  1.00  0.00     0.032 A 
ATOM     31  C   UNL     1      -1.848  -4.095   5.619  1.00  0.00     0.032 A 
ATOM     32  C   UNL     1      -0.885  -6.207   4.825  1.00  0.00     0.002 A 
ATOM     33  C   UNL     1      -1.796  -5.503   5.650  1.00  0.00     0.002 A 
ENDBRANCH  20  25
ENDBRANCH  12  15
ENDBRANCH   3  12
BRANCH   5  34
ATOM     34  C   UNL     1      -0.130   1.255  -3.068  1.00  0.00    -0.017 A 
ATOM     35  C   UNL     1      -1.234   1.580  -2.262  1.00  0.00     0.012 A 
ATOM     36  C   UNL     1      -0.104   1.694  -4.403  1.00  0.00     0.012 A 
ATOM     37  C   UNL     1      -2.300   2.317  -2.787  1.00  0.00     0.047 A 
ATOM     38  C   UNL     1      -1.171   2.431  -4.926  1.00  0.00     0.047 A 
ATOM     39  C   UNL     1      -2.273   2.743  -4.119  1.00  0.00     0.115 A 
BRANCH  39  40
ATOM     40  O   UNL     1      -3.343   3.475  -4.628  1.00  0.00    -0.508 OA
ATOM     41  H   UNL     1      -3.353   3.799  -5.589  1.00  0.00     0.293 HD
ENDBRANCH  39  40
ENDBRANCH   5  34
TORSDOF 5


