REMARK SMILES C=CCC[C@H](O)Cn1cc(F)cc(N)/c1=N\c1cnc2[nH]ccc2c1
REMARK SMILES IDX 5 1 6 2 7 4 8 5 9 6 15 7 10 8 13 9 12 10 11 11 16 12 17 13
REMARK SMILES IDX 18 14 25 15 19 16 24 17 20 18 23 19 21 20 22 21 14 23 4 26
REMARK SMILES IDX 3 27 2 28 1 29
REMARK H PARENT 6 3 21 22 14 24 14 25
ROOT
ATOM      1  C   UNL     1      -1.048   3.308  -1.322  1.00  0.00     0.134 C 
ENDROOT
BRANCH   1   2
ATOM      2  O   UNL     1      -1.270   4.236  -0.291  1.00  0.00    -0.391 OA
ATOM      3  H   UNL     1      -1.992   4.843  -0.601  1.00  0.00     0.211 HD
ENDBRANCH   1   2
BRANCH   1   4
ATOM      4  C   UNL     1      -2.190   2.269  -1.355  1.00  0.00     0.155 C 
BRANCH   4   5
ATOM      5  N   UNL     1      -2.343   1.571  -0.059  1.00  0.00    -0.326 N 
ATOM      6  C   UNL     1      -3.144   2.156   0.884  1.00  0.00     0.127 A 
ATOM      7  C   UNL     1      -1.722   0.363   0.192  1.00  0.00     0.156 A 
ATOM      8  C   UNL     1      -3.338   1.564   2.126  1.00  0.00     0.141 A 
ATOM      9  C   UNL     1      -1.812  -0.201   1.500  1.00  0.00     0.078 A 
ATOM     10  C   UNL     1      -2.663   0.393   2.436  1.00  0.00     0.070 A 
ATOM     11  F   UNL     1      -4.141   2.153   3.046  1.00  0.00    -0.205 F 
BRANCH   7  12
ATOM     12  N   UNL     1      -1.083  -0.224  -0.791  1.00  0.00    -0.227 NA
BRANCH  12  13
ATOM     13  C   UNL     1      -0.574  -1.560  -0.892  1.00  0.00     0.085 A 
ATOM     14  C   UNL     1      -1.389  -2.681  -0.586  1.00  0.00     0.142 A 
ATOM     15  C   UNL     1       0.715  -1.766  -1.419  1.00  0.00     0.042 A 
ATOM     16  N   UNL     1      -0.914  -3.953  -0.747  1.00  0.00    -0.236 NA
ATOM     17  C   UNL     1       1.149  -3.079  -1.558  1.00  0.00     0.021 A 
ATOM     18  C   UNL     1       0.344  -4.128  -1.222  1.00  0.00     0.137 A 
ATOM     19  C   UNL     1       2.335  -3.607  -2.019  1.00  0.00     0.030 A 
ATOM     20  N   UNL     1       0.952  -5.303  -1.442  1.00  0.00    -0.346 N 
ATOM     21  C   UNL     1       2.175  -4.989  -1.930  1.00  0.00     0.085 A 
ATOM     22  H   UNL     1       0.564  -6.259  -1.276  1.00  0.00     0.167 HD
ENDBRANCH  12  13
ENDBRANCH   7  12
BRANCH   9  23
ATOM     23  N   UNL     1      -0.954  -1.256   1.954  1.00  0.00    -0.396 N 
ATOM     24  H   UNL     1      -1.180  -1.780   2.828  1.00  0.00     0.156 HD
ATOM     25  H   UNL     1       0.009  -1.372   1.570  1.00  0.00     0.156 HD
ENDBRANCH   9  23
ENDBRANCH   4   5
ENDBRANCH   1   4
BRANCH   1  26
ATOM     26  C   UNL     1       0.330   2.641  -1.141  1.00  0.00     0.038 C 
BRANCH  26  27
ATOM     27  C   UNL     1       1.501   3.612  -1.366  1.00  0.00     0.029 C 
BRANCH  27  28
ATOM     28  C   UNL     1       1.625   4.637  -0.270  1.00  0.00    -0.035 C 
ATOM     29  C   UNL     1       2.009   4.303   0.966  1.00  0.00     0.004 C 
ENDBRANCH  27  28
ENDBRANCH  26  27
ENDBRANCH   1  26
TORSDOF 9


