REMARK SMILES Cc1ccc(-c2ccc(OC(=O)c3[nH+][nH]cc3C=O)cc2)c2c[n-]nc12
REMARK SMILES IDX 10 1 9 2 6 3 7 4 21 5 8 6 20 7 5 8 2 9 3 10 26 11 4 12 25 13
REMARK SMILES IDX 22 14 24 15 23 16 1 17 11 18 12 19 13 20 14 21 17 22 15 23
REMARK SMILES IDX 16 24 18 27 19 28
REMARK H PARENT 14 25 15 26
ROOT
ATOM      1  O   UNL     1       1.727   1.265  -1.692  1.00  0.00    -0.418 OA
ENDROOT
BRANCH   1   2
ATOM      2  C   UNL     1       0.957   0.399  -0.901  1.00  0.00     0.131 A 
ATOM      3  C   UNL     1      -0.535  -1.314   0.769  1.00  0.00    -0.018 A 
ATOM      4  C   UNL     1      -1.003  -0.989  -0.515  1.00  0.00     0.012 A 
ATOM      5  C   UNL     1       0.670  -0.751   1.219  1.00  0.00     0.012 A 
ATOM      6  C   UNL     1      -0.265  -0.138  -1.344  1.00  0.00     0.048 A 
ATOM      7  C   UNL     1       1.407   0.100   0.389  1.00  0.00     0.048 A 
BRANCH   3   8
ATOM      8  C   UNL     1      -1.319  -2.207   1.653  1.00  0.00    -0.011 A 
ATOM      9  C   UNL     1      -2.836  -3.924   3.360  1.00  0.00    -0.027 A 
ATOM     10  C   UNL     1      -2.342  -2.690   3.835  1.00  0.00     0.006 A 
ATOM     11  C   UNL     1      -2.562  -4.255   2.031  1.00  0.00     0.050 A 
ATOM     12  C   UNL     1      -1.584  -1.846   2.994  1.00  0.00     0.010 A 
ATOM     13  N   UNL     1      -2.914  -5.373   1.371  1.00  0.00    -0.367 NA
ATOM     14  C   UNL     1      -1.833  -3.435   1.215  1.00  0.00    -0.014 A 
ATOM     15  N   UNL     1      -2.413  -5.283   0.143  1.00  0.00    -0.581 NA
ATOM     16  C   UNL     1      -1.744  -4.114   0.019  1.00  0.00    -0.113 A 
ATOM     17  C   UNL     1      -3.663  -4.821   4.233  1.00  0.00     0.046 C 
ENDBRANCH   3   8
ENDBRANCH   1   2
BRANCH   1  18
ATOM     18  C   UNL     1       1.768   1.269  -3.091  1.00  0.00     0.412 C 
ATOM     19  O   UNL     1       1.359   0.271  -3.744  1.00  0.00    -0.238 OA
BRANCH  18  20
ATOM     20  C   UNL     1       2.353   2.412  -3.818  1.00  0.00     0.324 A 
ATOM     21  N   UNL     1       2.509   2.435  -5.157  1.00  0.00    -0.119 N 
ATOM     22  C   UNL     1       2.833   3.614  -3.302  1.00  0.00     0.118 A 
ATOM     23  N   UNL     1       3.061   3.584  -5.507  1.00  0.00    -0.174 N 
ATOM     24  C   UNL     1       3.272   4.325  -4.406  1.00  0.00     0.166 A 
ATOM     25  H   UNL     1       2.246   1.681  -5.830  1.00  0.00     0.489 HD
ATOM     26  H   UNL     1       3.289   3.857  -6.489  1.00  0.00     0.238 HD
BRANCH  22  27
ATOM     27  C   UNL     1       2.871   4.082  -1.907  1.00  0.00     0.269 C 
ATOM     28  O   UNL     1       3.363   5.207  -1.631  1.00  0.00    -0.298 OA
ENDBRANCH  22  27
ENDBRANCH  18  20
ENDBRANCH   1  18
TORSDOF 5


