REMARK SMILES NNc1ccccc1-c1nc2ccccc2[n-]1
REMARK SMILES IDX 2 1 1 3 3 6 4 7 8 8 5 9 7 10 6 11 9 12 10 13 17 14 11 15
REMARK SMILES IDX 16 16 12 17 15 18 13 19 14 20
REMARK H PARENT 2 2 1 4 1 5
ROOT
ATOM      1  N   UNL     1      -1.675   1.227   1.572  1.00  0.00    -0.324 N 
ATOM      2  H   UNL     1      -0.794   0.971   2.071  1.00  0.00     0.181 HD
ENDROOT
BRANCH   1   3
ATOM      3  N   UNL     1      -2.411   2.336   2.022  1.00  0.00    -0.250 NA
ATOM      4  H   UNL     1      -2.393   3.048   1.256  1.00  0.00     0.143 HD
ATOM      5  H   UNL     1      -1.895   2.754   2.830  1.00  0.00     0.143 HD
ENDBRANCH   1   3
BRANCH   1   6
ATOM      6  C   UNL     1      -2.176   0.377   0.524  1.00  0.00     0.056 A 
ATOM      7  C   UNL     1      -3.561   0.328   0.276  1.00  0.00     0.028 A 
ATOM      8  C   UNL     1      -1.310  -0.467  -0.220  1.00  0.00    -0.002 A 
ATOM      9  C   UNL     1      -4.085  -0.557  -0.667  1.00  0.00     0.002 A 
ATOM     10  C   UNL     1      -1.861  -1.366  -1.151  1.00  0.00     0.010 A 
ATOM     11  C   UNL     1      -3.238  -1.408  -1.372  1.00  0.00     0.001 A 
BRANCH   8  12
ATOM     12  C   UNL     1       0.165  -0.403  -0.091  1.00  0.00    -0.049 A 
ATOM     13  N   UNL     1       0.839   0.745   0.193  1.00  0.00    -0.435 NA
ATOM     14  N   UNL     1       0.967  -1.479  -0.318  1.00  0.00    -0.435 NA
ATOM     15  C   UNL     1       2.119   0.351   0.159  1.00  0.00    -0.038 A 
ATOM     16  C   UNL     1       2.196  -0.972  -0.145  1.00  0.00    -0.038 A 
ATOM     17  C   UNL     1       3.256   1.125   0.382  1.00  0.00     0.004 A 
ATOM     18  C   UNL     1       3.416  -1.636  -0.253  1.00  0.00     0.004 A 
ATOM     19  C   UNL     1       4.508   0.488   0.284  1.00  0.00     0.000 A 
ATOM     20  C   UNL     1       4.588  -0.888  -0.032  1.00  0.00     0.000 A 
ENDBRANCH   8  12
ENDBRANCH   1   6
TORSDOF 3


