REMARK SMILES C=Cc1ccc(-c2c(N)c([NH2+]c3ccc(F)cc3)cc(F)c2F)nc1
REMARK SMILES IDX 7 1 8 2 10 3 19 4 20 5 21 6 22 7 23 8 6 9 3 10 4 11 25 12
REMARK SMILES IDX 5 13 24 14 2 15 1 16 9 17 11 20 12 23 13 24 18 25 14 26
REMARK SMILES IDX 17 27 15 28 16 29
REMARK H PARENT 9 18 9 19 11 21 11 22
ROOT
ATOM      1  C   UNL     1       0.310  -1.515  -0.491  1.00  0.00     0.068 A 
ATOM      2  C   UNL     1       0.389  -0.210  -1.046  1.00  0.00     0.106 A 
ATOM      3  C   UNL     1       0.078  -0.015  -2.421  1.00  0.00     0.161 A 
ATOM      4  C   UNL     1      -0.315  -1.120  -3.197  1.00  0.00     0.112 A 
ATOM      5  C   UNL     1      -0.410  -2.391  -2.638  1.00  0.00     0.165 A 
ATOM      6  F   UNL     1      -0.799  -3.438  -3.408  1.00  0.00    -0.203 F 
ATOM      7  C   UNL     1      -0.104  -2.591  -1.294  1.00  0.00     0.170 A 
ATOM      8  F   UNL     1      -0.180  -3.846  -0.781  1.00  0.00    -0.203 F 
ENDROOT
BRANCH   1   9
ATOM      9  C   UNL     1       0.679  -1.786   0.916  1.00  0.00     0.076 A 
ATOM     10  C   UNL     1       1.337  -2.368   3.569  1.00  0.00    -0.008 A 
ATOM     11  C   UNL     1       2.272  -1.730   2.733  1.00  0.00     0.012 A 
ATOM     12  C   UNL     1       0.092  -2.720   3.025  1.00  0.00     0.119 A 
ATOM     13  C   UNL     1       1.945  -1.441   1.407  1.00  0.00     0.030 A 
ATOM     14  N   UNL     1      -0.203  -2.425   1.731  1.00  0.00    -0.255 NA
BRANCH  10  15
ATOM     15  C   UNL     1       1.621  -2.714   4.984  1.00  0.00     0.002 C 
ATOM     16  C   UNL     1       2.624  -2.198   5.696  1.00  0.00     0.009 C 
ENDBRANCH  10  15
ENDBRANCH   1   9
BRANCH   2  17
ATOM     17  N   UNL     1       0.733   0.905  -0.208  1.00  0.00    -0.393 N 
ATOM     18  H   UNL     1       1.111   1.795  -0.594  1.00  0.00     0.156 HD
ATOM     19  H   UNL     1       0.622   0.860   0.829  1.00  0.00     0.156 HD
ENDBRANCH   2  17
BRANCH   3  20
ATOM     20  N   UNL     1       0.092   1.300  -3.030  1.00  0.00    -0.280 N 
ATOM     21  H   UNL     1       0.095   1.221  -4.074  1.00  0.00     0.358 HD
ATOM     22  H   UNL     1       0.978   1.797  -2.784  1.00  0.00     0.358 HD
BRANCH  20  23
ATOM     23  C   UNL     1      -1.075   2.058  -2.643  1.00  0.00     0.134 A 
ATOM     24  C   UNL     1      -2.364   1.626  -3.017  1.00  0.00     0.071 A 
ATOM     25  C   UNL     1      -0.944   3.264  -1.929  1.00  0.00     0.071 A 
ATOM     26  C   UNL     1      -3.492   2.367  -2.653  1.00  0.00     0.045 A 
ATOM     27  C   UNL     1      -2.076   4.001  -1.568  1.00  0.00     0.045 A 
ATOM     28  C   UNL     1      -3.349   3.551  -1.926  1.00  0.00     0.123 A 
ATOM     29  F   UNL     1      -4.445   4.268  -1.576  1.00  0.00    -0.207 F 
ENDBRANCH  20  23
ENDBRANCH   3  20
TORSDOF 5


