REMARK SMILES Cc1ccc(-c2ccc(N)c(C=O)c2)c2cn[nH]c12
REMARK SMILES IDX 6 1 7 2 8 3 9 4 11 5 14 6 5 7 2 8 3 9 19 10 4 11 18 12 15 13
REMARK SMILES IDX 17 14 16 15 1 16 12 18 13 19 10 20
REMARK H PARENT 18 17 10 21 10 22
ROOT
ATOM      1  C   UNL     1       0.880   1.215  -0.334  1.00  0.00    -0.017 A 
ATOM      2  C   UNL     1       2.225   1.343   0.037  1.00  0.00     0.011 A 
ATOM      3  C   UNL     1       2.643   2.429   0.807  1.00  0.00     0.027 A 
ATOM      4  C   UNL     1       1.732   3.414   1.215  1.00  0.00     0.042 A 
ATOM      5  C   UNL     1       0.378   3.323   0.799  1.00  0.00     0.038 A 
ATOM      6  C   UNL     1      -0.033   2.212   0.044  1.00  0.00     0.022 A 
ENDROOT
BRANCH   1   7
ATOM      7  C   UNL     1       0.438   0.058  -1.147  1.00  0.00    -0.007 A 
ATOM      8  C   UNL     1      -0.420  -2.166  -2.726  1.00  0.00    -0.025 A 
ATOM      9  C   UNL     1       0.731  -1.431  -3.081  1.00  0.00     0.006 A 
ATOM     10  C   UNL     1      -1.104  -1.765  -1.574  1.00  0.00     0.069 A 
ATOM     11  C   UNL     1       1.156  -0.334  -2.300  1.00  0.00     0.010 A 
ATOM     12  N   UNL     1      -2.191  -2.320  -1.011  1.00  0.00    -0.278 N 
ATOM     13  C   UNL     1      -0.695  -0.700  -0.819  1.00  0.00     0.028 A 
ATOM     14  N   UNL     1      -2.486  -1.644   0.093  1.00  0.00    -0.183 NA
ATOM     15  C   UNL     1      -1.584  -0.646   0.239  1.00  0.00     0.144 A 
ATOM     16  C   UNL     1      -0.875  -3.345  -3.535  1.00  0.00     0.046 C 
ATOM     17  H   UNL     1      -2.724  -3.149  -1.355  1.00  0.00     0.190 HD
ENDBRANCH   1   7
BRANCH   5  18
ATOM     18  C   UNL     1      -0.631   4.366   1.083  1.00  0.00     0.262 C 
ATOM     19  O   UNL     1      -0.306   5.565   1.288  1.00  0.00    -0.298 OA
ENDBRANCH   5  18
BRANCH   4  20
ATOM     20  N   UNL     1       2.195   4.454   2.087  1.00  0.00    -0.398 N 
ATOM     21  H   UNL     1       1.544   5.000   2.691  1.00  0.00     0.156 HD
ATOM     22  H   UNL     1       3.217   4.582   2.259  1.00  0.00     0.156 HD
ENDBRANCH   4  20
TORSDOF 3


