REMARK SMILES Cc1ccc(C(=O)C(=O)c2cc(O)c(C)cc2[NH2+]c2ccc3cc[nH]c3c2)cc1
REMARK SMILES IDX 10 1 11 2 12 3 14 4 15 5 16 6 17 7 8 8 9 9 6 10 7 11 5 12
REMARK SMILES IDX 2 13 3 14 29 15 4 16 28 17 1 18 18 19 19 22 20 23 27 24
REMARK SMILES IDX 21 25 26 26 22 27 25 28 23 29 24 30 13 32
REMARK H PARENT 18 20 18 21 25 31 13 33
ROOT
ATOM      1  C   UNL     1      -0.962  -0.780  -0.666  1.00  0.00     0.091 A 
ATOM      2  C   UNL     1      -1.345  -2.101  -0.937  1.00  0.00     0.065 A 
ATOM      3  C   UNL     1      -0.993  -2.720  -2.139  1.00  0.00     0.119 A 
ATOM      4  C   UNL     1      -0.244  -2.010  -3.099  1.00  0.00    -0.003 A 
ATOM      5  C   UNL     1       0.151  -2.647  -4.403  1.00  0.00     0.048 C 
ATOM      6  C   UNL     1       0.135  -0.685  -2.833  1.00  0.00     0.076 A 
ATOM      7  C   UNL     1      -0.213  -0.055  -1.623  1.00  0.00     0.146 A 
ENDROOT
BRANCH   1   8
ATOM      8  C   UNL     1      -1.373  -0.184   0.617  1.00  0.00     0.239 C 
ATOM      9  O   UNL     1      -0.535  -0.121   1.556  1.00  0.00    -0.285 OA
BRANCH   8  10
ATOM     10  C   UNL     1      -2.773   0.252   0.824  1.00  0.00     0.233 C 
ATOM     11  O   UNL     1      -3.622   0.015  -0.078  1.00  0.00    -0.285 OA
BRANCH  10  12
ATOM     12  C   UNL     1      -3.222   0.931   2.064  1.00  0.00     0.026 A 
ATOM     13  C   UNL     1      -4.126   2.224   4.402  1.00  0.00    -0.051 A 
ATOM     14  C   UNL     1      -2.845   2.489   3.897  1.00  0.00     0.004 A 
ATOM     15  C   UNL     1      -4.965   1.336   3.715  1.00  0.00     0.004 A 
ATOM     16  C   UNL     1      -2.396   1.847   2.739  1.00  0.00     0.012 A 
ATOM     17  C   UNL     1      -4.517   0.695   2.556  1.00  0.00     0.012 A 
ATOM     18  C   UNL     1      -4.625   2.941   5.621  1.00  0.00     0.044 C 
ENDBRANCH  10  12
ENDBRANCH   8  10
ENDBRANCH   1   8
BRANCH   7  19
ATOM     19  N   UNL     1       0.193   1.315  -1.390  1.00  0.00    -0.281 N 
ATOM     20  H   UNL     1       0.385   1.800  -2.298  1.00  0.00     0.358 HD
ATOM     21  H   UNL     1      -0.593   1.839  -0.940  1.00  0.00     0.358 HD
BRANCH  19  22
ATOM     22  C   UNL     1       1.389   1.373  -0.583  1.00  0.00     0.136 A 
ATOM     23  C   UNL     1       1.389   2.089   0.646  1.00  0.00     0.069 A 
ATOM     24  C   UNL     1       2.594   0.779  -1.037  1.00  0.00     0.094 A 
ATOM     25  C   UNL     1       2.550   2.172   1.434  1.00  0.00     0.016 A 
ATOM     26  C   UNL     1       3.725   0.882  -0.231  1.00  0.00     0.051 A 
ATOM     27  C   UNL     1       3.702   1.551   0.962  1.00  0.00    -0.000 A 
ATOM     28  N   UNL     1       4.948   0.383  -0.474  1.00  0.00    -0.361 N 
ATOM     29  C   UNL     1       4.967   1.474   1.504  1.00  0.00     0.028 A 
ATOM     30  C   UNL     1       5.711   0.741   0.584  1.00  0.00     0.083 A 
ATOM     31  H   UNL     1       5.253  -0.166  -1.308  1.00  0.00     0.166 HD
ENDBRANCH  19  22
ENDBRANCH   7  19
BRANCH   3  32
ATOM     32  O   UNL     1      -1.403  -4.039  -2.347  1.00  0.00    -0.508 OA
ATOM     33  H   UNL     1      -1.190  -4.556  -3.191  1.00  0.00     0.293 HD
ENDBRANCH   3  32
TORSDOF 6


