MODEL 1
REMARK VINA RESULT:     -11.0      0.000      0.000
REMARK SMILES Oc1c(-n2[nH+]c3ccccc3[nH+]2)cc2cnoc2c1Nc1ccc2cc[nH]c2c1
REMARK SMILES IDX 2 1 3 2 13 3 14 4 15 5 16 6 17 7 18 8 19 9 1 10 4 12 5 13
REMARK SMILES IDX 12 14 6 15 11 16 7 17 10 18 8 19 9 20 20 23 21 25 22 26
REMARK SMILES IDX 29 27 23 28 28 29 24 30 27 31 25 32 26 33
REMARK H PARENT 1 11 5 21 12 22 20 24 27 34
ROOT
ATOM      1  C   UNL     1      45.165 130.885  19.744  1.00  0.00     0.179 A 
ATOM      2  C   UNL     1      44.697 131.364  18.484  1.00  0.00     0.212 A 
ATOM      3  C   UNL     1      43.487 132.091  18.413  1.00  0.00     0.057 A 
ATOM      4  C   UNL     1      42.804 132.335  19.596  1.00  0.00     0.047 A 
ATOM      5  C   UNL     1      41.636 133.006  19.869  1.00  0.00     0.167 A 
ATOM      6  N   UNL     1      41.419 132.934  21.204  1.00  0.00    -0.087 NA
ATOM      7  O   UNL     1      42.403 132.252  21.731  1.00  0.00    -0.354 OA
ATOM      8  C   UNL     1      43.245 131.881  20.799  1.00  0.00     0.194 A 
ATOM      9  C   UNL     1      44.413 131.133  20.925  1.00  0.00     0.130 A 
ENDROOT
BRANCH   1  10
ATOM     10  O   UNL     1      46.364 130.171  19.798  1.00  0.00    -0.504 OA
ATOM     11  H   UNL     1      47.227 130.516  19.398  1.00  0.00     0.293 HD
ENDBRANCH   1  10
BRANCH   2  12
ATOM     12  N   UNL     1      45.442 131.120  17.279  1.00  0.00     0.083 N 
ATOM     13  N   UNL     1      45.569 131.992  16.278  1.00  0.00    -0.062 N 
ATOM     14  N   UNL     1      46.057 129.971  17.003  1.00  0.00    -0.062 N 
ATOM     15  C   UNL     1      46.300 131.374  15.337  1.00  0.00     0.306 A 
ATOM     16  C   UNL     1      46.603 130.123  15.786  1.00  0.00     0.306 A 
ATOM     17  C   UNL     1      46.709 131.834  14.089  1.00  0.00     0.089 A 
ATOM     18  C   UNL     1      47.346 129.222  15.030  1.00  0.00     0.089 A 
ATOM     19  C   UNL     1      47.467 130.952  13.293  1.00  0.00     0.007 A 
ATOM     20  C   UNL     1      47.785 129.653  13.762  1.00  0.00     0.007 A 
ATOM     21  H   UNL     1      45.144 132.944  16.227  1.00  0.00     0.495 HD
ATOM     22  H   UNL     1      46.102 129.131  17.622  1.00  0.00     0.495 HD
ENDBRANCH   2  12
BRANCH   9  23
ATOM     23  N   UNL     1      44.817 130.649  22.213  1.00  0.00    -0.349 N 
ATOM     24  H   UNL     1      45.353 131.304  22.827  1.00  0.00     0.167 HD
BRANCH  23  25
ATOM     25  C   UNL     1      44.364 129.403  22.775  1.00  0.00     0.041 A 
ATOM     26  C   UNL     1      43.218 129.399  23.611  1.00  0.00     0.027 A 
ATOM     27  C   UNL     1      45.024 128.183  22.490  1.00  0.00     0.052 A 
ATOM     28  C   UNL     1      42.741 128.202  24.175  1.00  0.00     0.012 A 
ATOM     29  C   UNL     1      44.524 127.016  23.066  1.00  0.00     0.047 A 
ATOM     30  C   UNL     1      43.424 127.028  23.879  1.00  0.00    -0.001 A 
ATOM     31  N   UNL     1      45.002 125.769  22.927  1.00  0.00    -0.361 N 
ATOM     32  C   UNL     1      43.191 125.729  24.277  1.00  0.00     0.028 A 
ATOM     33  C   UNL     1      44.191 124.978  23.665  1.00  0.00     0.083 A 
ATOM     34  H   UNL     1      45.829 125.467  22.365  1.00  0.00     0.166 HD
ENDBRANCH  23  25
ENDBRANCH   9  23
TORSDOF 4
ENDMDL
MODEL 2
REMARK VINA RESULT:     -10.9      0.250      1.106
REMARK SMILES Oc1c(-n2[nH+]c3ccccc3[nH+]2)cc2cnoc2c1Nc1ccc2cc[nH]c2c1
REMARK SMILES IDX 2 1 3 2 13 3 14 4 15 5 16 6 17 7 18 8 19 9 1 10 4 12 5 13
REMARK SMILES IDX 12 14 6 15 11 16 7 17 10 18 8 19 9 20 20 23 21 25 22 26
REMARK SMILES IDX 29 27 23 28 28 29 24 30 27 31 25 32 26 33
REMARK H PARENT 1 11 5 21 12 22 20 24 27 34
ROOT
ATOM      1  C   UNL     1      45.240 130.828  19.590  1.00  0.00     0.179 A 
ATOM      2  C   UNL     1      44.739 131.279  18.333  1.00  0.00     0.212 A 
ATOM      3  C   UNL     1      43.523 131.996  18.275  1.00  0.00     0.057 A 
ATOM      4  C   UNL     1      42.866 132.260  19.468  1.00  0.00     0.047 A 
ATOM      5  C   UNL     1      41.700 132.929  19.755  1.00  0.00     0.167 A 
ATOM      6  N   UNL     1      41.514 132.882  21.096  1.00  0.00    -0.087 NA
ATOM      7  O   UNL     1      42.515 132.217  21.613  1.00  0.00    -0.354 OA
ATOM      8  C   UNL     1      43.338 131.834  20.669  1.00  0.00     0.194 A 
ATOM      9  C   UNL     1      44.513 131.095  20.783  1.00  0.00     0.130 A 
ENDROOT
BRANCH   1  10
ATOM     10  O   UNL     1      46.444 130.123  19.631  1.00  0.00    -0.504 OA
ATOM     11  H   UNL     1      46.735 129.580  20.434  1.00  0.00     0.293 HD
ENDBRANCH   1  10
BRANCH   2  12
ATOM     12  N   UNL     1      45.457 131.015  17.116  1.00  0.00     0.083 N 
ATOM     13  N   UNL     1      46.078 129.869  16.836  1.00  0.00    -0.062 N 
ATOM     14  N   UNL     1      45.625 131.908  16.141  1.00  0.00    -0.062 N 
ATOM     15  C   UNL     1      46.653 130.040  15.635  1.00  0.00     0.306 A 
ATOM     16  C   UNL     1      46.371 131.302  15.204  1.00  0.00     0.306 A 
ATOM     17  C   UNL     1      47.431 129.157  14.891  1.00  0.00     0.089 A 
ATOM     18  C   UNL     1      46.837 131.793  13.988  1.00  0.00     0.089 A 
ATOM     19  C   UNL     1      47.920 129.616  13.652  1.00  0.00     0.007 A 
ATOM     20  C   UNL     1      47.623 130.928  13.202  1.00  0.00     0.007 A 
ATOM     21  H   UNL     1      46.138 129.029  17.454  1.00  0.00     0.495 HD
ATOM     22  H   UNL     1      45.240 132.879  16.121  1.00  0.00     0.495 HD
ENDBRANCH   2  12
BRANCH   9  23
ATOM     23  N   UNL     1      44.950 130.641  22.071  1.00  0.00    -0.349 N 
ATOM     24  H   UNL     1      45.462 131.324  22.675  1.00  0.00     0.167 HD
BRANCH  23  25
ATOM     25  C   UNL     1      44.559 129.380  22.647  1.00  0.00     0.041 A 
ATOM     26  C   UNL     1      43.592 129.365  23.684  1.00  0.00     0.027 A 
ATOM     27  C   UNL     1      45.102 128.157  22.182  1.00  0.00     0.052 A 
ATOM     28  C   UNL     1      43.179 128.154  24.268  1.00  0.00     0.012 A 
ATOM     29  C   UNL     1      44.671 126.976  22.784  1.00  0.00     0.047 A 
ATOM     30  C   UNL     1      43.745 126.977  23.790  1.00  0.00    -0.001 A 
ATOM     31  N   UNL     1      45.061 125.724  22.496  1.00  0.00    -0.361 N 
ATOM     32  C   UNL     1      43.537 125.666  24.161  1.00  0.00     0.028 A 
ATOM     33  C   UNL     1      44.371 124.919  23.334  1.00  0.00     0.083 A 
ATOM     34  H   UNL     1      45.755 125.428  21.773  1.00  0.00     0.166 HD
ENDBRANCH  23  25
ENDBRANCH   9  23
TORSDOF 4
ENDMDL
MODEL 3
REMARK VINA RESULT:     -10.0      0.895      1.338
REMARK SMILES Oc1c(-n2[nH+]c3ccccc3[nH+]2)cc2cnoc2c1Nc1ccc2cc[nH]c2c1
REMARK SMILES IDX 2 1 3 2 13 3 14 4 15 5 16 6 17 7 18 8 19 9 1 10 4 12 5 13
REMARK SMILES IDX 12 14 6 15 11 16 7 17 10 18 8 19 9 20 20 23 21 25 22 26
REMARK SMILES IDX 29 27 23 28 28 29 24 30 27 31 25 32 26 33
REMARK H PARENT 1 11 5 21 12 22 20 24 27 34
ROOT
ATOM      1  C   UNL     1      45.070 130.832  19.780  1.00  0.00     0.179 A 
ATOM      2  C   UNL     1      44.598 131.363  18.543  1.00  0.00     0.212 A 
ATOM      3  C   UNL     1      43.422 132.146  18.515  1.00  0.00     0.057 A 
ATOM      4  C   UNL     1      42.775 132.392  19.718  1.00  0.00     0.047 A 
ATOM      5  C   UNL     1      41.646 133.108  20.032  1.00  0.00     0.167 A 
ATOM      6  N   UNL     1      41.453 133.013  21.370  1.00  0.00    -0.087 NA
ATOM      7  O   UNL     1      42.415 132.274  21.859  1.00  0.00    -0.354 OA
ATOM      8  C   UNL     1      43.220 131.889  20.900  1.00  0.00     0.194 A 
ATOM      9  C   UNL     1      44.355 131.085  20.983  1.00  0.00     0.130 A 
ENDROOT
BRANCH   1  10
ATOM     10  O   UNL     1      46.236 130.064  19.792  1.00  0.00    -0.504 OA
ATOM     11  H   UNL     1      46.519 129.508  20.589  1.00  0.00     0.293 HD
ENDBRANCH   1  10
BRANCH   2  12
ATOM     12  N   UNL     1      45.306 131.116  17.316  1.00  0.00     0.083 N 
ATOM     13  N   UNL     1      45.104 131.780  16.178  1.00  0.00    -0.062 N 
ATOM     14  N   UNL     1      46.220 130.158  17.164  1.00  0.00    -0.062 N 
ATOM     15  C   UNL     1      45.927 131.226  15.273  1.00  0.00     0.306 A 
ATOM     16  C   UNL     1      46.619 130.223  15.884  1.00  0.00     0.306 A 
ATOM     17  C   UNL     1      46.101 131.536  13.927  1.00  0.00     0.089 A 
ATOM     18  C   UNL     1      47.551 129.443  15.205  1.00  0.00     0.089 A 
ATOM     19  C   UNL     1      47.038 130.771  13.205  1.00  0.00     0.007 A 
ATOM     20  C   UNL     1      47.760 129.730  13.842  1.00  0.00     0.007 A 
ATOM     21  H   UNL     1      44.409 132.543  16.020  1.00  0.00     0.495 HD
ATOM     22  H   UNL     1      46.554 129.500  17.903  1.00  0.00     0.495 HD
ENDBRANCH   2  12
BRANCH   9  23
ATOM     23  N   UNL     1      44.763 130.552  22.250  1.00  0.00    -0.349 N 
ATOM     24  H   UNL     1      45.305 131.181  22.885  1.00  0.00     0.167 HD
BRANCH  23  25
ATOM     25  C   UNL     1      44.307 129.288  22.768  1.00  0.00     0.041 A 
ATOM     26  C   UNL     1      45.203 128.190  22.794  1.00  0.00     0.027 A 
ATOM     27  C   UNL     1      42.993 129.128  23.273  1.00  0.00     0.052 A 
ATOM     28  C   UNL     1      44.798 126.940  23.296  1.00  0.00     0.012 A 
ATOM     29  C   UNL     1      42.625 127.877  23.763  1.00  0.00     0.047 A 
ATOM     30  C   UNL     1      43.497 126.823  23.773  1.00  0.00    -0.001 A 
ATOM     31  N   UNL     1      41.438 127.519  24.277  1.00  0.00    -0.361 N 
ATOM     32  C   UNL     1      42.833 125.744  24.317  1.00  0.00     0.028 A 
ATOM     33  C   UNL     1      41.559 126.216  24.617  1.00  0.00     0.083 A 
ATOM     34  H   UNL     1      40.592 128.121  24.393  1.00  0.00     0.166 HD
ENDBRANCH  23  25
ENDBRANCH   9  23
TORSDOF 4
ENDMDL


