MODEL 1
REMARK VINA RESULT:      -3.2      0.000      0.000
REMARK SMILES Cc1ccc(-c2ccc(N(C(=O)C/C=C(\O)Cl)c3cc4ccccc4[n-]3)c(C=O)c2)cc1
REMARK SMILES IDX 13 1 14 2 15 3 17 4 16 5 11 7 12 8 10 9 18 10 26 11 19 12
REMARK SMILES IDX 25 13 20 14 24 15 21 16 23 17 22 18 9 19 8 20 27 21 7 22
REMARK SMILES IDX 30 23 6 24 28 25 29 26 5 27 4 28 31 29 3 30 32 31 2 32 1 33
REMARK H PARENT 16 6
ROOT
ATOM      1  C   UNL     1      46.016 132.679  23.127  1.00  0.00     0.109 C 
ENDROOT
BRANCH   1   2
ATOM      2  C   UNL     1      46.370 133.793  22.184  1.00  0.00     0.040 C 
BRANCH   2   3
ATOM      3  C   UNL     1      47.555 134.412  22.190  1.00  0.00     0.180 C 
ATOM      4  Cl  UNL     1      48.014 135.413  20.823  1.00  0.00    -0.044 Cl
BRANCH   3   5
ATOM      5  O   UNL     1      48.431 134.280  23.264  1.00  0.00    -0.499 OA
ATOM      6  H   UNL     1      49.121 134.995  23.461  1.00  0.00     0.294 HD
ENDBRANCH   3   5
ENDBRANCH   2   3
ENDBRANCH   1   2
BRANCH   1   7
ATOM      7  C   UNL     1      44.605 132.217  22.880  1.00  0.00     0.155 C 
ATOM      8  O   UNL     1      43.660 132.854  23.420  1.00  0.00    -0.298 OA
BRANCH   7   9
ATOM      9  N   UNL     1      44.314 131.032  22.110  1.00  0.00    -0.387 N 
BRANCH   9  10
ATOM     10  C   UNL     1      43.772 129.842  22.702  1.00  0.00    -0.051 A 
ATOM     11  N   UNL     1      42.491 129.758  23.136  1.00  0.00    -0.435 NA
ATOM     12  C   UNL     1      44.452 128.633  22.821  1.00  0.00     0.008 A 
ATOM     13  C   UNL     1      42.372 128.488  23.562  1.00  0.00    -0.034 A 
ATOM     14  C   UNL     1      43.535 127.783  23.386  1.00  0.00    -0.023 A 
ATOM     15  C   UNL     1      41.238 127.897  24.113  1.00  0.00     0.004 A 
ATOM     16  C   UNL     1      43.646 126.441  23.745  1.00  0.00     0.008 A 
ATOM     17  C   UNL     1      41.318 126.543  24.491  1.00  0.00     0.000 A 
ATOM     18  C   UNL     1      42.516 125.819  24.308  1.00  0.00     0.001 A 
ENDBRANCH   9  10
BRANCH   9  19
ATOM     19  C   UNL     1      44.635 131.002  20.711  1.00  0.00    -0.025 A 
ATOM     20  C   UNL     1      45.911 130.580  20.319  1.00  0.00     0.005 A 
ATOM     21  C   UNL     1      43.695 131.393  19.733  1.00  0.00     0.018 A 
ATOM     22  C   UNL     1      46.267 130.552  18.971  1.00  0.00     0.009 A 
ATOM     23  C   UNL     1      44.065 131.365  18.377  1.00  0.00     0.020 A 
ATOM     24  C   UNL     1      45.348 130.945  17.985  1.00  0.00    -0.018 A 
BRANCH  21  25
ATOM     25  C   UNL     1      42.329 131.811  20.120  1.00  0.00     0.260 C 
ATOM     26  O   UNL     1      42.084 133.000  20.458  1.00  0.00    -0.298 OA
ENDBRANCH  21  25
BRANCH  24  27
ATOM     27  C   UNL     1      45.728 130.913  16.549  1.00  0.00    -0.018 A 
ATOM     28  C   UNL     1      46.438 131.982  15.974  1.00  0.00     0.009 A 
ATOM     29  C   UNL     1      45.381 129.815  15.741  1.00  0.00     0.009 A 
ATOM     30  C   UNL     1      46.795 131.952  14.622  1.00  0.00     0.004 A 
ATOM     31  C   UNL     1      45.740 129.785  14.390  1.00  0.00     0.004 A 
ATOM     32  C   UNL     1      46.462 130.847  13.826  1.00  0.00    -0.051 A 
ATOM     33  C   UNL     1      46.811 130.833  12.367  1.00  0.00     0.044 C 
ENDBRANCH  24  27
ENDBRANCH   9  19
ENDBRANCH   7   9
ENDBRANCH   1   7
TORSDOF 9
ENDMDL


