REMARK SMILES CC(=O)c1ccc(/C(O)=N/[C@@H]2C=CCC2)c(F)c1OC(=O)C(C)(C)C
REMARK SMILES IDX 7 1 6 2 5 3 4 4 18 5 16 6 17 7 8 8 9 9 10 11 11 12 12 13
REMARK SMILES IDX 15 14 13 15 14 16 19 17 20 18 21 19 22 20 23 21 24 22 25 23
REMARK SMILES IDX 2 24 3 25 1 26
REMARK H PARENT 9 10
ROOT
ATOM      1  C   UNL     1      -0.859   2.199  -0.584  1.00  0.00     0.076 A 
ATOM      2  C   UNL     1      -0.284   3.330  -1.180  1.00  0.00     0.018 A 
ATOM      3  C   UNL     1       1.060   3.334  -1.550  1.00  0.00     0.017 A 
ATOM      4  C   UNL     1       1.869   2.202  -1.349  1.00  0.00     0.063 A 
ATOM      5  C   UNL     1       1.291   1.045  -0.777  1.00  0.00     0.178 A 
ATOM      6  C   UNL     1      -0.059   1.059  -0.374  1.00  0.00     0.179 A 
ATOM      7  F   UNL     1      -0.584  -0.033   0.242  1.00  0.00    -0.202 F 
ENDROOT
BRANCH   1   8
ATOM      8  C   UNL     1      -2.283   2.226  -0.167  1.00  0.00     0.217 C 
BRANCH   8   9
ATOM      9  O   UNL     1      -3.220   2.971  -0.887  1.00  0.00    -0.493 OA
ATOM     10  H   UNL     1      -2.986   3.443  -1.751  1.00  0.00     0.295 HD
ENDBRANCH   8   9
BRANCH   8  11
ATOM     11  N   UNL     1      -2.660   1.550   0.877  1.00  0.00    -0.244 NA
BRANCH  11  12
ATOM     12  C   UNL     1      -4.037   1.500   1.364  1.00  0.00     0.132 C 
ATOM     13  C   UNL     1      -4.074   0.807   2.679  1.00  0.00    -0.005 C 
ATOM     14  C   UNL     1      -4.929   0.635   0.455  1.00  0.00     0.036 C 
ATOM     15  C   UNL     1      -4.842  -0.267   2.663  1.00  0.00    -0.029 C 
ATOM     16  C   UNL     1      -5.461  -0.503   1.333  1.00  0.00     0.029 C 
ENDBRANCH  11  12
ENDBRANCH   8  11
ENDBRANCH   1   8
BRANCH   5  17
ATOM     17  O   UNL     1       2.076  -0.103  -0.591  1.00  0.00    -0.422 OA
BRANCH  17  18
ATOM     18  C   UNL     1       1.669  -1.405  -0.916  1.00  0.00     0.316 C 
ATOM     19  O   UNL     1       0.644  -1.588  -1.632  1.00  0.00    -0.251 OA
BRANCH  18  20
ATOM     20  C   UNL     1       2.454  -2.599  -0.410  1.00  0.00     0.060 C 
ATOM     21  C   UNL     1       2.735  -3.567  -1.577  1.00  0.00     0.023 C 
ATOM     22  C   UNL     1       1.626  -3.317   0.670  1.00  0.00     0.023 C 
ATOM     23  C   UNL     1       3.799  -2.147   0.197  1.00  0.00     0.023 C 
ENDBRANCH  18  20
ENDBRANCH  17  18
ENDBRANCH   5  17
BRANCH   4  24
ATOM     24  C   UNL     1       3.307   2.231  -1.745  1.00  0.00     0.163 C 
ATOM     25  O   UNL     1       4.117   1.400  -1.252  1.00  0.00    -0.294 OA
ATOM     26  C   UNL     1       3.841   3.259  -2.699  1.00  0.00     0.093 C 
ENDBRANCH   4  24
TORSDOF 8


