REMARK SMILES CC(=O)c1ccc(-c2nccc(C)c2F)c2c[n-]nc12
REMARK SMILES IDX 4 1 5 2 6 3 7 4 16 5 17 6 18 7 19 8 20 9 2 10 1 11 3 12 8 13
REMARK SMILES IDX 9 14 14 15 10 16 12 17 11 18 15 19 13 20
REMARK H PARENT
ROOT
ATOM      1  C   UNL     1      -0.569  -1.916  -1.940  1.00  0.00     0.042 A 
ATOM      2  C   UNL     1      -1.422  -1.765  -0.819  1.00  0.00     0.015 A 
ATOM      3  C   UNL     1      -1.255  -0.692   0.084  1.00  0.00     0.012 A 
ATOM      4  C   UNL     1      -0.235   0.265  -0.105  1.00  0.00     0.011 A 
ATOM      5  C   UNL     1       0.599   0.085  -1.215  1.00  0.00    -0.012 A 
ATOM      6  C   UNL     1       1.659   0.815  -1.708  1.00  0.00    -0.113 A 
ATOM      7  N   UNL     1       2.101   0.211  -2.834  1.00  0.00    -0.581 NA
ATOM      8  N   UNL     1       1.360  -0.866  -3.072  1.00  0.00    -0.367 NA
ATOM      9  C   UNL     1       0.440  -0.952  -2.094  1.00  0.00     0.058 A 
ENDROOT
BRANCH   1  10
ATOM     10  C   UNL     1      -0.734  -3.040  -2.902  1.00  0.00     0.161 C 
ATOM     11  C   UNL     1      -1.822  -4.059  -2.744  1.00  0.00     0.093 C 
ATOM     12  O   UNL     1       0.054  -3.154  -3.880  1.00  0.00    -0.294 OA
ENDBRANCH   1  10
BRANCH   4  13
ATOM     13  C   UNL     1      -0.035   1.378   0.850  1.00  0.00     0.107 A 
ATOM     14  N   UNL     1       1.228   1.685   1.256  1.00  0.00    -0.253 NA
ATOM     15  C   UNL     1      -1.119   2.125   1.346  1.00  0.00     0.152 A 
ATOM     16  C   UNL     1       1.482   2.691   2.133  1.00  0.00     0.112 A 
ATOM     17  C   UNL     1      -0.883   3.161   2.265  1.00  0.00    -0.012 A 
ATOM     18  C   UNL     1       0.432   3.448   2.652  1.00  0.00     0.026 A 
ATOM     19  F   UNL     1      -2.384   1.881   0.913  1.00  0.00    -0.204 F 
ATOM     20  C   UNL     1      -2.023   3.991   2.781  1.00  0.00     0.047 C 
ENDBRANCH   4  13
TORSDOF 2


