REMARK SMILES Cc1ccoc1[N-]C(=O)N1CCC[C@H](c2ccc3ccc(C)c(F)c3[nH+]2)[C@@H]1F
REMARK SMILES IDX 8 1 9 2 7 3 6 4 2 5 3 6 4 7 5 8 1 9 10 10 11 11 27 12 12 13
REMARK SMILES IDX 14 14 13 15 28 16 15 17 16 18 26 19 17 20 25 21 18 22 23 23
REMARK SMILES IDX 19 24 21 25 20 26 24 28 22 29
REMARK H PARENT 26 27
ROOT
ATOM      1  C   UNL     1      -0.738   0.263   2.309  1.00  0.00     0.163 C 
ATOM      2  O   UNL     1      -0.323   0.066   3.484  1.00  0.00    -0.298 OA
ENDROOT
BRANCH   1   3
ATOM      3  N   UNL     1      -0.039   1.168   1.447  1.00  0.00    -0.369 NA
BRANCH   3   4
ATOM      4  C   UNL     1       1.280   1.662   1.687  1.00  0.00     0.123 A 
ATOM      5  C   UNL     1       1.993   2.462   0.822  1.00  0.00    -0.009 A 
ATOM      6  C   UNL     1       3.212   2.677   1.427  1.00  0.00     0.045 A 
ATOM      7  C   UNL     1       3.168   1.976   2.619  1.00  0.00     0.195 A 
ATOM      8  O   UNL     1       2.002   1.380   2.746  1.00  0.00    -0.468 OA
ATOM      9  C   UNL     1       1.525   3.039  -0.475  1.00  0.00     0.048 C 
ENDBRANCH   3   4
ENDBRANCH   1   3
BRANCH   1  10
ATOM     10  N   UNL     1      -1.868  -0.487   1.815  1.00  0.00    -0.406 N 
ATOM     11  C   UNL     1      -2.132  -1.817   2.390  1.00  0.00     0.008 C 
ATOM     12  C   UNL     1      -2.631  -0.077   0.623  1.00  0.00     0.190 C 
ATOM     13  C   UNL     1      -2.991  -2.685   1.454  1.00  0.00     0.000 C 
ATOM     14  C   UNL     1      -2.437  -1.108  -0.514  1.00  0.00     0.119 C 
ATOM     15  C   UNL     1      -2.496  -2.578   0.001  1.00  0.00     0.017 C 
ATOM     16  F   UNL     1      -2.312   1.205   0.203  1.00  0.00    -0.247 F 
BRANCH  14  17
ATOM     17  C   UNL     1      -1.152  -0.827  -1.280  1.00  0.00     0.186 A 
ATOM     18  C   UNL     1      -1.216  -0.261  -2.563  1.00  0.00     0.075 A 
ATOM     19  N   UNL     1       0.068  -1.018  -0.691  1.00  0.00    -0.206 N 
ATOM     20  C   UNL     1      -0.044   0.113  -3.216  1.00  0.00     0.021 A 
ATOM     21  C   UNL     1       1.230  -0.635  -1.296  1.00  0.00     0.247 A 
ATOM     22  C   UNL     1       1.192  -0.056  -2.584  1.00  0.00     0.049 A 
ATOM     23  C   UNL     1       2.466  -0.776  -0.636  1.00  0.00     0.197 A 
ATOM     24  C   UNL     1       2.377   0.370  -3.196  1.00  0.00     0.015 A 
ATOM     25  C   UNL     1       3.652  -0.343  -1.254  1.00  0.00    -0.008 A 
ATOM     26  C   UNL     1       3.598   0.235  -2.531  1.00  0.00     0.007 A 
ATOM     27  H   UNL     1       0.108  -1.441   0.263  1.00  0.00     0.454 HD
ATOM     28  F   UNL     1       2.514  -1.308   0.613  1.00  0.00    -0.199 F 
ATOM     29  C   UNL     1       4.960  -0.438  -0.523  1.00  0.00     0.048 C 
ENDBRANCH  14  17
ENDBRANCH   1  10
TORSDOF 4


