REMARK SMILES CC[C@H](C)C(=O)[C@@H](O)[N@H+]1CCC[C@@H](Cc2cc3ccccc3[nH]2)C1
REMARK SMILES IDX 7 1 5 2 6 3 3 4 4 5 2 6 1 7 8 8 9 10 10 11 24 12 11 13 13 14
REMARK SMILES IDX 12 15 14 17 15 18 16 19 23 20 17 21 22 22 18 23 21 24 19 25
REMARK SMILES IDX 20 26
REMARK H PARENT 8 9 9 16 23 27
ROOT
ATOM      1  C   UNL     1       1.686   0.700   0.369  1.00  0.00     0.389 C 
ENDROOT
BRANCH   1   2
ATOM      2  C   UNL     1       1.518  -0.815   0.339  1.00  0.00     0.221 C 
ATOM      3  O   UNL     1       2.227  -1.495  -0.391  1.00  0.00    -0.290 OA
BRANCH   2   4
ATOM      4  C   UNL     1       0.463  -1.491   1.190  1.00  0.00     0.062 C 
ATOM      5  C   UNL     1      -0.581  -2.167   0.289  1.00  0.00     0.016 C 
BRANCH   4   6
ATOM      6  C   UNL     1       1.135  -2.490   2.157  1.00  0.00     0.008 C 
ATOM      7  C   UNL     1       0.176  -3.025   3.222  1.00  0.00     0.004 C 
ENDBRANCH   4   6
ENDBRANCH   2   4
ENDBRANCH   1   2
BRANCH   1   8
ATOM      8  O   UNL     1       2.925   1.103  -0.170  1.00  0.00    -0.339 OA
ATOM      9  H   UNL     1       2.998   0.750  -1.094  1.00  0.00     0.217 HD
ENDBRANCH   1   8
BRANCH   1  10
ATOM     10  N   UNL     1       0.543   1.407  -0.274  1.00  0.00    -0.303 N 
ATOM     11  C   UNL     1       0.670   2.873  -0.108  1.00  0.00     0.264 C 
ATOM     12  C   UNL     1       0.378   1.067  -1.708  1.00  0.00     0.268 C 
ATOM     13  C   UNL     1      -0.577   3.599  -0.639  1.00  0.00     0.062 C 
ATOM     14  C   UNL     1      -0.917   1.697  -2.268  1.00  0.00     0.050 C 
ATOM     15  C   UNL     1      -0.851   3.225  -2.100  1.00  0.00     0.015 C 
ATOM     16  H   UNL     1      -0.325   1.109   0.234  1.00  0.00     0.350 HD
BRANCH  14  17
ATOM     17  C   UNL     1      -1.144   1.319  -3.746  1.00  0.00     0.063 C 
BRANCH  17  18
ATOM     18  C   UNL     1      -1.378  -0.156  -3.900  1.00  0.00     0.016 A 
ATOM     19  C   UNL     1      -2.554  -0.817  -3.551  1.00  0.00     0.031 A 
ATOM     20  N   UNL     1      -0.408  -1.036  -4.243  1.00  0.00    -0.358 N 
ATOM     21  C   UNL     1      -2.265  -2.155  -3.700  1.00  0.00    -0.000 A 
ATOM     22  C   UNL     1      -0.963  -2.252  -4.118  1.00  0.00     0.046 A 
ATOM     23  C   UNL     1      -3.046  -3.283  -3.455  1.00  0.00     0.010 A 
ATOM     24  C   UNL     1      -0.349  -3.487  -4.320  1.00  0.00     0.026 A 
ATOM     25  C   UNL     1      -2.456  -4.544  -3.657  1.00  0.00     0.001 A 
ATOM     26  C   UNL     1      -1.114  -4.646  -4.088  1.00  0.00     0.002 A 
ATOM     27  H   UNL     1       0.580  -0.818  -4.501  1.00  0.00     0.166 HD
ENDBRANCH  17  18
ENDBRANCH  14  17
ENDBRANCH   1  10
TORSDOF 7


