REMARK SMILES N[NH2+]c1cc(C(=O)[C@H]2O[C@@H]2c2ccc(Cl)c(F)c2)ccc1F
REMARK SMILES IDX 3 1 4 2 5 3 19 4 20 5 21 6 22 7 2 8 1 11 6 14 7 15 8 16 9 17
REMARK SMILES IDX 10 18 11 19 12 20 18 21 13 22 16 23 14 24 17 25 15 26
REMARK H PARENT 2 9 2 10 1 12 1 13
ROOT
ATOM      1  C   UNL     1       1.302  -2.131   1.131  1.00  0.00     0.185 A 
ATOM      2  C   UNL     1       1.033  -1.186   0.126  1.00  0.00     0.084 A 
ATOM      3  C   UNL     1       0.942  -1.572  -1.224  1.00  0.00     0.027 A 
ATOM      4  C   UNL     1       1.130  -2.925  -1.556  1.00  0.00     0.015 A 
ATOM      5  C   UNL     1       1.383  -3.872  -0.561  1.00  0.00     0.046 A 
ATOM      6  C   UNL     1       1.460  -3.483   0.778  1.00  0.00     0.185 A 
ATOM      7  F   UNL     1       1.686  -4.423   1.730  1.00  0.00    -0.200 F 
ENDROOT
BRANCH   1   8
ATOM      8  N   UNL     1       1.352  -1.723   2.512  1.00  0.00    -0.237 N 
ATOM      9  H   UNL     1       1.640  -0.719   2.599  1.00  0.00     0.376 HD
ATOM     10  H   UNL     1       2.040  -2.312   3.038  1.00  0.00     0.376 HD
BRANCH   8  11
ATOM     11  N   UNL     1       0.073  -1.898   3.078  1.00  0.00    -0.178 NA
ATOM     12  H   UNL     1      -0.559  -1.150   2.705  1.00  0.00     0.183 HD
ATOM     13  H   UNL     1       0.151  -1.729   4.108  1.00  0.00     0.183 HD
ENDBRANCH   8  11
ENDBRANCH   1   8
BRANCH   3  14
ATOM     14  C   UNL     1       0.650  -0.577  -2.287  1.00  0.00     0.194 C 
ATOM     15  O   UNL     1       0.806  -0.888  -3.499  1.00  0.00    -0.291 OA
BRANCH  14  16
ATOM     16  C   UNL     1       0.182   0.808  -1.950  1.00  0.00     0.224 C 
ATOM     17  O   UNL     1      -0.721   1.303  -2.912  1.00  0.00    -0.356 OA
ATOM     18  C   UNL     1      -1.270   0.931  -1.666  1.00  0.00     0.186 C 
BRANCH  18  19
ATOM     19  C   UNL     1      -1.673   2.125  -0.852  1.00  0.00    -0.013 A 
ATOM     20  C   UNL     1      -1.414   2.149   0.526  1.00  0.00     0.008 A 
ATOM     21  C   UNL     1      -2.370   3.192  -1.442  1.00  0.00     0.047 A 
ATOM     22  C   UNL     1      -1.817   3.242   1.300  1.00  0.00     0.024 A 
ATOM     23  C   UNL     1      -2.773   4.285  -0.667  1.00  0.00     0.142 A 
ATOM     24  C   UNL     1      -2.494   4.312   0.705  1.00  0.00     0.076 A 
ATOM     25  F   UNL     1      -3.439   5.312  -1.252  1.00  0.00    -0.205 F 
ATOM     26  Cl  UNL     1      -2.999   5.677   1.687  1.00  0.00    -0.081 Cl
ENDBRANCH  18  19
ENDBRANCH  14  16
ENDBRANCH   3  14
TORSDOF 5


