REMARK SMILES Cc1ccc(-c2cc(F)c3ncccc3c2)c(F)n1
REMARK SMILES IDX 6 1 7 2 8 3 9 4 10 5 11 6 12 7 13 8 14 9 15 10 16 11 5 12
REMARK SMILES IDX 2 13 3 14 19 15 4 16 17 17 1 18 18 19
REMARK H PARENT
ROOT
ATOM      1  C   UNL     1       0.913   0.195   0.950  1.00  0.00    -0.010 A 
ATOM      2  C   UNL     1       1.874   1.161   0.598  1.00  0.00     0.050 A 
ATOM      3  C   UNL     1       2.710   1.721   1.568  1.00  0.00     0.150 A 
ATOM      4  F   UNL     1       3.634   2.646   1.204  1.00  0.00    -0.205 F 
ATOM      5  C   UNL     1       2.594   1.327   2.905  1.00  0.00     0.106 A 
ATOM      6  N   UNL     1       3.406   1.870   3.853  1.00  0.00    -0.253 NA
ATOM      7  C   UNL     1       3.317   1.512   5.162  1.00  0.00     0.112 A 
ATOM      8  C   UNL     1       2.374   0.563   5.568  1.00  0.00     0.021 A 
ATOM      9  C   UNL     1       1.527  -0.013   4.619  1.00  0.00     0.012 A 
ATOM     10  C   UNL     1       1.629   0.364   3.273  1.00  0.00     0.004 A 
ATOM     11  C   UNL     1       0.793  -0.196   2.296  1.00  0.00     0.019 A 
ENDROOT
BRANCH   1  12
ATOM     12  C   UNL     1       0.027  -0.389  -0.085  1.00  0.00     0.037 A 
ATOM     13  C   UNL     1      -1.650  -1.492  -2.024  1.00  0.00     0.041 A 
ATOM     14  C   UNL     1      -1.447  -0.108  -1.995  1.00  0.00     0.024 A 
ATOM     15  N   UNL     1      -1.018  -2.285  -1.118  1.00  0.00    -0.225 NA
ATOM     16  C   UNL     1      -0.608   0.441  -1.024  1.00  0.00     0.015 A 
ATOM     17  C   UNL     1      -0.198  -1.776  -0.160  1.00  0.00     0.220 A 
ATOM     18  C   UNL     1      -2.533  -2.105  -3.064  1.00  0.00     0.067 C 
ATOM     19  F   UNL     1       0.426  -2.629   0.692  1.00  0.00    -0.184 F 
ENDBRANCH   1  12
TORSDOF 1


