REMARK SMILES Cc1ncnc(O[C@@H](c2ccccc2)[C@@H]2CO2)c1C
REMARK SMILES IDX 7 1 6 2 2 3 3 4 18 5 4 6 5 7 1 8 19 9 8 10 9 11 10 12 14 13
REMARK SMILES IDX 11 14 13 15 12 16 15 17 16 18 17 19
REMARK H PARENT
ROOT
ATOM      1  O   UNL     1       0.470   0.764   0.404  1.00  0.00    -0.466 OA
ENDROOT
BRANCH   1   2
ATOM      2  C   UNL     1       1.720   0.556   1.001  1.00  0.00     0.220 A 
ATOM      3  C   UNL     1       4.134   0.590   0.922  1.00  0.00     0.047 A 
ATOM      4  N   UNL     1       4.149   0.111   2.194  1.00  0.00    -0.241 NA
ATOM      5  C   UNL     1       2.898   0.850   0.289  1.00  0.00     0.032 A 
ATOM      6  C   UNL     1       2.999  -0.143   2.867  1.00  0.00     0.226 A 
ATOM      7  N   UNL     1       1.802   0.075   2.271  1.00  0.00    -0.202 NA
ATOM      8  C   UNL     1       5.445   0.845   0.238  1.00  0.00     0.067 C 
ATOM      9  C   UNL     1       2.836   1.364  -1.128  1.00  0.00     0.052 C 
ENDBRANCH   1   2
BRANCH   1  10
ATOM     10  C   UNL     1      -0.776   0.423   1.013  1.00  0.00     0.236 C 
BRANCH  10  11
ATOM     11  C   UNL     1      -1.895   1.096   0.257  1.00  0.00    -0.005 A 
ATOM     12  C   UNL     1      -2.933   1.740   0.952  1.00  0.00     0.007 A 
ATOM     13  C   UNL     1      -1.938   1.046  -1.148  1.00  0.00     0.007 A 
ATOM     14  C   UNL     1      -3.984   2.341   0.252  1.00  0.00     0.000 A 
ATOM     15  C   UNL     1      -2.991   1.649  -1.844  1.00  0.00     0.000 A 
ATOM     16  C   UNL     1      -4.012   2.297  -1.145  1.00  0.00     0.000 A 
ENDBRANCH  10  11
BRANCH  10  17
ATOM     17  C   UNL     1      -0.979  -1.098   0.968  1.00  0.00     0.189 C 
ATOM     18  C   UNL     1      -1.945  -1.663   1.938  1.00  0.00     0.197 C 
ATOM     19  O   UNL     1      -0.553  -1.732   2.151  1.00  0.00    -0.369 OA
ENDBRANCH  10  17
ENDBRANCH   1  10
TORSDOF 4


