MODEL 1
REMARK VINA RESULT:      -9.0      0.000      0.000
REMARK SMILES CCC(=O)OCOc1ccc([NH2+]c2ccc3cc[nH]c3c2)c(F)c1
REMARK SMILES IDX 6 1 5 2 3 3 4 4 2 5 1 6 7 7 8 8 9 9 24 10 10 11 22 12 11 13
REMARK SMILES IDX 23 14 12 15 13 18 14 19 21 20 15 21 20 22 16 23 19 24 17 25
REMARK SMILES IDX 18 26
REMARK H PARENT 12 16 12 17 19 27
ROOT
ATOM      1  C   UNL     1      43.880 130.707  23.298  1.00  0.00     0.470 C 
ENDROOT
BRANCH   1   2
ATOM      2  O   UNL     1      43.528 129.487  22.653  1.00  0.00    -0.428 OA
BRANCH   2   3
ATOM      3  C   UNL     1      44.055 128.251  23.036  1.00  0.00     0.308 C 
ATOM      4  O   UNL     1      45.203 127.893  22.655  1.00  0.00    -0.252 OA
BRANCH   3   5
ATOM      5  C   UNL     1      43.221 127.323  23.860  1.00  0.00     0.119 C 
ATOM      6  C   UNL     1      41.798 127.854  23.987  1.00  0.00     0.016 C 
ENDBRANCH   3   5
ENDBRANCH   2   3
ENDBRANCH   1   2
BRANCH   1   7
ATOM      7  O   UNL     1      44.586 131.543  22.387  1.00  0.00    -0.457 OA
BRANCH   7   8
ATOM      8  C   UNL     1      44.343 131.606  21.006  1.00  0.00     0.127 A 
ATOM      9  C   UNL     1      45.333 131.315  20.049  1.00  0.00     0.053 A 
ATOM     10  C   UNL     1      43.064 131.973  20.574  1.00  0.00     0.092 A 
ATOM     11  C   UNL     1      45.038 131.386  18.685  1.00  0.00     0.075 A 
ATOM     12  C   UNL     1      42.764 132.045  19.210  1.00  0.00     0.187 A 
ATOM     13  C   UNL     1      43.752 131.754  18.249  1.00  0.00     0.170 A 
ATOM     14  F   UNL     1      41.511 132.399  18.827  1.00  0.00    -0.200 F 
BRANCH  13  15
ATOM     15  N   UNL     1      43.447 131.790  16.840  1.00  0.00    -0.279 N 
ATOM     16  H   UNL     1      43.350 132.782  16.519  1.00  0.00     0.358 HD
ATOM     17  H   UNL     1      42.529 131.325  16.653  1.00  0.00     0.358 HD
BRANCH  15  18
ATOM     18  C   UNL     1      44.498 131.138  16.099  1.00  0.00     0.136 A 
ATOM     19  C   UNL     1      44.637 129.725  16.147  1.00  0.00     0.069 A 
ATOM     20  C   UNL     1      45.374 131.896  15.286  1.00  0.00     0.094 A 
ATOM     21  C   UNL     1      45.636 129.073  15.403  1.00  0.00     0.016 A 
ATOM     22  C   UNL     1      46.353 131.218  14.563  1.00  0.00     0.051 A 
ATOM     23  C   UNL     1      46.479 129.856  14.621  1.00  0.00    -0.000 A 
ATOM     24  N   UNL     1      47.276 131.747  13.742  1.00  0.00    -0.361 N 
ATOM     25  C   UNL     1      47.527 129.503  13.799  1.00  0.00     0.028 A 
ATOM     26  C   UNL     1      47.995 130.702  13.273  1.00  0.00     0.083 A 
ATOM     27  H   UNL     1      47.411 132.756  13.511  1.00  0.00     0.166 HD
ENDBRANCH  15  18
ENDBRANCH  13  15
ENDBRANCH   7   8
ENDBRANCH   1   7
TORSDOF 7
ENDMDL
MODEL 2
REMARK VINA RESULT:      -8.6      3.384      8.069
REMARK SMILES CCC(=O)OCOc1ccc([NH2+]c2ccc3cc[nH]c3c2)c(F)c1
REMARK SMILES IDX 6 1 5 2 3 3 4 4 2 5 1 6 7 7 8 8 9 9 24 10 10 11 22 12 11 13
REMARK SMILES IDX 23 14 12 15 13 18 14 19 21 20 15 21 20 22 16 23 19 24 17 25
REMARK SMILES IDX 18 26
REMARK H PARENT 12 16 12 17 19 27
ROOT
ATOM      1  C   UNL     1      43.961 130.620  15.524  1.00  0.00     0.470 C 
ENDROOT
BRANCH   1   2
ATOM      2  O   UNL     1      44.915 130.767  14.478  1.00  0.00    -0.428 OA
BRANCH   2   3
ATOM      3  C   UNL     1      46.135 130.085  14.466  1.00  0.00     0.308 C 
ATOM      4  O   UNL     1      46.305 129.056  15.176  1.00  0.00    -0.252 OA
BRANCH   3   5
ATOM      5  C   UNL     1      47.264 130.619  13.645  1.00  0.00     0.119 C 
ATOM      6  C   UNL     1      48.377 129.583  13.530  1.00  0.00     0.016 C 
ENDBRANCH   3   5
ENDBRANCH   2   3
ENDBRANCH   1   2
BRANCH   1   7
ATOM      7  O   UNL     1      44.083 131.704  16.440  1.00  0.00    -0.457 OA
BRANCH   7   8
ATOM      8  C   UNL     1      44.288 131.564  17.820  1.00  0.00     0.127 A 
ATOM      9  C   UNL     1      45.435 130.952  18.358  1.00  0.00     0.053 A 
ATOM     10  C   UNL     1      43.307 132.055  18.690  1.00  0.00     0.092 A 
ATOM     11  C   UNL     1      45.594 130.843  19.742  1.00  0.00     0.075 A 
ATOM     12  C   UNL     1      43.462 131.948  20.075  1.00  0.00     0.187 A 
ATOM     13  C   UNL     1      44.610 131.336  20.617  1.00  0.00     0.170 A 
ATOM     14  F   UNL     1      42.493 132.440  20.888  1.00  0.00    -0.200 F 
BRANCH  13  15
ATOM     15  N   UNL     1      44.799 131.250  22.044  1.00  0.00    -0.279 N 
ATOM     16  H   UNL     1      44.410 132.103  22.509  1.00  0.00     0.358 HD
ATOM     17  H   UNL     1      45.820 131.224  22.275  1.00  0.00     0.358 HD
BRANCH  15  18
ATOM     18  C   UNL     1      44.141 130.072  22.551  1.00  0.00     0.136 A 
ATOM     19  C   UNL     1      44.771 128.802  22.454  1.00  0.00     0.069 A 
ATOM     20  C   UNL     1      42.881 130.177  23.187  1.00  0.00     0.094 A 
ATOM     21  C   UNL     1      44.155 127.650  22.975  1.00  0.00     0.016 A 
ATOM     22  C   UNL     1      42.299 129.016  23.691  1.00  0.00     0.051 A 
ATOM     23  C   UNL     1      42.914 127.798  23.588  1.00  0.00    -0.000 A 
ATOM     24  N   UNL     1      41.118 128.901  24.321  1.00  0.00    -0.361 N 
ATOM     25  C   UNL     1      42.089 126.867  24.179  1.00  0.00     0.028 A 
ATOM     26  C   UNL     1      40.986 127.589  24.622  1.00  0.00     0.083 A 
ATOM     27  H   UNL     1      40.441 129.666  24.536  1.00  0.00     0.166 HD
ENDBRANCH  15  18
ENDBRANCH  13  15
ENDBRANCH   7   8
ENDBRANCH   1   7
TORSDOF 7
ENDMDL
MODEL 3
REMARK VINA RESULT:      -8.0      3.589      8.298
REMARK SMILES CCC(=O)OCOc1ccc([NH2+]c2ccc3cc[nH]c3c2)c(F)c1
REMARK SMILES IDX 6 1 5 2 3 3 4 4 2 5 1 6 7 7 8 8 9 9 24 10 10 11 22 12 11 13
REMARK SMILES IDX 23 14 12 15 13 18 14 19 21 20 15 21 20 22 16 23 19 24 17 25
REMARK SMILES IDX 18 26
REMARK H PARENT 12 16 12 17 19 27
ROOT
ATOM      1  C   UNL     1      44.495 130.748  16.116  1.00  0.00     0.470 C 
ENDROOT
BRANCH   1   2
ATOM      2  O   UNL     1      45.844 130.998  15.737  1.00  0.00    -0.428 OA
BRANCH   2   3
ATOM      3  C   UNL     1      46.383 130.556  14.526  1.00  0.00     0.308 C 
ATOM      4  O   UNL     1      45.960 131.011  13.428  1.00  0.00    -0.252 OA
BRANCH   3   5
ATOM      5  C   UNL     1      47.432 129.491  14.536  1.00  0.00     0.119 C 
ATOM      6  C   UNL     1      48.396 129.679  13.370  1.00  0.00     0.016 C 
ENDBRANCH   3   5
ENDBRANCH   2   3
ENDBRANCH   1   2
BRANCH   1   7
ATOM      7  O   UNL     1      44.077 131.722  17.068  1.00  0.00    -0.457 OA
BRANCH   7   8
ATOM      8  C   UNL     1      44.184 131.576  18.459  1.00  0.00     0.127 A 
ATOM      9  C   UNL     1      43.249 132.131  19.354  1.00  0.00     0.053 A 
ATOM     10  C   UNL     1      45.267 130.851  18.969  1.00  0.00     0.092 A 
ATOM     11  C   UNL     1      43.399 131.952  20.731  1.00  0.00     0.075 A 
ATOM     12  C   UNL     1      45.420 130.669  20.347  1.00  0.00     0.187 A 
ATOM     13  C   UNL     1      44.487 131.223  21.245  1.00  0.00     0.170 A 
ATOM     14  F   UNL     1      46.479 129.956  20.805  1.00  0.00    -0.200 F 
BRANCH  13  15
ATOM     15  N   UNL     1      44.613 131.014  22.666  1.00  0.00    -0.279 N 
ATOM     16  H   UNL     1      44.170 131.807  23.186  1.00  0.00     0.358 HD
ATOM     17  H   UNL     1      45.621 131.000  22.945  1.00  0.00     0.358 HD
BRANCH  15  18
ATOM     18  C   UNL     1      43.975 129.773  23.033  1.00  0.00     0.136 A 
ATOM     19  C   UNL     1      44.760 128.631  23.345  1.00  0.00     0.069 A 
ATOM     20  C   UNL     1      42.566 129.696  23.125  1.00  0.00     0.094 A 
ATOM     21  C   UNL     1      44.153 127.424  23.736  1.00  0.00     0.016 A 
ATOM     22  C   UNL     1      41.997 128.485  23.516  1.00  0.00     0.051 A 
ATOM     23  C   UNL     1      42.764 127.390  23.809  1.00  0.00    -0.000 A 
ATOM     24  N   UNL     1      40.691 128.205  23.662  1.00  0.00    -0.361 N 
ATOM     25  C   UNL     1      41.908 126.368  24.159  1.00  0.00     0.028 A 
ATOM     26  C   UNL     1      40.632 126.912  24.055  1.00  0.00     0.083 A 
ATOM     27  H   UNL     1      39.886 128.851  23.505  1.00  0.00     0.166 HD
ENDBRANCH  15  18
ENDBRANCH  13  15
ENDBRANCH   7   8
ENDBRANCH   1   7
TORSDOF 7
ENDMDL
MODEL 4
REMARK VINA RESULT:      -7.5      3.484      7.761
REMARK SMILES CCC(=O)OCOc1ccc([NH2+]c2ccc3cc[nH]c3c2)c(F)c1
REMARK SMILES IDX 6 1 5 2 3 3 4 4 2 5 1 6 7 7 8 8 9 9 24 10 10 11 22 12 11 13
REMARK SMILES IDX 23 14 12 15 13 18 14 19 21 20 15 21 20 22 16 23 19 24 17 25
REMARK SMILES IDX 18 26
REMARK H PARENT 12 16 12 17 19 27
ROOT
ATOM      1  C   UNL     1      44.014 131.360  14.980  1.00  0.00     0.470 C 
ENDROOT
BRANCH   1   2
ATOM      2  O   UNL     1      45.410 131.309  15.254  1.00  0.00    -0.428 OA
BRANCH   2   3
ATOM      3  C   UNL     1      46.338 130.785  14.350  1.00  0.00     0.308 C 
ATOM      4  O   UNL     1      46.417 131.235  13.174  1.00  0.00    -0.252 OA
BRANCH   3   5
ATOM      5  C   UNL     1      47.206 129.643  14.770  1.00  0.00     0.119 C 
ATOM      6  C   UNL     1      48.299 129.393  13.736  1.00  0.00     0.016 C 
ENDBRANCH   3   5
ENDBRANCH   2   3
ENDBRANCH   1   2
BRANCH   1   7
ATOM      7  O   UNL     1      43.306 131.710  16.166  1.00  0.00    -0.457 OA
BRANCH   7   8
ATOM      8  C   UNL     1      43.819 131.593  17.466  1.00  0.00     0.127 A 
ATOM      9  C   UNL     1      45.094 131.060  17.733  1.00  0.00     0.053 A 
ATOM     10  C   UNL     1      43.025 132.024  18.535  1.00  0.00     0.092 A 
ATOM     11  C   UNL     1      45.562 130.971  19.046  1.00  0.00     0.075 A 
ATOM     12  C   UNL     1      43.488 131.937  19.851  1.00  0.00     0.187 A 
ATOM     13  C   UNL     1      44.764 131.405  20.121  1.00  0.00     0.170 A 
ATOM     14  F   UNL     1      42.693 132.370  20.861  1.00  0.00    -0.200 F 
BRANCH  13  15
ATOM     15  N   UNL     1      45.270 131.341  21.470  1.00  0.00    -0.279 N 
ATOM     16  H   UNL     1      45.067 132.237  21.972  1.00  0.00     0.358 HD
ATOM     17  H   UNL     1      46.311 131.232  21.465  1.00  0.00     0.358 HD
BRANCH  15  18
ATOM     18  C   UNL     1      44.654 130.240  22.168  1.00  0.00     0.136 A 
ATOM     19  C   UNL     1      43.546 130.468  23.028  1.00  0.00     0.069 A 
ATOM     20  C   UNL     1      45.122 128.919  21.971  1.00  0.00     0.094 A 
ATOM     21  C   UNL     1      42.915 129.399  23.690  1.00  0.00     0.016 A 
ATOM     22  C   UNL     1      44.474 127.884  22.642  1.00  0.00     0.051 A 
ATOM     23  C   UNL     1      43.410 128.117  23.471  1.00  0.00    -0.000 A 
ATOM     24  N   UNL     1      44.761 126.573  22.592  1.00  0.00    -0.361 N 
ATOM     25  C   UNL     1      43.002 126.900  23.970  1.00  0.00     0.028 A 
ATOM     26  C   UNL     1      43.863 125.967  23.403  1.00  0.00     0.083 A 
ATOM     27  H   UNL     1      45.519 126.113  22.042  1.00  0.00     0.166 HD
ENDBRANCH  15  18
ENDBRANCH  13  15
ENDBRANCH   7   8
ENDBRANCH   1   7
TORSDOF 7
ENDMDL
MODEL 5
REMARK VINA RESULT:      -7.2      3.542      8.441
REMARK SMILES CCC(=O)OCOc1ccc([NH2+]c2ccc3cc[nH]c3c2)c(F)c1
REMARK SMILES IDX 6 1 5 2 3 3 4 4 2 5 1 6 7 7 8 8 9 9 24 10 10 11 22 12 11 13
REMARK SMILES IDX 23 14 12 15 13 18 14 19 21 20 15 21 20 22 16 23 19 24 17 25
REMARK SMILES IDX 18 26
REMARK H PARENT 12 16 12 17 19 27
ROOT
ATOM      1  C   UNL     1      44.877 130.553  16.431  1.00  0.00     0.470 C 
ENDROOT
BRANCH   1   2
ATOM      2  O   UNL     1      45.244 131.044  15.146  1.00  0.00    -0.428 OA
BRANCH   2   3
ATOM      3  C   UNL     1      46.385 130.608  14.469  1.00  0.00     0.308 C 
ATOM      4  O   UNL     1      47.127 129.716  14.963  1.00  0.00    -0.252 OA
BRANCH   3   5
ATOM      5  C   UNL     1      46.757 131.251  13.171  1.00  0.00     0.119 C 
ATOM      6  C   UNL     1      48.100 130.724  12.679  1.00  0.00     0.016 C 
ENDBRANCH   3   5
ENDBRANCH   2   3
ENDBRANCH   1   2
BRANCH   1   7
ATOM      7  O   UNL     1      44.100 131.532  17.115  1.00  0.00    -0.457 OA
BRANCH   7   8
ATOM      8  C   UNL     1      43.925 131.584  18.506  1.00  0.00     0.127 A 
ATOM      9  C   UNL     1      42.690 131.898  19.103  1.00  0.00     0.053 A 
ATOM     10  C   UNL     1      45.027 131.313  19.324  1.00  0.00     0.092 A 
ATOM     11  C   UNL     1      42.566 131.931  20.494  1.00  0.00     0.075 A 
ATOM     12  C   UNL     1      44.908 131.344  20.717  1.00  0.00     0.187 A 
ATOM     13  C   UNL     1      43.673 131.658  21.317  1.00  0.00     0.170 A 
ATOM     14  F   UNL     1      45.997 131.070  21.479  1.00  0.00    -0.200 F 
BRANCH  13  15
ATOM     15  N   UNL     1      43.527 131.660  22.752  1.00  0.00    -0.279 N 
ATOM     16  H   UNL     1      42.717 132.262  23.030  1.00  0.00     0.358 HD
ATOM     17  H   UNL     1      44.375 132.074  23.205  1.00  0.00     0.358 HD
BRANCH  15  18
ATOM     18  C   UNL     1      43.318 130.312  23.221  1.00  0.00     0.136 A 
ATOM     19  C   UNL     1      44.417 129.533  23.673  1.00  0.00     0.069 A 
ATOM     20  C   UNL     1      42.012 129.770  23.273  1.00  0.00     0.094 A 
ATOM     21  C   UNL     1      44.223 128.230  24.163  1.00  0.00     0.016 A 
ATOM     22  C   UNL     1      41.856 128.475  23.764  1.00  0.00     0.051 A 
ATOM     23  C   UNL     1      42.923 127.733  24.192  1.00  0.00    -0.000 A 
ATOM     24  N   UNL     1      40.712 127.783  23.893  1.00  0.00    -0.361 N 
ATOM     25  C   UNL     1      42.436 126.515  24.614  1.00  0.00     0.028 A 
ATOM     26  C   UNL     1      41.062 126.585  24.412  1.00  0.00     0.083 A 
ATOM     27  H   UNL     1      39.750 128.102  23.645  1.00  0.00     0.166 HD
ENDBRANCH  15  18
ENDBRANCH  13  15
ENDBRANCH   7   8
ENDBRANCH   1   7
TORSDOF 7
ENDMDL
MODEL 6
REMARK VINA RESULT:      -7.0      3.660      8.349
REMARK SMILES CCC(=O)OCOc1ccc([NH2+]c2ccc3cc[nH]c3c2)c(F)c1
REMARK SMILES IDX 6 1 5 2 3 3 4 4 2 5 1 6 7 7 8 8 9 9 24 10 10 11 22 12 11 13
REMARK SMILES IDX 23 14 12 15 13 18 14 19 21 20 15 21 20 22 16 23 19 24 17 25
REMARK SMILES IDX 18 26
REMARK H PARENT 12 16 12 17 19 27
ROOT
ATOM      1  C   UNL     1      45.290 131.204  15.428  1.00  0.00     0.470 C 
ENDROOT
BRANCH   1   2
ATOM      2  O   UNL     1      45.826 130.121  14.675  1.00  0.00    -0.428 OA
BRANCH   2   3
ATOM      3  C   UNL     1      47.126 130.126  14.165  1.00  0.00     0.308 C 
ATOM      4  O   UNL     1      47.892 129.139  14.342  1.00  0.00    -0.252 OA
BRANCH   3   5
ATOM      5  C   UNL     1      47.628 131.339  13.450  1.00  0.00     0.119 C 
ATOM      6  C   UNL     1      47.607 131.118  11.942  1.00  0.00     0.016 C 
ENDBRANCH   3   5
ENDBRANCH   2   3
ENDBRANCH   1   2
BRANCH   1   7
ATOM      7  O   UNL     1      44.399 130.704  16.420  1.00  0.00    -0.457 OA
BRANCH   7   8
ATOM      8  C   UNL     1      44.454 131.035  17.783  1.00  0.00     0.127 A 
ATOM      9  C   UNL     1      43.400 131.689  18.447  1.00  0.00     0.053 A 
ATOM     10  C   UNL     1      45.607 130.697  18.501  1.00  0.00     0.092 A 
ATOM     11  C   UNL     1      43.502 131.990  19.807  1.00  0.00     0.075 A 
ATOM     12  C   UNL     1      45.714 130.996  19.863  1.00  0.00     0.187 A 
ATOM     13  C   UNL     1      44.660 131.651  20.531  1.00  0.00     0.170 A 
ATOM     14  F   UNL     1      46.843 130.650  20.528  1.00  0.00    -0.200 F 
BRANCH  13  15
ATOM     15  N   UNL     1      44.742 131.935  21.942  1.00  0.00    -0.279 N 
ATOM     16  H   UNL     1      44.367 132.893  22.138  1.00  0.00     0.358 HD
ATOM     17  H   UNL     1      45.740 131.936  22.258  1.00  0.00     0.358 HD
BRANCH  15  18
ATOM     18  C   UNL     1      43.985 130.954  22.679  1.00  0.00     0.136 A 
ATOM     19  C   UNL     1      42.835 131.344  23.418  1.00  0.00     0.069 A 
ATOM     20  C   UNL     1      44.357 129.589  22.640  1.00  0.00     0.094 A 
ATOM     21  C   UNL     1      42.069 130.393  24.114  1.00  0.00     0.016 A 
ATOM     22  C   UNL     1      43.575 128.674  23.342  1.00  0.00     0.051 A 
ATOM     23  C   UNL     1      42.472 129.062  24.053  1.00  0.00    -0.000 A 
ATOM     24  N   UNL     1      43.757 127.345  23.433  1.00  0.00    -0.361 N 
ATOM     25  C   UNL     1      41.928 127.931  24.621  1.00  0.00     0.028 A 
ATOM     26  C   UNL     1      42.752 126.888  24.214  1.00  0.00     0.083 A 
ATOM     27  H   UNL     1      44.516 126.781  22.993  1.00  0.00     0.166 HD
ENDBRANCH  15  18
ENDBRANCH  13  15
ENDBRANCH   7   8
ENDBRANCH   1   7
TORSDOF 7
ENDMDL
MODEL 7
REMARK VINA RESULT:      -7.0      3.458      8.025
REMARK SMILES CCC(=O)OCOc1ccc([NH2+]c2ccc3cc[nH]c3c2)c(F)c1
REMARK SMILES IDX 6 1 5 2 3 3 4 4 2 5 1 6 7 7 8 8 9 9 24 10 10 11 22 12 11 13
REMARK SMILES IDX 23 14 12 15 13 18 14 19 21 20 15 21 20 22 16 23 19 24 17 25
REMARK SMILES IDX 18 26
REMARK H PARENT 12 16 12 17 19 27
ROOT
ATOM      1  C   UNL     1      44.795 129.489  15.267  1.00  0.00     0.470 C 
ENDROOT
BRANCH   1   2
ATOM      2  O   UNL     1      46.165 129.145  15.443  1.00  0.00    -0.428 OA
BRANCH   2   3
ATOM      3  C   UNL     1      47.161 129.523  14.538  1.00  0.00     0.308 C 
ATOM      4  O   UNL     1      48.032 128.695  14.156  1.00  0.00    -0.252 OA
BRANCH   3   5
ATOM      5  C   UNL     1      47.222 130.940  14.065  1.00  0.00     0.119 C 
ATOM      6  C   UNL     1      46.678 131.053  12.645  1.00  0.00     0.016 C 
ENDBRANCH   3   5
ENDBRANCH   2   3
ENDBRANCH   1   2
BRANCH   1   7
ATOM      7  O   UNL     1      44.533 130.746  15.884  1.00  0.00    -0.457 OA
BRANCH   7   8
ATOM      8  C   UNL     1      44.514 130.966  17.270  1.00  0.00     0.127 A 
ATOM      9  C   UNL     1      45.591 130.619  18.107  1.00  0.00     0.053 A 
ATOM     10  C   UNL     1      43.376 131.554  17.833  1.00  0.00     0.092 A 
ATOM     11  C   UNL     1      45.526 130.865  19.480  1.00  0.00     0.075 A 
ATOM     12  C   UNL     1      43.306 131.803  19.207  1.00  0.00     0.187 A 
ATOM     13  C   UNL     1      44.382 131.456  20.048  1.00  0.00     0.170 A 
ATOM     14  F   UNL     1      42.189 132.379  19.718  1.00  0.00    -0.200 F 
BRANCH  13  15
ATOM     15  N   UNL     1      44.338 131.739  21.461  1.00  0.00    -0.279 N 
ATOM     16  H   UNL     1      43.663 132.516  21.651  1.00  0.00     0.358 HD
ATOM     17  H   UNL     1      45.273 132.068  21.797  1.00  0.00     0.358 HD
BRANCH  15  18
ATOM     18  C   UNL     1      43.936 130.556  22.181  1.00  0.00     0.136 A 
ATOM     19  C   UNL     1      44.862 129.498  22.393  1.00  0.00     0.069 A 
ATOM     20  C   UNL     1      42.631 130.456  22.717  1.00  0.00     0.094 A 
ATOM     21  C   UNL     1      44.493 128.353  23.121  1.00  0.00     0.016 A 
ATOM     22  C   UNL     1      42.299 129.307  23.433  1.00  0.00     0.051 A 
ATOM     23  C   UNL     1      43.198 128.294  23.627  1.00  0.00    -0.000 A 
ATOM     24  N   UNL     1      41.124 129.019  24.016  1.00  0.00    -0.361 N 
ATOM     25  C   UNL     1      42.567 127.318  24.366  1.00  0.00     0.028 A 
ATOM     26  C   UNL     1      41.283 127.804  24.588  1.00  0.00     0.083 A 
ATOM     27  H   UNL     1      40.263 129.610  24.027  1.00  0.00     0.166 HD
ENDBRANCH  15  18
ENDBRANCH  13  15
ENDBRANCH   7   8
ENDBRANCH   1   7
TORSDOF 7
ENDMDL
MODEL 8
REMARK VINA RESULT:      -6.8      3.513      8.099
REMARK SMILES CCC(=O)OCOc1ccc([NH2+]c2ccc3cc[nH]c3c2)c(F)c1
REMARK SMILES IDX 6 1 5 2 3 3 4 4 2 5 1 6 7 7 8 8 9 9 24 10 10 11 22 12 11 13
REMARK SMILES IDX 23 14 12 15 13 18 14 19 21 20 15 21 20 22 16 23 19 24 17 25
REMARK SMILES IDX 18 26
REMARK H PARENT 12 16 12 17 19 27
ROOT
ATOM      1  C   UNL     1      44.271 130.296  15.440  1.00  0.00     0.470 C 
ENDROOT
BRANCH   1   2
ATOM      2  O   UNL     1      45.239 130.606  14.443  1.00  0.00    -0.428 OA
BRANCH   2   3
ATOM      3  C   UNL     1      46.395 131.342  14.716  1.00  0.00     0.308 C 
ATOM      4  O   UNL     1      46.321 132.506  15.197  1.00  0.00    -0.252 OA
BRANCH   3   5
ATOM      5  C   UNL     1      47.730 130.760  14.379  1.00  0.00     0.119 C 
ATOM      6  C   UNL     1      47.653 129.960  13.083  1.00  0.00     0.016 C 
ENDBRANCH   3   5
ENDBRANCH   2   3
ENDBRANCH   1   2
BRANCH   1   7
ATOM      7  O   UNL     1      43.886 131.487  16.121  1.00  0.00    -0.457 OA
BRANCH   7   8
ATOM      8  C   UNL     1      43.756 131.604  17.513  1.00  0.00     0.127 A 
ATOM      9  C   UNL     1      42.505 131.692  18.152  1.00  0.00     0.053 A 
ATOM     10  C   UNL     1      44.920 131.636  18.288  1.00  0.00     0.092 A 
ATOM     11  C   UNL     1      42.430 131.801  19.543  1.00  0.00     0.075 A 
ATOM     12  C   UNL     1      44.850 131.745  19.680  1.00  0.00     0.187 A 
ATOM     13  C   UNL     1      43.600 131.833  20.323  1.00  0.00     0.170 A 
ATOM     14  F   UNL     1      46.000 131.768  20.399  1.00  0.00    -0.200 F 
BRANCH  13  15
ATOM     15  N   UNL     1      43.511 131.911  21.760  1.00  0.00    -0.279 N 
ATOM     16  H   UNL     1      42.631 132.405  22.039  1.00  0.00     0.358 HD
ATOM     17  H   UNL     1      44.303 132.476  22.145  1.00  0.00     0.358 HD
BRANCH  15  18
ATOM     18  C   UNL     1      43.525 130.583  22.321  1.00  0.00     0.136 A 
ATOM     19  C   UNL     1      44.678 129.763  22.189  1.00  0.00     0.069 A 
ATOM     20  C   UNL     1      42.406 130.101  23.041  1.00  0.00     0.094 A 
ATOM     21  C   UNL     1      44.717 128.477  22.758  1.00  0.00     0.016 A 
ATOM     22  C   UNL     1      42.479 128.823  23.592  1.00  0.00     0.051 A 
ATOM     23  C   UNL     1      43.594 128.041  23.455  1.00  0.00    -0.000 A 
ATOM     24  N   UNL     1      41.535 128.186  24.304  1.00  0.00    -0.361 N 
ATOM     25  C   UNL     1      43.348 126.854  24.109  1.00  0.00     0.028 A 
ATOM     26  C   UNL     1      42.062 126.981  24.622  1.00  0.00     0.083 A 
ATOM     27  H   UNL     1      40.589 128.544  24.561  1.00  0.00     0.166 HD
ENDBRANCH  15  18
ENDBRANCH  13  15
ENDBRANCH   7   8
ENDBRANCH   1   7
TORSDOF 7
ENDMDL
MODEL 9
REMARK VINA RESULT:      -6.5      1.116      1.198
REMARK SMILES CCC(=O)OCOc1ccc([NH2+]c2ccc3cc[nH]c3c2)c(F)c1
REMARK SMILES IDX 6 1 5 2 3 3 4 4 2 5 1 6 7 7 8 8 9 9 24 10 10 11 22 12 11 13
REMARK SMILES IDX 23 14 12 15 13 18 14 19 21 20 15 21 20 22 16 23 19 24 17 25
REMARK SMILES IDX 18 26
REMARK H PARENT 12 16 12 17 19 27
ROOT
ATOM      1  C   UNL     1      42.989 131.889  22.624  1.00  0.00     0.470 C 
ENDROOT
BRANCH   1   2
ATOM      2  O   UNL     1      43.002 131.187  23.862  1.00  0.00    -0.428 OA
BRANCH   2   3
ATOM      3  C   UNL     1      43.608 129.938  24.016  1.00  0.00     0.308 C 
ATOM      4  O   UNL     1      44.791 129.843  24.445  1.00  0.00    -0.252 OA
BRANCH   3   5
ATOM      5  C   UNL     1      42.861 128.707  23.613  1.00  0.00     0.119 C 
ATOM      6  C   UNL     1      41.667 128.481  24.534  1.00  0.00     0.016 C 
ENDBRANCH   3   5
ENDBRANCH   2   3
ENDBRANCH   1   2
BRANCH   1   7
ATOM      7  O   UNL     1      44.028 131.396  21.783  1.00  0.00    -0.457 OA
BRANCH   7   8
ATOM      8  C   UNL     1      43.970 131.356  20.382  1.00  0.00     0.127 A 
ATOM      9  C   UNL     1      44.993 130.792  19.596  1.00  0.00     0.053 A 
ATOM     10  C   UNL     1      42.848 131.901  19.748  1.00  0.00     0.092 A 
ATOM     11  C   UNL     1      44.884 130.771  18.204  1.00  0.00     0.075 A 
ATOM     12  C   UNL     1      42.734 131.883  18.355  1.00  0.00     0.187 A 
ATOM     13  C   UNL     1      43.757 131.319  17.566  1.00  0.00     0.170 A 
ATOM     14  F   UNL     1      41.630 132.416  17.775  1.00  0.00    -0.200 F 
BRANCH  13  15
ATOM     15  N   UNL     1      43.637 131.261  16.130  1.00  0.00    -0.279 N 
ATOM     16  H   UNL     1      43.396 132.207  15.752  1.00  0.00     0.358 HD
ATOM     17  H   UNL     1      42.855 130.622  15.854  1.00  0.00     0.358 HD
BRANCH  15  18
ATOM     18  C   UNL     1      44.880 130.808  15.557  1.00  0.00     0.136 A 
ATOM     19  C   UNL     1      45.518 129.643  16.061  1.00  0.00     0.069 A 
ATOM     20  C   UNL     1      45.453 131.496  14.461  1.00  0.00     0.094 A 
ATOM     21  C   UNL     1      46.713 129.171  15.490  1.00  0.00     0.016 A 
ATOM     22  C   UNL     1      46.638 131.002  13.920  1.00  0.00     0.051 A 
ATOM     23  C   UNL     1      47.245 129.881  14.417  1.00  0.00    -0.000 A 
ATOM     24  N   UNL     1      47.337 131.505  12.889  1.00  0.00    -0.361 N 
ATOM     25  C   UNL     1      48.380 129.659  13.669  1.00  0.00     0.028 A 
ATOM     26  C   UNL     1      48.403 130.687  12.732  1.00  0.00     0.083 A 
ATOM     27  H   UNL     1      47.107 132.351  12.323  1.00  0.00     0.166 HD
ENDBRANCH  15  18
ENDBRANCH  13  15
ENDBRANCH   7   8
ENDBRANCH   1   7
TORSDOF 7
ENDMDL


