MODEL 1
REMARK VINA RESULT:      -9.1      0.000      0.000
REMARK SMILES C=Cc1cccc(-c2ccc3c(c2)[C@H](N=C=O)CC3)c1
REMARK SMILES IDX 8 1 9 2 10 3 11 4 12 5 13 6 14 7 18 8 19 9 7 10 3 11 4 12
REMARK SMILES IDX 20 13 5 14 6 15 2 16 1 17 15 18 16 19 17 20
REMARK H PARENT
ROOT
ATOM      1  C   UNL     1      44.105 131.426  17.959  1.00  0.00    -0.018 A 
ATOM      2  C   UNL     1      42.819 131.983  18.156  1.00  0.00     0.009 A 
ATOM      3  C   UNL     1      42.315 132.173  19.450  1.00  0.00     0.005 A 
ATOM      4  C   UNL     1      43.102 131.801  20.541  1.00  0.00    -0.042 A 
ATOM      5  C   UNL     1      44.344 131.248  20.365  1.00  0.00    -0.019 A 
ATOM      6  C   UNL     1      44.873 131.058  19.085  1.00  0.00     0.015 A 
ATOM      7  C   UNL     1      44.996 130.920  21.662  1.00  0.00     0.149 C 
ATOM      8  C   UNL     1      44.041 131.537  22.708  1.00  0.00     0.038 C 
ATOM      9  C   UNL     1      42.747 131.930  21.972  1.00  0.00     0.038 C 
ENDROOT
BRANCH   1  10
ATOM     10  C   UNL     1      44.639 131.228  16.587  1.00  0.00    -0.018 A 
ATOM     11  C   UNL     1      46.390 130.399  15.087  1.00  0.00    -0.026 A 
ATOM     12  C   UNL     1      45.636 130.842  13.989  1.00  0.00     0.008 A 
ATOM     13  C   UNL     1      45.875 130.586  16.387  1.00  0.00     0.016 A 
ATOM     14  C   UNL     1      44.409 131.480  14.181  1.00  0.00     0.001 A 
ATOM     15  C   UNL     1      43.912 131.675  15.470  1.00  0.00     0.009 A 
BRANCH  11  16
ATOM     16  C   UNL     1      47.684 129.720  14.829  1.00  0.00     0.000 C 
ATOM     17  C   UNL     1      48.202 129.534  13.614  1.00  0.00     0.009 C 
ENDBRANCH  11  16
ENDBRANCH   1  10
BRANCH   7  18
ATOM     18  N   UNL     1      45.079 129.473  21.852  1.00  0.00    -0.198 NA
BRANCH  18  19
ATOM     19  C   UNL     1      44.660 128.905  22.912  1.00  0.00     0.235 C 
ATOM     20  O   UNL     1      44.253 128.352  23.941  1.00  0.00    -0.211 OA
ENDBRANCH  18  19
ENDBRANCH   7  18
TORSDOF 4
ENDMDL
MODEL 2
REMARK VINA RESULT:      -7.6      0.957      1.088
REMARK SMILES C=Cc1cccc(-c2ccc3c(c2)[C@H](N=C=O)CC3)c1
REMARK SMILES IDX 8 1 9 2 10 3 11 4 12 5 13 6 14 7 18 8 19 9 7 10 3 11 4 12
REMARK SMILES IDX 20 13 5 14 6 15 2 16 1 17 15 18 16 19 17 20
REMARK H PARENT
ROOT
ATOM      1  C   UNL     1      43.821 131.507  18.908  1.00  0.00    -0.018 A 
ATOM      2  C   UNL     1      42.742 132.370  19.218  1.00  0.00     0.009 A 
ATOM      3  C   UNL     1      42.321 132.538  20.545  1.00  0.00     0.005 A 
ATOM      4  C   UNL     1      42.983 131.838  21.554  1.00  0.00    -0.042 A 
ATOM      5  C   UNL     1      44.021 130.989  21.268  1.00  0.00    -0.019 A 
ATOM      6  C   UNL     1      44.466 130.813  19.955  1.00  0.00     0.015 A 
ATOM      7  C   UNL     1      44.567 130.344  22.493  1.00  0.00     0.149 C 
ATOM      8  C   UNL     1      43.829 131.072  23.639  1.00  0.00     0.038 C 
ATOM      9  C   UNL     1      42.690 131.890  23.004  1.00  0.00     0.038 C 
ENDROOT
BRANCH   1  10
ATOM     10  C   UNL     1      44.268 131.333  17.503  1.00  0.00    -0.018 A 
ATOM     11  C   UNL     1      45.924 130.538  15.882  1.00  0.00    -0.026 A 
ATOM     12  C   UNL     1      45.100 130.993  14.841  1.00  0.00     0.008 A 
ATOM     13  C   UNL     1      45.492 130.703  17.214  1.00  0.00     0.016 A 
ATOM     14  C   UNL     1      43.883 131.619  15.120  1.00  0.00     0.001 A 
ATOM     15  C   UNL     1      43.469 131.792  16.441  1.00  0.00     0.009 A 
BRANCH  11  16
ATOM     16  C   UNL     1      47.203 129.872  15.532  1.00  0.00     0.000 C 
ATOM     17  C   UNL     1      47.506 129.427  14.311  1.00  0.00     0.009 C 
ENDBRANCH  11  16
ENDBRANCH   1  10
BRANCH   7  18
ATOM     18  N   UNL     1      44.245 128.919  22.518  1.00  0.00    -0.198 NA
BRANCH  18  19
ATOM     19  C   UNL     1      45.000 128.065  23.086  1.00  0.00     0.235 C 
ATOM     20  O   UNL     1      45.736 127.236  23.637  1.00  0.00    -0.211 OA
ENDBRANCH  18  19
ENDBRANCH   7  18
TORSDOF 4
ENDMDL
MODEL 3
REMARK VINA RESULT:      -7.1      1.365      2.391
REMARK SMILES C=Cc1cccc(-c2ccc3c(c2)[C@H](N=C=O)CC3)c1
REMARK SMILES IDX 8 1 9 2 10 3 11 4 12 5 13 6 14 7 18 8 19 9 7 10 3 11 4 12
REMARK SMILES IDX 20 13 5 14 6 15 2 16 1 17 15 18 16 19 17 20
REMARK H PARENT
ROOT
ATOM      1  C   UNL     1      44.059 131.410  19.405  1.00  0.00    -0.018 A 
ATOM      2  C   UNL     1      42.848 132.141  19.449  1.00  0.00     0.009 A 
ATOM      3  C   UNL     1      42.233 132.430  20.675  1.00  0.00     0.005 A 
ATOM      4  C   UNL     1      42.836 131.982  21.852  1.00  0.00    -0.042 A 
ATOM      5  C   UNL     1      44.002 131.262  21.824  1.00  0.00    -0.019 A 
ATOM      6  C   UNL     1      44.639 130.971  20.614  1.00  0.00     0.015 A 
ATOM      7  C   UNL     1      44.454 130.882  23.190  1.00  0.00     0.149 C 
ATOM      8  C   UNL     1      43.482 131.648  24.114  1.00  0.00     0.038 C 
ATOM      9  C   UNL     1      42.345 132.194  23.232  1.00  0.00     0.038 C 
ENDROOT
BRANCH   1  10
ATOM     10  C   UNL     1      44.711 131.107  18.105  1.00  0.00    -0.018 A 
ATOM     11  C   UNL     1      44.784 131.318  15.665  1.00  0.00    -0.026 A 
ATOM     12  C   UNL     1      45.955 130.545  15.650  1.00  0.00     0.008 A 
ATOM     13  C   UNL     1      44.173 131.605  16.903  1.00  0.00     0.016 A 
ATOM     14  C   UNL     1      46.494 130.049  16.839  1.00  0.00     0.001 A 
ATOM     15  C   UNL     1      45.876 130.324  18.059  1.00  0.00     0.009 A 
BRANCH  11  16
ATOM     16  C   UNL     1      44.257 131.829  14.375  1.00  0.00     0.000 C 
ATOM     17  C   UNL     1      43.091 131.458  13.844  1.00  0.00     0.009 C 
ENDBRANCH  11  16
ENDBRANCH   1  10
BRANCH   7  18
ATOM     18  N   UNL     1      44.316 129.443  23.402  1.00  0.00    -0.198 NA
BRANCH  18  19
ATOM     19  C   UNL     1      43.180 128.885  23.542  1.00  0.00     0.235 C 
ATOM     20  O   UNL     1      42.076 128.344  23.679  1.00  0.00    -0.211 OA
ENDBRANCH  18  19
ENDBRANCH   7  18
TORSDOF 4
ENDMDL
MODEL 4
REMARK VINA RESULT:      -7.0      1.059      1.382
REMARK SMILES C=Cc1cccc(-c2ccc3c(c2)[C@H](N=C=O)CC3)c1
REMARK SMILES IDX 8 1 9 2 10 3 11 4 12 5 13 6 14 7 18 8 19 9 7 10 3 11 4 12
REMARK SMILES IDX 20 13 5 14 6 15 2 16 1 17 15 18 16 19 17 20
REMARK H PARENT
ROOT
ATOM      1  C   UNL     1      44.522 130.968  17.973  1.00  0.00    -0.018 A 
ATOM      2  C   UNL     1      43.289 131.659  17.887  1.00  0.00     0.009 A 
ATOM      3  C   UNL     1      42.648 132.121  19.045  1.00  0.00     0.005 A 
ATOM      4  C   UNL     1      43.244 131.885  20.284  1.00  0.00    -0.042 A 
ATOM      5  C   UNL     1      44.431 131.206  20.384  1.00  0.00    -0.019 A 
ATOM      6  C   UNL     1      45.095 130.745  19.243  1.00  0.00     0.015 A 
ATOM      7  C   UNL     1      44.873 131.061  21.797  1.00  0.00     0.149 C 
ATOM      8  C   UNL     1      43.866 131.935  22.577  1.00  0.00     0.038 C 
ATOM      9  C   UNL     1      42.727 132.299  21.608  1.00  0.00     0.038 C 
ENDROOT
BRANCH   1  10
ATOM     10  C   UNL     1      45.201 130.483  16.744  1.00  0.00    -0.018 A 
ATOM     11  C   UNL     1      46.574 130.917  14.762  1.00  0.00    -0.026 A 
ATOM     12  C   UNL     1      46.497 129.556  14.431  1.00  0.00     0.008 A 
ATOM     13  C   UNL     1      45.930 131.371  15.932  1.00  0.00     0.016 A 
ATOM     14  C   UNL     1      45.776 128.669  15.233  1.00  0.00     0.001 A 
ATOM     15  C   UNL     1      45.129 129.127  16.380  1.00  0.00     0.009 A 
BRANCH  11  16
ATOM     16  C   UNL     1      47.361 131.817  13.883  1.00  0.00     0.000 C 
ATOM     17  C   UNL     1      48.020 131.411  12.796  1.00  0.00     0.009 C 
ENDBRANCH  11  16
ENDBRANCH   1  10
BRANCH   7  18
ATOM     18  N   UNL     1      44.773 129.671  22.235  1.00  0.00    -0.198 NA
BRANCH  18  19
ATOM     19  C   UNL     1      44.017 129.317  23.196  1.00  0.00     0.235 C 
ATOM     20  O   UNL     1      43.282 128.975  24.131  1.00  0.00    -0.211 OA
ENDBRANCH  18  19
ENDBRANCH   7  18
TORSDOF 4
ENDMDL
MODEL 5
REMARK VINA RESULT:      -6.9      2.149      2.856
REMARK SMILES C=Cc1cccc(-c2ccc3c(c2)[C@H](N=C=O)CC3)c1
REMARK SMILES IDX 8 1 9 2 10 3 11 4 12 5 13 6 14 7 18 8 19 9 7 10 3 11 4 12
REMARK SMILES IDX 20 13 5 14 6 15 2 16 1 17 15 18 16 19 17 20
REMARK H PARENT
ROOT
ATOM      1  C   UNL     1      45.011 131.154  17.888  1.00  0.00    -0.018 A 
ATOM      2  C   UNL     1      46.168 130.914  18.668  1.00  0.00     0.009 A 
ATOM      3  C   UNL     1      46.096 130.906  20.068  1.00  0.00     0.005 A 
ATOM      4  C   UNL     1      44.864 131.139  20.679  1.00  0.00    -0.042 A 
ATOM      5  C   UNL     1      43.737 131.386  19.938  1.00  0.00    -0.019 A 
ATOM      6  C   UNL     1      43.782 131.390  18.540  1.00  0.00     0.015 A 
ATOM      7  C   UNL     1      42.544 131.618  20.797  1.00  0.00     0.149 C 
ATOM      8  C   UNL     1      43.056 131.284  22.216  1.00  0.00     0.038 C 
ATOM      9  C   UNL     1      44.588 131.162  22.134  1.00  0.00     0.038 C 
ENDROOT
BRANCH   1  10
ATOM     10  C   UNL     1      45.090 131.161  16.405  1.00  0.00    -0.018 A 
ATOM     11  C   UNL     1      46.390 130.901  14.345  1.00  0.00    -0.026 A 
ATOM     12  C   UNL     1      45.229 131.158  13.599  1.00  0.00     0.008 A 
ATOM     13  C   UNL     1      46.308 130.892  15.753  1.00  0.00     0.016 A 
ATOM     14  C   UNL     1      44.017 131.424  14.241  1.00  0.00     0.001 A 
ATOM     15  C   UNL     1      43.946 131.429  15.634  1.00  0.00     0.009 A 
BRANCH  11  16
ATOM     16  C   UNL     1      47.650 130.615  13.615  1.00  0.00     0.000 C 
ATOM     17  C   UNL     1      48.293 129.446  13.662  1.00  0.00     0.009 C 
ENDBRANCH  11  16
ENDBRANCH   1  10
BRANCH   7  18
ATOM     18  N   UNL     1      42.120 133.015  20.733  1.00  0.00    -0.198 NA
BRANCH  18  19
ATOM     19  C   UNL     1      41.068 133.429  21.317  1.00  0.00     0.235 C 
ATOM     20  O   UNL     1      40.045 133.832  21.887  1.00  0.00    -0.211 OA
ENDBRANCH  18  19
ENDBRANCH   7  18
TORSDOF 4
ENDMDL
MODEL 6
REMARK VINA RESULT:      -6.8      1.224      1.354
REMARK SMILES C=Cc1cccc(-c2ccc3c(c2)[C@H](N=C=O)CC3)c1
REMARK SMILES IDX 8 1 9 2 10 3 11 4 12 5 13 6 14 7 18 8 19 9 7 10 3 11 4 12
REMARK SMILES IDX 20 13 5 14 6 15 2 16 1 17 15 18 16 19 17 20
REMARK H PARENT
ROOT
ATOM      1  C   UNL     1      44.800 131.160  18.703  1.00  0.00    -0.018 A 
ATOM      2  C   UNL     1      43.598 131.849  18.991  1.00  0.00     0.009 A 
ATOM      3  C   UNL     1      43.007 131.754  20.259  1.00  0.00     0.005 A 
ATOM      4  C   UNL     1      43.624 130.967  21.231  1.00  0.00    -0.042 A 
ATOM      5  C   UNL     1      44.783 130.284  20.964  1.00  0.00    -0.019 A 
ATOM      6  C   UNL     1      45.396 130.371  19.711  1.00  0.00     0.015 A 
ATOM      7  C   UNL     1      45.254 129.504  22.140  1.00  0.00     0.149 C 
ATOM      8  C   UNL     1      44.306 129.958  23.272  1.00  0.00     0.038 C 
ATOM      9  C   UNL     1      43.159 130.752  22.620  1.00  0.00     0.038 C 
ENDROOT
BRANCH   1  10
ATOM     10  C   UNL     1      45.426 131.264  17.360  1.00  0.00    -0.018 A 
ATOM     11  C   UNL     1      46.696 130.256  15.523  1.00  0.00    -0.026 A 
ATOM     12  C   UNL     1      46.594 131.462  14.813  1.00  0.00     0.008 A 
ATOM     13  C   UNL     1      46.096 130.162  16.796  1.00  0.00     0.016 A 
ATOM     14  C   UNL     1      45.931 132.559  15.367  1.00  0.00     0.001 A 
ATOM     15  C   UNL     1      45.353 132.465  16.633  1.00  0.00     0.009 A 
BRANCH  11  16
ATOM     16  C   UNL     1      47.403 129.117  14.887  1.00  0.00     0.000 C 
ATOM     17  C   UNL     1      48.081 129.204  13.741  1.00  0.00     0.009 C 
ENDBRANCH  11  16
ENDBRANCH   1  10
BRANCH   7  18
ATOM     18  N   UNL     1      45.104 128.069  21.908  1.00  0.00    -0.198 NA
BRANCH  18  19
ATOM     19  C   UNL     1      44.793 127.262  22.841  1.00  0.00     0.235 C 
ATOM     20  O   UNL     1      44.490 126.478  23.750  1.00  0.00    -0.211 OA
ENDBRANCH  18  19
ENDBRANCH   7  18
TORSDOF 4
ENDMDL
MODEL 7
REMARK VINA RESULT:      -6.6      2.164      2.881
REMARK SMILES C=Cc1cccc(-c2ccc3c(c2)[C@H](N=C=O)CC3)c1
REMARK SMILES IDX 8 1 9 2 10 3 11 4 12 5 13 6 14 7 18 8 19 9 7 10 3 11 4 12
REMARK SMILES IDX 20 13 5 14 6 15 2 16 1 17 15 18 16 19 17 20
REMARK H PARENT
ROOT
ATOM      1  C   UNL     1      45.005 131.070  18.512  1.00  0.00    -0.018 A 
ATOM      2  C   UNL     1      46.219 130.950  19.229  1.00  0.00     0.009 A 
ATOM      3  C   UNL     1      46.218 130.890  20.629  1.00  0.00     0.005 A 
ATOM      4  C   UNL     1      44.999 130.952  21.305  1.00  0.00    -0.042 A 
ATOM      5  C   UNL     1      43.815 131.081  20.624  1.00  0.00    -0.019 A 
ATOM      6  C   UNL     1      43.790 131.132  19.227  1.00  0.00     0.015 A 
ATOM      7  C   UNL     1      42.647 131.138  21.545  1.00  0.00     0.149 C 
ATOM      8  C   UNL     1      43.265 130.828  22.926  1.00  0.00     0.038 C 
ATOM      9  C   UNL     1      44.795 130.897  22.770  1.00  0.00     0.038 C 
ENDROOT
BRANCH   1  10
ATOM     10  C   UNL     1      45.008 131.130  17.028  1.00  0.00    -0.018 A 
ATOM     11  C   UNL     1      46.165 130.819  14.891  1.00  0.00    -0.026 A 
ATOM     12  C   UNL     1      45.003 131.231  14.221  1.00  0.00     0.008 A 
ATOM     13  C   UNL     1      46.154 130.759  16.300  1.00  0.00     0.016 A 
ATOM     14  C   UNL     1      43.863 131.600  14.937  1.00  0.00     0.001 A 
ATOM     15  C   UNL     1      43.863 131.554  16.331  1.00  0.00     0.009 A 
BRANCH  11  16
ATOM     16  C   UNL     1      47.347 130.429  14.083  1.00  0.00     0.000 C 
ATOM     17  C   UNL     1      47.670 130.982  12.913  1.00  0.00     0.009 C 
ENDBRANCH  11  16
ENDBRANCH   1  10
BRANCH   7  18
ATOM     18  N   UNL     1      42.054 132.474  21.551  1.00  0.00    -0.198 NA
BRANCH  18  19
ATOM     19  C   UNL     1      41.759 133.088  20.476  1.00  0.00     0.235 C 
ATOM     20  O   UNL     1      41.473 133.684  19.429  1.00  0.00    -0.211 OA
ENDBRANCH  18  19
ENDBRANCH   7  18
TORSDOF 4
ENDMDL


