REMARK SMILES CCOC(=O)n1cc(F)cc(N)/c1=N\c1c[n-]c2nccc-2c1
REMARK SMILES IDX 4 1 5 2 6 3 13 4 11 5 10 6 7 7 8 8 9 9 14 10 15 11 20 12
REMARK SMILES IDX 19 13 21 14 18 15 22 16 17 17 23 18 16 19 12 20 3 23 2 24
REMARK SMILES IDX 1 25
REMARK H PARENT 12 21 12 22
ROOT
ATOM      1  C   UNL     1      -2.781   0.206  -0.364  1.00  0.00     0.419 C 
ATOM      2  O   UNL     1      -3.913   0.290  -0.917  1.00  0.00    -0.223 OA
ENDROOT
BRANCH   1   3
ATOM      3  N   UNL     1      -2.114  -1.076  -0.276  1.00  0.00    -0.232 N 
ATOM      4  C   UNL     1      -0.735  -1.180  -0.273  1.00  0.00     0.166 A 
ATOM      5  C   UNL     1      -0.141  -2.479  -0.252  1.00  0.00     0.079 A 
ATOM      6  C   UNL     1      -0.961  -3.597  -0.078  1.00  0.00     0.070 A 
ATOM      7  C   UNL     1      -2.900  -2.190  -0.152  1.00  0.00     0.139 A 
ATOM      8  C   UNL     1      -2.338  -3.454  -0.021  1.00  0.00     0.142 A 
ATOM      9  F   UNL     1      -3.132  -4.544   0.119  1.00  0.00    -0.205 F 
BRANCH   4  10
ATOM     10  N   UNL     1      -0.025  -0.079  -0.293  1.00  0.00    -0.229 NA
BRANCH  10  11
ATOM     11  C   UNL     1       1.372   0.123  -0.034  1.00  0.00     0.062 A 
ATOM     12  C   UNL     1       5.555   1.750  -0.336  1.00  0.00    -0.022 A 
ATOM     13  N   UNL     1       5.307   0.943   0.730  1.00  0.00    -0.442 NA
ATOM     14  C   UNL     1       4.435   1.927  -1.153  1.00  0.00     0.003 A 
ATOM     15  C   UNL     1       4.018   0.598   0.589  1.00  0.00    -0.052 A 
ATOM     16  C   UNL     1       3.438   1.190  -0.568  1.00  0.00    -0.025 A 
ATOM     17  N   UNL     1       3.297  -0.183   1.425  1.00  0.00    -0.440 NA
ATOM     18  C   UNL     1       2.108   0.971  -0.885  1.00  0.00     0.036 A 
ATOM     19  C   UNL     1       1.982  -0.420   1.134  1.00  0.00     0.006 A 
ENDBRANCH  10  11
ENDBRANCH   4  10
BRANCH   5  20
ATOM     20  N   UNL     1       1.240  -2.709  -0.562  1.00  0.00    -0.396 N 
ATOM     21  H   UNL     1       1.686  -3.625  -0.331  1.00  0.00     0.156 HD
ATOM     22  H   UNL     1       1.758  -2.084  -1.216  1.00  0.00     0.156 HD
ENDBRANCH   5  20
ENDBRANCH   1   3
BRANCH   1  23
ATOM     23  O   UNL     1      -2.184   1.354   0.176  1.00  0.00    -0.449 OA
BRANCH  23  24
ATOM     24  C   UNL     1      -2.802   2.639   0.175  1.00  0.00     0.231 C 
ATOM     25  C   UNL     1      -3.883   2.716   1.247  1.00  0.00     0.049 C 
ENDBRANCH  23  24
ENDBRANCH   1  23
TORSDOF 6


