REMARK SMILES [NH-]C(=O)c1ccc(-c2[nH]c3ccccc3[nH+]2)c(NN)c1
REMARK SMILES IDX 4 1 5 2 6 3 7 4 17 5 20 6 2 7 3 8 1 9 18 11 19 13 8 16 9 17
REMARK SMILES IDX 16 18 10 19 15 20 11 21 14 22 12 23 13 24
REMARK H PARENT 1 10 18 12 19 14 19 15 9 25 16 26
ROOT
ATOM      1  C   UNL     1       3.627  -0.450  -0.137  1.00  0.00     0.001 A 
ATOM      2  C   UNL     1       2.981   0.109  -1.250  1.00  0.00     0.011 A 
ATOM      3  C   UNL     1       1.610   0.364  -1.219  1.00  0.00     0.019 A 
ATOM      4  C   UNL     1       0.848   0.060  -0.081  1.00  0.00     0.088 A 
ATOM      5  C   UNL     1       1.488  -0.486   1.058  1.00  0.00     0.065 A 
ATOM      6  C   UNL     1       2.869  -0.749   1.008  1.00  0.00     0.038 A 
ENDROOT
BRANCH   1   7
ATOM      7  C   UNL     1       5.083  -0.737  -0.157  1.00  0.00     0.080 C 
ATOM      8  O   UNL     1       5.562  -1.594   0.633  1.00  0.00    -0.315 OA
BRANCH   7   9
ATOM      9  N   UNL     1       5.971  -0.053  -1.042  1.00  0.00    -0.664 NA
ATOM     10  H   UNL     1       5.669   0.733  -1.657  1.00  0.00    -0.121 HD
ENDBRANCH   7   9
ENDBRANCH   1   7
BRANCH   5  11
ATOM     11  N   UNL     1       0.762  -0.710   2.281  1.00  0.00    -0.323 N 
ATOM     12  H   UNL     1      -0.126  -0.189   2.460  1.00  0.00     0.181 HD
BRANCH  11  13
ATOM     13  N   UNL     1       1.266  -1.553   3.285  1.00  0.00    -0.250 NA
ATOM     14  H   UNL     1       0.611  -1.509   4.098  1.00  0.00     0.143 HD
ATOM     15  H   UNL     1       1.220  -2.530   2.917  1.00  0.00     0.143 HD
ENDBRANCH  11  13
ENDBRANCH   5  11
BRANCH   4  16
ATOM     16  C   UNL     1      -0.614   0.281  -0.131  1.00  0.00     0.287 A 
ATOM     17  N   UNL     1      -1.187   1.375  -0.698  1.00  0.00    -0.236 N 
ATOM     18  N   UNL     1      -1.531  -0.615   0.320  1.00  0.00    -0.236 N 
ATOM     19  C   UNL     1      -2.505   1.154  -0.580  1.00  0.00     0.172 A 
ATOM     20  C   UNL     1      -2.713  -0.047   0.034  1.00  0.00     0.172 A 
ATOM     21  C   UNL     1      -3.560   1.961  -1.000  1.00  0.00     0.056 A 
ATOM     22  C   UNL     1      -3.992  -0.543   0.274  1.00  0.00     0.056 A 
ATOM     23  C   UNL     1      -4.868   1.494  -0.769  1.00  0.00     0.005 A 
ATOM     24  C   UNL     1      -5.083   0.247  -0.135  1.00  0.00     0.005 A 
ATOM     25  H   UNL     1      -0.714   2.201  -1.128  1.00  0.00     0.312 HD
ATOM     26  H   UNL     1      -1.362  -1.549   0.756  1.00  0.00     0.312 HD
ENDBRANCH   4  16
TORSDOF 5


