REMARK SMILES O=C(Oc1ccc([NH2+]c2ccc3cc[nH]c3c2)c(F)c1)[C@H](O)CC1CC1
REMARK SMILES IDX 3 1 2 2 1 3 21 4 22 5 23 7 24 8 25 9 26 10 4 11 5 12 20 13
REMARK SMILES IDX 6 14 18 15 7 16 19 17 8 18 9 21 10 22 17 23 11 24 16 25
REMARK SMILES IDX 12 26 15 27 13 28 14 29
REMARK H PARENT 22 6 8 19 8 20 15 30
ROOT
ATOM      1  O   UNL     1       2.161   0.839   1.769  1.00  0.00    -0.425 OA
ENDROOT
BRANCH   1   2
ATOM      2  C   UNL     1       3.205   0.135   1.155  1.00  0.00     0.340 C 
ATOM      3  O   UNL     1       2.973  -0.879   0.441  1.00  0.00    -0.249 OA
BRANCH   2   4
ATOM      4  C   UNL     1       4.608   0.653   1.271  1.00  0.00     0.224 C 
BRANCH   4   5
ATOM      5  O   UNL     1       4.912   0.821   2.630  1.00  0.00    -0.381 OA
ATOM      6  H   UNL     1       5.900   0.887   2.698  1.00  0.00     0.211 HD
ENDBRANCH   4   5
BRANCH   4   7
ATOM      7  C   UNL     1       4.756   1.996   0.535  1.00  0.00     0.047 C 
BRANCH   7   8
ATOM      8  C   UNL     1       4.552   1.833  -0.980  1.00  0.00    -0.008 C 
ATOM      9  C   UNL     1       4.294   3.133  -1.726  1.00  0.00     0.004 C 
ATOM     10  C   UNL     1       3.158   2.148  -1.503  1.00  0.00     0.004 C 
ENDBRANCH   7   8
ENDBRANCH   4   7
ENDBRANCH   2   4
ENDBRANCH   1   2
BRANCH   1  11
ATOM     11  C   UNL     1       0.846   0.375   1.917  1.00  0.00     0.134 A 
ATOM     12  C   UNL     1       0.543  -0.989   2.070  1.00  0.00     0.053 A 
ATOM     13  C   UNL     1      -0.191   1.313   1.952  1.00  0.00     0.093 A 
ATOM     14  C   UNL     1      -0.782  -1.404   2.222  1.00  0.00     0.075 A 
ATOM     15  C   UNL     1      -1.519   0.903   2.102  1.00  0.00     0.187 A 
ATOM     16  C   UNL     1      -1.828  -0.464   2.239  1.00  0.00     0.170 A 
ATOM     17  F   UNL     1      -2.501   1.839   2.117  1.00  0.00    -0.200 F 
BRANCH  16  18
ATOM     18  N   UNL     1      -3.197  -0.905   2.361  1.00  0.00    -0.279 N 
ATOM     19  H   UNL     1      -3.244  -1.767   2.953  1.00  0.00     0.358 HD
ATOM     20  H   UNL     1      -3.774  -0.178   2.846  1.00  0.00     0.358 HD
BRANCH  18  21
ATOM     21  C   UNL     1      -3.736  -1.179   1.052  1.00  0.00     0.136 A 
ATOM     22  C   UNL     1      -4.417  -0.163   0.329  1.00  0.00     0.069 A 
ATOM     23  C   UNL     1      -3.555  -2.453   0.461  1.00  0.00     0.094 A 
ATOM     24  C   UNL     1      -4.918  -0.411  -0.961  1.00  0.00     0.016 A 
ATOM     25  C   UNL     1      -4.064  -2.663  -0.819  1.00  0.00     0.051 A 
ATOM     26  C   UNL     1      -4.721  -1.677  -1.503  1.00  0.00    -0.000 A 
ATOM     27  N   UNL     1      -3.998  -3.788  -1.548  1.00  0.00    -0.361 N 
ATOM     28  C   UNL     1      -5.091  -2.199  -2.724  1.00  0.00     0.028 A 
ATOM     29  C   UNL     1      -4.625  -3.510  -2.715  1.00  0.00     0.083 A 
ATOM     30  H   UNL     1      -3.554  -4.693  -1.276  1.00  0.00     0.166 HD
ENDBRANCH  18  21
ENDBRANCH  16  18
ENDBRANCH   1  11
TORSDOF 8


