MODEL 1
REMARK VINA RESULT:     -10.0      0.000      0.000
REMARK SMILES Cc1cccc(Cc2cc3cc(F)ccc3[nH]2)[nH+]1
REMARK SMILES IDX 7 1 6 2 2 3 3 4 18 5 4 6 5 7 1 8 8 10 9 11 17 12 10 13 16 14
REMARK SMILES IDX 11 15 15 16 12 17 14 18 13 20
REMARK H PARENT 18 9 17 19
ROOT
ATOM      1  C   UNL     1      43.760 131.665  17.338  1.00  0.00     0.162 C 
ENDROOT
BRANCH   1   2
ATOM      2  C   UNL     1      44.194 131.431  18.758  1.00  0.00     0.185 A 
ATOM      3  C   UNL     1      43.703 131.509  21.091  1.00  0.00     0.176 A 
ATOM      4  C   UNL     1      45.011 131.106  21.394  1.00  0.00     0.074 A 
ATOM      5  N   UNL     1      43.332 131.681  19.787  1.00  0.00    -0.212 N 
ATOM      6  C   UNL     1      45.910 130.861  20.358  1.00  0.00     0.013 A 
ATOM      7  C   UNL     1      45.507 131.024  19.033  1.00  0.00     0.075 A 
ATOM      8  C   UNL     1      42.739 131.825  22.195  1.00  0.00     0.123 C 
ATOM      9  H   UNL     1      42.365 132.015  19.572  1.00  0.00     0.453 HD
ENDBRANCH   1   2
BRANCH   1  10
ATOM     10  C   UNL     1      44.868 131.302  16.401  1.00  0.00     0.026 A 
ATOM     11  C   UNL     1      45.409 130.025  16.256  1.00  0.00     0.032 A 
ATOM     12  N   UNL     1      45.411 132.166  15.510  1.00  0.00    -0.358 N 
ATOM     13  C   UNL     1      46.329 130.146  15.239  1.00  0.00     0.003 A 
ATOM     14  C   UNL     1      46.306 131.448  14.811  1.00  0.00     0.046 A 
ATOM     15  C   UNL     1      47.168 129.196  14.659  1.00  0.00     0.049 A 
ATOM     16  C   UNL     1      47.121 131.893  13.771  1.00  0.00     0.029 A 
ATOM     17  C   UNL     1      48.007 129.616  13.608  1.00  0.00     0.123 A 
ATOM     18  C   UNL     1      47.982 130.958  13.166  1.00  0.00     0.041 A 
ATOM     19  H   UNL     1      45.173 133.175  15.384  1.00  0.00     0.166 HD
ATOM     20  F   UNL     1      48.839 128.727  13.015  1.00  0.00    -0.207 F 
ENDBRANCH   1  10
TORSDOF 2
ENDMDL
MODEL 2
REMARK VINA RESULT:      -9.7      2.809      6.748
REMARK SMILES Cc1cccc(Cc2cc3cc(F)ccc3[nH]2)[nH+]1
REMARK SMILES IDX 7 1 6 2 2 3 3 4 18 5 4 6 5 7 1 8 8 10 9 11 17 12 10 13 16 14
REMARK SMILES IDX 11 15 15 16 12 17 14 18 13 20
REMARK H PARENT 18 9 17 19
ROOT
ATOM      1  C   UNL     1      43.995 131.691  15.496  1.00  0.00     0.162 C 
ENDROOT
BRANCH   1   2
ATOM      2  C   UNL     1      45.186 130.899  15.034  1.00  0.00     0.185 A 
ATOM      3  C   UNL     1      47.124 130.729  13.653  1.00  0.00     0.176 A 
ATOM      4  C   UNL     1      47.337 129.414  14.090  1.00  0.00     0.074 A 
ATOM      5  N   UNL     1      46.048 131.431  14.118  1.00  0.00    -0.212 N 
ATOM      6  C   UNL     1      46.460 128.848  15.014  1.00  0.00     0.013 A 
ATOM      7  C   UNL     1      45.378 129.587  15.490  1.00  0.00     0.075 A 
ATOM      8  C   UNL     1      48.029 131.334  12.621  1.00  0.00     0.123 C 
ATOM      9  H   UNL     1      45.877 132.399  13.759  1.00  0.00     0.453 HD
ENDBRANCH   1   2
BRANCH   1  10
ATOM     10  C   UNL     1      43.903 131.647  16.989  1.00  0.00     0.026 A 
ATOM     11  C   UNL     1      44.970 131.402  17.850  1.00  0.00     0.032 A 
ATOM     12  N   UNL     1      42.775 131.938  17.679  1.00  0.00    -0.358 N 
ATOM     13  C   UNL     1      44.442 131.540  19.114  1.00  0.00     0.003 A 
ATOM     14  C   UNL     1      43.117 131.864  18.976  1.00  0.00     0.046 A 
ATOM     15  C   UNL     1      45.042 131.417  20.366  1.00  0.00     0.049 A 
ATOM     16  C   UNL     1      42.298 132.087  20.082  1.00  0.00     0.029 A 
ATOM     17  C   UNL     1      44.240 131.633  21.503  1.00  0.00     0.123 A 
ATOM     18  C   UNL     1      42.874 131.967  21.360  1.00  0.00     0.041 A 
ATOM     19  H   UNL     1      41.839 132.185  17.285  1.00  0.00     0.166 HD
ATOM     20  F   UNL     1      44.781 131.522  22.740  1.00  0.00    -0.207 F 
ENDBRANCH   1  10
TORSDOF 2
ENDMDL
MODEL 3
REMARK VINA RESULT:      -9.6      3.025      6.815
REMARK SMILES Cc1cccc(Cc2cc3cc(F)ccc3[nH]2)[nH+]1
REMARK SMILES IDX 7 1 6 2 2 3 3 4 18 5 4 6 5 7 1 8 8 10 9 11 17 12 10 13 16 14
REMARK SMILES IDX 11 15 15 16 12 17 14 18 13 20
REMARK H PARENT 18 9 17 19
ROOT
ATOM      1  C   UNL     1      43.919 131.669  15.740  1.00  0.00     0.162 C 
ENDROOT
BRANCH   1   2
ATOM      2  C   UNL     1      45.091 130.880  15.229  1.00  0.00     0.185 A 
ATOM      3  C   UNL     1      47.013 130.741  13.823  1.00  0.00     0.176 A 
ATOM      4  C   UNL     1      47.205 129.403  14.193  1.00  0.00     0.074 A 
ATOM      5  N   UNL     1      45.955 131.439  14.332  1.00  0.00    -0.212 N 
ATOM      6  C   UNL     1      46.326 128.808  15.096  1.00  0.00     0.013 A 
ATOM      7  C   UNL     1      45.262 129.543  15.618  1.00  0.00     0.075 A 
ATOM      8  C   UNL     1      47.921 131.379  12.814  1.00  0.00     0.123 C 
ATOM      9  H   UNL     1      45.800 132.426  14.023  1.00  0.00     0.453 HD
ENDBRANCH   1   2
BRANCH   1  10
ATOM     10  C   UNL     1      43.947 131.711  17.235  1.00  0.00     0.026 A 
ATOM     11  C   UNL     1      42.828 131.852  18.053  1.00  0.00     0.032 A 
ATOM     12  N   UNL     1      45.068 131.520  17.970  1.00  0.00    -0.358 N 
ATOM     13  C   UNL     1      43.315 131.754  19.337  1.00  0.00     0.003 A 
ATOM     14  C   UNL     1      44.669 131.554  19.252  1.00  0.00     0.046 A 
ATOM     15  C   UNL     1      42.657 131.814  20.564  1.00  0.00     0.049 A 
ATOM     16  C   UNL     1      45.460 131.399  20.390  1.00  0.00     0.029 A 
ATOM     17  C   UNL     1      43.430 131.665  21.732  1.00  0.00     0.123 A 
ATOM     18  C   UNL     1      44.825 131.458  21.644  1.00  0.00     0.041 A 
ATOM     19  H   UNL     1      46.038 131.363  17.614  1.00  0.00     0.166 HD
ATOM     20  F   UNL     1      42.832 131.717  22.946  1.00  0.00    -0.207 F 
ENDBRANCH   1  10
TORSDOF 2
ENDMDL
MODEL 4
REMARK VINA RESULT:      -9.4      0.863      1.672
REMARK SMILES Cc1cccc(Cc2cc3cc(F)ccc3[nH]2)[nH+]1
REMARK SMILES IDX 7 1 6 2 2 3 3 4 18 5 4 6 5 7 1 8 8 10 9 11 17 12 10 13 16 14
REMARK SMILES IDX 11 15 15 16 12 17 14 18 13 20
REMARK H PARENT 18 9 17 19
ROOT
ATOM      1  C   UNL     1      43.150 131.639  16.659  1.00  0.00     0.162 C 
ENDROOT
BRANCH   1   2
ATOM      2  C   UNL     1      43.424 131.699  18.136  1.00  0.00     0.185 A 
ATOM      3  C   UNL     1      44.939 131.397  19.953  1.00  0.00     0.176 A 
ATOM      4  C   UNL     1      43.923 131.701  20.869  1.00  0.00     0.074 A 
ATOM      5  N   UNL     1      44.663 131.384  18.615  1.00  0.00    -0.212 N 
ATOM      6  C   UNL     1      42.647 132.010  20.401  1.00  0.00     0.013 A 
ATOM      7  C   UNL     1      42.390 132.009  19.031  1.00  0.00     0.075 A 
ATOM      8  C   UNL     1      46.303 131.014  20.444  1.00  0.00     0.123 C 
ATOM      9  H   UNL     1      45.419 131.123  17.941  1.00  0.00     0.453 HD
ENDBRANCH   1   2
BRANCH   1  10
ATOM     10  C   UNL     1      44.399 131.264  15.925  1.00  0.00     0.026 A 
ATOM     11  C   UNL     1      44.934 129.979  15.861  1.00  0.00     0.032 A 
ATOM     12  N   UNL     1      45.104 132.126  15.155  1.00  0.00    -0.358 N 
ATOM     13  C   UNL     1      46.021 130.091  15.022  1.00  0.00     0.003 A 
ATOM     14  C   UNL     1      46.094 131.398  14.613  1.00  0.00     0.046 A 
ATOM     15  C   UNL     1      46.931 129.131  14.585  1.00  0.00     0.049 A 
ATOM     16  C   UNL     1      47.087 131.836  13.737  1.00  0.00     0.029 A 
ATOM     17  C   UNL     1      47.948 129.545  13.702  1.00  0.00     0.123 A 
ATOM     18  C   UNL     1      48.024 130.891  13.280  1.00  0.00     0.041 A 
ATOM     19  H   UNL     1      44.909 133.141  15.001  1.00  0.00     0.166 HD
ATOM     20  F   UNL     1      48.856 128.645  13.252  1.00  0.00    -0.207 F 
ENDBRANCH   1  10
TORSDOF 2
ENDMDL
MODEL 5
REMARK VINA RESULT:      -9.1      0.903      1.528
REMARK SMILES Cc1cccc(Cc2cc3cc(F)ccc3[nH]2)[nH+]1
REMARK SMILES IDX 7 1 6 2 2 3 3 4 18 5 4 6 5 7 1 8 8 10 9 11 17 12 10 13 16 14
REMARK SMILES IDX 11 15 15 16 12 17 14 18 13 20
REMARK H PARENT 18 9 17 19
ROOT
ATOM      1  C   UNL     1      43.443 131.751  17.608  1.00  0.00     0.162 C 
ENDROOT
BRANCH   1   2
ATOM      2  C   UNL     1      43.989 131.499  18.985  1.00  0.00     0.185 A 
ATOM      3  C   UNL     1      43.669 131.502  21.349  1.00  0.00     0.176 A 
ATOM      4  C   UNL     1      45.009 131.140  21.545  1.00  0.00     0.074 A 
ATOM      5  N   UNL     1      43.197 131.691  20.081  1.00  0.00    -0.212 N 
ATOM      6  C   UNL     1      45.837 130.953  20.440  1.00  0.00     0.013 A 
ATOM      7  C   UNL     1      45.332 131.134  19.153  1.00  0.00     0.075 A 
ATOM      8  C   UNL     1      42.779 131.755  22.529  1.00  0.00     0.123 C 
ATOM      9  H   UNL     1      42.206 131.995  19.946  1.00  0.00     0.453 HD
ENDBRANCH   1   2
BRANCH   1  10
ATOM     10  C   UNL     1      44.449 131.339  16.579  1.00  0.00     0.026 A 
ATOM     11  C   UNL     1      45.146 132.212  15.747  1.00  0.00     0.032 A 
ATOM     12  N   UNL     1      44.865 130.062  16.407  1.00  0.00    -0.358 N 
ATOM     13  C   UNL     1      46.008 131.408  15.035  1.00  0.00     0.003 A 
ATOM     14  C   UNL     1      45.814 130.118  15.458  1.00  0.00     0.046 A 
ATOM     15  C   UNL     1      46.953 131.728  14.062  1.00  0.00     0.049 A 
ATOM     16  C   UNL     1      46.552 129.057  14.935  1.00  0.00     0.029 A 
ATOM     17  C   UNL     1      47.712 130.677  13.513  1.00  0.00     0.123 A 
ATOM     18  C   UNL     1      47.512 129.348  13.948  1.00  0.00     0.041 A 
ATOM     19  H   UNL     1      44.530 129.214  16.917  1.00  0.00     0.166 HD
ATOM     20  F   UNL     1      48.641 130.943  12.563  1.00  0.00    -0.207 F 
ENDBRANCH   1  10
TORSDOF 2
ENDMDL
MODEL 6
REMARK VINA RESULT:      -8.9      1.123      1.334
REMARK SMILES Cc1cccc(Cc2cc3cc(F)ccc3[nH]2)[nH+]1
REMARK SMILES IDX 7 1 6 2 2 3 3 4 18 5 4 6 5 7 1 8 8 10 9 11 17 12 10 13 16 14
REMARK SMILES IDX 11 15 15 16 12 17 14 18 13 20
REMARK H PARENT 18 9 17 19
ROOT
ATOM      1  C   UNL     1      42.998 131.851  18.324  1.00  0.00     0.162 C 
ENDROOT
BRANCH   1   2
ATOM      2  C   UNL     1      43.598 131.722  19.696  1.00  0.00     0.185 A 
ATOM      3  C   UNL     1      43.299 131.443  22.047  1.00  0.00     0.176 A 
ATOM      4  C   UNL     1      44.678 131.586  22.253  1.00  0.00     0.074 A 
ATOM      5  N   UNL     1      42.791 131.533  20.782  1.00  0.00    -0.212 N 
ATOM      6  C   UNL     1      45.518 131.795  21.160  1.00  0.00     0.013 A 
ATOM      7  C   UNL     1      44.982 131.866  19.875  1.00  0.00     0.075 A 
ATOM      8  C   UNL     1      42.378 131.268  23.217  1.00  0.00     0.123 C 
ATOM      9  H   UNL     1      41.758 131.460  20.641  1.00  0.00     0.453 HD
ENDBRANCH   1   2
BRANCH   1  10
ATOM     10  C   UNL     1      44.018 131.496  17.288  1.00  0.00     0.026 A 
ATOM     11  C   UNL     1      45.103 130.646  17.491  1.00  0.00     0.032 A 
ATOM     12  N   UNL     1      43.944 131.894  15.996  1.00  0.00    -0.358 N 
ATOM     13  C   UNL     1      45.710 130.549  16.258  1.00  0.00     0.003 A 
ATOM     14  C   UNL     1      44.985 131.313  15.379  1.00  0.00     0.046 A 
ATOM     15  C   UNL     1      46.835 129.832  15.855  1.00  0.00     0.049 A 
ATOM     16  C   UNL     1      45.337 131.413  14.034  1.00  0.00     0.029 A 
ATOM     17  C   UNL     1      47.217 129.916  14.502  1.00  0.00     0.123 A 
ATOM     18  C   UNL     1      46.470 130.703  13.596  1.00  0.00     0.041 A 
ATOM     19  H   UNL     1      43.218 132.512  15.565  1.00  0.00     0.166 HD
ATOM     20  F   UNL     1      48.304 129.236  14.067  1.00  0.00    -0.207 F 
ENDBRANCH   1  10
TORSDOF 2
ENDMDL
MODEL 7
REMARK VINA RESULT:      -8.7      2.469      3.961
REMARK SMILES Cc1cccc(Cc2cc3cc(F)ccc3[nH]2)[nH+]1
REMARK SMILES IDX 7 1 6 2 2 3 3 4 18 5 4 6 5 7 1 8 8 10 9 11 17 12 10 13 16 14
REMARK SMILES IDX 11 15 15 16 12 17 14 18 13 20
REMARK H PARENT 18 9 17 19
ROOT
ATOM      1  C   UNL     1      45.242 131.621  21.134  1.00  0.00     0.162 C 
ENDROOT
BRANCH   1   2
ATOM      2  C   UNL     1      44.538 130.569  21.945  1.00  0.00     0.185 A 
ATOM      3  C   UNL     1      44.504 128.364  22.853  1.00  0.00     0.176 A 
ATOM      4  C   UNL     1      43.211 128.575  23.352  1.00  0.00     0.074 A 
ATOM      5  N   UNL     1      45.127 129.354  22.147  1.00  0.00    -0.212 N 
ATOM      6  C   UNL     1      42.587 129.803  23.144  1.00  0.00     0.013 A 
ATOM      7  C   UNL     1      43.247 130.807  22.437  1.00  0.00     0.075 A 
ATOM      8  C   UNL     1      45.168 127.031  23.026  1.00  0.00     0.123 C 
ATOM      9  H   UNL     1      46.077 129.175  21.748  1.00  0.00     0.453 HD
ENDBRANCH   1   2
BRANCH   1  10
ATOM     10  C   UNL     1      45.132 131.298  19.677  1.00  0.00     0.026 A 
ATOM     11  C   UNL     1      44.197 131.850  18.803  1.00  0.00     0.032 A 
ATOM     12  N   UNL     1      46.000 130.493  19.019  1.00  0.00    -0.358 N 
ATOM     13  C   UNL     1      44.521 131.332  17.568  1.00  0.00     0.003 A 
ATOM     14  C   UNL     1      45.613 130.519  17.734  1.00  0.00     0.046 A 
ATOM     15  C   UNL     1      43.938 131.535  16.319  1.00  0.00     0.049 A 
ATOM     16  C   UNL     1      46.198 129.851  16.659  1.00  0.00     0.029 A 
ATOM     17  C   UNL     1      44.505 130.871  15.214  1.00  0.00     0.123 A 
ATOM     18  C   UNL     1      45.630 130.033  15.385  1.00  0.00     0.041 A 
ATOM     19  H   UNL     1      46.811 129.974  19.425  1.00  0.00     0.166 HD
ATOM     20  F   UNL     1      43.970 131.038  13.981  1.00  0.00    -0.207 F 
ENDBRANCH   1  10
TORSDOF 2
ENDMDL
MODEL 8
REMARK VINA RESULT:      -8.5      2.820      6.830
REMARK SMILES Cc1cccc(Cc2cc3cc(F)ccc3[nH]2)[nH+]1
REMARK SMILES IDX 7 1 6 2 2 3 3 4 18 5 4 6 5 7 1 8 8 10 9 11 17 12 10 13 16 14
REMARK SMILES IDX 11 15 15 16 12 17 14 18 13 20
REMARK H PARENT 18 9 17 19
ROOT
ATOM      1  C   UNL     1      45.134 132.396  16.789  1.00  0.00     0.162 C 
ENDROOT
BRANCH   1   2
ATOM      2  C   UNL     1      45.752 131.330  15.928  1.00  0.00     0.185 A 
ATOM      3  C   UNL     1      47.070 130.736  14.030  1.00  0.00     0.176 A 
ATOM      4  C   UNL     1      46.818 129.377  14.262  1.00  0.00     0.074 A 
ATOM      5  N   UNL     1      46.518 131.678  14.852  1.00  0.00    -0.212 N 
ATOM      6  C   UNL     1      46.026 129.002  15.346  1.00  0.00     0.013 A 
ATOM      7  C   UNL     1      45.487 129.977  16.184  1.00  0.00     0.075 A 
ATOM      8  C   UNL     1      47.878 131.158  12.839  1.00  0.00     0.123 C 
ATOM      9  H   UNL     1      46.683 132.690  14.650  1.00  0.00     0.453 HD
ENDBRANCH   1   2
BRANCH   1  10
ATOM     10  C   UNL     1      44.807 131.834  18.136  1.00  0.00     0.026 A 
ATOM     11  C   UNL     1      45.651 131.025  18.893  1.00  0.00     0.032 A 
ATOM     12  N   UNL     1      43.675 132.132  18.818  1.00  0.00    -0.358 N 
ATOM     13  C   UNL     1      44.977 130.821  20.077  1.00  0.00     0.003 A 
ATOM     14  C   UNL     1      43.790 131.503  19.999  1.00  0.00     0.046 A 
ATOM     15  C   UNL     1      45.337 130.098  21.213  1.00  0.00     0.049 A 
ATOM     16  C   UNL     1      42.878 131.508  21.054  1.00  0.00     0.029 A 
ATOM     17  C   UNL     1      44.434 130.082  22.293  1.00  0.00     0.123 A 
ATOM     18  C   UNL     1      43.211 130.785  22.214  1.00  0.00     0.041 A 
ATOM     19  H   UNL     1      42.886 132.737  18.498  1.00  0.00     0.166 HD
ATOM     20  F   UNL     1      44.743 129.391  23.417  1.00  0.00    -0.207 F 
ENDBRANCH   1  10
TORSDOF 2
ENDMDL
MODEL 9
REMARK VINA RESULT:      -8.5      1.513      2.451
REMARK SMILES Cc1cccc(Cc2cc3cc(F)ccc3[nH]2)[nH+]1
REMARK SMILES IDX 7 1 6 2 2 3 3 4 18 5 4 6 5 7 1 8 8 10 9 11 17 12 10 13 16 14
REMARK SMILES IDX 11 15 15 16 12 17 14 18 13 20
REMARK H PARENT 18 9 17 19
ROOT
ATOM      1  C   UNL     1      45.621 130.703  18.759  1.00  0.00     0.162 C 
ENDROOT
BRANCH   1   2
ATOM      2  C   UNL     1      44.272 131.359  18.839  1.00  0.00     0.185 A 
ATOM      3  C   UNL     1      42.518 132.284  20.165  1.00  0.00     0.176 A 
ATOM      4  C   UNL     1      41.735 132.479  19.019  1.00  0.00     0.074 A 
ATOM      5  N   UNL     1      43.754 131.714  20.052  1.00  0.00    -0.212 N 
ATOM      6  C   UNL     1      42.239 132.110  17.773  1.00  0.00     0.013 A 
ATOM      7  C   UNL     1      43.510 131.546  17.676  1.00  0.00     0.075 A 
ATOM      8  C   UNL     1      41.969 132.630  21.518  1.00  0.00     0.123 C 
ATOM      9  H   UNL     1      44.317 131.541  20.916  1.00  0.00     0.453 HD
ENDBRANCH   1   2
BRANCH   1  10
ATOM     10  C   UNL     1      46.054 130.604  17.329  1.00  0.00     0.026 A 
ATOM     11  C   UNL     1      45.897 131.606  16.374  1.00  0.00     0.032 A 
ATOM     12  N   UNL     1      46.740 129.551  16.825  1.00  0.00    -0.358 N 
ATOM     13  C   UNL     1      46.508 131.112  15.243  1.00  0.00     0.003 A 
ATOM     14  C   UNL     1      47.006 129.872  15.549  1.00  0.00     0.046 A 
ATOM     15  C   UNL     1      46.668 131.678  13.979  1.00  0.00     0.049 A 
ATOM     16  C   UNL     1      47.701 129.110  14.610  1.00  0.00     0.029 A 
ATOM     17  C   UNL     1      47.362 130.930  13.008  1.00  0.00     0.123 A 
ATOM     18  C   UNL     1      47.876 129.652  13.324  1.00  0.00     0.041 A 
ATOM     19  H   UNL     1      47.018 128.678  17.329  1.00  0.00     0.166 HD
ATOM     20  F   UNL     1      47.540 131.440  11.766  1.00  0.00    -0.207 F 
ENDBRANCH   1  10
TORSDOF 2
ENDMDL


