MODEL 1
REMARK VINA RESULT:      -8.5      0.000      0.000
REMARK SMILES Nc1c(C(=O)[N-]Cc2ccc[nH]2)cc(-n2nc3ccccc3[nH+]2)c(O)c1N
REMARK SMILES IDX 4 1 5 2 3 3 2 4 26 5 13 6 24 7 14 8 1 9 27 12 25 15 15 17
REMARK SMILES IDX 16 18 23 19 17 20 22 21 18 22 21 23 19 24 20 25 6 27 7 28
REMARK SMILES IDX 8 29 9 30 12 31 10 32 11 33
REMARK H PARENT 1 10 1 11 27 13 27 14 25 16 23 26 12 34
ROOT
ATOM      1  C   UNL     1      45.048 130.824  21.459  1.00  0.00     0.084 C 
ATOM      2  O   UNL     1      45.465 131.743  22.215  1.00  0.00    -0.315 OA
ENDROOT
BRANCH   1   3
ATOM      3  C   UNL     1      44.447 131.150  20.144  1.00  0.00     0.027 A 
ATOM      4  C   UNL     1      43.162 131.733  20.021  1.00  0.00     0.068 A 
ATOM      5  C   UNL     1      42.679 132.102  18.740  1.00  0.00     0.100 A 
ATOM      6  C   UNL     1      45.206 130.909  18.990  1.00  0.00     0.051 A 
ATOM      7  C   UNL     1      43.481 131.895  17.601  1.00  0.00     0.172 A 
ATOM      8  C   UNL     1      44.732 131.261  17.724  1.00  0.00     0.172 A 
BRANCH   4   9
ATOM      9  N   UNL     1      42.344 131.931  21.185  1.00  0.00    -0.396 N 
ATOM     10  H   UNL     1      41.959 131.122  21.719  1.00  0.00     0.156 HD
ATOM     11  H   UNL     1      42.125 132.886  21.542  1.00  0.00     0.156 HD
ENDBRANCH   4   9
BRANCH   5  12
ATOM     12  N   UNL     1      41.364 132.658  18.580  1.00  0.00    -0.394 N 
ATOM     13  H   UNL     1      41.186 133.438  17.908  1.00  0.00     0.156 HD
ATOM     14  H   UNL     1      40.526 132.254  19.050  1.00  0.00     0.156 HD
ENDBRANCH   5  12
BRANCH   7  15
ATOM     15  O   UNL     1      43.022 132.350  16.361  1.00  0.00    -0.504 OA
ATOM     16  H   UNL     1      43.448 132.084  15.483  1.00  0.00     0.293 HD
ENDBRANCH   7  15
BRANCH   8  17
ATOM     17  N   UNL     1      45.532 130.950  16.573  1.00  0.00    -0.009 N 
ATOM     18  N   UNL     1      45.811 131.834  15.615  1.00  0.00     0.054 NA
ATOM     19  N   UNL     1      46.158 129.789  16.388  1.00  0.00    -0.161 N 
ATOM     20  C   UNL     1      46.636 131.183  14.774  1.00  0.00     0.249 A 
ATOM     21  C   UNL     1      46.851 129.924  15.251  1.00  0.00     0.198 A 
ATOM     22  C   UNL     1      47.235 131.643  13.606  1.00  0.00     0.064 A 
ATOM     23  C   UNL     1      47.685 129.015  14.608  1.00  0.00     0.058 A 
ATOM     24  C   UNL     1      48.083 130.750  12.920  1.00  0.00     0.005 A 
ATOM     25  C   UNL     1      48.308 129.444  13.419  1.00  0.00     0.005 A 
ATOM     26  H   UNL     1      46.133 128.964  17.029  1.00  0.00     0.340 HD
ENDBRANCH   8  17
ENDBRANCH   1   3
BRANCH   1  27
ATOM     27  N   UNL     1      45.197 129.454  21.853  1.00  0.00    -0.644 NA
BRANCH  27  28
ATOM     28  C   UNL     1      44.432 128.837  22.930  1.00  0.00    -0.062 C 
BRANCH  28  29
ATOM     29  C   UNL     1      44.735 127.373  23.003  1.00  0.00    -0.003 A 
ATOM     30  C   UNL     1      45.966 126.823  23.303  1.00  0.00     0.021 A 
ATOM     31  N   UNL     1      43.814 126.402  22.848  1.00  0.00    -0.366 N 
ATOM     32  C   UNL     1      45.783 125.455  23.318  1.00  0.00     0.019 A 
ATOM     33  C   UNL     1      44.450 125.232  23.034  1.00  0.00     0.082 A 
ATOM     34  H   UNL     1      42.801 126.529  22.633  1.00  0.00     0.166 HD
ENDBRANCH  28  29
ENDBRANCH  27  28
ENDBRANCH   1  27
TORSDOF 8
ENDMDL
MODEL 2
REMARK VINA RESULT:      -8.4      1.192      1.529
REMARK SMILES Nc1c(C(=O)[N-]Cc2ccc[nH]2)cc(-n2nc3ccccc3[nH+]2)c(O)c1N
REMARK SMILES IDX 4 1 5 2 3 3 2 4 26 5 13 6 24 7 14 8 1 9 27 12 25 15 15 17
REMARK SMILES IDX 16 18 23 19 17 20 22 21 18 22 21 23 19 24 20 25 6 27 7 28
REMARK SMILES IDX 8 29 9 30 12 31 10 32 11 33
REMARK H PARENT 1 10 1 11 27 13 27 14 25 16 23 26 12 34
ROOT
ATOM      1  C   UNL     1      44.914 130.805  21.579  1.00  0.00     0.084 C 
ATOM      2  O   UNL     1      45.438 131.701  22.295  1.00  0.00    -0.315 OA
ENDROOT
BRANCH   1   3
ATOM      3  C   UNL     1      44.326 131.149  20.262  1.00  0.00     0.027 A 
ATOM      4  C   UNL     1      43.055 131.759  20.134  1.00  0.00     0.068 A 
ATOM      5  C   UNL     1      42.586 132.142  18.852  1.00  0.00     0.100 A 
ATOM      6  C   UNL     1      45.087 130.895  19.111  1.00  0.00     0.051 A 
ATOM      7  C   UNL     1      43.390 131.922  17.716  1.00  0.00     0.172 A 
ATOM      8  C   UNL     1      44.627 131.260  17.843  1.00  0.00     0.172 A 
BRANCH   4   9
ATOM      9  N   UNL     1      42.235 131.971  21.294  1.00  0.00    -0.396 N 
ATOM     10  H   UNL     1      41.194 131.953  21.230  1.00  0.00     0.156 HD
ATOM     11  H   UNL     1      42.653 132.132  22.235  1.00  0.00     0.156 HD
ENDBRANCH   4   9
BRANCH   5  12
ATOM     12  N   UNL     1      41.285 132.727  18.686  1.00  0.00    -0.394 N 
ATOM     13  H   UNL     1      40.867 132.854  17.738  1.00  0.00     0.156 HD
ATOM     14  H   UNL     1      40.672 132.960  19.495  1.00  0.00     0.156 HD
ENDBRANCH   5  12
BRANCH   7  15
ATOM     15  O   UNL     1      42.948 132.389  16.475  1.00  0.00    -0.504 OA
ATOM     16  H   UNL     1      42.351 131.850  15.862  1.00  0.00     0.293 HD
ENDBRANCH   7  15
BRANCH   8  17
ATOM     17  N   UNL     1      45.426 130.936  16.696  1.00  0.00    -0.009 N 
ATOM     18  N   UNL     1      45.604 131.767  15.668  1.00  0.00     0.054 NA
ATOM     19  N   UNL     1      46.149 129.824  16.578  1.00  0.00    -0.161 N 
ATOM     20  C   UNL     1      46.466 131.130  14.854  1.00  0.00     0.249 A 
ATOM     21  C   UNL     1      46.803 129.935  15.414  1.00  0.00     0.198 A 
ATOM     22  C   UNL     1      46.995 131.553  13.639  1.00  0.00     0.064 A 
ATOM     23  C   UNL     1      47.701 129.057  14.816  1.00  0.00     0.058 A 
ATOM     24  C   UNL     1      47.905 130.690  12.996  1.00  0.00     0.005 A 
ATOM     25  C   UNL     1      48.256 129.448  13.581  1.00  0.00     0.005 A 
ATOM     26  H   UNL     1      46.212 129.050  17.277  1.00  0.00     0.340 HD
ENDBRANCH   8  17
ENDBRANCH   1   3
BRANCH   1  27
ATOM     27  N   UNL     1      44.925 129.442  22.019  1.00  0.00    -0.644 NA
BRANCH  27  28
ATOM     28  C   UNL     1      44.712 129.040  23.404  1.00  0.00    -0.062 C 
BRANCH  28  29
ATOM     29  C   UNL     1      43.351 128.437  23.563  1.00  0.00    -0.003 A 
ATOM     30  C   UNL     1      43.084 127.196  24.108  1.00  0.00     0.021 A 
ATOM     31  N   UNL     1      42.204 129.068  23.248  1.00  0.00    -0.366 N 
ATOM     32  C   UNL     1      41.709 127.067  24.112  1.00  0.00     0.019 A 
ATOM     33  C   UNL     1      41.201 128.235  23.578  1.00  0.00     0.082 A 
ATOM     34  H   UNL     1      42.106 130.023  22.836  1.00  0.00     0.166 HD
ENDBRANCH  28  29
ENDBRANCH  27  28
ENDBRANCH   1  27
TORSDOF 8
ENDMDL
MODEL 3
REMARK VINA RESULT:      -7.9      1.683      2.173
REMARK SMILES Nc1c(C(=O)[N-]Cc2ccc[nH]2)cc(-n2nc3ccccc3[nH+]2)c(O)c1N
REMARK SMILES IDX 4 1 5 2 3 3 2 4 26 5 13 6 24 7 14 8 1 9 27 12 25 15 15 17
REMARK SMILES IDX 16 18 23 19 17 20 22 21 18 22 21 23 19 24 20 25 6 27 7 28
REMARK SMILES IDX 8 29 9 30 12 31 10 32 11 33
REMARK H PARENT 1 10 1 11 27 13 27 14 25 16 23 26 12 34
ROOT
ATOM      1  C   UNL     1      44.898 131.363  21.567  1.00  0.00     0.084 C 
ATOM      2  O   UNL     1      46.014 130.798  21.725  1.00  0.00    -0.315 OA
ENDROOT
BRANCH   1   3
ATOM      3  C   UNL     1      44.325 131.524  20.210  1.00  0.00     0.027 A 
ATOM      4  C   UNL     1      42.997 131.967  19.994  1.00  0.00     0.068 A 
ATOM      5  C   UNL     1      42.536 132.183  18.672  1.00  0.00     0.100 A 
ATOM      6  C   UNL     1      45.152 131.267  19.107  1.00  0.00     0.051 A 
ATOM      7  C   UNL     1      43.401 131.967  17.582  1.00  0.00     0.172 A 
ATOM      8  C   UNL     1      44.700 131.469  17.800  1.00  0.00     0.172 A 
BRANCH   4   9
ATOM      9  N   UNL     1      42.115 132.176  21.109  1.00  0.00    -0.396 N 
ATOM     10  H   UNL     1      41.197 132.656  20.989  1.00  0.00     0.156 HD
ATOM     11  H   UNL     1      42.356 131.840  22.066  1.00  0.00     0.156 HD
ENDBRANCH   4   9
BRANCH   5  12
ATOM     12  N   UNL     1      41.182 132.594  18.420  1.00  0.00    -0.394 N 
ATOM     13  H   UNL     1      40.419 131.892  18.292  1.00  0.00     0.156 HD
ATOM     14  H   UNL     1      40.889 133.593  18.447  1.00  0.00     0.156 HD
ENDBRANCH   5  12
BRANCH   7  15
ATOM     15  O   UNL     1      42.955 132.274  16.293  1.00  0.00    -0.504 OA
ATOM     16  H   UNL     1      42.040 132.662  16.103  1.00  0.00     0.293 HD
ENDBRANCH   7  15
BRANCH   8  17
ATOM     17  N   UNL     1      45.574 131.148  16.707  1.00  0.00    -0.009 N 
ATOM     18  N   UNL     1      46.120 129.944  16.535  1.00  0.00     0.054 NA
ATOM     19  N   UNL     1      45.852 131.977  15.703  1.00  0.00    -0.161 N 
ATOM     20  C   UNL     1      46.794 130.034  15.373  1.00  0.00     0.249 A 
ATOM     21  C   UNL     1      46.628 131.285  14.860  1.00  0.00     0.198 A 
ATOM     22  C   UNL     1      47.542 129.060  14.720  1.00  0.00     0.064 A 
ATOM     23  C   UNL     1      47.189 131.675  13.648  1.00  0.00     0.058 A 
ATOM     24  C   UNL     1      48.133 129.416  13.491  1.00  0.00     0.005 A 
ATOM     25  C   UNL     1      47.957 130.716  12.957  1.00  0.00     0.005 A 
ATOM     26  H   UNL     1      45.498 132.954  15.592  1.00  0.00     0.340 HD
ENDBRANCH   8  17
ENDBRANCH   1   3
BRANCH   1  27
ATOM     27  N   UNL     1      44.160 131.813  22.709  1.00  0.00    -0.644 NA
BRANCH  27  28
ATOM     28  C   UNL     1      44.242 131.184  24.022  1.00  0.00    -0.062 C 
BRANCH  28  29
ATOM     29  C   UNL     1      43.343 129.989  24.079  1.00  0.00    -0.003 A 
ATOM     30  C   UNL     1      43.684 128.754  24.596  1.00  0.00     0.021 A 
ATOM     31  N   UNL     1      42.055 129.993  23.687  1.00  0.00    -0.366 N 
ATOM     32  C   UNL     1      42.550 127.971  24.500  1.00  0.00     0.019 A 
ATOM     33  C   UNL     1      41.570 128.764  23.938  1.00  0.00     0.082 A 
ATOM     34  H   UNL     1      41.527 130.794  23.275  1.00  0.00     0.166 HD
ENDBRANCH  28  29
ENDBRANCH  27  28
ENDBRANCH   1  27
TORSDOF 8
ENDMDL
MODEL 4
REMARK VINA RESULT:      -7.7      1.142      1.476
REMARK SMILES Nc1c(C(=O)[N-]Cc2ccc[nH]2)cc(-n2nc3ccccc3[nH+]2)c(O)c1N
REMARK SMILES IDX 4 1 5 2 3 3 2 4 26 5 13 6 24 7 14 8 1 9 27 12 25 15 15 17
REMARK SMILES IDX 16 18 23 19 17 20 22 21 18 22 21 23 19 24 20 25 6 27 7 28
REMARK SMILES IDX 8 29 9 30 12 31 10 32 11 33
REMARK H PARENT 1 10 1 11 27 13 27 14 25 16 23 26 12 34
ROOT
ATOM      1  C   UNL     1      45.024 131.371  21.358  1.00  0.00     0.084 C 
ATOM      2  O   UNL     1      46.278 131.313  21.470  1.00  0.00    -0.315 OA
ENDROOT
BRANCH   1   3
ATOM      3  C   UNL     1      44.397 131.505  20.021  1.00  0.00     0.027 A 
ATOM      4  C   UNL     1      43.068 131.961  19.848  1.00  0.00     0.068 A 
ATOM      5  C   UNL     1      42.555 132.150  18.540  1.00  0.00     0.100 A 
ATOM      6  C   UNL     1      45.175 131.209  18.893  1.00  0.00     0.051 A 
ATOM      7  C   UNL     1      43.373 131.893  17.422  1.00  0.00     0.172 A 
ATOM      8  C   UNL     1      44.673 131.383  17.600  1.00  0.00     0.172 A 
BRANCH   4   9
ATOM      9  N   UNL     1      42.235 132.212  20.992  1.00  0.00    -0.396 N 
ATOM     10  H   UNL     1      41.795 133.145  21.145  1.00  0.00     0.156 HD
ATOM     11  H   UNL     1      42.032 131.467  21.692  1.00  0.00     0.156 HD
ENDBRANCH   4   9
BRANCH   5  12
ATOM     12  N   UNL     1      41.198 132.574  18.333  1.00  0.00    -0.394 N 
ATOM     13  H   UNL     1      40.872 133.514  18.649  1.00  0.00     0.156 HD
ATOM     14  H   UNL     1      40.515 132.009  17.786  1.00  0.00     0.156 HD
ENDBRANCH   5  12
BRANCH   7  15
ATOM     15  O   UNL     1      42.877 132.173  16.145  1.00  0.00    -0.504 OA
ATOM     16  H   UNL     1      42.024 132.693  15.985  1.00  0.00     0.293 HD
ENDBRANCH   7  15
BRANCH   8  17
ATOM     17  N   UNL     1      45.497 131.021  16.482  1.00  0.00    -0.009 N 
ATOM     18  N   UNL     1      45.744 131.839  15.459  1.00  0.00     0.054 NA
ATOM     19  N   UNL     1      46.176 129.879  16.391  1.00  0.00    -0.161 N 
ATOM     20  C   UNL     1      46.606 131.164  14.676  1.00  0.00     0.249 A 
ATOM     21  C   UNL     1      46.874 129.958  15.251  1.00  0.00     0.198 A 
ATOM     22  C   UNL     1      47.194 131.559  13.479  1.00  0.00     0.064 A 
ATOM     23  C   UNL     1      47.754 129.040  14.686  1.00  0.00     0.058 A 
ATOM     24  C   UNL     1      48.088 130.656  12.870  1.00  0.00     0.005 A 
ATOM     25  C   UNL     1      48.367 129.404  13.470  1.00  0.00     0.005 A 
ATOM     26  H   UNL     1      46.183 129.106  17.094  1.00  0.00     0.340 HD
ENDBRANCH   8  17
ENDBRANCH   1   3
BRANCH   1  27
ATOM     27  N   UNL     1      44.198 131.264  22.523  1.00  0.00    -0.644 NA
BRANCH  27  28
ATOM     28  C   UNL     1      44.655 130.698  23.787  1.00  0.00    -0.062 C 
BRANCH  28  29
ATOM     29  C   UNL     1      44.086 129.326  23.974  1.00  0.00    -0.003 A 
ATOM     30  C   UNL     1      42.753 128.987  23.844  1.00  0.00     0.021 A 
ATOM     31  N   UNL     1      44.825 128.231  24.230  1.00  0.00    -0.366 N 
ATOM     32  C   UNL     1      42.682 127.623  24.044  1.00  0.00     0.019 A 
ATOM     33  C   UNL     1      43.972 127.191  24.278  1.00  0.00     0.082 A 
ATOM     34  H   UNL     1      45.860 128.189  24.360  1.00  0.00     0.166 HD
ENDBRANCH  28  29
ENDBRANCH  27  28
ENDBRANCH   1  27
TORSDOF 8
ENDMDL
MODEL 5
REMARK VINA RESULT:      -7.7      2.832      4.522
REMARK SMILES Nc1c(C(=O)[N-]Cc2ccc[nH]2)cc(-n2nc3ccccc3[nH+]2)c(O)c1N
REMARK SMILES IDX 4 1 5 2 3 3 2 4 26 5 13 6 24 7 14 8 1 9 27 12 25 15 15 17
REMARK SMILES IDX 16 18 23 19 17 20 22 21 18 22 21 23 19 24 20 25 6 27 7 28
REMARK SMILES IDX 8 29 9 30 12 31 10 32 11 33
REMARK H PARENT 1 10 1 11 27 13 27 14 25 16 23 26 12 34
ROOT
ATOM      1  C   UNL     1      45.516 131.828  21.374  1.00  0.00     0.084 C 
ATOM      2  O   UNL     1      45.072 131.275  22.417  1.00  0.00    -0.315 OA
ENDROOT
BRANCH   1   3
ATOM      3  C   UNL     1      44.762 131.740  20.101  1.00  0.00     0.027 A 
ATOM      4  C   UNL     1      43.370 131.994  20.024  1.00  0.00     0.068 A 
ATOM      5  C   UNL     1      42.724 131.979  18.763  1.00  0.00     0.100 A 
ATOM      6  C   UNL     1      45.472 131.437  18.931  1.00  0.00     0.051 A 
ATOM      7  C   UNL     1      43.468 131.721  17.595  1.00  0.00     0.172 A 
ATOM      8  C   UNL     1      44.839 131.410  17.686  1.00  0.00     0.172 A 
BRANCH   4   9
ATOM      9  N   UNL     1      42.614 132.246  21.219  1.00  0.00    -0.396 N 
ATOM     10  H   UNL     1      41.852 132.958  21.236  1.00  0.00     0.156 HD
ATOM     11  H   UNL     1      42.791 131.715  22.098  1.00  0.00     0.156 HD
ENDBRANCH   4   9
BRANCH   5  12
ATOM     12  N   UNL     1      41.307 132.194  18.657  1.00  0.00    -0.394 N 
ATOM     13  H   UNL     1      40.868 132.461  17.748  1.00  0.00     0.156 HD
ATOM     14  H   UNL     1      40.654 132.004  19.447  1.00  0.00     0.156 HD
ENDBRANCH   5  12
BRANCH   7  15
ATOM     15  O   UNL     1      42.828 131.801  16.355  1.00  0.00    -0.504 OA
ATOM     16  H   UNL     1      42.276 132.598  16.068  1.00  0.00     0.293 HD
ENDBRANCH   7  15
BRANCH   8  17
ATOM     17  N   UNL     1      45.605 131.050  16.526  1.00  0.00    -0.009 N 
ATOM     18  N   UNL     1      45.632 131.779  15.410  1.00  0.00     0.054 NA
ATOM     19  N   UNL     1      46.439 130.013  16.473  1.00  0.00    -0.161 N 
ATOM     20  C   UNL     1      46.513 131.152  14.609  1.00  0.00     0.249 A 
ATOM     21  C   UNL     1      47.012 130.066  15.263  1.00  0.00     0.198 A 
ATOM     22  C   UNL     1      46.925 131.494  13.325  1.00  0.00     0.064 A 
ATOM     23  C   UNL     1      47.967 129.227  14.698  1.00  0.00     0.058 A 
ATOM     24  C   UNL     1      47.888 130.667  12.713  1.00  0.00     0.005 A 
ATOM     25  C   UNL     1      48.407 129.540  13.396  1.00  0.00     0.005 A 
ATOM     26  H   UNL     1      46.626 129.330  17.241  1.00  0.00     0.340 HD
ENDBRANCH   8  17
ENDBRANCH   1   3
BRANCH   1  27
ATOM     27  N   UNL     1      46.732 132.583  21.430  1.00  0.00    -0.644 NA
BRANCH  27  28
ATOM     28  C   UNL     1      47.156 133.345  22.598  1.00  0.00    -0.062 C 
BRANCH  28  29
ATOM     29  C   UNL     1      48.149 134.391  22.200  1.00  0.00    -0.003 A 
ATOM     30  C   UNL     1      47.944 135.368  21.244  1.00  0.00     0.021 A 
ATOM     31  N   UNL     1      49.355 134.548  22.778  1.00  0.00    -0.366 N 
ATOM     32  C   UNL     1      49.085 136.145  21.238  1.00  0.00     0.019 A 
ATOM     33  C   UNL     1      49.930 135.613  22.191  1.00  0.00     0.082 A 
ATOM     34  H   UNL     1      49.765 133.964  23.540  1.00  0.00     0.166 HD
ENDBRANCH  28  29
ENDBRANCH  27  28
ENDBRANCH   1  27
TORSDOF 8
ENDMDL
MODEL 6
REMARK VINA RESULT:      -7.4      2.132      2.699
REMARK SMILES Nc1c(C(=O)[N-]Cc2ccc[nH]2)cc(-n2nc3ccccc3[nH+]2)c(O)c1N
REMARK SMILES IDX 4 1 5 2 3 3 2 4 26 5 13 6 24 7 14 8 1 9 27 12 25 15 15 17
REMARK SMILES IDX 16 18 23 19 17 20 22 21 18 22 21 23 19 24 20 25 6 27 7 28
REMARK SMILES IDX 8 29 9 30 12 31 10 32 11 33
REMARK H PARENT 1 10 1 11 27 13 27 14 25 16 23 26 12 34
ROOT
ATOM      1  C   UNL     1      43.925 130.512  23.144  1.00  0.00     0.084 C 
ATOM      2  O   UNL     1      44.723 131.129  23.900  1.00  0.00    -0.315 OA
ENDROOT
BRANCH   1   3
ATOM      3  C   UNL     1      43.327 131.193  21.971  1.00  0.00     0.027 A 
ATOM      4  C   UNL     1      42.226 132.076  22.086  1.00  0.00     0.068 A 
ATOM      5  C   UNL     1      41.756 132.763  20.938  1.00  0.00     0.100 A 
ATOM      6  C   UNL     1      43.910 130.980  20.714  1.00  0.00     0.051 A 
ATOM      7  C   UNL     1      42.390 132.571  19.696  1.00  0.00     0.172 A 
ATOM      8  C   UNL     1      43.445 131.645  19.577  1.00  0.00     0.172 A 
BRANCH   4   9
ATOM      9  N   UNL     1      41.577 132.261  23.354  1.00  0.00    -0.396 N 
ATOM     10  H   UNL     1      41.730 131.594  24.141  1.00  0.00     0.156 HD
ATOM     11  H   UNL     1      40.948 133.073  23.532  1.00  0.00     0.156 HD
ENDBRANCH   4   9
BRANCH   5  12
ATOM     12  N   UNL     1      40.617 133.635  21.016  1.00  0.00    -0.394 N 
ATOM     13  H   UNL     1      40.354 134.101  21.913  1.00  0.00     0.156 HD
ATOM     14  H   UNL     1      40.067 133.910  20.175  1.00  0.00     0.156 HD
ENDBRANCH   5  12
BRANCH   7  15
ATOM     15  O   UNL     1      41.968 133.326  18.598  1.00  0.00    -0.504 OA
ATOM     16  H   UNL     1      42.492 133.389  17.735  1.00  0.00     0.293 HD
ENDBRANCH   7  15
BRANCH   8  17
ATOM     17  N   UNL     1      44.050 131.356  18.307  1.00  0.00    -0.009 N 
ATOM     18  N   UNL     1      43.507 131.704  17.141  1.00  0.00     0.054 NA
ATOM     19  N   UNL     1      45.253 130.804  18.160  1.00  0.00    -0.161 N 
ATOM     20  C   UNL     1      44.408 131.328  16.214  1.00  0.00     0.249 A 
ATOM     21  C   UNL     1      45.484 130.775  16.842  1.00  0.00     0.198 A 
ATOM     22  C   UNL     1      44.347 131.461  14.831  1.00  0.00     0.064 A 
ATOM     23  C   UNL     1      46.596 130.310  16.147  1.00  0.00     0.058 A 
ATOM     24  C   UNL     1      45.451 130.997  14.088  1.00  0.00     0.005 A 
ATOM     25  C   UNL     1      46.570 130.425  14.742  1.00  0.00     0.005 A 
ATOM     26  H   UNL     1      45.890 130.496  18.929  1.00  0.00     0.340 HD
ENDBRANCH   8  17
ENDBRANCH   1   3
BRANCH   1  27
ATOM     27  N   UNL     1      43.629 129.133  23.394  1.00  0.00    -0.644 NA
BRANCH  27  28
ATOM     28  C   UNL     1      42.556 128.685  24.274  1.00  0.00    -0.062 C 
BRANCH  28  29
ATOM     29  C   UNL     1      42.076 127.331  23.853  1.00  0.00    -0.003 A 
ATOM     30  C   UNL     1      40.753 126.954  23.727  1.00  0.00     0.021 A 
ATOM     31  N   UNL     1      42.887 126.323  23.481  1.00  0.00    -0.366 N 
ATOM     32  C   UNL     1      40.766 125.653  23.266  1.00  0.00     0.019 A 
ATOM     33  C   UNL     1      42.093 125.297  23.126  1.00  0.00     0.082 A 
ATOM     34  H   UNL     1      43.931 126.334  23.461  1.00  0.00     0.166 HD
ENDBRANCH  28  29
ENDBRANCH  27  28
ENDBRANCH   1  27
TORSDOF 8
ENDMDL
MODEL 7
REMARK VINA RESULT:      -7.1      2.476      3.872
REMARK SMILES Nc1c(C(=O)[N-]Cc2ccc[nH]2)cc(-n2nc3ccccc3[nH+]2)c(O)c1N
REMARK SMILES IDX 4 1 5 2 3 3 2 4 26 5 13 6 24 7 14 8 1 9 27 12 25 15 15 17
REMARK SMILES IDX 16 18 23 19 17 20 22 21 18 22 21 23 19 24 20 25 6 27 7 28
REMARK SMILES IDX 8 29 9 30 12 31 10 32 11 33
REMARK H PARENT 1 10 1 11 27 13 27 14 25 16 23 26 12 34
ROOT
ATOM      1  C   UNL     1      45.198 131.002  21.346  1.00  0.00     0.084 C 
ATOM      2  O   UNL     1      45.248 129.833  21.816  1.00  0.00    -0.315 OA
ENDROOT
BRANCH   1   3
ATOM      3  C   UNL     1      44.564 131.253  20.030  1.00  0.00     0.027 A 
ATOM      4  C   UNL     1      43.257 131.785  19.905  1.00  0.00     0.068 A 
ATOM      5  C   UNL     1      42.741 132.084  18.620  1.00  0.00     0.100 A 
ATOM      6  C   UNL     1      45.313 130.992  18.873  1.00  0.00     0.051 A 
ATOM      7  C   UNL     1      43.532 131.860  17.476  1.00  0.00     0.172 A 
ATOM      8  C   UNL     1      44.807 131.275  17.602  1.00  0.00     0.172 A 
BRANCH   4   9
ATOM      9  N   UNL     1      42.452 132.002  21.075  1.00  0.00    -0.396 N 
ATOM     10  H   UNL     1      42.200 132.965  21.386  1.00  0.00     0.156 HD
ATOM     11  H   UNL     1      42.080 131.207  21.636  1.00  0.00     0.156 HD
ENDBRANCH   4   9
BRANCH   5  12
ATOM     12  N   UNL     1      41.405 132.587  18.460  1.00  0.00    -0.394 N 
ATOM     13  H   UNL     1      40.637 131.977  18.101  1.00  0.00     0.156 HD
ATOM     14  H   UNL     1      41.126 133.540  18.777  1.00  0.00     0.156 HD
ENDBRANCH   5  12
BRANCH   7  15
ATOM     15  O   UNL     1      43.037 132.247  16.227  1.00  0.00    -0.504 OA
ATOM     16  H   UNL     1      43.080 131.655  15.408  1.00  0.00     0.293 HD
ENDBRANCH   7  15
BRANCH   8  17
ATOM     17  N   UNL     1      45.599 130.946  16.451  1.00  0.00    -0.009 N 
ATOM     18  N   UNL     1      45.808 131.790  15.440  1.00  0.00     0.054 NA
ATOM     19  N   UNL     1      46.284 129.813  16.313  1.00  0.00    -0.161 N 
ATOM     20  C   UNL     1      46.651 131.140  14.617  1.00  0.00     0.249 A 
ATOM     21  C   UNL     1      46.946 129.923  15.154  1.00  0.00     0.198 A 
ATOM     22  C   UNL     1      47.199 131.567  13.412  1.00  0.00     0.064 A 
ATOM     23  C   UNL     1      47.816 129.027  14.542  1.00  0.00     0.058 A 
ATOM     24  C   UNL     1      48.081 130.687  12.754  1.00  0.00     0.005 A 
ATOM     25  C   UNL     1      48.389 129.423  13.316  1.00  0.00     0.005 A 
ATOM     26  H   UNL     1      46.319 129.024  16.998  1.00  0.00     0.340 HD
ENDBRANCH   8  17
ENDBRANCH   1   3
BRANCH   1  27
ATOM     27  N   UNL     1      45.716 132.099  22.107  1.00  0.00    -0.644 NA
BRANCH  27  28
ATOM     28  C   UNL     1      46.584 133.129  21.549  1.00  0.00    -0.062 C 
BRANCH  28  29
ATOM     29  C   UNL     1      47.538 133.621  22.593  1.00  0.00    -0.003 A 
ATOM     30  C   UNL     1      48.900 133.779  22.423  1.00  0.00     0.021 A 
ATOM     31  N   UNL     1      47.168 134.035  23.819  1.00  0.00    -0.366 N 
ATOM     32  C   UNL     1      49.376 134.304  23.608  1.00  0.00     0.019 A 
ATOM     33  C   UNL     1      48.286 134.448  24.442  1.00  0.00     0.082 A 
ATOM     34  H   UNL     1      46.201 134.045  24.212  1.00  0.00     0.166 HD
ENDBRANCH  28  29
ENDBRANCH  27  28
ENDBRANCH   1  27
TORSDOF 8
ENDMDL
MODEL 8
REMARK VINA RESULT:      -6.5      2.229      7.456
REMARK SMILES Nc1c(C(=O)[N-]Cc2ccc[nH]2)cc(-n2nc3ccccc3[nH+]2)c(O)c1N
REMARK SMILES IDX 4 1 5 2 3 3 2 4 26 5 13 6 24 7 14 8 1 9 27 12 25 15 15 17
REMARK SMILES IDX 16 18 23 19 17 20 22 21 18 22 21 23 19 24 20 25 6 27 7 28
REMARK SMILES IDX 8 29 9 30 12 31 10 32 11 33
REMARK H PARENT 1 10 1 11 27 13 27 14 25 16 23 26 12 34
ROOT
ATOM      1  C   UNL     1      45.348 131.234  20.718  1.00  0.00     0.084 C 
ATOM      2  O   UNL     1      46.602 131.352  20.657  1.00  0.00    -0.315 OA
ENDROOT
BRANCH   1   3
ATOM      3  C   UNL     1      44.732 130.251  21.641  1.00  0.00     0.027 A 
ATOM      4  C   UNL     1      43.603 130.562  22.437  1.00  0.00     0.068 A 
ATOM      5  C   UNL     1      43.008 129.553  23.235  1.00  0.00     0.100 A 
ATOM      6  C   UNL     1      45.270 128.957  21.685  1.00  0.00     0.051 A 
ATOM      7  C   UNL     1      43.536 128.247  23.223  1.00  0.00     0.172 A 
ATOM      8  C   UNL     1      44.695 127.960  22.476  1.00  0.00     0.172 A 
BRANCH   4   9
ATOM      9  N   UNL     1      43.075 131.898  22.452  1.00  0.00    -0.396 N 
ATOM     10  H   UNL     1      42.914 132.404  23.350  1.00  0.00     0.156 HD
ATOM     11  H   UNL     1      42.855 132.408  21.570  1.00  0.00     0.156 HD
ENDBRANCH   4   9
BRANCH   5  12
ATOM     12  N   UNL     1      41.886 129.848  24.082  1.00  0.00    -0.394 N 
ATOM     13  H   UNL     1      41.581 130.832  24.251  1.00  0.00     0.156 HD
ATOM     14  H   UNL     1      41.280 129.102  24.484  1.00  0.00     0.156 HD
ENDBRANCH   5  12
BRANCH   7  15
ATOM     15  O   UNL     1      42.879 127.247  23.946  1.00  0.00    -0.504 OA
ATOM     16  H   UNL     1      42.031 126.798  23.624  1.00  0.00     0.293 HD
ENDBRANCH   7  15
BRANCH   8  17
ATOM     17  N   UNL     1      45.313 126.665  22.518  1.00  0.00    -0.009 N 
ATOM     18  N   UNL     1      44.624 125.526  22.598  1.00  0.00     0.054 NA
ATOM     19  N   UNL     1      46.621 126.455  22.383  1.00  0.00    -0.161 N 
ATOM     20  C   UNL     1      45.553 124.555  22.533  1.00  0.00     0.249 A 
ATOM     21  C   UNL     1      46.783 125.126  22.399  1.00  0.00     0.198 A 
ATOM     22  C   UNL     1      45.379 123.175  22.566  1.00  0.00     0.064 A 
ATOM     23  C   UNL     1      47.947 124.374  22.281  1.00  0.00     0.058 A 
ATOM     24  C   UNL     1      46.534 122.375  22.456  1.00  0.00     0.005 A 
ATOM     25  C   UNL     1      47.811 122.971  22.314  1.00  0.00     0.005 A 
ATOM     26  H   UNL     1      47.354 127.188  22.253  1.00  0.00     0.340 HD
ENDBRANCH   8  17
ENDBRANCH   1   3
BRANCH   1  27
ATOM     27  N   UNL     1      44.513 132.085  19.924  1.00  0.00    -0.644 NA
BRANCH  27  28
ATOM     28  C   UNL     1      43.812 131.637  18.726  1.00  0.00    -0.062 C 
BRANCH  28  29
ATOM     29  C   UNL     1      44.796 131.234  17.673  1.00  0.00    -0.003 A 
ATOM     30  C   UNL     1      45.044 131.924  16.502  1.00  0.00     0.021 A 
ATOM     31  N   UNL     1      45.614 130.170  17.771  1.00  0.00    -0.366 N 
ATOM     32  C   UNL     1      46.053 131.237  15.857  1.00  0.00     0.019 A 
ATOM     33  C   UNL     1      46.379 130.166  16.665  1.00  0.00     0.082 A 
ATOM     34  H   UNL     1      45.657 129.482  18.556  1.00  0.00     0.166 HD
ENDBRANCH  28  29
ENDBRANCH  27  28
ENDBRANCH   1  27
TORSDOF 8
ENDMDL
MODEL 9
REMARK VINA RESULT:      -5.9      2.063      3.104
REMARK SMILES Nc1c(C(=O)[N-]Cc2ccc[nH]2)cc(-n2nc3ccccc3[nH+]2)c(O)c1N
REMARK SMILES IDX 4 1 5 2 3 3 2 4 26 5 13 6 24 7 14 8 1 9 27 12 25 15 15 17
REMARK SMILES IDX 16 18 23 19 17 20 22 21 18 22 21 23 19 24 20 25 6 27 7 28
REMARK SMILES IDX 8 29 9 30 12 31 10 32 11 33
REMARK H PARENT 1 10 1 11 27 13 27 14 25 16 23 26 12 34
ROOT
ATOM      1  C   UNL     1      45.126 128.000  22.997  1.00  0.00     0.084 C 
ATOM      2  O   UNL     1      45.334 128.058  24.240  1.00  0.00    -0.315 OA
ENDROOT
BRANCH   1   3
ATOM      3  C   UNL     1      44.601 129.179  22.269  1.00  0.00     0.027 A 
ATOM      4  C   UNL     1      43.718 130.110  22.869  1.00  0.00     0.068 A 
ATOM      5  C   UNL     1      43.321 131.264  22.148  1.00  0.00     0.100 A 
ATOM      6  C   UNL     1      45.038 129.394  20.954  1.00  0.00     0.051 A 
ATOM      7  C   UNL     1      43.813 131.483  20.847  1.00  0.00     0.172 A 
ATOM      8  C   UNL     1      44.642 130.524  20.235  1.00  0.00     0.172 A 
BRANCH   4   9
ATOM      9  N   UNL     1      43.212 129.876  24.193  1.00  0.00    -0.396 N 
ATOM     10  H   UNL     1      43.455 130.511  24.984  1.00  0.00     0.156 HD
ATOM     11  H   UNL     1      42.573 129.079  24.399  1.00  0.00     0.156 HD
ENDBRANCH   4   9
BRANCH   5  12
ATOM     12  N   UNL     1      42.395 132.206  22.715  1.00  0.00    -0.394 N 
ATOM     13  H   UNL     1      41.411 132.270  22.371  1.00  0.00     0.156 HD
ATOM     14  H   UNL     1      42.633 132.791  23.543  1.00  0.00     0.156 HD
ENDBRANCH   5  12
BRANCH   7  15
ATOM     15  O   UNL     1      43.480 132.672  20.191  1.00  0.00    -0.504 OA
ATOM     16  H   UNL     1      43.289 132.721  19.198  1.00  0.00     0.293 HD
ENDBRANCH   7  15
BRANCH   8  17
ATOM     17  N   UNL     1      45.083 130.671  18.876  1.00  0.00    -0.009 N 
ATOM     18  N   UNL     1      44.891 131.778  18.159  1.00  0.00     0.054 NA
ATOM     19  N   UNL     1      45.811 129.766  18.224  1.00  0.00    -0.161 N 
ATOM     20  C   UNL     1      45.512 131.544  16.988  1.00  0.00     0.249 A 
ATOM     21  C   UNL     1      46.080 130.306  17.028  1.00  0.00     0.198 A 
ATOM     22  C   UNL     1      45.626 132.374  15.878  1.00  0.00     0.064 A 
ATOM     23  C   UNL     1      46.815 129.787  15.967  1.00  0.00     0.058 A 
ATOM     24  C   UNL     1      46.358 131.884  14.778  1.00  0.00     0.005 A 
ATOM     25  C   UNL     1      46.950 130.598  14.822  1.00  0.00     0.005 A 
ATOM     26  H   UNL     1      46.130 128.844  18.597  1.00  0.00     0.340 HD
ENDBRANCH   8  17
ENDBRANCH   1   3
BRANCH   1  27
ATOM     27  N   UNL     1      45.441 126.802  22.278  1.00  0.00    -0.644 NA
BRANCH  27  28
ATOM     28  C   UNL     1      46.697 126.077  22.427  1.00  0.00    -0.062 C 
BRANCH  28  29
ATOM     29  C   UNL     1      46.437 124.691  22.928  1.00  0.00    -0.003 A 
ATOM     30  C   UNL     1      45.391 123.880  22.532  1.00  0.00     0.021 A 
ATOM     31  N   UNL     1      47.238 124.035  23.788  1.00  0.00    -0.366 N 
ATOM     32  C   UNL     1      45.563 122.680  23.194  1.00  0.00     0.019 A 
ATOM     33  C   UNL     1      46.707 122.811  23.956  1.00  0.00     0.082 A 
ATOM     34  H   UNL     1      48.110 124.398  24.234  1.00  0.00     0.166 HD
ENDBRANCH  28  29
ENDBRANCH  27  28
ENDBRANCH   1  27
TORSDOF 8
ENDMDL


