REMARK SMILES [O-]/C(=C\Cc1c(F)ccc2[n-]c([NH2+]c3cn4ccccc4n3)cc12)c1ccccc1
REMARK SMILES IDX 4 1 3 2 2 3 1 4 25 5 26 6 30 7 27 8 29 9 28 10 5 11 6 12
REMARK SMILES IDX 24 13 8 14 23 15 10 16 9 17 12 18 11 19 7 20 13 21 14 24
REMARK SMILES IDX 15 25 22 26 16 27 21 28 17 29 20 30 18 31 19 32
REMARK H PARENT 13 22 13 23
ROOT
ATOM      1  C   UNL     1      -0.658  -1.399   3.593  1.00  0.00     0.066 C 
ENDROOT
BRANCH   1   2
ATOM      2  C   UNL     1      -1.359  -1.725   2.303  1.00  0.00    -0.030 C 
BRANCH   2   3
ATOM      3  C   UNL     1      -1.227  -2.910   1.685  1.00  0.00    -0.105 C 
ATOM      4  O   UNL     1      -0.485  -3.923   2.288  1.00  0.00    -0.872 OA
BRANCH   3   5
ATOM      5  C   UNL     1      -1.868  -3.184   0.377  1.00  0.00    -0.034 A 
ATOM      6  C   UNL     1      -2.030  -2.176  -0.593  1.00  0.00     0.007 A 
ATOM      7  C   UNL     1      -2.292  -4.491   0.077  1.00  0.00     0.007 A 
ATOM      8  C   UNL     1      -2.629  -2.468  -1.823  1.00  0.00     0.001 A 
ATOM      9  C   UNL     1      -2.892  -4.778  -1.154  1.00  0.00     0.001 A 
ATOM     10  C   UNL     1      -3.062  -3.766  -2.102  1.00  0.00     0.000 A 
ENDBRANCH   3   5
ENDBRANCH   2   3
ENDBRANCH   1   2
BRANCH   1  11
ATOM     11  C   UNL     1       0.832  -1.278   3.378  1.00  0.00    -0.002 A 
ATOM     12  C   UNL     1       1.740  -2.218   3.921  1.00  0.00     0.127 A 
ATOM     13  C   UNL     1       1.370  -0.255   2.582  1.00  0.00    -0.030 A 
ATOM     14  C   UNL     1       3.120  -2.121   3.647  1.00  0.00     0.038 A 
ATOM     15  C   UNL     1       0.758   0.775   1.903  1.00  0.00     0.050 A 
ATOM     16  C   UNL     1       2.713  -0.173   2.309  1.00  0.00    -0.125 A 
ATOM     17  C   UNL     1       3.618  -1.094   2.827  1.00  0.00    -0.012 A 
ATOM     18  C   UNL     1       1.796   1.426   1.245  1.00  0.00     0.037 A 
ATOM     19  N   UNL     1       2.999   0.847   1.478  1.00  0.00    -0.610 NA
ATOM     20  F   UNL     1       1.296  -3.236   4.702  1.00  0.00    -0.207 F 
BRANCH  18  21
ATOM     21  N   UNL     1       1.617   2.511   0.325  1.00  0.00    -0.282 N 
ATOM     22  H   UNL     1       2.520   3.020   0.194  1.00  0.00     0.358 HD
ATOM     23  H   UNL     1       0.902   3.175   0.700  1.00  0.00     0.358 HD
BRANCH  21  24
ATOM     24  C   UNL     1       1.169   1.984  -0.931  1.00  0.00     0.246 A 
ATOM     25  C   UNL     1       1.996   1.513  -1.942  1.00  0.00     0.183 A 
ATOM     26  N   UNL     1      -0.135   1.759  -1.224  1.00  0.00    -0.177 NA
ATOM     27  N   UNL     1       1.190   1.007  -2.886  1.00  0.00    -0.301 N 
ATOM     28  C   UNL     1      -0.068   1.167  -2.436  1.00  0.00     0.143 A 
ATOM     29  C   UNL     1       1.498   0.409  -4.066  1.00  0.00     0.093 A 
ATOM     30  C   UNL     1      -1.153   0.717  -3.182  1.00  0.00     0.048 A 
ATOM     31  C   UNL     1       0.444  -0.065  -4.859  1.00  0.00     0.018 A 
ATOM     32  C   UNL     1      -0.885   0.092  -4.411  1.00  0.00     0.005 A 
ENDBRANCH  21  24
ENDBRANCH  18  21
ENDBRANCH   1  11
TORSDOF 6


