MODEL 1
REMARK VINA RESULT:     -10.0      0.000      0.000
REMARK SMILES Cc1ccc(-c2ccc(O)cc2)c2c[nH][nH+]c12
REMARK SMILES IDX 6 1 7 2 8 3 9 4 11 5 12 6 5 7 2 8 3 9 17 10 4 11 16 12 13 13
REMARK SMILES IDX 15 14 14 15 1 16 10 19
REMARK H PARENT 16 17 15 18 10 20
ROOT
ATOM      1  C   UNL     1      45.516 131.024  17.150  1.00  0.00    -0.017 A 
ATOM      2  C   UNL     1      45.635 132.144  16.310  1.00  0.00     0.012 A 
ATOM      3  C   UNL     1      46.155 132.008  15.019  1.00  0.00     0.047 A 
ATOM      4  C   UNL     1      46.569 130.752  14.556  1.00  0.00     0.115 A 
ATOM      5  C   UNL     1      46.462 129.635  15.391  1.00  0.00     0.047 A 
ATOM      6  C   UNL     1      45.942 129.769  16.682  1.00  0.00     0.012 A 
ENDROOT
BRANCH   1   7
ATOM      7  C   UNL     1      44.976 131.163  18.522  1.00  0.00    -0.003 A 
ATOM      8  C   UNL     1      43.943 131.443  21.175  1.00  0.00     0.024 A 
ATOM      9  C   UNL     1      45.222 130.891  20.953  1.00  0.00     0.011 A 
ATOM     10  C   UNL     1      43.210 131.832  20.049  1.00  0.00     0.239 A 
ATOM     11  C   UNL     1      45.731 130.751  19.643  1.00  0.00     0.010 A 
ATOM     12  N   UNL     1      41.966 132.338  19.997  1.00  0.00    -0.126 N 
ATOM     13  C   UNL     1      43.706 131.700  18.777  1.00  0.00     0.078 A 
ATOM     14  N   UNL     1      41.656 132.523  18.721  1.00  0.00    -0.174 N 
ATOM     15  C   UNL     1      42.693 132.140  17.943  1.00  0.00     0.163 A 
ATOM     16  C   UNL     1      43.380 131.580  22.558  1.00  0.00     0.052 C 
ATOM     17  H   UNL     1      41.330 132.544  20.799  1.00  0.00     0.488 HD
ATOM     18  H   UNL     1      40.741 132.897  18.384  1.00  0.00     0.238 HD
ENDBRANCH   1   7
BRANCH   4  19
ATOM     19  O   UNL     1      47.088 130.604  13.272  1.00  0.00    -0.508 OA
ATOM     20  H   UNL     1      46.751 131.163  12.496  1.00  0.00     0.293 HD
ENDBRANCH   4  19
TORSDOF 2
ENDMDL
MODEL 2
REMARK VINA RESULT:     -10.0      0.045      1.175
REMARK SMILES Cc1ccc(-c2ccc(O)cc2)c2c[nH][nH+]c12
REMARK SMILES IDX 6 1 7 2 8 3 9 4 11 5 12 6 5 7 2 8 3 9 17 10 4 11 16 12 13 13
REMARK SMILES IDX 15 14 14 15 1 16 10 19
REMARK H PARENT 16 17 15 18 10 20
ROOT
ATOM      1  C   UNL     1      45.503 131.001  17.159  1.00  0.00    -0.017 A 
ATOM      2  C   UNL     1      45.866 129.736  16.667  1.00  0.00     0.012 A 
ATOM      3  C   UNL     1      46.370 129.600  15.370  1.00  0.00     0.047 A 
ATOM      4  C   UNL     1      46.511 130.725  14.547  1.00  0.00     0.115 A 
ATOM      5  C   UNL     1      46.142 131.985  15.028  1.00  0.00     0.047 A 
ATOM      6  C   UNL     1      45.637 132.124  16.324  1.00  0.00     0.012 A 
ENDROOT
BRANCH   1   7
ATOM      7  C   UNL     1      44.959 131.151  18.529  1.00  0.00    -0.003 A 
ATOM      8  C   UNL     1      43.920 131.448  21.177  1.00  0.00     0.024 A 
ATOM      9  C   UNL     1      45.196 130.887  20.961  1.00  0.00     0.011 A 
ATOM     10  C   UNL     1      43.193 131.838  20.047  1.00  0.00     0.239 A 
ATOM     11  C   UNL     1      45.708 130.738  19.653  1.00  0.00     0.010 A 
ATOM     12  N   UNL     1      41.953 132.351  19.990  1.00  0.00    -0.126 N 
ATOM     13  C   UNL     1      43.691 131.696  18.777  1.00  0.00     0.078 A 
ATOM     14  N   UNL     1      41.647 132.532  18.711  1.00  0.00    -0.174 N 
ATOM     15  C   UNL     1      42.684 132.139  17.938  1.00  0.00     0.163 A 
ATOM     16  C   UNL     1      43.354 131.595  22.558  1.00  0.00     0.052 C 
ATOM     17  H   UNL     1      41.315 132.564  20.789  1.00  0.00     0.488 HD
ATOM     18  H   UNL     1      40.736 132.911  18.370  1.00  0.00     0.238 HD
ENDBRANCH   1   7
BRANCH   4  19
ATOM     19  O   UNL     1      47.012 130.602  13.254  1.00  0.00    -0.508 OA
ATOM     20  H   UNL     1      46.396 130.523  12.452  1.00  0.00     0.293 HD
ENDBRANCH   4  19
TORSDOF 2
ENDMDL
MODEL 3
REMARK VINA RESULT:      -9.3      1.577      2.630
REMARK SMILES Cc1ccc(-c2ccc(O)cc2)c2c[nH][nH+]c12
REMARK SMILES IDX 6 1 7 2 8 3 9 4 11 5 12 6 5 7 2 8 3 9 17 10 4 11 16 12 13 13
REMARK SMILES IDX 15 14 14 15 1 16 10 19
REMARK H PARENT 16 17 15 18 10 20
ROOT
ATOM      1  C   UNL     1      45.304 131.009  16.558  1.00  0.00    -0.017 A 
ATOM      2  C   UNL     1      45.544 129.659  16.248  1.00  0.00     0.012 A 
ATOM      3  C   UNL     1      46.339 129.316  15.150  1.00  0.00     0.047 A 
ATOM      4  C   UNL     1      46.898 130.317  14.346  1.00  0.00     0.115 A 
ATOM      5  C   UNL     1      46.655 131.662  14.643  1.00  0.00     0.047 A 
ATOM      6  C   UNL     1      45.861 132.008  15.741  1.00  0.00     0.012 A 
ENDROOT
BRANCH   1   7
ATOM      7  C   UNL     1      44.455 131.378  17.715  1.00  0.00    -0.003 A 
ATOM      8  C   UNL     1      42.805 132.080  19.943  1.00  0.00     0.024 A 
ATOM      9  C   UNL     1      42.309 132.159  18.625  1.00  0.00     0.011 A 
ATOM     10  C   UNL     1      44.128 131.657  20.104  1.00  0.00     0.239 A 
ATOM     11  C   UNL     1      43.124 131.814  17.524  1.00  0.00     0.010 A 
ATOM     12  N   UNL     1      44.835 131.543  21.241  1.00  0.00    -0.126 N 
ATOM     13  C   UNL     1      44.920 131.319  19.036  1.00  0.00     0.078 A 
ATOM     14  N   UNL     1      46.060 131.147  20.921  1.00  0.00    -0.174 N 
ATOM     15  C   UNL     1      46.153 131.004  19.580  1.00  0.00     0.163 A 
ATOM     16  C   UNL     1      41.958 132.460  21.121  1.00  0.00     0.052 C 
ATOM     17  H   UNL     1      44.509 131.738  22.214  1.00  0.00     0.488 HD
ATOM     18  H   UNL     1      46.828 130.988  21.610  1.00  0.00     0.238 HD
ENDBRANCH   1   7
BRANCH   4  19
ATOM     19  O   UNL     1      47.692 129.989  13.249  1.00  0.00    -0.508 OA
ATOM     20  H   UNL     1      47.530 129.144  12.713  1.00  0.00     0.293 HD
ENDBRANCH   4  19
TORSDOF 2
ENDMDL
MODEL 4
REMARK VINA RESULT:      -9.2      1.583      2.370
REMARK SMILES Cc1ccc(-c2ccc(O)cc2)c2c[nH][nH+]c12
REMARK SMILES IDX 6 1 7 2 8 3 9 4 11 5 12 6 5 7 2 8 3 9 17 10 4 11 16 12 13 13
REMARK SMILES IDX 15 14 14 15 1 16 10 19
REMARK H PARENT 16 17 15 18 10 20
ROOT
ATOM      1  C   UNL     1      45.330 131.007  16.544  1.00  0.00    -0.017 A 
ATOM      2  C   UNL     1      45.864 131.998  15.701  1.00  0.00     0.012 A 
ATOM      3  C   UNL     1      46.677 131.643  14.620  1.00  0.00     0.047 A 
ATOM      4  C   UNL     1      46.971 130.296  14.373  1.00  0.00     0.115 A 
ATOM      5  C   UNL     1      46.450 129.307  15.213  1.00  0.00     0.047 A 
ATOM      6  C   UNL     1      45.637 129.659  16.295  1.00  0.00     0.012 A 
ENDROOT
BRANCH   1   7
ATOM      7  C   UNL     1      44.477 131.378  17.697  1.00  0.00    -0.003 A 
ATOM      8  C   UNL     1      42.819 132.082  19.919  1.00  0.00     0.024 A 
ATOM      9  C   UNL     1      42.331 132.168  18.598  1.00  0.00     0.011 A 
ATOM     10  C   UNL     1      44.139 131.650  20.086  1.00  0.00     0.239 A 
ATOM     11  C   UNL     1      43.150 131.822  17.501  1.00  0.00     0.010 A 
ATOM     12  N   UNL     1      44.839 131.528  21.226  1.00  0.00    -0.126 N 
ATOM     13  C   UNL     1      44.934 131.312  19.020  1.00  0.00     0.078 A 
ATOM     14  N   UNL     1      46.063 131.126  20.911  1.00  0.00    -0.174 N 
ATOM     15  C   UNL     1      46.162 130.987  19.570  1.00  0.00     0.163 A 
ATOM     16  C   UNL     1      41.968 132.463  21.094  1.00  0.00     0.052 C 
ATOM     17  H   UNL     1      44.509 131.722  22.198  1.00  0.00     0.488 HD
ATOM     18  H   UNL     1      46.826 130.960  21.603  1.00  0.00     0.238 HD
ENDBRANCH   1   7
BRANCH   4  19
ATOM     19  O   UNL     1      47.779 129.930  13.299  1.00  0.00    -0.508 OA
ATOM     20  H   UNL     1      47.808 130.479  12.447  1.00  0.00     0.293 HD
ENDBRANCH   4  19
TORSDOF 2
ENDMDL
MODEL 5
REMARK VINA RESULT:      -9.0      3.471      6.105
REMARK SMILES Cc1ccc(-c2ccc(O)cc2)c2c[nH][nH+]c12
REMARK SMILES IDX 6 1 7 2 8 3 9 4 11 5 12 6 5 7 2 8 3 9 17 10 4 11 16 12 13 13
REMARK SMILES IDX 15 14 14 15 1 16 10 19
REMARK H PARENT 16 17 15 18 10 20
ROOT
ATOM      1  C   UNL     1      44.420 131.653  17.853  1.00  0.00    -0.017 A 
ATOM      2  C   UNL     1      45.035 131.651  19.117  1.00  0.00     0.012 A 
ATOM      3  C   UNL     1      44.270 131.815  20.276  1.00  0.00     0.047 A 
ATOM      4  C   UNL     1      42.884 131.991  20.185  1.00  0.00     0.115 A 
ATOM      5  C   UNL     1      42.267 132.004  18.930  1.00  0.00     0.047 A 
ATOM      6  C   UNL     1      43.029 131.839  17.770  1.00  0.00     0.012 A 
ENDROOT
BRANCH   1   7
ATOM      7  C   UNL     1      45.226 131.489  16.620  1.00  0.00    -0.003 A 
ATOM      8  C   UNL     1      46.794 131.178  14.249  1.00  0.00     0.024 A 
ATOM      9  C   UNL     1      46.585 132.453  14.814  1.00  0.00     0.011 A 
ATOM     10  C   UNL     1      46.196 130.088  14.891  1.00  0.00     0.239 A 
ATOM     11  C   UNL     1      45.809 132.607  15.984  1.00  0.00     0.010 A 
ATOM     12  N   UNL     1      46.211 128.795  14.528  1.00  0.00    -0.126 N 
ATOM     13  C   UNL     1      45.445 130.237  16.029  1.00  0.00     0.078 A 
ATOM     14  N   UNL     1      45.480 128.117  15.404  1.00  0.00    -0.174 N 
ATOM     15  C   UNL     1      44.991 128.966  16.336  1.00  0.00     0.163 A 
ATOM     16  C   UNL     1      47.599 131.000  12.996  1.00  0.00     0.052 C 
ATOM     17  H   UNL     1      46.690 128.372  13.701  1.00  0.00     0.488 HD
ATOM     18  H   UNL     1      45.309 127.089  15.360  1.00  0.00     0.238 HD
ENDBRANCH   1   7
BRANCH   4  19
ATOM     19  O   UNL     1      42.111 132.156  21.333  1.00  0.00    -0.508 OA
ATOM     20  H   UNL     1      41.890 131.374  21.938  1.00  0.00     0.293 HD
ENDBRANCH   4  19
TORSDOF 2
ENDMDL
MODEL 6
REMARK VINA RESULT:      -9.0      3.464      6.070
REMARK SMILES Cc1ccc(-c2ccc(O)cc2)c2c[nH][nH+]c12
REMARK SMILES IDX 6 1 7 2 8 3 9 4 11 5 12 6 5 7 2 8 3 9 17 10 4 11 16 12 13 13
REMARK SMILES IDX 15 14 14 15 1 16 10 19
REMARK H PARENT 16 17 15 18 10 20
ROOT
ATOM      1  C   UNL     1      44.429 131.662  17.868  1.00  0.00    -0.017 A 
ATOM      2  C   UNL     1      43.035 131.828  17.799  1.00  0.00     0.012 A 
ATOM      3  C   UNL     1      42.282 131.976  18.968  1.00  0.00     0.047 A 
ATOM      4  C   UNL     1      42.912 131.952  20.219  1.00  0.00     0.115 A 
ATOM      5  C   UNL     1      44.297 131.777  20.294  1.00  0.00     0.047 A 
ATOM      6  C   UNL     1      45.053 131.629  19.127  1.00  0.00     0.012 A 
ENDROOT
BRANCH   1   7
ATOM      7  C   UNL     1      45.231 131.495  16.634  1.00  0.00    -0.003 A 
ATOM      8  C   UNL     1      46.792 131.178  14.258  1.00  0.00     0.024 A 
ATOM      9  C   UNL     1      46.589 132.455  14.823  1.00  0.00     0.011 A 
ATOM     10  C   UNL     1      46.193 130.090  14.902  1.00  0.00     0.239 A 
ATOM     11  C   UNL     1      45.816 132.611  15.995  1.00  0.00     0.010 A 
ATOM     12  N   UNL     1      46.204 128.797  14.539  1.00  0.00    -0.126 N 
ATOM     13  C   UNL     1      45.445 130.242  16.042  1.00  0.00     0.078 A 
ATOM     14  N   UNL     1      45.473 128.122  15.418  1.00  0.00    -0.174 N 
ATOM     15  C   UNL     1      44.988 128.972  16.350  1.00  0.00     0.163 A 
ATOM     16  C   UNL     1      47.594 130.997  13.003  1.00  0.00     0.052 C 
ATOM     17  H   UNL     1      46.679 128.373  13.711  1.00  0.00     0.488 HD
ATOM     18  H   UNL     1      45.299 127.094  15.374  1.00  0.00     0.238 HD
ENDBRANCH   1   7
BRANCH   4  19
ATOM     19  O   UNL     1      42.173 132.098  21.390  1.00  0.00    -0.508 OA
ATOM     20  H   UNL     1      42.601 132.426  22.249  1.00  0.00     0.293 HD
ENDBRANCH   4  19
TORSDOF 2
ENDMDL


