MODEL 1
REMARK VINA RESULT:      -8.6      0.000      0.000
REMARK SMILES CC(=O)N(N)c1cc(C)cc(-n2nc3ccccc3[nH+]2)c1O
REMARK SMILES IDX 6 1 7 2 8 3 9 4 10 5 11 6 21 7 4 8 2 9 1 10 3 11 5 12 22 15
REMARK SMILES IDX 12 17 13 18 20 19 14 20 19 21 15 22 18 23 16 24 17 25
REMARK H PARENT 5 13 5 14 22 16 20 26
ROOT
ATOM      1  C   UNL     1      44.002 130.939  21.570  1.00  0.00     0.105 A 
ATOM      2  C   UNL     1      42.868 131.762  21.542  1.00  0.00     0.035 A 
ATOM      3  C   UNL     1      42.492 132.415  20.362  1.00  0.00    -0.046 A 
ATOM      4  C   UNL     1      41.260 133.271  20.334  1.00  0.00     0.044 C 
ATOM      5  C   UNL     1      43.228 132.199  19.191  1.00  0.00     0.042 A 
ATOM      6  C   UNL     1      44.354 131.360  19.193  1.00  0.00     0.172 A 
ATOM      7  C   UNL     1      44.760 130.748  20.397  1.00  0.00     0.172 A 
ENDROOT
BRANCH   1   8
ATOM      8  N   UNL     1      44.361 130.278  22.792  1.00  0.00    -0.245 N 
BRANCH   8   9
ATOM      9  C   UNL     1      44.313 128.841  22.911  1.00  0.00     0.238 C 
ATOM     10  C   UNL     1      43.165 128.151  23.586  1.00  0.00     0.116 C 
ATOM     11  O   UNL     1      45.246 128.141  22.433  1.00  0.00    -0.273 OA
ENDBRANCH   8   9
BRANCH   8  12
ATOM     12  N   UNL     1      44.875 131.060  23.843  1.00  0.00    -0.240 NA
ATOM     13  H   UNL     1      44.485 130.692  24.741  1.00  0.00     0.144 HD
ATOM     14  H   UNL     1      45.911 130.921  23.863  1.00  0.00     0.144 HD
ENDBRANCH   8  12
ENDBRANCH   1   8
BRANCH   7  15
ATOM     15  O   UNL     1      45.934 129.993  20.423  1.00  0.00    -0.504 OA
ATOM     16  H   UNL     1      45.940 128.986  20.318  1.00  0.00     0.293 HD
ENDBRANCH   7  15
BRANCH   6  17
ATOM     17  N   UNL     1      45.087 131.161  17.972  1.00  0.00    -0.009 N 
ATOM     18  N   UNL     1      45.152 132.074  17.002  1.00  0.00     0.054 NA
ATOM     19  N   UNL     1      45.729 130.040  17.649  1.00  0.00    -0.161 N 
ATOM     20  C   UNL     1      45.885 131.500  16.031  1.00  0.00     0.249 A 
ATOM     21  C   UNL     1      46.239 130.246  16.428  1.00  0.00     0.198 A 
ATOM     22  C   UNL     1      46.249 132.013  14.791  1.00  0.00     0.064 A 
ATOM     23  C   UNL     1      46.982 129.390  15.621  1.00  0.00     0.058 A 
ATOM     24  C   UNL     1      47.010 131.180  13.945  1.00  0.00     0.005 A 
ATOM     25  C   UNL     1      47.374 129.875  14.358  1.00  0.00     0.005 A 
ATOM     26  H   UNL     1      45.775 129.163  18.215  1.00  0.00     0.340 HD
ENDBRANCH   6  17
TORSDOF 5
ENDMDL
MODEL 2
REMARK VINA RESULT:      -8.4      1.145      1.224
REMARK SMILES CC(=O)N(N)c1cc(C)cc(-n2nc3ccccc3[nH+]2)c1O
REMARK SMILES IDX 6 1 7 2 8 3 9 4 10 5 11 6 21 7 4 8 2 9 1 10 3 11 5 12 22 15
REMARK SMILES IDX 12 17 13 18 20 19 14 20 19 21 15 22 18 23 16 24 17 25
REMARK H PARENT 5 13 5 14 22 16 20 26
ROOT
ATOM      1  C   UNL     1      44.258 130.794  21.293  1.00  0.00     0.105 A 
ATOM      2  C   UNL     1      43.147 131.650  21.299  1.00  0.00     0.035 A 
ATOM      3  C   UNL     1      42.778 132.345  20.142  1.00  0.00    -0.046 A 
ATOM      4  C   UNL     1      41.572 133.237  20.152  1.00  0.00     0.044 C 
ATOM      5  C   UNL     1      43.496 132.142  18.957  1.00  0.00     0.042 A 
ATOM      6  C   UNL     1      44.597 131.271  18.924  1.00  0.00     0.172 A 
ATOM      7  C   UNL     1      44.998 130.615  20.107  1.00  0.00     0.172 A 
ENDROOT
BRANCH   1   8
ATOM      8  N   UNL     1      44.611 130.090  22.492  1.00  0.00    -0.245 N 
BRANCH   8   9
ATOM      9  C   UNL     1      44.171 130.545  23.788  1.00  0.00     0.238 C 
ATOM     10  C   UNL     1      43.225 129.733  24.622  1.00  0.00     0.116 C 
ATOM     11  O   UNL     1      44.594 131.642  24.242  1.00  0.00    -0.273 OA
ENDBRANCH   8   9
BRANCH   8  12
ATOM     12  N   UNL     1      45.304 128.872  22.365  1.00  0.00    -0.240 NA
ATOM     13  H   UNL     1      46.316 129.053  22.559  1.00  0.00     0.144 HD
ATOM     14  H   UNL     1      44.947 128.226  23.107  1.00  0.00     0.144 HD
ENDBRANCH   8  12
ENDBRANCH   1   8
BRANCH   7  15
ATOM     15  O   UNL     1      46.150 129.826  20.098  1.00  0.00    -0.504 OA
ATOM     16  H   UNL     1      47.079 130.210  20.221  1.00  0.00     0.293 HD
ENDBRANCH   7  15
BRANCH   6  17
ATOM     17  N   UNL     1      45.311 131.085  17.690  1.00  0.00    -0.009 N 
ATOM     18  N   UNL     1      45.368 132.012  16.733  1.00  0.00     0.054 NA
ATOM     19  N   UNL     1      45.942 129.966  17.342  1.00  0.00    -0.161 N 
ATOM     20  C   UNL     1      46.084 131.447  15.743  1.00  0.00     0.249 A 
ATOM     21  C   UNL     1      46.435 130.186  16.117  1.00  0.00     0.198 A 
ATOM     22  C   UNL     1      46.433 131.976  14.506  1.00  0.00     0.064 A 
ATOM     23  C   UNL     1      47.162 129.337  15.287  1.00  0.00     0.058 A 
ATOM     24  C   UNL     1      47.177 131.151  13.637  1.00  0.00     0.005 A 
ATOM     25  C   UNL     1      47.539 129.839  14.026  1.00  0.00     0.005 A 
ATOM     26  H   UNL     1      45.991 129.080  17.895  1.00  0.00     0.340 HD
ENDBRANCH   6  17
TORSDOF 5
ENDMDL
MODEL 3
REMARK VINA RESULT:      -8.4      0.148      1.244
REMARK SMILES CC(=O)N(N)c1cc(C)cc(-n2nc3ccccc3[nH+]2)c1O
REMARK SMILES IDX 6 1 7 2 8 3 9 4 10 5 11 6 21 7 4 8 2 9 1 10 3 11 5 12 22 15
REMARK SMILES IDX 12 17 13 18 20 19 14 20 19 21 15 22 18 23 16 24 17 25
REMARK H PARENT 5 13 5 14 22 16 20 26
ROOT
ATOM      1  C   UNL     1      43.963 131.025  21.574  1.00  0.00     0.105 A 
ATOM      2  C   UNL     1      42.822 131.841  21.584  1.00  0.00     0.035 A 
ATOM      3  C   UNL     1      42.400 132.487  20.417  1.00  0.00    -0.046 A 
ATOM      4  C   UNL     1      41.162 133.335  20.431  1.00  0.00     0.044 C 
ATOM      5  C   UNL     1      43.095 132.274  19.220  1.00  0.00     0.042 A 
ATOM      6  C   UNL     1      44.226 131.442  19.184  1.00  0.00     0.172 A 
ATOM      7  C   UNL     1      44.679 130.837  20.374  1.00  0.00     0.172 A 
ENDROOT
BRANCH   1   8
ATOM      8  N   UNL     1      44.370 130.370  22.783  1.00  0.00    -0.245 N 
BRANCH   8   9
ATOM      9  C   UNL     1      44.322 128.934  22.913  1.00  0.00     0.238 C 
ATOM     10  C   UNL     1      43.185 128.250  23.611  1.00  0.00     0.116 C 
ATOM     11  O   UNL     1      45.247 128.230  22.423  1.00  0.00    -0.273 OA
ENDBRANCH   8   9
BRANCH   8  12
ATOM     12  N   UNL     1      44.930 131.156  23.807  1.00  0.00    -0.240 NA
ATOM     13  H   UNL     1      45.446 131.949  23.361  1.00  0.00     0.144 HD
ATOM     14  H   UNL     1      44.141 131.560  24.362  1.00  0.00     0.144 HD
ENDBRANCH   8  12
ENDBRANCH   1   8
BRANCH   7  15
ATOM     15  O   UNL     1      45.859 130.089  20.359  1.00  0.00    -0.504 OA
ATOM     16  H   UNL     1      46.766 130.494  20.553  1.00  0.00     0.293 HD
ENDBRANCH   7  15
BRANCH   6  17
ATOM     17  N   UNL     1      44.916 131.245  17.938  1.00  0.00    -0.009 N 
ATOM     18  N   UNL     1      45.489 130.090  17.595  1.00  0.00     0.054 NA
ATOM     19  N   UNL     1      45.109 132.191  17.021  1.00  0.00    -0.161 N 
ATOM     20  C   UNL     1      46.054 130.324  16.397  1.00  0.00     0.249 A 
ATOM     21  C   UNL     1      45.822 131.618  16.044  1.00  0.00     0.198 A 
ATOM     22  C   UNL     1      46.789 129.459  15.594  1.00  0.00     0.064 A 
ATOM     23  C   UNL     1      46.308 132.168  14.862  1.00  0.00     0.058 A 
ATOM     24  C   UNL     1      47.294 129.974  14.382  1.00  0.00     0.005 A 
ATOM     25  C   UNL     1      47.055 131.322  14.018  1.00  0.00     0.005 A 
ATOM     26  H   UNL     1      44.807 133.190  17.084  1.00  0.00     0.340 HD
ENDBRANCH   6  17
TORSDOF 5
ENDMDL
MODEL 4
REMARK VINA RESULT:      -8.3      1.347      1.504
REMARK SMILES CC(=O)N(N)c1cc(C)cc(-n2nc3ccccc3[nH+]2)c1O
REMARK SMILES IDX 6 1 7 2 8 3 9 4 10 5 11 6 21 7 4 8 2 9 1 10 3 11 5 12 22 15
REMARK SMILES IDX 12 17 13 18 20 19 14 20 19 21 15 22 18 23 16 24 17 25
REMARK H PARENT 5 13 5 14 22 16 20 26
ROOT
ATOM      1  C   UNL     1      44.320 131.324  20.404  1.00  0.00     0.105 A 
ATOM      2  C   UNL     1      43.020 131.795  20.170  1.00  0.00     0.035 A 
ATOM      3  C   UNL     1      42.577 132.043  18.865  1.00  0.00    -0.046 A 
ATOM      4  C   UNL     1      41.176 132.519  18.623  1.00  0.00     0.044 C 
ATOM      5  C   UNL     1      43.425 131.767  17.785  1.00  0.00     0.042 A 
ATOM      6  C   UNL     1      44.722 131.272  17.998  1.00  0.00     0.172 A 
ATOM      7  C   UNL     1      45.183 131.077  19.317  1.00  0.00     0.172 A 
ENDROOT
BRANCH   1   8
ATOM      8  N   UNL     1      44.745 131.073  21.751  1.00  0.00    -0.245 N 
BRANCH   8   9
ATOM      9  C   UNL     1      44.258 129.937  22.494  1.00  0.00     0.238 C 
ATOM     10  C   UNL     1      44.943 128.605  22.422  1.00  0.00     0.116 C 
ATOM     11  O   UNL     1      43.242 130.059  23.229  1.00  0.00    -0.273 OA
ENDBRANCH   8   9
BRANCH   8  12
ATOM     12  N   UNL     1      45.743 131.901  22.295  1.00  0.00    -0.240 NA
ATOM     13  H   UNL     1      45.616 132.863  21.904  1.00  0.00     0.144 HD
ATOM     14  H   UNL     1      45.584 131.952  23.328  1.00  0.00     0.144 HD
ENDBRANCH   8  12
ENDBRANCH   1   8
BRANCH   7  15
ATOM     15  O   UNL     1      46.503 130.679  19.532  1.00  0.00    -0.504 OA
ATOM     16  H   UNL     1      47.296 131.174  19.142  1.00  0.00     0.293 HD
ENDBRANCH   7  15
BRANCH   6  17
ATOM     17  N   UNL     1      45.567 131.001  16.866  1.00  0.00    -0.009 N 
ATOM     18  N   UNL     1      45.764 131.872  15.876  1.00  0.00     0.054 NA
ATOM     19  N   UNL     1      46.195 129.846  16.650  1.00  0.00    -0.161 N 
ATOM     20  C   UNL     1      46.568 131.235  15.006  1.00  0.00     0.249 A 
ATOM     21  C   UNL     1      46.832 129.987  15.481  1.00  0.00     0.198 A 
ATOM     22  C   UNL     1      47.075 131.686  13.792  1.00  0.00     0.064 A 
ATOM     23  C   UNL     1      47.620 129.074  14.786  1.00  0.00     0.058 A 
ATOM     24  C   UNL     1      47.885 130.795  13.059  1.00  0.00     0.005 A 
ATOM     25  C   UNL     1      48.156 129.496  13.553  1.00  0.00     0.005 A 
ATOM     26  H   UNL     1      46.150 128.992  17.250  1.00  0.00     0.340 HD
ENDBRANCH   6  17
TORSDOF 5
ENDMDL
MODEL 5
REMARK VINA RESULT:      -8.3      0.995      1.647
REMARK SMILES CC(=O)N(N)c1cc(C)cc(-n2nc3ccccc3[nH+]2)c1O
REMARK SMILES IDX 6 1 7 2 8 3 9 4 10 5 11 6 21 7 4 8 2 9 1 10 3 11 5 12 22 15
REMARK SMILES IDX 12 17 13 18 20 19 14 20 19 21 15 22 18 23 16 24 17 25
REMARK H PARENT 5 13 5 14 22 16 20 26
ROOT
ATOM      1  C   UNL     1      44.282 131.231  20.588  1.00  0.00     0.105 A 
ATOM      2  C   UNL     1      43.009 131.799  20.441  1.00  0.00     0.035 A 
ATOM      3  C   UNL     1      42.529 132.151  19.174  1.00  0.00    -0.046 A 
ATOM      4  C   UNL     1      41.153 132.732  19.024  1.00  0.00     0.044 C 
ATOM      5  C   UNL     1      43.309 131.884  18.043  1.00  0.00     0.042 A 
ATOM      6  C   UNL     1      44.577 131.294  18.167  1.00  0.00     0.172 A 
ATOM      7  C   UNL     1      45.079 130.992  19.450  1.00  0.00     0.172 A 
ENDROOT
BRANCH   1   8
ATOM      8  N   UNL     1      44.747 130.875  21.898  1.00  0.00    -0.245 N 
BRANCH   8   9
ATOM      9  C   UNL     1      44.635 129.525  22.394  1.00  0.00     0.238 C 
ATOM     10  C   UNL     1      43.700 129.179  23.514  1.00  0.00     0.116 C 
ATOM     11  O   UNL     1      45.326 128.608  21.874  1.00  0.00    -0.273 OA
ENDBRANCH   8   9
BRANCH   8  12
ATOM     12  N   UNL     1      45.423 131.853  22.650  1.00  0.00    -0.240 NA
ATOM     13  H   UNL     1      46.445 131.773  22.441  1.00  0.00     0.144 HD
ATOM     14  H   UNL     1      45.101 132.790  22.314  1.00  0.00     0.144 HD
ENDBRANCH   8  12
ENDBRANCH   1   8
BRANCH   7  15
ATOM     15  O   UNL     1      46.378 130.497  19.581  1.00  0.00    -0.504 OA
ATOM     16  H   UNL     1      47.144 131.055  19.936  1.00  0.00     0.293 HD
ENDBRANCH   7  15
BRANCH   6  17
ATOM     17  N   UNL     1      45.352 131.034  16.984  1.00  0.00    -0.009 N 
ATOM     18  N   UNL     1      45.940 129.863  16.739  1.00  0.00     0.054 NA
ATOM     19  N   UNL     1      45.615 131.934  16.038  1.00  0.00    -0.161 N 
ATOM     20  C   UNL     1      46.590 130.036  15.574  1.00  0.00     0.249 A 
ATOM     21  C   UNL     1      46.392 131.312  15.143  1.00  0.00     0.198 A 
ATOM     22  C   UNL     1      47.375 129.131  14.867  1.00  0.00     0.064 A 
ATOM     23  C   UNL     1      46.963 131.802  13.972  1.00  0.00     0.058 A 
ATOM     24  C   UNL     1      47.966 129.584  13.671  1.00  0.00     0.005 A 
ATOM     25  C   UNL     1      47.762 130.913  13.225  1.00  0.00     0.005 A 
ATOM     26  H   UNL     1      45.316 132.935  16.031  1.00  0.00     0.340 HD
ENDBRANCH   6  17
TORSDOF 5
ENDMDL
MODEL 6
REMARK VINA RESULT:      -8.2      1.123      1.851
REMARK SMILES CC(=O)N(N)c1cc(C)cc(-n2nc3ccccc3[nH+]2)c1O
REMARK SMILES IDX 6 1 7 2 8 3 9 4 10 5 11 6 21 7 4 8 2 9 1 10 3 11 5 12 22 15
REMARK SMILES IDX 12 17 13 18 20 19 14 20 19 21 15 22 18 23 16 24 17 25
REMARK H PARENT 5 13 5 14 22 16 20 26
ROOT
ATOM      1  C   UNL     1      44.179 130.847  21.189  1.00  0.00     0.105 A 
ATOM      2  C   UNL     1      43.035 131.657  21.204  1.00  0.00     0.035 A 
ATOM      3  C   UNL     1      42.615 132.317  20.044  1.00  0.00    -0.046 A 
ATOM      4  C   UNL     1      41.373 133.158  20.063  1.00  0.00     0.044 C 
ATOM      5  C   UNL     1      43.317 132.122  18.848  1.00  0.00     0.042 A 
ATOM      6  C   UNL     1      44.452 131.296  18.806  1.00  0.00     0.172 A 
ATOM      7  C   UNL     1      44.903 130.677  19.991  1.00  0.00     0.172 A 
ENDROOT
BRANCH   1   8
ATOM      8  N   UNL     1      44.584 130.178  22.392  1.00  0.00    -0.245 N 
BRANCH   8   9
ATOM      9  C   UNL     1      44.268 130.715  23.693  1.00  0.00     0.238 C 
ATOM     10  C   UNL     1      44.329 132.188  23.966  1.00  0.00     0.116 C 
ATOM     11  O   UNL     1      43.923 129.937  24.624  1.00  0.00    -0.273 OA
ENDBRANCH   8   9
BRANCH   8  12
ATOM     12  N   UNL     1      45.200 128.919  22.275  1.00  0.00    -0.240 NA
ATOM     13  H   UNL     1      44.464 128.219  22.027  1.00  0.00     0.144 HD
ATOM     14  H   UNL     1      45.875 128.970  21.477  1.00  0.00     0.144 HD
ENDBRANCH   8  12
ENDBRANCH   1   8
BRANCH   7  15
ATOM     15  O   UNL     1      46.086 129.936  19.972  1.00  0.00    -0.504 OA
ATOM     16  H   UNL     1      46.290 129.247  19.259  1.00  0.00     0.293 HD
ENDBRANCH   7  15
BRANCH   6  17
ATOM     17  N   UNL     1      45.149 131.119  17.561  1.00  0.00    -0.009 N 
ATOM     18  N   UNL     1      45.716 129.967  17.199  1.00  0.00     0.054 NA
ATOM     19  N   UNL     1      45.356 132.082  16.665  1.00  0.00    -0.161 N 
ATOM     20  C   UNL     1      46.291 130.221  16.010  1.00  0.00     0.249 A 
ATOM     21  C   UNL     1      46.072 131.523  15.682  1.00  0.00     0.198 A 
ATOM     22  C   UNL     1      47.026 129.366  15.195  1.00  0.00     0.064 A 
ATOM     23  C   UNL     1      46.570 132.093  14.514  1.00  0.00     0.058 A 
ATOM     24  C   UNL     1      47.542 129.902  13.997  1.00  0.00     0.005 A 
ATOM     25  C   UNL     1      47.316 131.258  13.658  1.00  0.00     0.005 A 
ATOM     26  H   UNL     1      45.062 133.081  16.747  1.00  0.00     0.340 HD
ENDBRANCH   6  17
TORSDOF 5
ENDMDL
MODEL 7
REMARK VINA RESULT:      -7.4      2.494      7.034
REMARK SMILES CC(=O)N(N)c1cc(C)cc(-n2nc3ccccc3[nH+]2)c1O
REMARK SMILES IDX 6 1 7 2 8 3 9 4 10 5 11 6 21 7 4 8 2 9 1 10 3 11 5 12 22 15
REMARK SMILES IDX 12 17 13 18 20 19 14 20 19 21 15 22 18 23 16 24 17 25
REMARK H PARENT 5 13 5 14 22 16 20 26
ROOT
ATOM      1  C   UNL     1      46.080 130.439  15.316  1.00  0.00     0.105 A 
ATOM      2  C   UNL     1      45.167 130.884  14.349  1.00  0.00     0.035 A 
ATOM      3  C   UNL     1      43.949 131.458  14.732  1.00  0.00    -0.046 A 
ATOM      4  C   UNL     1      42.991 131.957  13.691  1.00  0.00     0.044 C 
ATOM      5  C   UNL     1      43.667 131.634  16.092  1.00  0.00     0.042 A 
ATOM      6  C   UNL     1      44.579 131.217  17.075  1.00  0.00     0.172 A 
ATOM      7  C   UNL     1      45.780 130.589  16.685  1.00  0.00     0.172 A 
ENDROOT
BRANCH   1   8
ATOM      8  N   UNL     1      47.323 129.859  14.896  1.00  0.00    -0.245 N 
BRANCH   8   9
ATOM      9  C   UNL     1      47.838 130.068  13.564  1.00  0.00     0.238 C 
ATOM     10  C   UNL     1      47.491 131.296  12.776  1.00  0.00     0.116 C 
ATOM     11  O   UNL     1      48.603 129.210  13.047  1.00  0.00    -0.273 OA
ENDBRANCH   8   9
BRANCH   8  12
ATOM     12  N   UNL     1      48.091 129.172  15.853  1.00  0.00    -0.240 NA
ATOM     13  H   UNL     1      49.060 129.063  15.474  1.00  0.00     0.144 HD
ATOM     14  H   UNL     1      48.147 129.775  16.706  1.00  0.00     0.144 HD
ENDBRANCH   8  12
ENDBRANCH   1   8
BRANCH   7  15
ATOM     15  O   UNL     1      46.642 130.085  17.662  1.00  0.00    -0.504 OA
ATOM     16  H   UNL     1      46.721 129.097  17.866  1.00  0.00     0.293 HD
ENDBRANCH   7  15
BRANCH   6  17
ATOM     17  N   UNL     1      44.257 131.413  18.463  1.00  0.00    -0.009 N 
ATOM     18  N   UNL     1      45.085 131.088  19.457  1.00  0.00     0.054 NA
ATOM     19  N   UNL     1      43.095 131.882  18.912  1.00  0.00    -0.161 N 
ATOM     20  C   UNL     1      44.410 131.383  20.583  1.00  0.00     0.249 A 
ATOM     21  C   UNL     1      43.184 131.871  20.248  1.00  0.00     0.198 A 
ATOM     22  C   UNL     1      44.807 131.229  21.907  1.00  0.00     0.064 A 
ATOM     23  C   UNL     1      42.241 132.242  21.202  1.00  0.00     0.058 A 
ATOM     24  C   UNL     1      43.885 131.601  22.906  1.00  0.00     0.005 A 
ATOM     25  C   UNL     1      42.608 132.104  22.556  1.00  0.00     0.005 A 
ATOM     26  H   UNL     1      42.267 132.151  18.334  1.00  0.00     0.340 HD
ENDBRANCH   6  17
TORSDOF 5
ENDMDL
MODEL 8
REMARK VINA RESULT:      -7.1      2.500      6.972
REMARK SMILES CC(=O)N(N)c1cc(C)cc(-n2nc3ccccc3[nH+]2)c1O
REMARK SMILES IDX 6 1 7 2 8 3 9 4 10 5 11 6 21 7 4 8 2 9 1 10 3 11 5 12 22 15
REMARK SMILES IDX 12 17 13 18 20 19 14 20 19 21 15 22 18 23 16 24 17 25
REMARK H PARENT 5 13 5 14 22 16 20 26
ROOT
ATOM      1  C   UNL     1      46.100 130.436  15.307  1.00  0.00     0.105 A 
ATOM      2  C   UNL     1      45.192 130.906  14.347  1.00  0.00     0.035 A 
ATOM      3  C   UNL     1      43.968 131.462  14.737  1.00  0.00    -0.046 A 
ATOM      4  C   UNL     1      43.016 131.987  13.704  1.00  0.00     0.044 C 
ATOM      5  C   UNL     1      43.675 131.595  16.100  1.00  0.00     0.042 A 
ATOM      6  C   UNL     1      44.581 131.152  17.077  1.00  0.00     0.172 A 
ATOM      7  C   UNL     1      45.789 130.542  16.678  1.00  0.00     0.172 A 
ENDROOT
BRANCH   1   8
ATOM      8  N   UNL     1      47.349 129.876  14.879  1.00  0.00    -0.245 N 
BRANCH   8   9
ATOM      9  C   UNL     1      47.847 130.083  13.540  1.00  0.00     0.238 C 
ATOM     10  C   UNL     1      47.487 131.308  12.754  1.00  0.00     0.116 C 
ATOM     11  O   UNL     1      48.608 129.226  13.016  1.00  0.00    -0.273 OA
ENDBRANCH   8   9
BRANCH   8  12
ATOM     12  N   UNL     1      48.140 129.212  15.834  1.00  0.00    -0.240 NA
ATOM     13  H   UNL     1      47.801 129.488  16.784  1.00  0.00     0.144 HD
ATOM     14  H   UNL     1      47.975 128.185  15.722  1.00  0.00     0.144 HD
ENDBRANCH   8  12
ENDBRANCH   1   8
BRANCH   7  15
ATOM     15  O   UNL     1      46.645 130.014  17.645  1.00  0.00    -0.504 OA
ATOM     16  H   UNL     1      47.586 130.358  17.791  1.00  0.00     0.293 HD
ENDBRANCH   7  15
BRANCH   6  17
ATOM     17  N   UNL     1      44.247 131.304  18.468  1.00  0.00    -0.009 N 
ATOM     18  N   UNL     1      43.090 131.815  18.890  1.00  0.00     0.054 NA
ATOM     19  N   UNL     1      45.063 131.008  19.478  1.00  0.00    -0.161 N 
ATOM     20  C   UNL     1      43.183 131.825  20.232  1.00  0.00     0.249 A 
ATOM     21  C   UNL     1      44.398 131.330  20.595  1.00  0.00     0.198 A 
ATOM     22  C   UNL     1      42.256 132.268  21.169  1.00  0.00     0.064 A 
ATOM     23  C   UNL     1      44.800 131.239  21.924  1.00  0.00     0.058 A 
ATOM     24  C   UNL     1      42.620 132.186  22.528  1.00  0.00     0.005 A 
ATOM     25  C   UNL     1      43.886 131.674  22.904  1.00  0.00     0.005 A 
ATOM     26  H   UNL     1      46.042 130.649  19.404  1.00  0.00     0.340 HD
ENDBRANCH   6  17
TORSDOF 5
ENDMDL
MODEL 9
REMARK VINA RESULT:      -7.1      2.641      3.572
REMARK SMILES CC(=O)N(N)c1cc(C)cc(-n2nc3ccccc3[nH+]2)c1O
REMARK SMILES IDX 6 1 7 2 8 3 9 4 10 5 11 6 21 7 4 8 2 9 1 10 3 11 5 12 22 15
REMARK SMILES IDX 12 17 13 18 20 19 14 20 19 21 15 22 18 23 16 24 17 25
REMARK H PARENT 5 13 5 14 22 16 20 26
ROOT
ATOM      1  C   UNL     1      43.401 131.708  19.401  1.00  0.00     0.105 A 
ATOM      2  C   UNL     1      43.947 131.100  20.541  1.00  0.00     0.035 A 
ATOM      3  C   UNL     1      45.121 130.346  20.452  1.00  0.00    -0.046 A 
ATOM      4  C   UNL     1      45.713 129.723  21.682  1.00  0.00     0.044 C 
ATOM      5  C   UNL     1      45.783 130.242  19.221  1.00  0.00     0.042 A 
ATOM      6  C   UNL     1      45.265 130.863  18.073  1.00  0.00     0.172 A 
ATOM      7  C   UNL     1      44.051 131.576  18.158  1.00  0.00     0.172 A 
ENDROOT
BRANCH   1   8
ATOM      8  N   UNL     1      42.198 132.480  19.523  1.00  0.00    -0.245 N 
BRANCH   8   9
ATOM      9  C   UNL     1      41.675 132.859  20.813  1.00  0.00     0.238 C 
ATOM     10  C   UNL     1      42.214 132.263  22.080  1.00  0.00     0.116 C 
ATOM     11  O   UNL     1      40.753 133.714  20.888  1.00  0.00    -0.273 OA
ENDBRANCH   8   9
BRANCH   8  12
ATOM     12  N   UNL     1      41.598 132.962  18.345  1.00  0.00    -0.240 NA
ATOM     13  H   UNL     1      40.857 132.282  18.057  1.00  0.00     0.144 HD
ATOM     14  H   UNL     1      41.128 133.867  18.577  1.00  0.00     0.144 HD
ENDBRANCH   8  12
ENDBRANCH   1   8
BRANCH   7  15
ATOM     15  O   UNL     1      43.486 132.111  16.998  1.00  0.00    -0.504 OA
ATOM     16  H   UNL     1      43.436 133.106  16.821  1.00  0.00     0.293 HD
ENDBRANCH   7  15
BRANCH   6  17
ATOM     17  N   UNL     1      45.969 130.736  16.826  1.00  0.00    -0.009 N 
ATOM     18  N   UNL     1      45.960 131.679  15.883  1.00  0.00     0.054 NA
ATOM     19  N   UNL     1      46.656 129.659  16.450  1.00  0.00    -0.161 N 
ATOM     20  C   UNL     1      46.690 131.170  14.874  1.00  0.00     0.249 A 
ATOM     21  C   UNL     1      47.117 129.925  15.222  1.00  0.00     0.198 A 
ATOM     22  C   UNL     1      46.990 131.736  13.639  1.00  0.00     0.064 A 
ATOM     23  C   UNL     1      47.876 129.131  14.368  1.00  0.00     0.058 A 
ATOM     24  C   UNL     1      47.765 130.968  12.747  1.00  0.00     0.005 A 
ATOM     25  C   UNL     1      48.205 129.671  13.109  1.00  0.00     0.005 A 
ATOM     26  H   UNL     1      46.762 128.769  16.988  1.00  0.00     0.340 HD
ENDBRANCH   6  17
TORSDOF 5
ENDMDL


