MODEL 1
REMARK VINA RESULT:      -6.4      0.000      0.000
REMARK SMILES S/C(=N\c1ccccc1Cl)N1CCC[C@H](Cc2cc3ccccc3[nH]2)C1
REMARK SMILES IDX 11 1 12 2 13 3 14 4 15 5 26 6 2 7 1 8 3 10 4 11 5 12 9 13
REMARK SMILES IDX 6 14 8 15 7 16 10 17 16 18 17 19 18 20 25 21 19 22 24 23
REMARK SMILES IDX 20 24 23 25 21 26 22 27
REMARK H PARENT 1 9 25 28
ROOT
ATOM      1  N   UNL     1      44.253 131.255  21.751  1.00  0.00    -0.351 N 
ATOM      2  C   UNL     1      43.037 131.836  22.337  1.00  0.00     0.118 C 
ATOM      3  C   UNL     1      42.039 132.206  21.230  1.00  0.00     0.022 C 
ATOM      4  C   UNL     1      42.704 133.025  20.108  1.00  0.00     0.007 C 
ATOM      5  C   UNL     1      43.987 132.358  19.563  1.00  0.00     0.014 C 
ATOM      6  C   UNL     1      44.942 132.061  20.734  1.00  0.00     0.122 C 
ENDROOT
BRANCH   1   7
ATOM      7  C   UNL     1      44.731 129.940  22.112  1.00  0.00     0.161 C 
BRANCH   7   8
ATOM      8  S   UNL     1      45.694 128.974  20.929  1.00  0.00    -0.106 SA
ATOM      9  H   UNL     1      45.703 130.031  20.000  1.00  0.00     0.111 HD
ENDBRANCH   7   8
BRANCH   7  10
ATOM     10  N   UNL     1      44.369 129.430  23.255  1.00  0.00    -0.224 NA
BRANCH  10  11
ATOM     11  C   UNL     1      43.301 128.507  23.509  1.00  0.00     0.085 A 
ATOM     12  C   UNL     1      41.962 128.934  23.532  1.00  0.00     0.030 A 
ATOM     13  C   UNL     1      43.585 127.132  23.591  1.00  0.00     0.066 A 
ATOM     14  C   UNL     1      40.929 128.007  23.694  1.00  0.00     0.002 A 
ATOM     15  C   UNL     1      42.546 126.209  23.751  1.00  0.00     0.023 A 
ATOM     16  C   UNL     1      41.221 126.646  23.809  1.00  0.00     0.002 A 
ATOM     17  Cl  UNL     1      45.243 126.551  23.494  1.00  0.00    -0.082 Cl
ENDBRANCH  10  11
ENDBRANCH   7  10
ENDBRANCH   1   7
BRANCH   5  18
ATOM     18  C   UNL     1      43.653 131.102  18.718  1.00  0.00     0.059 C 
BRANCH  18  19
ATOM     19  C   UNL     1      44.523 130.952  17.502  1.00  0.00     0.016 A 
ATOM     20  C   UNL     1      45.745 130.280  17.449  1.00  0.00     0.031 A 
ATOM     21  N   UNL     1      44.206 131.475  16.293  1.00  0.00    -0.358 N 
ATOM     22  C   UNL     1      46.152 130.388  16.136  1.00  0.00    -0.000 A 
ATOM     23  C   UNL     1      45.201 131.114  15.468  1.00  0.00     0.046 A 
ATOM     24  C   UNL     1      47.276 129.880  15.490  1.00  0.00     0.010 A 
ATOM     25  C   UNL     1      45.307 131.383  14.105  1.00  0.00     0.026 A 
ATOM     26  C   UNL     1      47.412 130.134  14.113  1.00  0.00     0.001 A 
ATOM     27  C   UNL     1      46.431 130.882  13.423  1.00  0.00     0.002 A 
ATOM     28  H   UNL     1      43.354 132.026  16.047  1.00  0.00     0.166 HD
ENDBRANCH  18  19
ENDBRANCH   5  18
TORSDOF 6
ENDMDL
MODEL 2
REMARK VINA RESULT:      -5.8      1.762      2.385
REMARK SMILES S/C(=N\c1ccccc1Cl)N1CCC[C@H](Cc2cc3ccccc3[nH]2)C1
REMARK SMILES IDX 11 1 12 2 13 3 14 4 15 5 26 6 2 7 1 8 3 10 4 11 5 12 9 13
REMARK SMILES IDX 6 14 8 15 7 16 10 17 16 18 17 19 18 20 25 21 19 22 24 23
REMARK SMILES IDX 20 24 23 25 21 26 22 27
REMARK H PARENT 1 9 25 28
ROOT
ATOM      1  N   UNL     1      43.025 131.855  21.300  1.00  0.00    -0.351 N 
ATOM      2  C   UNL     1      41.665 131.954  20.752  1.00  0.00     0.118 C 
ATOM      3  C   UNL     1      41.677 131.663  19.245  1.00  0.00     0.022 C 
ATOM      4  C   UNL     1      42.759 132.478  18.512  1.00  0.00     0.007 C 
ATOM      5  C   UNL     1      44.154 132.338  19.163  1.00  0.00     0.014 C 
ATOM      6  C   UNL     1      44.053 132.686  20.659  1.00  0.00     0.122 C 
ENDROOT
BRANCH   1   7
ATOM      7  C   UNL     1      43.358 130.955  22.381  1.00  0.00     0.161 C 
BRANCH   7   8
ATOM      8  S   UNL     1      44.267 131.566  23.815  1.00  0.00    -0.106 SA
ATOM      9  H   UNL     1      43.121 131.507  24.628  1.00  0.00     0.111 HD
ENDBRANCH   7   8
BRANCH   7  10
ATOM     10  N   UNL     1      43.085 129.687  22.252  1.00  0.00    -0.224 NA
BRANCH  10  11
ATOM     11  C   UNL     1      43.765 128.575  22.850  1.00  0.00     0.085 A 
ATOM     12  C   UNL     1      45.050 128.195  22.425  1.00  0.00     0.030 A 
ATOM     13  C   UNL     1      43.199 127.947  23.973  1.00  0.00     0.066 A 
ATOM     14  C   UNL     1      45.732 127.164  23.077  1.00  0.00     0.002 A 
ATOM     15  C   UNL     1      43.888 126.917  24.623  1.00  0.00     0.023 A 
ATOM     16  C   UNL     1      45.149 126.522  24.172  1.00  0.00     0.002 A 
ATOM     17  Cl  UNL     1      41.624 128.442  24.580  1.00  0.00    -0.082 Cl
ENDBRANCH  10  11
ENDBRANCH   7  10
ENDBRANCH   1   7
BRANCH   5  18
ATOM     18  C   UNL     1      44.756 130.933  18.906  1.00  0.00     0.059 C 
BRANCH  18  19
ATOM     19  C   UNL     1      45.411 130.802  17.559  1.00  0.00     0.016 A 
ATOM     20  C   UNL     1      45.474 131.795  16.580  1.00  0.00     0.031 A 
ATOM     21  N   UNL     1      46.022 129.668  17.138  1.00  0.00    -0.358 N 
ATOM     22  C   UNL     1      46.184 131.226  15.545  1.00  0.00    -0.000 A 
ATOM     23  C   UNL     1      46.498 129.944  15.914  1.00  0.00     0.046 A 
ATOM     24  C   UNL     1      46.587 131.757  14.322  1.00  0.00     0.010 A 
ATOM     25  C   UNL     1      47.239 129.102  15.086  1.00  0.00     0.026 A 
ATOM     26  C   UNL     1      47.337 130.932  13.464  1.00  0.00     0.001 A 
ATOM     27  C   UNL     1      47.663 129.611  13.845  1.00  0.00     0.002 A 
ATOM     28  H   UNL     1      46.122 128.771  17.664  1.00  0.00     0.166 HD
ENDBRANCH  18  19
ENDBRANCH   5  18
TORSDOF 6
ENDMDL
MODEL 3
REMARK VINA RESULT:      -4.6      2.112      2.625
REMARK SMILES S/C(=N\c1ccccc1Cl)N1CCC[C@H](Cc2cc3ccccc3[nH]2)C1
REMARK SMILES IDX 11 1 12 2 13 3 14 4 15 5 26 6 2 7 1 8 3 10 4 11 5 12 9 13
REMARK SMILES IDX 6 14 8 15 7 16 10 17 16 18 17 19 18 20 25 21 19 22 24 23
REMARK SMILES IDX 20 24 23 25 21 26 22 27
REMARK H PARENT 1 9 25 28
ROOT
ATOM      1  N   UNL     1      43.265 131.763  20.660  1.00  0.00    -0.351 N 
ATOM      2  C   UNL     1      41.994 132.153  20.034  1.00  0.00     0.118 C 
ATOM      3  C   UNL     1      42.079 131.984  18.511  1.00  0.00     0.022 C 
ATOM      4  C   UNL     1      43.345 132.641  17.930  1.00  0.00     0.007 C 
ATOM      5  C   UNL     1      44.634 132.197  18.657  1.00  0.00     0.014 C 
ATOM      6  C   UNL     1      44.473 132.439  20.169  1.00  0.00     0.122 C 
ENDROOT
BRANCH   1   7
ATOM      7  C   UNL     1      43.343 130.735  21.673  1.00  0.00     0.161 C 
BRANCH   7   8
ATOM      8  S   UNL     1      42.143 130.704  23.020  1.00  0.00    -0.106 SA
ATOM      9  H   UNL     1      41.374 131.720  22.424  1.00  0.00     0.111 HD
ENDBRANCH   7   8
BRANCH   7  10
ATOM     10  N   UNL     1      44.348 129.906  21.652  1.00  0.00    -0.224 NA
BRANCH  10  11
ATOM     11  C   UNL     1      44.541 128.735  22.459  1.00  0.00     0.085 A 
ATOM     12  C   UNL     1      44.625 127.458  21.878  1.00  0.00     0.030 A 
ATOM     13  C   UNL     1      44.794 128.883  23.834  1.00  0.00     0.066 A 
ATOM     14  C   UNL     1      44.900 126.340  22.670  1.00  0.00     0.002 A 
ATOM     15  C   UNL     1      45.070 127.760  24.622  1.00  0.00     0.023 A 
ATOM     16  C   UNL     1      45.117 126.490  24.041  1.00  0.00     0.002 A 
ATOM     17  Cl  UNL     1      44.768 130.473  24.586  1.00  0.00    -0.082 Cl
ENDBRANCH  10  11
ENDBRANCH   7  10
ENDBRANCH   1   7
BRANCH   5  18
ATOM     18  C   UNL     1      44.998 130.730  18.313  1.00  0.00     0.059 C 
BRANCH  18  19
ATOM     19  C   UNL     1      45.668 130.579  16.976  1.00  0.00     0.016 A 
ATOM     20  C   UNL     1      45.345 131.283  15.815  1.00  0.00     0.031 A 
ATOM     21  N   UNL     1      46.684 129.712  16.749  1.00  0.00    -0.358 N 
ATOM     22  C   UNL     1      46.236 130.829  14.866  1.00  0.00    -0.000 A 
ATOM     23  C   UNL     1      47.027 129.882  15.462  1.00  0.00     0.046 A 
ATOM     24  C   UNL     1      46.411 131.200  13.535  1.00  0.00     0.010 A 
ATOM     25  C   UNL     1      48.052 129.241  14.769  1.00  0.00     0.026 A 
ATOM     26  C   UNL     1      47.438 130.570  12.809  1.00  0.00     0.001 A 
ATOM     27  C   UNL     1      48.256 129.595  13.424  1.00  0.00     0.002 A 
ATOM     28  H   UNL     1      47.124 129.060  17.436  1.00  0.00     0.166 HD
ENDBRANCH  18  19
ENDBRANCH   5  18
TORSDOF 6
ENDMDL
MODEL 4
REMARK VINA RESULT:      -4.3      1.968      2.792
REMARK SMILES S/C(=N\c1ccccc1Cl)N1CCC[C@H](Cc2cc3ccccc3[nH]2)C1
REMARK SMILES IDX 11 1 12 2 13 3 14 4 15 5 26 6 2 7 1 8 3 10 4 11 5 12 9 13
REMARK SMILES IDX 6 14 8 15 7 16 10 17 16 18 17 19 18 20 25 21 19 22 24 23
REMARK SMILES IDX 20 24 23 25 21 26 22 27
REMARK H PARENT 1 9 25 28
ROOT
ATOM      1  N   UNL     1      43.446 131.901  19.847  1.00  0.00    -0.351 N 
ATOM      2  C   UNL     1      41.983 132.030  19.862  1.00  0.00     0.118 C 
ATOM      3  C   UNL     1      41.395 131.563  18.523  1.00  0.00     0.022 C 
ATOM      4  C   UNL     1      42.116 132.207  17.324  1.00  0.00     0.007 C 
ATOM      5  C   UNL     1      43.651 132.048  17.395  1.00  0.00     0.014 C 
ATOM      6  C   UNL     1      44.154 132.576  18.751  1.00  0.00     0.122 C 
ENDROOT
BRANCH   1   7
ATOM      7  C   UNL     1      44.162 131.114  20.825  1.00  0.00     0.161 C 
BRANCH   7   8
ATOM      8  S   UNL     1      45.939 131.343  21.042  1.00  0.00    -0.106 SA
ATOM      9  H   UNL     1      46.222 130.667  19.841  1.00  0.00     0.111 HD
ENDBRANCH   7   8
BRANCH   7  10
ATOM     10  N   UNL     1      43.525 130.174  21.466  1.00  0.00    -0.224 NA
BRANCH  10  11
ATOM     11  C   UNL     1      44.070 129.192  22.358  1.00  0.00     0.085 A 
ATOM     12  C   UNL     1      45.044 128.276  21.923  1.00  0.00     0.030 A 
ATOM     13  C   UNL     1      43.733 129.240  23.721  1.00  0.00     0.066 A 
ATOM     14  C   UNL     1      45.626 127.383  22.827  1.00  0.00     0.002 A 
ATOM     15  C   UNL     1      44.321 128.345  24.622  1.00  0.00     0.023 A 
ATOM     16  C   UNL     1      45.261 127.414  24.174  1.00  0.00     0.002 A 
ATOM     17  Cl  UNL     1      42.572 130.419  24.318  1.00  0.00    -0.082 Cl
ENDBRANCH  10  11
ENDBRANCH   7  10
ENDBRANCH   1   7
BRANCH   5  18
ATOM     18  C   UNL     1      44.079 130.584  17.118  1.00  0.00     0.059 C 
BRANCH  18  19
ATOM     19  C   UNL     1      45.104 130.457  16.026  1.00  0.00     0.016 A 
ATOM     20  C   UNL     1      45.195 131.266  14.893  1.00  0.00     0.031 A 
ATOM     21  N   UNL     1      46.073 129.510  16.025  1.00  0.00    -0.358 N 
ATOM     22  C   UNL     1      46.292 130.791  14.206  1.00  0.00    -0.000 A 
ATOM     23  C   UNL     1      46.797 129.732  14.916  1.00  0.00     0.046 A 
ATOM     24  C   UNL     1      46.884 131.231  13.025  1.00  0.00     0.010 A 
ATOM     25  C   UNL     1      47.930 129.040  14.494  1.00  0.00     0.026 A 
ATOM     26  C   UNL     1      48.030 130.552  12.573  1.00  0.00     0.001 A 
ATOM     27  C   UNL     1      48.552 129.462  13.305  1.00  0.00     0.002 A 
ATOM     28  H   UNL     1      46.238 128.774  16.746  1.00  0.00     0.166 HD
ENDBRANCH  18  19
ENDBRANCH   5  18
TORSDOF 6
ENDMDL
MODEL 5
REMARK VINA RESULT:      -3.9      5.323      8.731
REMARK SMILES S/C(=N\c1ccccc1Cl)N1CCC[C@H](Cc2cc3ccccc3[nH]2)C1
REMARK SMILES IDX 11 1 12 2 13 3 14 4 15 5 26 6 2 7 1 8 3 10 4 11 5 12 9 13
REMARK SMILES IDX 6 14 8 15 7 16 10 17 16 18 17 19 18 20 25 21 19 22 24 23
REMARK SMILES IDX 20 24 23 25 21 26 22 27
REMARK H PARENT 1 9 25 28
ROOT
ATOM      1  N   UNL     1      47.372 123.657  23.785  1.00  0.00    -0.351 N 
ATOM      2  C   UNL     1      46.619 122.454  23.405  1.00  0.00     0.118 C 
ATOM      3  C   UNL     1      45.303 122.846  22.717  1.00  0.00     0.022 C 
ATOM      4  C   UNL     1      44.525 123.900  23.526  1.00  0.00     0.007 C 
ATOM      5  C   UNL     1      45.392 125.121  23.906  1.00  0.00     0.014 C 
ATOM      6  C   UNL     1      46.666 124.636  24.623  1.00  0.00     0.122 C 
ENDROOT
BRANCH   1   7
ATOM      7  C   UNL     1      48.720 123.901  23.327  1.00  0.00     0.161 C 
BRANCH   7   8
ATOM      8  S   UNL     1      50.110 123.688  24.459  1.00  0.00    -0.106 SA
ATOM      9  H   UNL     1      50.585 122.574  23.744  1.00  0.00     0.111 HD
ENDBRANCH   7   8
BRANCH   7  10
ATOM     10  N   UNL     1      48.902 124.373  22.126  1.00  0.00    -0.224 NA
BRANCH  10  11
ATOM     11  C   UNL     1      50.146 124.639  21.463  1.00  0.00     0.085 A 
ATOM     12  C   UNL     1      51.177 125.344  22.108  1.00  0.00     0.030 A 
ATOM     13  C   UNL     1      50.391 124.061  20.206  1.00  0.00     0.066 A 
ATOM     14  C   UNL     1      52.412 125.518  21.479  1.00  0.00     0.002 A 
ATOM     15  C   UNL     1      51.632 124.237  19.582  1.00  0.00     0.023 A 
ATOM     16  C   UNL     1      52.638 124.970  20.215  1.00  0.00     0.002 A 
ATOM     17  Cl  UNL     1      49.152 123.110  19.397  1.00  0.00    -0.082 Cl
ENDBRANCH  10  11
ENDBRANCH   7  10
ENDBRANCH   1   7
BRANCH   5  18
ATOM     18  C   UNL     1      45.692 126.005  22.668  1.00  0.00     0.059 C 
BRANCH  18  19
ATOM     19  C   UNL     1      45.009 127.343  22.711  1.00  0.00     0.016 A 
ATOM     20  C   UNL     1      43.787 127.618  23.326  1.00  0.00     0.031 A 
ATOM     21  N   UNL     1      45.521 128.456  22.133  1.00  0.00    -0.358 N 
ATOM     22  C   UNL     1      43.585 128.967  23.126  1.00  0.00    -0.000 A 
ATOM     23  C   UNL     1      44.649 129.441  22.402  1.00  0.00     0.046 A 
ATOM     24  C   UNL     1      42.554 129.803  23.547  1.00  0.00     0.010 A 
ATOM     25  C   UNL     1      44.757 130.785  22.051  1.00  0.00     0.026 A 
ATOM     26  C   UNL     1      42.635 131.166  23.208  1.00  0.00     0.001 A 
ATOM     27  C   UNL     1      43.732 131.655  22.464  1.00  0.00     0.002 A 
ATOM     28  H   UNL     1      46.418 128.539  21.604  1.00  0.00     0.166 HD
ENDBRANCH  18  19
ENDBRANCH   5  18
TORSDOF 6
ENDMDL


