REMARK SMILES Cc1ccc(-c2cc(N)c(NC3CC(=O)C3)c([NH2+]c3ccc(C)c(F)c3)c2)cc1
REMARK SMILES IDX 6 1 7 2 8 3 10 4 17 5 27 6 5 7 2 8 3 9 29 10 4 11 28 12 1 13
REMARK SMILES IDX 9 14 18 17 19 20 20 21 26 22 21 23 24 24 22 25 25 26 23 27
REMARK SMILES IDX 11 28 12 30 13 31 16 32 14 33 15 34
REMARK H PARENT 9 15 9 16 18 18 18 19 11 29
ROOT
ATOM      1  C   UNL     1      -0.229  -1.195  -1.940  1.00  0.00    -0.010 A 
ATOM      2  C   UNL     1      -1.605  -1.400  -1.786  1.00  0.00     0.037 A 
ATOM      3  C   UNL     1      -2.160  -1.663  -0.528  1.00  0.00     0.062 A 
ATOM      4  C   UNL     1      -1.335  -1.681   0.617  1.00  0.00     0.120 A 
ATOM      5  C   UNL     1       0.068  -1.546   0.465  1.00  0.00     0.160 A 
ATOM      6  C   UNL     1       0.600  -1.291  -0.812  1.00  0.00     0.079 A 
ENDROOT
BRANCH   1   7
ATOM      7  C   UNL     1       0.343  -0.897  -3.279  1.00  0.00    -0.018 A 
ATOM      8  C   UNL     1       1.424  -0.325  -5.823  1.00  0.00    -0.051 A 
ATOM      9  C   UNL     1       0.202   0.237  -5.433  1.00  0.00     0.004 A 
ATOM     10  C   UNL     1       2.113  -1.160  -4.929  1.00  0.00     0.004 A 
ATOM     11  C   UNL     1      -0.337  -0.051  -4.176  1.00  0.00     0.009 A 
ATOM     12  C   UNL     1       1.575  -1.450  -3.671  1.00  0.00     0.009 A 
ATOM     13  C   UNL     1       2.022   0.016  -7.155  1.00  0.00     0.044 C 
ENDBRANCH   1   7
BRANCH   3  14
ATOM     14  N   UNL     1      -3.557  -1.976  -0.440  1.00  0.00    -0.397 N 
ATOM     15  H   UNL     1      -3.914  -2.552   0.343  1.00  0.00     0.156 HD
ATOM     16  H   UNL     1      -4.180  -1.884  -1.279  1.00  0.00     0.156 HD
ENDBRANCH   3  14
BRANCH   5  17
ATOM     17  N   UNL     1       0.964  -1.653   1.598  1.00  0.00    -0.280 N 
ATOM     18  H   UNL     1       0.719  -2.518   2.135  1.00  0.00     0.358 HD
ATOM     19  H   UNL     1       1.954  -1.774   1.277  1.00  0.00     0.358 HD
BRANCH  17  20
ATOM     20  C   UNL     1       0.913  -0.481   2.441  1.00  0.00     0.137 A 
ATOM     21  C   UNL     1       0.711  -0.618   3.828  1.00  0.00     0.068 A 
ATOM     22  C   UNL     1       1.169   0.803   1.913  1.00  0.00     0.107 A 
ATOM     23  C   UNL     1       0.726   0.504   4.661  1.00  0.00     0.012 A 
ATOM     24  C   UNL     1       1.166   1.929   2.741  1.00  0.00     0.132 A 
ATOM     25  C   UNL     1       0.938   1.787   4.121  1.00  0.00    -0.015 A 
ATOM     26  F   UNL     1       1.410   3.153   2.202  1.00  0.00    -0.206 F 
ATOM     27  C   UNL     1       0.989   2.989   5.018  1.00  0.00     0.047 C 
ENDBRANCH  17  20
ENDBRANCH   5  17
BRANCH   4  28
ATOM     28  N   UNL     1      -1.909  -1.754   1.933  1.00  0.00    -0.375 N 
ATOM     29  H   UNL     1      -1.571  -2.499   2.593  1.00  0.00     0.161 HD
BRANCH  28  30
ATOM     30  C   UNL     1      -2.963  -0.841   2.388  1.00  0.00     0.094 C 
ATOM     31  C   UNL     1      -2.871  -0.526   3.852  1.00  0.00     0.100 C 
ATOM     32  C   UNL     1      -2.646   0.608   2.148  1.00  0.00     0.100 C 
ATOM     33  C   UNL     1      -2.562   0.941   3.622  1.00  0.00     0.137 C 
ATOM     34  O   UNL     1      -2.354   1.928   4.305  1.00  0.00    -0.300 OA
ENDBRANCH  28  30
ENDBRANCH   4  28
TORSDOF 6


