REMARK SMILES Cn1cnc2cc(-c3ccc4cc[nH]c4c3)c[nH+]c21
REMARK SMILES IDX 1 1 2 2 3 3 4 4 5 5 6 6 7 7 17 8 18 9 19 10 8 12 9 13 16 14
REMARK SMILES IDX 10 15 15 16 11 17 14 18 12 19 13 20
REMARK H PARENT 18 11 14 21
ROOT
ATOM      1  C   UNL     1      -4.587   4.131  -2.426  1.00  0.00     0.298 C 
ATOM      2  N   UNL     1      -4.086   2.763  -2.395  1.00  0.00    -0.218 N 
ATOM      3  C   UNL     1      -4.588   1.680  -3.040  1.00  0.00     0.316 A 
ATOM      4  N   UNL     1      -3.906   0.532  -2.774  1.00  0.00    -0.208 NA
ATOM      5  C   UNL     1      -2.946   0.942  -1.923  1.00  0.00     0.157 A 
ATOM      6  C   UNL     1      -1.956   0.185  -1.310  1.00  0.00     0.049 A 
ATOM      7  C   UNL     1      -1.066   0.852  -0.434  1.00  0.00     0.023 A 
ATOM      8  C   UNL     1      -1.227   2.252  -0.227  1.00  0.00     0.206 A 
ATOM      9  N   UNL     1      -2.222   2.945  -0.860  1.00  0.00    -0.245 N 
ATOM     10  C   UNL     1      -3.055   2.273  -1.694  1.00  0.00     0.306 A 
ATOM     11  H   UNL     1      -2.331   3.971  -0.702  1.00  0.00     0.312 HD
ENDROOT
BRANCH   7  12
ATOM     12  C   UNL     1       0.014   0.104   0.256  1.00  0.00    -0.013 A 
ATOM     13  C   UNL     1       0.731  -0.918  -0.426  1.00  0.00     0.009 A 
ATOM     14  C   UNL     1       0.340   0.399   1.602  1.00  0.00     0.035 A 
ATOM     15  C   UNL     1       1.755  -1.634   0.219  1.00  0.00     0.011 A 
ATOM     16  C   UNL     1       1.361  -0.330   2.209  1.00  0.00     0.046 A 
ATOM     17  C   UNL     1       2.042  -1.310   1.541  1.00  0.00    -0.001 A 
ATOM     18  N   UNL     1       1.814  -0.207   3.467  1.00  0.00    -0.361 N 
ATOM     19  C   UNL     1       2.972  -1.834   2.412  1.00  0.00     0.028 A 
ATOM     20  C   UNL     1       2.800  -1.124   3.596  1.00  0.00     0.083 A 
ATOM     21  H   UNL     1       1.478   0.458   4.198  1.00  0.00     0.166 HD
ENDBRANCH   7  12
TORSDOF 1


