REMARK SMILES C=Cc1cccc(-c2ccc3cc[nH+]c([O-])c3c2)c1
REMARK SMILES IDX 3 1 4 2 5 3 6 4 7 5 19 6 2 7 1 8 8 9 9 10 18 11 10 12 17 13
REMARK SMILES IDX 11 14 15 15 12 16 14 17 13 18 16 19
REMARK H PARENT 14 20
ROOT
ATOM      1  C   UNL     1      -3.259   0.709  -1.152  1.00  0.00    -0.026 A 
ATOM      2  C   UNL     1      -4.189  -0.054  -0.429  1.00  0.00     0.008 A 
ATOM      3  C   UNL     1      -3.760  -1.049   0.451  1.00  0.00     0.001 A 
ATOM      4  C   UNL     1      -2.398  -1.303   0.614  1.00  0.00     0.009 A 
ATOM      5  C   UNL     1      -1.445  -0.566  -0.109  1.00  0.00    -0.018 A 
ATOM      6  C   UNL     1      -1.884   0.437  -0.995  1.00  0.00     0.016 A 
ENDROOT
BRANCH   1   7
ATOM      7  C   UNL     1      -3.766   1.748  -2.082  1.00  0.00     0.000 C 
ATOM      8  C   UNL     1      -3.029   2.757  -2.551  1.00  0.00     0.009 C 
ENDBRANCH   1   7
BRANCH   5   9
ATOM      9  C   UNL     1       0.005  -0.844   0.055  1.00  0.00    -0.018 A 
ATOM     10  C   UNL     1       0.928   0.214   0.130  1.00  0.00     0.009 A 
ATOM     11  C   UNL     1       0.473  -2.168   0.138  1.00  0.00     0.023 A 
ATOM     12  C   UNL     1       2.292  -0.041   0.286  1.00  0.00     0.010 A 
ATOM     13  C   UNL     1       1.845  -2.434   0.295  1.00  0.00     0.040 A 
ATOM     14  C   UNL     1       2.759  -1.359   0.369  1.00  0.00    -0.007 A 
ATOM     15  C   UNL     1       2.337  -3.750   0.378  1.00  0.00     0.151 A 
ATOM     16  C   UNL     1       4.125  -1.623   0.525  1.00  0.00     0.079 A 
ATOM     17  N   UNL     1       3.672  -3.970   0.529  1.00  0.00    -0.222 N 
ATOM     18  C   UNL     1       4.563  -2.945   0.603  1.00  0.00     0.306 A 
ATOM     19  O   UNL     1       1.471  -4.838   0.308  1.00  0.00    -0.823 OA
ATOM     20  H   UNL     1       4.025  -4.952   0.590  1.00  0.00     0.452 HD
ENDBRANCH   5   9
TORSDOF 2


