MODEL 1
REMARK VINA RESULT:      -3.1      0.000      0.000
REMARK SMILES C=CCOC(=O)Oc1c([NH2+]c2ccc(C)c(F)c2)ccc([C@@H]2O[C@H]2c2ccccc2)c1N
REMARK SMILES IDX 5 1 6 2 4 3 3 4 2 5 1 6 7 7 8 8 9 9 31 10 19 11 21 12 20 13
REMARK SMILES IDX 10 14 11 17 12 18 18 19 13 20 16 21 14 22 17 23 15 24 32 25
REMARK SMILES IDX 22 28 23 29 24 30 25 31 26 32 30 33 27 34 29 35 28 36
REMARK H PARENT 10 15 10 16 32 26 32 27
ROOT
ATOM      1  C   UNL     1      43.778 129.698  23.358  1.00  0.00     0.514 C 
ATOM      2  O   UNL     1      44.056 130.196  24.485  1.00  0.00    -0.203 OA
ENDROOT
BRANCH   1   3
ATOM      3  O   UNL     1      42.536 129.935  22.764  1.00  0.00    -0.430 OA
BRANCH   3   4
ATOM      4  C   UNL     1      42.300 130.991  21.835  1.00  0.00     0.264 C 
BRANCH   4   5
ATOM      5  C   UNL     1      43.437 131.089  20.858  1.00  0.00     0.006 C 
ATOM      6  C   UNL     1      43.771 132.243  20.275  1.00  0.00     0.007 C 
ENDBRANCH   4   5
ENDBRANCH   3   4
ENDBRANCH   1   3
BRANCH   1   7
ATOM      7  O   UNL     1      44.705 128.890  22.692  1.00  0.00    -0.386 OA
BRANCH   7   8
ATOM      8  C   UNL     1      44.870 127.529  22.976  1.00  0.00     0.218 A 
ATOM      9  C   UNL     1      44.025 126.927  23.933  1.00  0.00     0.180 A 
ATOM     10  C   UNL     1      45.859 126.762  22.316  1.00  0.00     0.087 A 
ATOM     11  C   UNL     1      44.207 125.573  24.253  1.00  0.00     0.073 A 
ATOM     12  C   UNL     1      46.061 125.414  22.690  1.00  0.00     0.011 A 
ATOM     13  C   UNL     1      45.212 124.828  23.643  1.00  0.00     0.015 A 
BRANCH   9  14
ATOM     14  N   UNL     1      43.005 127.696  24.607  1.00  0.00    -0.278 N 
ATOM     15  H   UNL     1      43.259 127.785  25.619  1.00  0.00     0.358 HD
ATOM     16  H   UNL     1      42.958 128.669  24.224  1.00  0.00     0.358 HD
BRANCH  14  17
ATOM     17  C   UNL     1      41.710 127.078  24.445  1.00  0.00     0.137 A 
ATOM     18  C   UNL     1      40.534 127.836  24.584  1.00  0.00     0.068 A 
ATOM     19  C   UNL     1      41.603 125.699  24.186  1.00  0.00     0.107 A 
ATOM     20  C   UNL     1      39.280 127.236  24.435  1.00  0.00     0.012 A 
ATOM     21  C   UNL     1      40.350 125.096  24.049  1.00  0.00     0.132 A 
ATOM     22  C   UNL     1      39.180 125.867  24.150  1.00  0.00    -0.015 A 
ATOM     23  F   UNL     1      40.278 123.759  23.828  1.00  0.00    -0.206 F 
ATOM     24  C   UNL     1      37.829 125.219  24.035  1.00  0.00     0.047 C 
ENDBRANCH  14  17
ENDBRANCH   9  14
BRANCH  10  25
ATOM     25  N   UNL     1      46.615 127.340  21.239  1.00  0.00    -0.395 N 
ATOM     26  H   UNL     1      46.849 128.357  21.222  1.00  0.00     0.156 HD
ATOM     27  H   UNL     1      46.858 126.793  20.386  1.00  0.00     0.156 HD
ENDBRANCH  10  25
BRANCH  12  28
ATOM     28  C   UNL     1      47.143 124.580  22.050  1.00  0.00     0.185 C 
ATOM     29  O   UNL     1      47.167 123.263  22.553  1.00  0.00    -0.359 OA
ATOM     30  C   UNL     1      48.211 124.111  22.972  1.00  0.00     0.183 C 
BRANCH  30  31
ATOM     31  C   UNL     1      49.519 123.737  22.335  1.00  0.00    -0.016 A 
ATOM     32  C   UNL     1      50.330 122.757  22.930  1.00  0.00     0.006 A 
ATOM     33  C   UNL     1      49.907 124.300  21.106  1.00  0.00     0.006 A 
ATOM     34  C   UNL     1      51.532 122.375  22.324  1.00  0.00     0.000 A 
ATOM     35  C   UNL     1      51.110 123.916  20.505  1.00  0.00     0.000 A 
ATOM     36  C   UNL     1      51.923 122.957  21.115  1.00  0.00     0.000 A 
ENDBRANCH  30  31
ENDBRANCH  12  28
ENDBRANCH   7   8
ENDBRANCH   1   7
TORSDOF 10
ENDMDL
MODEL 2
REMARK VINA RESULT:      -2.5      3.539      9.109
REMARK SMILES C=CCOC(=O)Oc1c([NH2+]c2ccc(C)c(F)c2)ccc([C@@H]2O[C@H]2c2ccccc2)c1N
REMARK SMILES IDX 5 1 6 2 4 3 3 4 2 5 1 6 7 7 8 8 9 9 31 10 19 11 21 12 20 13
REMARK SMILES IDX 10 14 11 17 12 18 18 19 13 20 16 21 14 22 17 23 15 24 32 25
REMARK SMILES IDX 22 28 23 29 24 30 25 31 26 32 30 33 27 34 29 35 28 36
REMARK H PARENT 10 15 10 16 32 26 32 27
ROOT
ATOM      1  C   UNL     1      49.088 125.117  23.552  1.00  0.00     0.514 C 
ATOM      2  O   UNL     1      50.067 124.650  24.199  1.00  0.00    -0.203 OA
ENDROOT
BRANCH   1   3
ATOM      3  O   UNL     1      49.278 125.693  22.293  1.00  0.00    -0.430 OA
BRANCH   3   4
ATOM      4  C   UNL     1      50.557 126.076  21.791  1.00  0.00     0.264 C 
BRANCH   4   5
ATOM      5  C   UNL     1      51.643 125.596  22.711  1.00  0.00     0.006 C 
ATOM      6  C   UNL     1      52.140 126.368  23.682  1.00  0.00     0.007 C 
ENDBRANCH   4   5
ENDBRANCH   3   4
ENDBRANCH   1   3
BRANCH   1   7
ATOM      7  O   UNL     1      47.798 125.078  24.092  1.00  0.00    -0.386 OA
BRANCH   7   8
ATOM      8  C   UNL     1      46.734 124.414  23.470  1.00  0.00     0.218 A 
ATOM      9  C   UNL     1      46.966 123.147  22.893  1.00  0.00     0.180 A 
ATOM     10  C   UNL     1      45.444 124.993  23.421  1.00  0.00     0.087 A 
ATOM     11  C   UNL     1      45.917 122.491  22.234  1.00  0.00     0.073 A 
ATOM     12  C   UNL     1      44.413 124.339  22.708  1.00  0.00     0.011 A 
ATOM     13  C   UNL     1      44.658 123.079  22.140  1.00  0.00     0.015 A 
BRANCH   9  14
ATOM     14  N   UNL     1      48.277 122.541  22.944  1.00  0.00    -0.278 N 
ATOM     15  H   UNL     1      48.813 122.957  23.742  1.00  0.00     0.358 HD
ATOM     16  H   UNL     1      48.205 121.514  23.134  1.00  0.00     0.358 HD
BRANCH  14  17
ATOM     17  C   UNL     1      48.974 122.729  21.693  1.00  0.00     0.137 A 
ATOM     18  C   UNL     1      48.269 123.083  20.529  1.00  0.00     0.068 A 
ATOM     19  C   UNL     1      50.363 122.523  21.610  1.00  0.00     0.107 A 
ATOM     20  C   UNL     1      48.942 123.258  19.316  1.00  0.00     0.012 A 
ATOM     21  C   UNL     1      51.035 122.686  20.396  1.00  0.00     0.132 A 
ATOM     22  C   UNL     1      50.331 123.077  19.245  1.00  0.00    -0.015 A 
ATOM     23  F   UNL     1      52.371 122.452  20.340  1.00  0.00    -0.206 F 
ATOM     24  C   UNL     1      51.041 123.223  17.930  1.00  0.00     0.047 C 
ENDBRANCH  14  17
ENDBRANCH   9  14
BRANCH  10  25
ATOM     25  N   UNL     1      45.176 126.210  24.137  1.00  0.00    -0.395 N 
ATOM     26  H   UNL     1      44.585 126.217  24.997  1.00  0.00     0.156 HD
ATOM     27  H   UNL     1      45.466 127.139  23.765  1.00  0.00     0.156 HD
ENDBRANCH  10  25
BRANCH  12  28
ATOM     28  C   UNL     1      43.040 124.952  22.586  1.00  0.00     0.185 C 
ATOM     29  O   UNL     1      43.042 126.328  22.895  1.00  0.00    -0.359 OA
ATOM     30  C   UNL     1      42.462 125.473  23.854  1.00  0.00     0.183 C 
BRANCH  30  31
ATOM     31  C   UNL     1      40.968 125.615  23.891  1.00  0.00    -0.016 A 
ATOM     32  C   UNL     1      40.384 126.884  23.747  1.00  0.00     0.006 A 
ATOM     33  C   UNL     1      40.140 124.483  23.992  1.00  0.00     0.006 A 
ATOM     34  C   UNL     1      38.992 127.023  23.744  1.00  0.00     0.000 A 
ATOM     35  C   UNL     1      38.749 124.626  23.989  1.00  0.00     0.000 A 
ATOM     36  C   UNL     1      38.175 125.895  23.868  1.00  0.00     0.000 A 
ENDBRANCH  30  31
ENDBRANCH  12  28
ENDBRANCH   7   8
ENDBRANCH   1   7
TORSDOF 10
ENDMDL
MODEL 3
REMARK VINA RESULT:      -0.9      4.917      9.012
REMARK SMILES C=CCOC(=O)Oc1c([NH2+]c2ccc(C)c(F)c2)ccc([C@@H]2O[C@H]2c2ccccc2)c1N
REMARK SMILES IDX 5 1 6 2 4 3 3 4 2 5 1 6 7 7 8 8 9 9 31 10 19 11 21 12 20 13
REMARK SMILES IDX 10 14 11 17 12 18 18 19 13 20 16 21 14 22 17 23 15 24 32 25
REMARK SMILES IDX 22 28 23 29 24 30 25 31 26 32 30 33 27 34 29 35 28 36
REMARK H PARENT 10 15 10 16 32 26 32 27
ROOT
ATOM      1  C   UNL     1      45.488 131.683  18.148  1.00  0.00     0.514 C 
ATOM      2  O   UNL     1      46.170 130.701  18.554  1.00  0.00    -0.203 OA
ENDROOT
BRANCH   1   3
ATOM      3  O   UNL     1      45.221 131.847  16.786  1.00  0.00    -0.430 OA
BRANCH   3   4
ATOM      4  C   UNL     1      44.525 130.880  16.002  1.00  0.00     0.264 C 
BRANCH   4   5
ATOM      5  C   UNL     1      43.495 131.552  15.139  1.00  0.00     0.006 C 
ATOM      6  C   UNL     1      43.690 131.754  13.833  1.00  0.00     0.007 C 
ENDBRANCH   4   5
ENDBRANCH   3   4
ENDBRANCH   1   3
BRANCH   1   7
ATOM      7  O   UNL     1      45.001 132.631  19.053  1.00  0.00    -0.386 OA
BRANCH   7   8
ATOM      8  C   UNL     1      44.952 132.408  20.435  1.00  0.00     0.218 A 
ATOM      9  C   UNL     1      45.778 133.181  21.279  1.00  0.00     0.180 A 
ATOM     10  C   UNL     1      44.087 131.432  20.984  1.00  0.00     0.087 A 
ATOM     11  C   UNL     1      45.765 132.939  22.660  1.00  0.00     0.073 A 
ATOM     12  C   UNL     1      44.126 131.168  22.372  1.00  0.00     0.011 A 
ATOM     13  C   UNL     1      44.953 131.945  23.200  1.00  0.00     0.015 A 
BRANCH   9  14
ATOM     14  N   UNL     1      46.658 134.187  20.731  1.00  0.00    -0.278 N 
ATOM     15  H   UNL     1      46.969 133.885  19.778  1.00  0.00     0.358 HD
ATOM     16  H   UNL     1      46.154 135.096  20.609  1.00  0.00     0.358 HD
BRANCH  14  17
ATOM     17  C   UNL     1      47.788 134.404  21.604  1.00  0.00     0.137 A 
ATOM     18  C   UNL     1      48.608 135.536  21.443  1.00  0.00     0.068 A 
ATOM     19  C   UNL     1      48.111 133.468  22.603  1.00  0.00     0.107 A 
ATOM     20  C   UNL     1      49.706 135.742  22.283  1.00  0.00     0.012 A 
ATOM     21  C   UNL     1      49.216 133.667  23.435  1.00  0.00     0.132 A 
ATOM     22  C   UNL     1      50.008 134.819  23.295  1.00  0.00    -0.015 A 
ATOM     23  F   UNL     1      49.520 132.732  24.370  1.00  0.00    -0.206 F 
ATOM     24  C   UNL     1      51.215 135.024  24.164  1.00  0.00     0.047 C 
ENDBRANCH  14  17
ENDBRANCH   9  14
BRANCH  10  25
ATOM     25  N   UNL     1      43.142 130.754  20.140  1.00  0.00    -0.395 N 
ATOM     26  H   UNL     1      42.523 130.000  20.510  1.00  0.00     0.156 HD
ATOM     27  H   UNL     1      43.117 130.910  19.110  1.00  0.00     0.156 HD
ENDBRANCH  10  25
BRANCH  12  28
ATOM     28  C   UNL     1      43.261 130.096  22.987  1.00  0.00     0.185 C 
ATOM     29  O   UNL     1      43.421 130.020  24.386  1.00  0.00    -0.359 OA
ATOM     30  C   UNL     1      44.000 128.978  23.634  1.00  0.00     0.183 C 
BRANCH  30  31
ATOM     31  C   UNL     1      43.243 127.691  23.797  1.00  0.00    -0.016 A 
ATOM     32  C   UNL     1      42.016 127.685  24.482  1.00  0.00     0.006 A 
ATOM     33  C   UNL     1      43.708 126.503  23.206  1.00  0.00     0.006 A 
ATOM     34  C   UNL     1      41.286 126.499  24.608  1.00  0.00     0.000 A 
ATOM     35  C   UNL     1      42.975 125.319  23.335  1.00  0.00     0.000 A 
ATOM     36  C   UNL     1      41.767 125.317  24.038  1.00  0.00     0.000 A 
ENDBRANCH  30  31
ENDBRANCH  12  28
ENDBRANCH   7   8
ENDBRANCH   1   7
TORSDOF 10
ENDMDL


