REMARK SMILES Fc1cccc(F)c1C/C=C(\OC(=S)[NH2+]Cc1cc(Cl)cc(Cl)c1)c1ccccc1
REMARK SMILES IDX 12 1 11 2 10 3 9 4 8 5 2 6 6 7 3 8 5 9 4 10 1 11 7 12 25 13
REMARK SMILES IDX 26 14 30 15 27 16 29 17 28 18 13 19 14 20 15 21 16 24 17 25
REMARK SMILES IDX 18 26 24 27 19 28 22 29 21 30 20 31 23 32
REMARK H PARENT 15 22 15 23
ROOT
ATOM      1  O   UNL     1      -1.822   0.764   0.488  1.00  0.00    -0.404 OA
ENDROOT
BRANCH   1   2
ATOM      2  C   UNL     1      -1.907  -0.635   0.410  1.00  0.00     0.137 C 
BRANCH   2   3
ATOM      3  C   UNL     1      -0.781  -1.339   0.225  1.00  0.00     0.026 C 
BRANCH   3   4
ATOM      4  C   UNL     1       0.539  -0.654   0.013  1.00  0.00     0.073 C 
BRANCH   4   5
ATOM      5  C   UNL     1       1.656  -1.656  -0.127  1.00  0.00     0.027 A 
ATOM      6  C   UNL     1       2.337  -2.126   1.013  1.00  0.00     0.129 A 
ATOM      7  C   UNL     1       1.997  -2.172  -1.392  1.00  0.00     0.129 A 
ATOM      8  C   UNL     1       3.357  -3.074   0.882  1.00  0.00     0.040 A 
ATOM      9  C   UNL     1       3.018  -3.119  -1.513  1.00  0.00     0.040 A 
ATOM     10  C   UNL     1       3.699  -3.567  -0.379  1.00  0.00     0.006 A 
ATOM     11  F   UNL     1       2.012  -1.670   2.250  1.00  0.00    -0.207 F 
ATOM     12  F   UNL     1       1.340  -1.761  -2.506  1.00  0.00    -0.207 F 
ENDBRANCH   4   5
ENDBRANCH   3   4
ENDBRANCH   2   3
BRANCH   2  13
ATOM     13  C   UNL     1      -3.206  -1.329   0.607  1.00  0.00     0.017 A 
ATOM     14  C   UNL     1      -4.114  -0.851   1.568  1.00  0.00     0.012 A 
ATOM     15  C   UNL     1      -3.556  -2.454  -0.164  1.00  0.00     0.012 A 
ATOM     16  C   UNL     1      -5.344  -1.487   1.757  1.00  0.00     0.001 A 
ATOM     17  C   UNL     1      -4.788  -3.086   0.029  1.00  0.00     0.001 A 
ATOM     18  C   UNL     1      -5.681  -2.604   0.989  1.00  0.00     0.000 A 
ENDBRANCH   2  13
ENDBRANCH   1   2
BRANCH   1  19
ATOM     19  C   UNL     1      -2.784   1.669   0.013  1.00  0.00     0.365 C 
ATOM     20  S   UNL     1      -3.811   1.264  -1.209  1.00  0.00     0.027 S 
BRANCH  19  21
ATOM     21  N   UNL     1      -2.792   3.007   0.539  1.00  0.00    -0.268 N 
ATOM     22  H   UNL     1      -2.478   2.985   1.537  1.00  0.00     0.356 HD
ATOM     23  H   UNL     1      -3.769   3.382   0.522  1.00  0.00     0.356 HD
BRANCH  21  24
ATOM     24  C   UNL     1      -1.923   3.899  -0.246  1.00  0.00     0.306 C 
BRANCH  24  25
ATOM     25  C   UNL     1      -0.469   3.489  -0.174  1.00  0.00     0.010 A 
ATOM     26  C   UNL     1       0.172   2.942  -1.298  1.00  0.00     0.030 A 
ATOM     27  C   UNL     1       0.247   3.630   1.026  1.00  0.00     0.030 A 
ATOM     28  C   UNL     1       1.514   2.550  -1.224  1.00  0.00     0.043 A 
ATOM     29  C   UNL     1       1.584   3.225   1.101  1.00  0.00     0.043 A 
ATOM     30  C   UNL     1       2.217   2.687  -0.023  1.00  0.00     0.041 A 
ATOM     31  Cl  UNL     1       2.304   1.856  -2.627  1.00  0.00    -0.084 Cl
ATOM     32  Cl  UNL     1       2.466   3.387   2.609  1.00  0.00    -0.084 Cl
ENDBRANCH  24  25
ENDBRANCH  21  24
ENDBRANCH  19  21
ENDBRANCH   1  19
TORSDOF 9


