REMARK SMILES Cc1ccc(-c2ccc([O-])cc2)c2cn(C(=O)NC3(C(F)(F)F)CC3)nc12
REMARK SMILES IDX 16 1 17 2 18 3 15 5 2 6 3 7 27 8 4 9 26 10 13 11 5 12 14 13
REMARK SMILES IDX 1 14 6 15 7 16 12 17 8 18 11 19 9 20 10 21 19 22 24 23 25 24
REMARK SMILES IDX 20 25 21 26 22 27 23 28
REMARK H PARENT 18 4
ROOT
ATOM      1  C   UNL     1      -2.088  -0.049  -0.555  1.00  0.00     0.342 C 
ATOM      2  O   UNL     1      -2.136  -0.326  -1.785  1.00  0.00    -0.246 OA
ATOM      3  N   UNL     1      -3.303   0.148   0.183  1.00  0.00    -0.322 N 
ATOM      4  H   UNL     1      -3.256   0.343   1.208  1.00  0.00     0.166 HD
ENDROOT
BRANCH   1   5
ATOM      5  N   UNL     1      -0.818   0.073   0.098  1.00  0.00    -0.189 N 
ATOM      6  C   UNL     1       1.291   0.608   2.851  1.00  0.00    -0.023 A 
ATOM      7  C   UNL     1       2.698   0.514   2.872  1.00  0.00     0.006 A 
ATOM      8  C   UNL     1       0.651   0.380   1.630  1.00  0.00     0.096 A 
ATOM      9  C   UNL     1       3.420   0.227   1.692  1.00  0.00     0.010 A 
ATOM     10  N   UNL     1      -0.672   0.362   1.387  1.00  0.00    -0.164 NA
ATOM     11  C   UNL     1       1.351   0.103   0.483  1.00  0.00     0.029 A 
ATOM     12  C   UNL     1       2.751   0.022   0.464  1.00  0.00    -0.007 A 
ATOM     13  C   UNL     1       0.392  -0.098  -0.486  1.00  0.00     0.129 A 
ATOM     14  C   UNL     1       0.510   0.866   4.105  1.00  0.00     0.047 C 
BRANCH  12  15
ATOM     15  C   UNL     1       3.510  -0.271  -0.774  1.00  0.00    -0.018 A 
ATOM     16  C   UNL     1       4.527  -1.241  -0.769  1.00  0.00     0.008 A 
ATOM     17  C   UNL     1       3.243   0.434  -1.962  1.00  0.00     0.008 A 
ATOM     18  C   UNL     1       5.250  -1.513  -1.934  1.00  0.00    -0.008 A 
ATOM     19  C   UNL     1       3.968   0.159  -3.125  1.00  0.00    -0.008 A 
ATOM     20  C   UNL     1       4.971  -0.815  -3.112  1.00  0.00    -0.109 A 
ATOM     21  O   UNL     1       5.691  -1.087  -4.269  1.00  0.00    -0.872 OA
ENDBRANCH  12  15
ENDBRANCH   1   5
BRANCH   3  22
ATOM     22  C   UNL     1      -4.622  -0.027  -0.424  1.00  0.00     0.137 C 
ATOM     23  C   UNL     1      -5.600   1.093  -0.101  1.00  0.00     0.041 C 
ATOM     24  C   UNL     1      -4.987   0.991  -1.495  1.00  0.00     0.041 C 
BRANCH  22  25
ATOM     25  C   UNL     1      -5.177  -1.456  -0.514  1.00  0.00     0.411 C 
ATOM     26  F   UNL     1      -4.325  -2.236  -1.274  1.00  0.00    -0.168 F 
ATOM     27  F   UNL     1      -5.259  -1.993   0.758  1.00  0.00    -0.168 F 
ATOM     28  F   UNL     1      -6.435  -1.483  -1.091  1.00  0.00    -0.168 F 
ENDBRANCH  22  25
ENDBRANCH   3  22
TORSDOF 4


