REMARK SMILES N[NH2+]c1ccccc1-c1nc2ccccc2[n-]1
REMARK SMILES IDX 2 1 1 4 3 7 4 8 8 9 5 10 7 11 6 12 9 13 10 14 17 15 11 16
REMARK SMILES IDX 16 17 12 18 15 19 13 20 14 21
REMARK H PARENT 2 2 2 3 1 5 1 6
ROOT
ATOM      1  N   UNL     1      -0.314   2.453   1.041  1.00  0.00    -0.239 N 
ATOM      2  H   UNL     1      -0.767   3.295   1.471  1.00  0.00     0.376 HD
ATOM      3  H   UNL     1      -0.608   1.621   1.602  1.00  0.00     0.376 HD
ENDROOT
BRANCH   1   4
ATOM      4  N   UNL     1       1.087   2.598   1.102  1.00  0.00    -0.178 NA
ATOM      5  H   UNL     1       1.337   3.553   0.752  1.00  0.00     0.183 HD
ATOM      6  H   UNL     1       1.370   2.568   2.109  1.00  0.00     0.183 HD
ENDBRANCH   1   4
BRANCH   1   7
ATOM      7  C   UNL     1      -0.707   2.304  -0.340  1.00  0.00     0.155 A 
ATOM      8  C   UNL     1      -1.119   3.447  -1.054  1.00  0.00     0.070 A 
ATOM      9  C   UNL     1      -0.694   1.042  -1.003  1.00  0.00     0.036 A 
ATOM     10  C   UNL     1      -1.546   3.349  -2.377  1.00  0.00     0.006 A 
ATOM     11  C   UNL     1      -1.146   0.967  -2.334  1.00  0.00     0.014 A 
ATOM     12  C   UNL     1      -1.567   2.111  -3.014  1.00  0.00     0.001 A 
BRANCH   9  13
ATOM     13  C   UNL     1      -0.223  -0.208  -0.356  1.00  0.00    -0.045 A 
ATOM     14  N   UNL     1       0.747  -0.242   0.598  1.00  0.00    -0.435 NA
ATOM     15  N   UNL     1      -0.689  -1.436  -0.716  1.00  0.00    -0.435 NA
ATOM     16  C   UNL     1       0.872  -1.552   0.850  1.00  0.00    -0.038 A 
ATOM     17  C   UNL     1       0.017  -2.263   0.067  1.00  0.00    -0.038 A 
ATOM     18  C   UNL     1       1.731  -2.168   1.756  1.00  0.00     0.004 A 
ATOM     19  C   UNL     1      -0.052  -3.653   0.124  1.00  0.00     0.004 A 
ATOM     20  C   UNL     1       1.688  -3.573   1.843  1.00  0.00     0.000 A 
ATOM     21  C   UNL     1       0.800  -4.313   1.030  1.00  0.00     0.000 A 
ENDBRANCH   9  13
ENDBRANCH   1   7
TORSDOF 3


