REMARK SMILES Cc1cc(C#N)ccc1C(=O)[N-][C@H]1CC12CCC2
REMARK SMILES IDX 1 1 2 2 3 3 4 4 7 5 8 6 9 7 10 8 11 9 12 10 13 11 14 12
REMARK SMILES IDX 15 13 16 14 18 15 17 16 5 17 6 18
REMARK H PARENT
ROOT
ATOM      1  C   UNL     1       1.072   0.341   1.804  1.00  0.00     0.045 C 
ATOM      2  C   UNL     1       1.444  -1.065   2.200  1.00  0.00    -0.041 A 
ATOM      3  C   UNL     1       2.206  -1.252   3.368  1.00  0.00     0.023 A 
ATOM      4  C   UNL     1       2.616  -2.530   3.758  1.00  0.00     0.052 A 
ATOM      5  C   UNL     1       2.268  -3.638   2.984  1.00  0.00     0.020 A 
ATOM      6  C   UNL     1       1.500  -3.474   1.831  1.00  0.00     0.012 A 
ATOM      7  C   UNL     1       1.062  -2.198   1.430  1.00  0.00     0.002 A 
ENDROOT
BRANCH   7   8
ATOM      8  C   UNL     1       0.218  -2.098   0.212  1.00  0.00     0.082 C 
ATOM      9  O   UNL     1       0.366  -2.934  -0.721  1.00  0.00    -0.315 OA
BRANCH   8  10
ATOM     10  N   UNL     1      -0.790  -1.090   0.103  1.00  0.00    -0.646 NA
BRANCH  10  11
ATOM     11  C   UNL     1      -1.625  -0.943  -1.080  1.00  0.00    -0.100 C 
ATOM     12  C   UNL     1      -2.111   0.495  -1.298  1.00  0.00    -0.010 C 
ATOM     13  C   UNL     1      -0.994  -0.090  -2.154  1.00  0.00    -0.044 C 
ATOM     14  C   UNL     1       0.309   0.656  -2.198  1.00  0.00     0.006 C 
ATOM     15  C   UNL     1      -1.199  -0.101  -3.640  1.00  0.00     0.006 C 
ATOM     16  C   UNL     1       0.136   0.669  -3.732  1.00  0.00     0.001 C 
ENDBRANCH  10  11
ENDBRANCH   8  10
ENDBRANCH   7   8
BRANCH   4  17
ATOM     17  C   UNL     1       3.403  -2.703   4.952  1.00  0.00     0.099 C 
ATOM     18  N   UNL     1       4.034  -2.842   5.911  1.00  0.00    -0.192 NA
ENDBRANCH   4  17
TORSDOF 4


