REMARK SMILES c1cc(-c2ccc3[nH]ccc3c2)cc([C@H]2CO2)c1
REMARK SMILES IDX 4 1 5 2 6 3 7 4 8 5 9 6 10 7 11 8 12 9 3 11 1 12 2 13 18 14
REMARK SMILES IDX 14 15 13 16 15 17 16 18 17 19
REMARK H PARENT 8 10
ROOT
ATOM      1  C   UNL     1      -0.045  -1.008   0.097  1.00  0.00    -0.018 A 
ATOM      2  C   UNL     1      -0.631  -2.103  -0.596  1.00  0.00     0.011 A 
ATOM      3  C   UNL     1      -1.546  -2.957   0.045  1.00  0.00     0.027 A 
ATOM      4  C   UNL     1      -1.858  -2.696   1.377  1.00  0.00     0.045 A 
ATOM      5  N   UNL     1      -2.697  -3.383   2.169  1.00  0.00    -0.361 N 
ATOM      6  C   UNL     1      -2.670  -2.756   3.367  1.00  0.00     0.083 A 
ATOM      7  C   UNL     1      -1.807  -1.665   3.334  1.00  0.00     0.028 A 
ATOM      8  C   UNL     1      -1.300  -1.646   2.053  1.00  0.00    -0.000 A 
ATOM      9  C   UNL     1      -0.392  -0.780   1.450  1.00  0.00     0.019 A 
ATOM     10  H   UNL     1      -3.257  -4.228   1.916  1.00  0.00     0.166 HD
ENDROOT
BRANCH   1  11
ATOM     11  C   UNL     1       0.919  -0.114  -0.591  1.00  0.00    -0.018 A 
ATOM     12  C   UNL     1       2.790   0.203  -2.115  1.00  0.00     0.001 A 
ATOM     13  C   UNL     1       1.887  -0.642  -1.465  1.00  0.00     0.009 A 
ATOM     14  C   UNL     1       2.745   1.581  -1.897  1.00  0.00     0.006 A 
ATOM     15  C   UNL     1       1.800   2.124  -1.016  1.00  0.00    -0.016 A 
ATOM     16  C   UNL     1       0.880   1.277  -0.378  1.00  0.00     0.015 A 
BRANCH  15  17
ATOM     17  C   UNL     1       1.724   3.608  -0.809  1.00  0.00     0.174 C 
ATOM     18  C   UNL     1       1.998   4.088   0.565  1.00  0.00     0.198 C 
ATOM     19  O   UNL     1       2.974   4.149  -0.448  1.00  0.00    -0.368 OA
ENDBRANCH  15  17
ENDBRANCH   1  11
TORSDOF 2


