MODEL 1
REMARK VINA RESULT:      -9.9      0.000      0.000
REMARK SMILES [NH3+]CCc1ccc(-c2c[nH+]c3cc[nH+]n3c2)cc1
REMARK SMILES IDX 3 1 2 2 1 3 4 7 5 8 18 9 6 10 17 11 7 12 8 13 9 14 16 15
REMARK SMILES IDX 10 16 15 17 11 18 14 19 12 20 13 21
REMARK H PARENT 1 4 1 5 1 6 10 22 14 23
ROOT
ATOM      1  C   UNL     1      43.283 131.269  22.538  1.00  0.00     0.096 C 
ENDROOT
BRANCH   1   2
ATOM      2  C   UNL     1      43.244 129.854  23.135  1.00  0.00     0.263 C 
BRANCH   2   3
ATOM      3  N   UNL     1      41.894 129.287  23.106  1.00  0.00    -0.357 N 
ATOM      4  H   UNL     1      41.923 128.269  23.339  1.00  0.00     0.344 HD
ATOM      5  H   UNL     1      41.306 129.775  23.820  1.00  0.00     0.344 HD
ATOM      6  H   UNL     1      41.463 129.425  22.164  1.00  0.00     0.344 HD
ENDBRANCH   2   3
ENDBRANCH   1   2
BRANCH   1   7
ATOM      7  C   UNL     1      43.884 131.281  21.156  1.00  0.00    -0.042 A 
ATOM      8  C   UNL     1      43.153 131.783  20.068  1.00  0.00     0.004 A 
ATOM      9  C   UNL     1      45.165 130.755  20.939  1.00  0.00     0.004 A 
ATOM     10  C   UNL     1      43.703 131.769  18.783  1.00  0.00     0.009 A 
ATOM     11  C   UNL     1      45.715 130.742  19.654  1.00  0.00     0.009 A 
ATOM     12  C   UNL     1      44.991 131.249  18.561  1.00  0.00    -0.011 A 
BRANCH  12  13
ATOM     13  C   UNL     1      45.573 131.235  17.195  1.00  0.00     0.067 A 
ATOM     14  C   UNL     1      45.422 132.344  16.323  1.00  0.00     0.210 A 
ATOM     15  C   UNL     1      46.293 130.117  16.724  1.00  0.00     0.290 A 
ATOM     16  N   UNL     1      45.960 132.324  15.068  1.00  0.00    -0.242 N 
ATOM     17  N   UNL     1      46.797 130.166  15.468  1.00  0.00     0.008 N 
ATOM     18  C   UNL     1      46.641 131.222  14.667  1.00  0.00     0.346 A 
ATOM     19  N   UNL     1      47.490 129.236  14.839  1.00  0.00    -0.055 N 
ATOM     20  C   UNL     1      47.256 130.988  13.455  1.00  0.00     0.180 A 
ATOM     21  C   UNL     1      47.787 129.708  13.606  1.00  0.00     0.364 A 
ATOM     22  H   UNL     1      45.849 133.144  14.431  1.00  0.00     0.312 HD
ATOM     23  H   UNL     1      47.756 128.306  15.234  1.00  0.00     0.514 HD
ENDBRANCH  12  13
ENDBRANCH   1   7
TORSDOF 4
ENDMDL
MODEL 2
REMARK VINA RESULT:      -9.8      0.210      1.159
REMARK SMILES [NH3+]CCc1ccc(-c2c[nH+]c3cc[nH+]n3c2)cc1
REMARK SMILES IDX 3 1 2 2 1 3 4 7 5 8 18 9 6 10 17 11 7 12 8 13 9 14 16 15
REMARK SMILES IDX 10 16 15 17 11 18 14 19 12 20 13 21
REMARK H PARENT 1 4 1 5 1 6 10 22 14 23
ROOT
ATOM      1  C   UNL     1      43.515 131.173  22.694  1.00  0.00     0.096 C 
ENDROOT
BRANCH   1   2
ATOM      2  C   UNL     1      43.144 129.766  23.188  1.00  0.00     0.263 C 
BRANCH   2   3
ATOM      3  N   UNL     1      41.723 129.666  23.530  1.00  0.00    -0.357 N 
ATOM      4  H   UNL     1      41.413 128.668  23.504  1.00  0.00     0.344 HD
ATOM      5  H   UNL     1      41.580 130.033  24.499  1.00  0.00     0.344 HD
ATOM      6  H   UNL     1      41.149 130.235  22.866  1.00  0.00     0.344 HD
ENDBRANCH   2   3
ENDBRANCH   1   2
BRANCH   1   7
ATOM      7  C   UNL     1      44.042 131.152  21.282  1.00  0.00    -0.042 A 
ATOM      8  C   UNL     1      45.284 130.567  20.996  1.00  0.00     0.004 A 
ATOM      9  C   UNL     1      43.311 131.753  20.248  1.00  0.00     0.004 A 
ATOM     10  C   UNL     1      45.783 130.571  19.690  1.00  0.00     0.009 A 
ATOM     11  C   UNL     1      43.808 131.758  18.941  1.00  0.00     0.009 A 
ATOM     12  C   UNL     1      45.049 131.166  18.647  1.00  0.00    -0.011 A 
BRANCH  12  13
ATOM     13  C   UNL     1      45.580 131.172  17.260  1.00  0.00     0.067 A 
ATOM     14  C   UNL     1      45.350 132.271  16.392  1.00  0.00     0.210 A 
ATOM     15  C   UNL     1      46.327 130.084  16.764  1.00  0.00     0.290 A 
ATOM     16  N   UNL     1      45.840 132.269  15.118  1.00  0.00    -0.242 N 
ATOM     17  N   UNL     1      46.781 130.150  15.489  1.00  0.00     0.008 N 
ATOM     18  C   UNL     1      46.551 131.196  14.693  1.00  0.00     0.346 A 
ATOM     19  N   UNL     1      47.489 129.247  14.836  1.00  0.00    -0.055 N 
ATOM     20  C   UNL     1      47.130 130.984  13.459  1.00  0.00     0.180 A 
ATOM     21  C   UNL     1      47.719 129.728  13.592  1.00  0.00     0.364 A 
ATOM     22  H   UNL     1      45.671 133.083  14.484  1.00  0.00     0.312 HD
ATOM     23  H   UNL     1      47.808 128.331  15.222  1.00  0.00     0.514 HD
ENDBRANCH  12  13
ENDBRANCH   1   7
TORSDOF 4
ENDMDL
MODEL 3
REMARK VINA RESULT:      -9.5      1.055      1.588
REMARK SMILES [NH3+]CCc1ccc(-c2c[nH+]c3cc[nH+]n3c2)cc1
REMARK SMILES IDX 3 1 2 2 1 3 4 7 5 8 18 9 6 10 17 11 7 12 8 13 9 14 16 15
REMARK SMILES IDX 10 16 15 17 11 18 14 19 12 20 13 21
REMARK H PARENT 1 4 1 5 1 6 10 22 14 23
ROOT
ATOM      1  C   UNL     1      43.237 131.376  22.537  1.00  0.00     0.096 C 
ENDROOT
BRANCH   1   2
ATOM      2  C   UNL     1      44.312 131.654  23.598  1.00  0.00     0.263 C 
BRANCH   2   3
ATOM      3  N   UNL     1      43.839 132.588  24.623  1.00  0.00    -0.357 N 
ATOM      4  H   UNL     1      43.935 133.573  24.287  1.00  0.00     0.344 HD
ATOM      5  H   UNL     1      42.829 132.399  24.814  1.00  0.00     0.344 HD
ATOM      6  H   UNL     1      44.380 132.458  25.508  1.00  0.00     0.344 HD
ENDBRANCH   2   3
ENDBRANCH   1   2
BRANCH   1   7
ATOM      7  C   UNL     1      43.820 131.311  21.148  1.00  0.00    -0.042 A 
ATOM      8  C   UNL     1      45.069 130.711  20.930  1.00  0.00     0.004 A 
ATOM      9  C   UNL     1      43.134 131.883  20.068  1.00  0.00     0.004 A 
ATOM     10  C   UNL     1      45.619 130.674  19.645  1.00  0.00     0.009 A 
ATOM     11  C   UNL     1      43.683 131.846  18.783  1.00  0.00     0.009 A 
ATOM     12  C   UNL     1      44.931 131.240  18.557  1.00  0.00    -0.011 A 
BRANCH  12  13
ATOM     13  C   UNL     1      45.517 131.201  17.192  1.00  0.00     0.067 A 
ATOM     14  C   UNL     1      45.210 132.202  16.235  1.00  0.00     0.210 A 
ATOM     15  C   UNL     1      46.396 130.167  16.809  1.00  0.00     0.290 A 
ATOM     16  N   UNL     1      45.751 132.160  14.982  1.00  0.00    -0.242 N 
ATOM     17  N   UNL     1      46.894 130.189  15.549  1.00  0.00     0.008 N 
ATOM     18  C   UNL     1      46.589 131.142  14.666  1.00  0.00     0.346 A 
ATOM     19  N   UNL     1      47.720 129.322  14.993  1.00  0.00    -0.055 N 
ATOM     20  C   UNL     1      47.239 130.904  13.474  1.00  0.00     0.180 A 
ATOM     21  C   UNL     1      47.951 129.732  13.724  1.00  0.00     0.364 A 
ATOM     22  H   UNL     1      45.524 132.902  14.282  1.00  0.00     0.312 HD
ATOM     23  H   UNL     1      48.118 128.477  15.460  1.00  0.00     0.514 HD
ENDBRANCH  12  13
ENDBRANCH   1   7
TORSDOF 4
ENDMDL
MODEL 4
REMARK VINA RESULT:      -9.1      0.925      1.054
REMARK SMILES [NH3+]CCc1ccc(-c2c[nH+]c3cc[nH+]n3c2)cc1
REMARK SMILES IDX 3 1 2 2 1 3 4 7 5 8 18 9 6 10 17 11 7 12 8 13 9 14 16 15
REMARK SMILES IDX 10 16 15 17 11 18 14 19 12 20 13 21
REMARK H PARENT 1 4 1 5 1 6 10 22 14 23
ROOT
ATOM      1  C   UNL     1      42.404 132.093  21.516  1.00  0.00     0.096 C 
ENDROOT
BRANCH   1   2
ATOM      2  C   UNL     1      42.884 131.124  22.607  1.00  0.00     0.263 C 
BRANCH   2   3
ATOM      3  N   UNL     1      42.087 131.243  23.830  1.00  0.00    -0.357 N 
ATOM      4  H   UNL     1      42.699 131.151  24.672  1.00  0.00     0.344 HD
ATOM      5  H   UNL     1      41.634 132.186  23.851  1.00  0.00     0.344 HD
ATOM      6  H   UNL     1      41.341 130.511  23.849  1.00  0.00     0.344 HD
ENDBRANCH   2   3
ENDBRANCH   1   2
BRANCH   1   7
ATOM      7  C   UNL     1      43.173 131.919  20.231  1.00  0.00    -0.042 A 
ATOM      8  C   UNL     1      42.514 131.985  18.994  1.00  0.00     0.004 A 
ATOM      9  C   UNL     1      44.549 131.651  20.263  1.00  0.00     0.004 A 
ATOM     10  C   UNL     1      43.224 131.798  17.805  1.00  0.00     0.009 A 
ATOM     11  C   UNL     1      45.260 131.463  19.074  1.00  0.00     0.009 A 
ATOM     12  C   UNL     1      44.606 131.536  17.831  1.00  0.00    -0.011 A 
BRANCH  12  13
ATOM     13  C   UNL     1      45.360 131.336  16.567  1.00  0.00     0.067 A 
ATOM     14  C   UNL     1      45.176 132.205  15.460  1.00  0.00     0.210 A 
ATOM     15  C   UNL     1      46.279 130.276  16.430  1.00  0.00     0.290 A 
ATOM     16  N   UNL     1      45.872 132.015  14.301  1.00  0.00    -0.242 N 
ATOM     17  N   UNL     1      46.933 130.147  15.250  1.00  0.00     0.008 N 
ATOM     18  C   UNL     1      46.742 130.978  14.223  1.00  0.00     0.346 A 
ATOM     19  N   UNL     1      47.821 129.231  14.915  1.00  0.00    -0.055 N 
ATOM     20  C   UNL     1      47.538 130.603  13.161  1.00  0.00     0.180 A 
ATOM     21  C   UNL     1      48.212 129.483  13.644  1.00  0.00     0.364 A 
ATOM     22  H   UNL     1      45.736 132.660  13.490  1.00  0.00     0.312 HD
ATOM     23  H   UNL     1      48.157 128.456  15.531  1.00  0.00     0.514 HD
ENDBRANCH  12  13
ENDBRANCH   1   7
TORSDOF 4
ENDMDL
MODEL 5
REMARK VINA RESULT:      -8.9      1.832      7.054
REMARK SMILES [NH3+]CCc1ccc(-c2c[nH+]c3cc[nH+]n3c2)cc1
REMARK SMILES IDX 3 1 2 2 1 3 4 7 5 8 18 9 6 10 17 11 7 12 8 13 9 14 16 15
REMARK SMILES IDX 10 16 15 17 11 18 14 19 12 20 13 21
REMARK H PARENT 1 4 1 5 1 6 10 22 14 23
ROOT
ATOM      1  C   UNL     1      46.972 130.771  13.133  1.00  0.00     0.096 C 
ENDROOT
BRANCH   1   2
ATOM      2  C   UNL     1      48.337 130.070  13.192  1.00  0.00     0.263 C 
BRANCH   2   3
ATOM      3  N   UNL     1      48.286 128.843  13.991  1.00  0.00    -0.357 N 
ATOM      4  H   UNL     1      48.313 129.073  15.010  1.00  0.00     0.344 HD
ATOM      5  H   UNL     1      47.391 128.342  13.787  1.00  0.00     0.344 HD
ATOM      6  H   UNL     1      49.086 128.217  13.746  1.00  0.00     0.344 HD
ENDBRANCH   2   3
ENDBRANCH   1   2
BRANCH   1   7
ATOM      7  C   UNL     1      46.351 130.911  14.499  1.00  0.00    -0.042 A 
ATOM      8  C   UNL     1      45.839 129.788  15.165  1.00  0.00     0.004 A 
ATOM      9  C   UNL     1      46.248 132.173  15.101  1.00  0.00     0.004 A 
ATOM     10  C   UNL     1      45.241 129.924  16.421  1.00  0.00     0.009 A 
ATOM     11  C   UNL     1      45.650 132.311  16.357  1.00  0.00     0.009 A 
ATOM     12  C   UNL     1      45.141 131.187  17.032  1.00  0.00    -0.011 A 
BRANCH  12  13
ATOM     13  C   UNL     1      44.504 131.331  18.367  1.00  0.00     0.067 A 
ATOM     14  C   UNL     1      43.154 131.748  18.492  1.00  0.00     0.210 A 
ATOM     15  C   UNL     1      45.224 131.058  19.548  1.00  0.00     0.290 A 
ATOM     16  N   UNL     1      42.575 131.879  19.722  1.00  0.00    -0.242 N 
ATOM     17  N   UNL     1      44.587 131.210  20.733  1.00  0.00     0.008 N 
ATOM     18  C   UNL     1      43.315 131.605  20.825  1.00  0.00     0.346 A 
ATOM     19  N   UNL     1      45.074 131.014  21.944  1.00  0.00    -0.055 N 
ATOM     20  C   UNL     1      42.937 131.672  22.150  1.00  0.00     0.180 A 
ATOM     21  C   UNL     1      44.090 131.286  22.832  1.00  0.00     0.364 A 
ATOM     22  H   UNL     1      41.579 132.183  19.809  1.00  0.00     0.312 HD
ATOM     23  H   UNL     1      46.047 130.703  22.163  1.00  0.00     0.514 HD
ENDBRANCH  12  13
ENDBRANCH   1   7
TORSDOF 4
ENDMDL
MODEL 6
REMARK VINA RESULT:      -8.8      1.786      7.175
REMARK SMILES [NH3+]CCc1ccc(-c2c[nH+]c3cc[nH+]n3c2)cc1
REMARK SMILES IDX 3 1 2 2 1 3 4 7 5 8 18 9 6 10 17 11 7 12 8 13 9 14 16 15
REMARK SMILES IDX 10 16 15 17 11 18 14 19 12 20 13 21
REMARK H PARENT 1 4 1 5 1 6 10 22 14 23
ROOT
ATOM      1  C   UNL     1      46.134 130.716  13.737  1.00  0.00     0.096 C 
ENDROOT
BRANCH   1   2
ATOM      2  C   UNL     1      47.652 130.480  13.737  1.00  0.00     0.263 C 
BRANCH   2   3
ATOM      3  N   UNL     1      47.983 129.059  13.872  1.00  0.00    -0.357 N 
ATOM      4  H   UNL     1      48.024 128.605  12.932  1.00  0.00     0.344 HD
ATOM      5  H   UNL     1      48.922 128.971  14.326  1.00  0.00     0.344 HD
ATOM      6  H   UNL     1      47.274 128.578  14.470  1.00  0.00     0.344 HD
ENDBRANCH   2   3
ENDBRANCH   1   2
BRANCH   1   7
ATOM      7  C   UNL     1      45.599 130.937  15.129  1.00  0.00    -0.042 A 
ATOM      8  C   UNL     1      46.339 130.526  16.247  1.00  0.00     0.004 A 
ATOM      9  C   UNL     1      44.339 131.522  15.315  1.00  0.00     0.004 A 
ATOM     10  C   UNL     1      45.829 130.709  17.536  1.00  0.00     0.009 A 
ATOM     11  C   UNL     1      43.829 131.705  16.603  1.00  0.00     0.009 A 
ATOM     12  C   UNL     1      44.568 131.302  17.729  1.00  0.00    -0.011 A 
BRANCH  12  13
ATOM     13  C   UNL     1      44.027 131.495  19.099  1.00  0.00     0.067 A 
ATOM     14  C   UNL     1      42.720 132.005  19.304  1.00  0.00     0.210 A 
ATOM     15  C   UNL     1      44.799 131.177  20.235  1.00  0.00     0.290 A 
ATOM     16  N   UNL     1      42.229 132.181  20.566  1.00  0.00    -0.242 N 
ATOM     17  N   UNL     1      44.248 131.378  21.456  1.00  0.00     0.008 N 
ATOM     18  C   UNL     1      43.014 131.860  21.623  1.00  0.00     0.346 A 
ATOM     19  N   UNL     1      44.795 131.153  22.636  1.00  0.00    -0.055 N 
ATOM     20  C   UNL     1      42.726 131.958  22.968  1.00  0.00     0.180 A 
ATOM     21  C   UNL     1      43.889 131.496  23.582  1.00  0.00     0.364 A 
ATOM     22  H   UNL     1      41.263 132.554  20.711  1.00  0.00     0.312 HD
ATOM     23  H   UNL     1      45.755 130.775  22.798  1.00  0.00     0.514 HD
ENDBRANCH  12  13
ENDBRANCH   1   7
TORSDOF 4
ENDMDL
MODEL 7
REMARK VINA RESULT:      -8.8      1.811      7.125
REMARK SMILES [NH3+]CCc1ccc(-c2c[nH+]c3cc[nH+]n3c2)cc1
REMARK SMILES IDX 3 1 2 2 1 3 4 7 5 8 18 9 6 10 17 11 7 12 8 13 9 14 16 15
REMARK SMILES IDX 10 16 15 17 11 18 14 19 12 20 13 21
REMARK H PARENT 1 4 1 5 1 6 10 22 14 23
ROOT
ATOM      1  C   UNL     1      46.191 130.608  13.718  1.00  0.00     0.096 C 
ENDROOT
BRANCH   1   2
ATOM      2  C   UNL     1      47.726 130.674  13.722  1.00  0.00     0.263 C 
BRANCH   2   3
ATOM      3  N   UNL     1      48.329 129.357  13.501  1.00  0.00    -0.357 N 
ATOM      4  H   UNL     1      49.238 129.455  12.994  1.00  0.00     0.344 HD
ATOM      5  H   UNL     1      48.512 128.907  14.428  1.00  0.00     0.344 HD
ATOM      6  H   UNL     1      47.679 128.748  12.954  1.00  0.00     0.344 HD
ENDBRANCH   2   3
ENDBRANCH   1   2
BRANCH   1   7
ATOM      7  C   UNL     1      45.616 130.807  15.097  1.00  0.00    -0.042 A 
ATOM      8  C   UNL     1      44.407 131.497  15.269  1.00  0.00     0.004 A 
ATOM      9  C   UNL     1      46.304 130.335  16.223  1.00  0.00     0.004 A 
ATOM     10  C   UNL     1      43.888 131.702  16.551  1.00  0.00     0.009 A 
ATOM     11  C   UNL     1      45.786 130.540  17.505  1.00  0.00     0.009 A 
ATOM     12  C   UNL     1      44.571 131.225  17.684  1.00  0.00    -0.011 A 
BRANCH  12  13
ATOM     13  C   UNL     1      44.019 131.444  19.045  1.00  0.00     0.067 A 
ATOM     14  C   UNL     1      42.703 131.940  19.230  1.00  0.00     0.210 A 
ATOM     15  C   UNL     1      44.789 131.168  20.194  1.00  0.00     0.290 A 
ATOM     16  N   UNL     1      42.202 132.140  20.485  1.00  0.00    -0.242 N 
ATOM     17  N   UNL     1      44.228 131.391  21.406  1.00  0.00     0.008 N 
ATOM     18  C   UNL     1      42.986 131.858  21.554  1.00  0.00     0.346 A 
ATOM     19  N   UNL     1      44.771 131.205  22.595  1.00  0.00    -0.055 N 
ATOM     20  C   UNL     1      42.688 131.987  22.894  1.00  0.00     0.180 A 
ATOM     21  C   UNL     1      43.855 131.558  23.526  1.00  0.00     0.364 A 
ATOM     22  H   UNL     1      41.230 132.502  20.615  1.00  0.00     0.312 HD
ATOM     23  H   UNL     1      45.736 130.846  22.771  1.00  0.00     0.514 HD
ENDBRANCH  12  13
ENDBRANCH   1   7
TORSDOF 4
ENDMDL
MODEL 8
REMARK VINA RESULT:      -8.6      1.673      7.212
REMARK SMILES [NH3+]CCc1ccc(-c2c[nH+]c3cc[nH+]n3c2)cc1
REMARK SMILES IDX 3 1 2 2 1 3 4 7 5 8 18 9 6 10 17 11 7 12 8 13 9 14 16 15
REMARK SMILES IDX 10 16 15 17 11 18 14 19 12 20 13 21
REMARK H PARENT 1 4 1 5 1 6 10 22 14 23
ROOT
ATOM      1  C   UNL     1      46.872 131.050  13.432  1.00  0.00     0.096 C 
ENDROOT
BRANCH   1   2
ATOM      2  C   UNL     1      48.085 130.133  13.211  1.00  0.00     0.263 C 
BRANCH   2   3
ATOM      3  N   UNL     1      47.933 128.852  13.903  1.00  0.00    -0.357 N 
ATOM      4  H   UNL     1      48.333 128.078  13.326  1.00  0.00     0.344 HD
ATOM      5  H   UNL     1      48.453 128.892  14.810  1.00  0.00     0.344 HD
ATOM      6  H   UNL     1      46.924 128.664  14.102  1.00  0.00     0.344 HD
ENDBRANCH   2   3
ENDBRANCH   1   2
BRANCH   1   7
ATOM      7  C   UNL     1      46.431 131.061  14.874  1.00  0.00    -0.042 A 
ATOM      8  C   UNL     1      46.643 129.940  15.690  1.00  0.00     0.004 A 
ATOM      9  C   UNL     1      45.771 132.180  15.400  1.00  0.00     0.004 A 
ATOM     10  C   UNL     1      46.211 129.943  17.019  1.00  0.00     0.009 A 
ATOM     11  C   UNL     1      45.338 132.184  16.730  1.00  0.00     0.009 A 
ATOM     12  C   UNL     1      45.553 131.066  17.555  1.00  0.00    -0.011 A 
BRANCH  12  13
ATOM     13  C   UNL     1      45.093 131.067  18.967  1.00  0.00     0.067 A 
ATOM     14  C   UNL     1      45.877 130.478  19.993  1.00  0.00     0.210 A 
ATOM     15  C   UNL     1      43.863 131.654  19.329  1.00  0.00     0.290 A 
ATOM     16  N   UNL     1      45.448 130.483  21.289  1.00  0.00    -0.242 N 
ATOM     17  N   UNL     1      43.500 131.620  20.634  1.00  0.00     0.008 N 
ATOM     18  C   UNL     1      44.256 131.060  21.581  1.00  0.00     0.346 A 
ATOM     19  N   UNL     1      42.399 132.102  21.178  1.00  0.00    -0.055 N 
ATOM     20  C   UNL     1      43.635 131.174  22.806  1.00  0.00     0.180 A 
ATOM     21  C   UNL     1      42.451 131.846  22.506  1.00  0.00     0.364 A 
ATOM     22  H   UNL     1      46.030 130.051  22.041  1.00  0.00     0.312 HD
ATOM     23  H   UNL     1      41.632 132.593  20.665  1.00  0.00     0.514 HD
ENDBRANCH  12  13
ENDBRANCH   1   7
TORSDOF 4
ENDMDL
MODEL 9
REMARK VINA RESULT:      -8.6      1.847      6.985
REMARK SMILES [NH3+]CCc1ccc(-c2c[nH+]c3cc[nH+]n3c2)cc1
REMARK SMILES IDX 3 1 2 2 1 3 4 7 5 8 18 9 6 10 17 11 7 12 8 13 9 14 16 15
REMARK SMILES IDX 10 16 15 17 11 18 14 19 12 20 13 21
REMARK H PARENT 1 4 1 5 1 6 10 22 14 23
ROOT
ATOM      1  C   UNL     1      47.177 130.634  13.111  1.00  0.00     0.096 C 
ENDROOT
BRANCH   1   2
ATOM      2  C   UNL     1      48.341 129.635  13.201  1.00  0.00     0.263 C 
BRANCH   2   3
ATOM      3  N   UNL     1      48.605 129.229  14.583  1.00  0.00    -0.357 N 
ATOM      4  H   UNL     1      49.220 128.384  14.602  1.00  0.00     0.344 HD
ATOM      5  H   UNL     1      49.096 130.008  15.078  1.00  0.00     0.344 HD
ATOM      6  H   UNL     1      47.707 129.027  15.080  1.00  0.00     0.344 HD
ENDBRANCH   2   3
ENDBRANCH   1   2
BRANCH   1   7
ATOM      7  C   UNL     1      46.482 130.809  14.437  1.00  0.00    -0.042 A 
ATOM      8  C   UNL     1      46.359 132.083  15.012  1.00  0.00     0.004 A 
ATOM      9  C   UNL     1      45.984 129.693  15.125  1.00  0.00     0.004 A 
ATOM     10  C   UNL     1      45.736 132.239  16.253  1.00  0.00     0.009 A 
ATOM     11  C   UNL     1      45.361 129.849  16.367  1.00  0.00     0.009 A 
ATOM     12  C   UNL     1      45.229 131.124  16.945  1.00  0.00    -0.011 A 
BRANCH  12  13
ATOM     13  C   UNL     1      44.569 131.292  18.264  1.00  0.00     0.067 A 
ATOM     14  C   UNL     1      43.226 131.741  18.359  1.00  0.00     0.210 A 
ATOM     15  C   UNL     1      45.258 131.010  19.462  1.00  0.00     0.290 A 
ATOM     16  N   UNL     1      42.625 131.894  19.576  1.00  0.00    -0.242 N 
ATOM     17  N   UNL     1      44.599 131.185  20.633  1.00  0.00     0.008 N 
ATOM     18  C   UNL     1      43.335 131.610  20.695  1.00  0.00     0.346 A 
ATOM     19  N   UNL     1      45.056 130.986  21.854  1.00  0.00    -0.055 N 
ATOM     20  C   UNL     1      42.932 131.694  22.011  1.00  0.00     0.180 A 
ATOM     21  C   UNL     1      44.061 131.287  22.721  1.00  0.00     0.364 A 
ATOM     22  H   UNL     1      41.635 132.221  19.640  1.00  0.00     0.312 HD
ATOM     23  H   UNL     1      46.017 130.653  22.096  1.00  0.00     0.514 HD
ENDBRANCH  12  13
ENDBRANCH   1   7
TORSDOF 4
ENDMDL


