MODEL 1
REMARK VINA RESULT:      -7.8      0.000      0.000
REMARK SMILES N#CC[C@H]1C[C@H]1/C(O)=N/CCc1ccc(-c2cnc3ccnn3c2)cc1
REMARK SMILES IDX 7 1 8 2 9 4 10 5 11 6 12 7 13 8 26 9 14 10 25 11 15 12 16 13
REMARK SMILES IDX 17 14 24 15 18 16 23 17 19 18 22 19 20 20 21 21 6 22 5 23
REMARK SMILES IDX 4 24 3 25 2 26 1 27
REMARK H PARENT 8 3
ROOT
ATOM      1  C   UNL     1      42.621 127.849  23.690  1.00  0.00     0.184 C 
ENDROOT
BRANCH   1   2
ATOM      2  O   UNL     1      41.433 127.117  23.691  1.00  0.00    -0.496 OA
ATOM      3  H   UNL     1      41.414 126.146  23.979  1.00  0.00     0.294 HD
ENDBRANCH   1   2
BRANCH   1   4
ATOM      4  N   UNL     1      42.698 128.976  23.051  1.00  0.00    -0.255 NA
BRANCH   4   5
ATOM      5  C   UNL     1      43.601 130.058  23.433  1.00  0.00     0.150 C 
BRANCH   5   6
ATOM      6  C   UNL     1      43.213 131.353  22.714  1.00  0.00     0.059 C 
BRANCH   6   7
ATOM      7  C   UNL     1      43.784 131.401  21.319  1.00  0.00    -0.046 A 
ATOM      8  C   UNL     1      45.131 131.077  21.095  1.00  0.00     0.004 A 
ATOM      9  C   UNL     1      42.961 131.705  20.225  1.00  0.00     0.004 A 
ATOM     10  C   UNL     1      45.641 131.036  19.795  1.00  0.00     0.009 A 
ATOM     11  C   UNL     1      43.471 131.669  18.924  1.00  0.00     0.009 A 
ATOM     12  C   UNL     1      44.814 131.320  18.694  1.00  0.00    -0.015 A 
BRANCH  12  13
ATOM     13  C   UNL     1      45.343 131.232  17.310  1.00  0.00     0.018 A 
ATOM     14  C   UNL     1      44.969 132.178  16.323  1.00  0.00     0.124 A 
ATOM     15  C   UNL     1      46.225 130.197  16.935  1.00  0.00     0.125 A 
ATOM     16  N   UNL     1      45.451 132.085  15.049  1.00  0.00    -0.236 NA
ATOM     17  N   UNL     1      46.666 130.169  15.655  1.00  0.00    -0.222 N 
ATOM     18  C   UNL     1      46.298 131.074  14.746  1.00  0.00     0.154 A 
ATOM     19  N   UNL     1      47.493 129.292  15.115  1.00  0.00    -0.175 NA
ATOM     20  C   UNL     1      46.897 130.799  13.542  1.00  0.00     0.071 A 
ATOM     21  C   UNL     1      47.648 129.658  13.819  1.00  0.00     0.138 A 
ENDBRANCH  12  13
ENDBRANCH   6   7
ENDBRANCH   5   6
ENDBRANCH   4   5
ENDBRANCH   1   4
BRANCH   1  22
ATOM     22  C   UNL     1      43.837 127.319  24.396  1.00  0.00     0.079 C 
ATOM     23  C   UNL     1      45.156 127.611  23.684  1.00  0.00     0.019 C 
ATOM     24  C   UNL     1      44.627 126.184  23.734  1.00  0.00     0.016 C 
BRANCH  24  25
ATOM     25  C   UNL     1      44.126 125.626  22.394  1.00  0.00     0.124 C 
BRANCH  25  26
ATOM     26  C   UNL     1      43.172 124.539  22.629  1.00  0.00     0.062 C 
ATOM     27  N   UNL     1      42.420 123.680  22.814  1.00  0.00    -0.198 NA
ENDBRANCH  25  26
ENDBRANCH  24  25
ENDBRANCH   1  22
TORSDOF 9
ENDMDL
MODEL 2
REMARK VINA RESULT:      -7.0      1.393      1.528
REMARK SMILES N#CC[C@H]1C[C@H]1/C(O)=N/CCc1ccc(-c2cnc3ccnn3c2)cc1
REMARK SMILES IDX 7 1 8 2 9 4 10 5 11 6 12 7 13 8 26 9 14 10 25 11 15 12 16 13
REMARK SMILES IDX 17 14 24 15 18 16 23 17 19 18 22 19 20 20 21 21 6 22 5 23
REMARK SMILES IDX 4 24 3 25 2 26 1 27
REMARK H PARENT 8 3
ROOT
ATOM      1  C   UNL     1      44.109 127.601  23.645  1.00  0.00     0.184 C 
ENDROOT
BRANCH   1   2
ATOM      2  O   UNL     1      45.103 127.603  24.625  1.00  0.00    -0.496 OA
ATOM      3  H   UNL     1      45.098 128.282  25.377  1.00  0.00     0.294 HD
ENDBRANCH   1   2
BRANCH   1   4
ATOM      4  N   UNL     1      43.947 128.629  22.871  1.00  0.00    -0.255 NA
BRANCH   4   5
ATOM      5  C   UNL     1      43.041 129.733  23.177  1.00  0.00     0.150 C 
BRANCH   5   6
ATOM      6  C   UNL     1      43.709 131.074  22.857  1.00  0.00     0.059 C 
BRANCH   6   7
ATOM      7  C   UNL     1      44.214 131.112  21.437  1.00  0.00    -0.046 A 
ATOM      8  C   UNL     1      45.139 130.156  20.989  1.00  0.00     0.004 A 
ATOM      9  C   UNL     1      43.714 132.059  20.531  1.00  0.00     0.004 A 
ATOM     10  C   UNL     1      45.542 130.135  19.652  1.00  0.00     0.009 A 
ATOM     11  C   UNL     1      44.121 132.043  19.193  1.00  0.00     0.009 A 
ATOM     12  C   UNL     1      45.029 131.072  18.736  1.00  0.00    -0.015 A 
BRANCH  12  13
ATOM     13  C   UNL     1      45.421 131.021  17.306  1.00  0.00     0.018 A 
ATOM     14  C   UNL     1      44.678 131.716  16.319  1.00  0.00     0.124 A 
ATOM     15  C   UNL     1      46.540 130.271  16.886  1.00  0.00     0.125 A 
ATOM     16  N   UNL     1      45.038 131.658  15.004  1.00  0.00    -0.236 NA
ATOM     17  N   UNL     1      46.840 130.261  15.565  1.00  0.00    -0.222 N 
ATOM     18  C   UNL     1      46.123 130.926  14.658  1.00  0.00     0.154 A 
ATOM     19  N   UNL     1      47.841 129.630  14.980  1.00  0.00    -0.175 NA
ATOM     20  C   UNL     1      46.657 130.737  13.408  1.00  0.00     0.071 A 
ATOM     21  C   UNL     1      47.748 129.906  13.656  1.00  0.00     0.138 A 
ENDBRANCH  12  13
ENDBRANCH   6   7
ENDBRANCH   5   6
ENDBRANCH   4   5
ENDBRANCH   1   4
BRANCH   1  22
ATOM     22  C   UNL     1      43.190 126.420  23.502  1.00  0.00     0.079 C 
ATOM     23  C   UNL     1      43.456 125.293  24.498  1.00  0.00     0.019 C 
ATOM     24  C   UNL     1      43.782 125.090  23.024  1.00  0.00     0.016 C 
BRANCH  24  25
ATOM     25  C   UNL     1      45.280 125.032  22.689  1.00  0.00     0.124 C 
BRANCH  25  26
ATOM     26  C   UNL     1      45.644 123.682  22.251  1.00  0.00     0.062 C 
ATOM     27  N   UNL     1      45.930 122.616  21.903  1.00  0.00    -0.198 NA
ENDBRANCH  25  26
ENDBRANCH  24  25
ENDBRANCH   1  22
TORSDOF 9
ENDMDL
MODEL 3
REMARK VINA RESULT:      -5.6      1.351      1.437
REMARK SMILES N#CC[C@H]1C[C@H]1/C(O)=N/CCc1ccc(-c2cnc3ccnn3c2)cc1
REMARK SMILES IDX 7 1 8 2 9 4 10 5 11 6 12 7 13 8 26 9 14 10 25 11 15 12 16 13
REMARK SMILES IDX 17 14 24 15 18 16 23 17 19 18 22 19 20 20 21 21 6 22 5 23
REMARK SMILES IDX 4 24 3 25 2 26 1 27
REMARK H PARENT 8 3
ROOT
ATOM      1  C   UNL     1      44.064 128.221  23.331  1.00  0.00     0.184 C 
ENDROOT
BRANCH   1   2
ATOM      2  O   UNL     1      45.217 128.233  22.543  1.00  0.00    -0.496 OA
ATOM      3  H   UNL     1      45.623 127.373  22.193  1.00  0.00     0.294 HD
ENDBRANCH   1   2
BRANCH   1   4
ATOM      4  N   UNL     1      43.043 128.954  23.012  1.00  0.00    -0.255 NA
BRANCH   4   5
ATOM      5  C   UNL     1      42.718 130.215  23.674  1.00  0.00     0.150 C 
BRANCH   5   6
ATOM      6  C   UNL     1      43.834 131.239  23.444  1.00  0.00     0.059 C 
BRANCH   6   7
ATOM      7  C   UNL     1      44.236 131.299  21.992  1.00  0.00    -0.046 A 
ATOM      8  C   UNL     1      45.587 131.424  21.637  1.00  0.00     0.004 A 
ATOM      9  C   UNL     1      43.271 131.162  20.983  1.00  0.00     0.004 A 
ATOM     10  C   UNL     1      45.971 131.392  20.294  1.00  0.00     0.009 A 
ATOM     11  C   UNL     1      43.654 131.134  19.638  1.00  0.00     0.009 A 
ATOM     12  C   UNL     1      45.009 131.235  19.280  1.00  0.00    -0.015 A 
BRANCH  12  13
ATOM     13  C   UNL     1      45.421 131.154  17.857  1.00  0.00     0.018 A 
ATOM     14  C   UNL     1      45.478 132.316  17.045  1.00  0.00     0.124 A 
ATOM     15  C   UNL     1      45.756 129.918  17.267  1.00  0.00     0.125 A 
ATOM     16  N   UNL     1      45.847 132.234  15.734  1.00  0.00    -0.236 NA
ATOM     17  N   UNL     1      46.116 129.911  15.961  1.00  0.00    -0.222 N 
ATOM     18  C   UNL     1      46.163 131.021  15.221  1.00  0.00     0.154 A 
ATOM     19  N   UNL     1      46.467 128.866  15.236  1.00  0.00    -0.175 NA
ATOM     20  C   UNL     1      46.559 130.715  13.943  1.00  0.00     0.071 A 
ATOM     21  C   UNL     1      46.743 129.335  13.993  1.00  0.00     0.138 A 
ENDBRANCH  12  13
ENDBRANCH   6   7
ENDBRANCH   5   6
ENDBRANCH   4   5
ENDBRANCH   1   4
BRANCH   1  22
ATOM     22  C   UNL     1      44.011 127.387  24.580  1.00  0.00     0.079 C 
ATOM     23  C   UNL     1      44.674 126.018  24.451  1.00  0.00     0.019 C 
ATOM     24  C   UNL     1      43.159 126.113  24.569  1.00  0.00     0.016 C 
BRANCH  24  25
ATOM     25  C   UNL     1      42.382 125.761  23.292  1.00  0.00     0.124 C 
BRANCH  25  26
ATOM     26  C   UNL     1      41.109 125.123  23.639  1.00  0.00     0.062 C 
ATOM     27  N   UNL     1      40.104 124.620  23.914  1.00  0.00    -0.198 NA
ENDBRANCH  25  26
ENDBRANCH  24  25
ENDBRANCH   1  22
TORSDOF 9
ENDMDL
MODEL 4
REMARK VINA RESULT:      -5.4      1.769      2.037
REMARK SMILES N#CC[C@H]1C[C@H]1/C(O)=N/CCc1ccc(-c2cnc3ccnn3c2)cc1
REMARK SMILES IDX 7 1 8 2 9 4 10 5 11 6 12 7 13 8 26 9 14 10 25 11 15 12 16 13
REMARK SMILES IDX 17 14 24 15 18 16 23 17 19 18 22 19 20 20 21 21 6 22 5 23
REMARK SMILES IDX 4 24 3 25 2 26 1 27
REMARK H PARENT 8 3
ROOT
ATOM      1  C   UNL     1      44.442 128.324  23.431  1.00  0.00     0.184 C 
ENDROOT
BRANCH   1   2
ATOM      2  O   UNL     1      44.932 127.764  24.612  1.00  0.00    -0.496 OA
ATOM      3  H   UNL     1      45.310 126.824  24.631  1.00  0.00     0.294 HD
ENDBRANCH   1   2
BRANCH   1   4
ATOM      4  N   UNL     1      44.107 129.576  23.388  1.00  0.00    -0.255 NA
BRANCH   4   5
ATOM      5  C   UNL     1      42.912 130.067  22.706  1.00  0.00     0.150 C 
BRANCH   5   6
ATOM      6  C   UNL     1      43.135 131.498  22.207  1.00  0.00     0.059 C 
BRANCH   6   7
ATOM      7  C   UNL     1      43.576 131.517  20.766  1.00  0.00    -0.046 A 
ATOM      8  C   UNL     1      44.937 131.425  20.440  1.00  0.00     0.004 A 
ATOM      9  C   UNL     1      42.626 131.559  19.734  1.00  0.00     0.004 A 
ATOM     10  C   UNL     1      45.342 131.354  19.105  1.00  0.00     0.009 A 
ATOM     11  C   UNL     1      43.030 131.493  18.397  1.00  0.00     0.009 A 
ATOM     12  C   UNL     1      44.392 131.376  18.069  1.00  0.00    -0.015 A 
BRANCH  12  13
ATOM     13  C   UNL     1      44.817 131.255  16.653  1.00  0.00     0.018 A 
ATOM     14  C   UNL     1      43.863 131.144  15.610  1.00  0.00     0.124 A 
ATOM     15  C   UNL     1      46.184 131.235  16.304  1.00  0.00     0.125 A 
ATOM     16  N   UNL     1      44.261 131.022  14.310  1.00  0.00    -0.236 NA
ATOM     17  N   UNL     1      46.506 131.114  14.994  1.00  0.00    -0.222 N 
ATOM     18  C   UNL     1      45.586 131.013  14.033  1.00  0.00     0.154 A 
ATOM     19  N   UNL     1      47.717 131.082  14.470  1.00  0.00    -0.175 NA
ATOM     20  C   UNL     1      46.197 130.905  12.808  1.00  0.00     0.071 A 
ATOM     21  C   UNL     1      47.553 130.953  13.130  1.00  0.00     0.138 A 
ENDBRANCH  12  13
ENDBRANCH   6   7
ENDBRANCH   5   6
ENDBRANCH   4   5
ENDBRANCH   1   4
BRANCH   1  22
ATOM     22  C   UNL     1      44.262 127.471  22.207  1.00  0.00     0.079 C 
ATOM     23  C   UNL     1      44.371 125.969  22.466  1.00  0.00     0.019 C 
ATOM     24  C   UNL     1      45.469 126.681  21.686  1.00  0.00     0.016 C 
BRANCH  24  25
ATOM     25  C   UNL     1      46.809 126.818  22.423  1.00  0.00     0.124 C 
BRANCH  25  26
ATOM     26  C   UNL     1      47.128 125.570  23.120  1.00  0.00     0.062 C 
ATOM     27  N   UNL     1      47.378 124.583  23.670  1.00  0.00    -0.198 NA
ENDBRANCH  25  26
ENDBRANCH  24  25
ENDBRANCH   1  22
TORSDOF 9
ENDMDL


