REMARK SMILES [O-]c1nccc2ccc(-c3cccc([C@H]4CO4)c3)cc12
REMARK SMILES IDX 1 1 2 2 3 3 4 4 5 5 6 6 7 7 8 8 9 9 19 10 20 11 10 12 11 13
REMARK SMILES IDX 18 14 12 15 14 16 13 17 15 18 16 19 17 20
REMARK H PARENT
ROOT
ATOM      1  O   UNL     1       2.191  -3.943  -0.813  1.00  0.00    -0.858 OA
ATOM      2  C   UNL     1       2.458  -3.134  -1.912  1.00  0.00    -0.005 A 
ATOM      3  N   UNL     1       3.208  -3.630  -2.932  1.00  0.00    -0.272 NA
ATOM      4  C   UNL     1       3.505  -2.892  -4.034  1.00  0.00     0.111 A 
ATOM      5  C   UNL     1       3.038  -1.582  -4.148  1.00  0.00     0.029 A 
ATOM      6  C   UNL     1       2.262  -1.036  -3.118  1.00  0.00    -0.016 A 
ATOM      7  C   UNL     1       1.779   0.277  -3.206  1.00  0.00     0.009 A 
ATOM      8  C   UNL     1       1.006   0.813  -2.175  1.00  0.00     0.009 A 
ATOM      9  C   UNL     1       0.701   0.049  -1.035  1.00  0.00    -0.018 A 
ATOM     10  C   UNL     1       1.185  -1.269  -0.945  1.00  0.00     0.018 A 
ATOM     11  C   UNL     1       1.964  -1.818  -1.978  1.00  0.00    -0.007 A 
ENDROOT
BRANCH   9  12
ATOM     12  C   UNL     1      -0.120   0.627   0.060  1.00  0.00    -0.018 A 
ATOM     13  C   UNL     1      -1.249   1.413  -0.234  1.00  0.00     0.009 A 
ATOM     14  C   UNL     1       0.217   0.394   1.406  1.00  0.00     0.015 A 
ATOM     15  C   UNL     1      -2.026   1.948   0.796  1.00  0.00     0.001 A 
ATOM     16  C   UNL     1      -0.552   0.948   2.441  1.00  0.00    -0.016 A 
ATOM     17  C   UNL     1      -1.684   1.712   2.129  1.00  0.00     0.006 A 
BRANCH  16  18
ATOM     18  C   UNL     1      -0.198   0.668   3.872  1.00  0.00     0.174 C 
ATOM     19  C   UNL     1       1.098   1.210   4.341  1.00  0.00     0.198 C 
ATOM     20  O   UNL     1      -0.121   1.852   4.632  1.00  0.00    -0.368 OA
ENDBRANCH  16  18
ENDBRANCH   9  12
TORSDOF 2


