REMARK SMILES CC(=O)c1c(-c2cccc3ncoc23)cc(C(=O)N[C@@H]2C=CCC2)c(F)c1O
REMARK SMILES IDX 4 1 5 2 15 3 16 4 25 5 26 6 27 7 2 8 1 9 3 10 6 11 7 12
REMARK SMILES IDX 14 13 8 14 13 15 10 16 9 17 12 18 11 19 28 20 17 22 19 23
REMARK SMILES IDX 18 24 20 26 21 27 24 28 22 29 23 30
REMARK H PARENT 28 21 19 25
ROOT
ATOM      1  C   UNL     1      -0.830   0.955  -1.029  1.00  0.00     0.070 A 
ATOM      2  C   UNL     1      -0.865  -0.405  -0.629  1.00  0.00     0.001 A 
ATOM      3  C   UNL     1      -0.418  -0.761   0.653  1.00  0.00     0.026 A 
ATOM      4  C   UNL     1       0.041   0.208   1.556  1.00  0.00     0.080 A 
ATOM      5  C   UNL     1       0.026   1.561   1.174  1.00  0.00     0.178 A 
ATOM      6  F   UNL     1       0.388   2.527   2.058  1.00  0.00    -0.202 F 
ATOM      7  C   UNL     1      -0.398   1.933  -0.111  1.00  0.00     0.163 A 
ENDROOT
BRANCH   1   8
ATOM      8  C   UNL     1      -1.204   1.374  -2.403  1.00  0.00     0.164 C 
ATOM      9  C   UNL     1      -0.628   0.702  -3.612  1.00  0.00     0.093 C 
ATOM     10  O   UNL     1      -2.014   2.326  -2.564  1.00  0.00    -0.294 OA
ENDBRANCH   1   8
BRANCH   2  11
ATOM     11  C   UNL     1      -1.409  -1.470  -1.500  1.00  0.00     0.028 A 
ATOM     12  C   UNL     1      -0.633  -2.598  -1.851  1.00  0.00     0.013 A 
ATOM     13  C   UNL     1      -2.718  -1.423  -1.988  1.00  0.00     0.162 A 
ATOM     14  C   UNL     1      -1.170  -3.610  -2.679  1.00  0.00     0.003 A 
ATOM     15  O   UNL     1      -3.638  -0.516  -1.795  1.00  0.00    -0.443 OA
ATOM     16  C   UNL     1      -3.233  -2.399  -2.785  1.00  0.00     0.110 A 
ATOM     17  C   UNL     1      -2.490  -3.514  -3.160  1.00  0.00     0.032 A 
ATOM     18  C   UNL     1      -4.701  -0.927  -2.467  1.00  0.00     0.309 A 
ATOM     19  N   UNL     1      -4.504  -2.108  -3.111  1.00  0.00    -0.217 NA
ENDBRANCH   2  11
BRANCH   7  20
ATOM     20  O   UNL     1      -0.379   3.278  -0.489  1.00  0.00    -0.504 OA
ATOM     21  H   UNL     1      -0.070   4.011   0.138  1.00  0.00     0.293 HD
ENDBRANCH   7  20
BRANCH   4  22
ATOM     22  C   UNL     1       0.501  -0.208   2.901  1.00  0.00     0.254 C 
ATOM     23  N   UNL     1       1.575   0.482   3.559  1.00  0.00    -0.346 N 
ATOM     24  O   UNL     1      -0.040  -1.202   3.459  1.00  0.00    -0.269 OA
ATOM     25  H   UNL     1       2.182   1.119   2.994  1.00  0.00     0.164 HD
BRANCH  23  26
ATOM     26  C   UNL     1       1.997   0.135   4.917  1.00  0.00     0.105 C 
ATOM     27  C   UNL     1       2.735   1.270   5.536  1.00  0.00    -0.007 C 
ATOM     28  C   UNL     1       3.015  -1.017   4.902  1.00  0.00     0.033 C 
ATOM     29  C   UNL     1       3.989   0.962   5.815  1.00  0.00    -0.029 C 
ATOM     30  C   UNL     1       4.328  -0.434   5.435  1.00  0.00     0.029 C 
ENDBRANCH  23  26
ENDBRANCH   4  22
TORSDOF 5


