REMARK SMILES Nc1c(C(=O)[N-]Cc2ccc[nH]2)cc(-n2nc3ccccc3n2)c(O)c1N
REMARK SMILES IDX 4 1 5 2 3 3 2 4 26 5 13 6 24 7 14 8 1 9 27 12 25 15 15 17
REMARK SMILES IDX 16 18 23 19 17 20 22 21 18 22 21 23 19 24 20 25 6 26 7 27
REMARK SMILES IDX 8 28 9 29 12 30 10 31 11 32
REMARK H PARENT 1 10 1 11 27 13 27 14 25 16 12 33
ROOT
ATOM      1  C   UNL     1      -2.471  -1.585   0.470  1.00  0.00     0.084 C 
ATOM      2  O   UNL     1      -3.175  -2.437   1.077  1.00  0.00    -0.315 OA
ENDROOT
BRANCH   1   3
ATOM      3  C   UNL     1      -1.029  -1.834   0.239  1.00  0.00     0.027 A 
ATOM      4  C   UNL     1      -0.523  -3.123  -0.049  1.00  0.00     0.068 A 
ATOM      5  C   UNL     1       0.873  -3.312  -0.189  1.00  0.00     0.100 A 
ATOM      6  C   UNL     1      -0.143  -0.757   0.363  1.00  0.00     0.046 A 
ATOM      7  C   UNL     1       1.752  -2.210  -0.066  1.00  0.00     0.168 A 
ATOM      8  C   UNL     1       1.243  -0.925   0.227  1.00  0.00     0.130 A 
BRANCH   4   9
ATOM      9  N   UNL     1      -1.418  -4.234  -0.214  1.00  0.00    -0.396 N 
ATOM     10  H   UNL     1      -2.393  -4.099  -0.561  1.00  0.00     0.156 HD
ATOM     11  H   UNL     1      -1.120  -5.212  -0.008  1.00  0.00     0.156 HD
ENDBRANCH   4   9
BRANCH   5  12
ATOM     12  N   UNL     1       1.391  -4.617  -0.486  1.00  0.00    -0.394 N 
ATOM     13  H   UNL     1       0.845  -5.304  -1.050  1.00  0.00     0.156 HD
ATOM     14  H   UNL     1       2.314  -4.934  -0.118  1.00  0.00     0.156 HD
ENDBRANCH   5  12
BRANCH   7  15
ATOM     15  O   UNL     1       3.128  -2.367  -0.264  1.00  0.00    -0.504 OA
ATOM     16  H   UNL     1       3.559  -3.222  -0.586  1.00  0.00     0.293 HD
ENDBRANCH   7  15
BRANCH   8  17
ATOM     17  N   UNL     1       2.113   0.220   0.378  1.00  0.00    -0.146 N 
ATOM     18  N   UNL     1       1.662   1.459   0.580  1.00  0.00    -0.148 NA
ATOM     19  N   UNL     1       3.445   0.163   0.342  1.00  0.00    -0.148 NA
ATOM     20  C   UNL     1       2.762   2.220   0.675  1.00  0.00     0.113 A 
ATOM     21  C   UNL     1       3.854   1.426   0.528  1.00  0.00     0.113 A 
ATOM     22  C   UNL     1       2.864   3.592   0.887  1.00  0.00     0.032 A 
ATOM     23  C   UNL     1       5.151   1.928   0.580  1.00  0.00     0.032 A 
ATOM     24  C   UNL     1       4.160   4.141   0.946  1.00  0.00     0.002 A 
ATOM     25  C   UNL     1       5.299   3.313   0.792  1.00  0.00     0.002 A 
ENDBRANCH   8  17
ENDBRANCH   1   3
BRANCH   1  26
ATOM     26  N   UNL     1      -3.057  -0.351   0.037  1.00  0.00    -0.644 NA
BRANCH  26  27
ATOM     27  C   UNL     1      -4.476  -0.044   0.168  1.00  0.00    -0.062 C 
BRANCH  27  28
ATOM     28  C   UNL     1      -5.279  -0.905  -0.757  1.00  0.00    -0.003 A 
ATOM     29  C   UNL     1      -5.299  -0.799  -2.134  1.00  0.00     0.021 A 
ATOM     30  N   UNL     1      -6.042  -1.939  -0.356  1.00  0.00    -0.366 N 
ATOM     31  C   UNL     1      -6.122  -1.812  -2.585  1.00  0.00     0.019 A 
ATOM     32  C   UNL     1      -6.561  -2.493  -1.467  1.00  0.00     0.082 A 
ATOM     33  H   UNL     1      -6.197  -2.261   0.626  1.00  0.00     0.166 HD
ENDBRANCH  27  28
ENDBRANCH  26  27
ENDBRANCH   1  26
TORSDOF 8


