REMARK SMILES CC(=O)c1ccc(-c2ccc(OC(=O)C(=O)[C@@H](F)[C@@H](O)C(C)C)cc2)c2c[n-]nc12
REMARK SMILES IDX 13 1 14 2 12 3 11 4 8 5 9 6 25 7 10 8 24 9 7 10 4 11 5 12
REMARK SMILES IDX 30 13 6 14 29 15 26 16 28 17 27 18 2 19 1 20 3 21 15 22
REMARK SMILES IDX 16 23 17 24 18 25 19 26 20 27 21 29 22 30 23 31
REMARK H PARENT 20 28
ROOT
ATOM      1  C   UNL     1       2.672   1.989   1.475  1.00  0.00     0.383 C 
ATOM      2  O   UNL     1       2.528   2.433   0.304  1.00  0.00    -0.242 OA
ENDROOT
BRANCH   1   3
ATOM      3  O   UNL     1       1.846   0.966   1.962  1.00  0.00    -0.421 OA
BRANCH   3   4
ATOM      4  C   UNL     1       0.628   0.566   1.391  1.00  0.00     0.131 A 
ATOM      5  C   UNL     1      -1.814  -0.323   0.298  1.00  0.00    -0.018 A 
ATOM      6  C   UNL     1      -1.414   1.014   0.148  1.00  0.00     0.012 A 
ATOM      7  C   UNL     1      -0.995  -1.203   1.024  1.00  0.00     0.012 A 
ATOM      8  C   UNL     1      -0.204   1.458   0.691  1.00  0.00     0.048 A 
ATOM      9  C   UNL     1       0.214  -0.759   1.567  1.00  0.00     0.048 A 
BRANCH   5  10
ATOM     10  C   UNL     1      -3.100  -0.794  -0.267  1.00  0.00    -0.011 A 
ATOM     11  C   UNL     1      -5.598  -1.695  -1.353  1.00  0.00     0.042 A 
ATOM     12  C   UNL     1      -5.234  -1.979  -0.015  1.00  0.00     0.014 A 
ATOM     13  C   UNL     1      -4.669  -0.961  -2.113  1.00  0.00     0.058 A 
ATOM     14  C   UNL     1      -4.005  -1.538   0.518  1.00  0.00     0.010 A 
ATOM     15  N   UNL     1      -4.748  -0.605  -3.408  1.00  0.00    -0.367 NA
ATOM     16  C   UNL     1      -3.478  -0.533  -1.590  1.00  0.00    -0.014 A 
ATOM     17  N   UNL     1      -3.629   0.040  -3.720  1.00  0.00    -0.581 NA
ATOM     18  C   UNL     1      -2.831   0.096  -2.631  1.00  0.00    -0.113 A 
BRANCH  11  19
ATOM     19  C   UNL     1      -6.902  -2.176  -1.890  1.00  0.00     0.161 C 
ATOM     20  C   UNL     1      -7.423  -1.763  -3.233  1.00  0.00     0.093 C 
ATOM     21  O   UNL     1      -7.603  -2.965  -1.199  1.00  0.00    -0.294 OA
ENDBRANCH  11  19
ENDBRANCH   5  10
ENDBRANCH   3   4
ENDBRANCH   1   3
BRANCH   1  22
ATOM     22  C   UNL     1       3.755   2.502   2.329  1.00  0.00     0.277 C 
ATOM     23  O   UNL     1       3.899   2.029   3.489  1.00  0.00    -0.283 OA
BRANCH  22  24
ATOM     24  C   UNL     1       4.714   3.554   1.834  1.00  0.00     0.274 C 
ATOM     25  F   UNL     1       5.287   4.222   2.903  1.00  0.00    -0.235 F 
BRANCH  24  26
ATOM     26  C   UNL     1       5.801   2.977   0.898  1.00  0.00     0.159 C 
BRANCH  26  27
ATOM     27  O   UNL     1       6.669   4.020   0.526  1.00  0.00    -0.389 OA
ATOM     28  H   UNL     1       6.957   3.846  -0.408  1.00  0.00     0.211 HD
ENDBRANCH  26  27
BRANCH  26  29
ATOM     29  C   UNL     1       6.608   1.785   1.498  1.00  0.00     0.015 C 
ATOM     30  C   UNL     1       7.456   2.183   2.717  1.00  0.00     0.010 C 
ATOM     31  C   UNL     1       7.504   1.146   0.426  1.00  0.00     0.010 C 
ENDBRANCH  26  29
ENDBRANCH  24  26
ENDBRANCH  22  24
ENDBRANCH   1  22
TORSDOF 9


