MODEL 1
REMARK VINA RESULT:      -8.4      0.000      0.000
REMARK SMILES C=Cc1ccc(-c2cc(C=O)c(N)c3ccoc23)[nH+]c1
REMARK SMILES IDX 7 1 8 2 9 3 12 4 14 5 15 6 16 7 17 8 18 9 6 10 3 11 4 12
REMARK SMILES IDX 20 13 5 14 19 15 2 17 1 18 10 19 11 20 13 21
REMARK H PARENT 19 16 13 22 13 23
ROOT
ATOM      1  C   UNL     1      44.677 131.183  18.630  1.00  0.00     0.090 A 
ATOM      2  C   UNL     1      45.255 130.691  19.820  1.00  0.00     0.032 A 
ATOM      3  C   UNL     1      44.580 130.784  21.064  1.00  0.00     0.039 A 
ATOM      4  C   UNL     1      43.305 131.418  21.127  1.00  0.00     0.053 A 
ATOM      5  C   UNL     1      42.754 131.877  19.924  1.00  0.00     0.045 A 
ATOM      6  C   UNL     1      41.554 132.503  19.655  1.00  0.00     0.053 A 
ATOM      7  C   UNL     1      41.563 132.718  18.284  1.00  0.00     0.196 A 
ATOM      8  O   UNL     1      42.684 132.266  17.758  1.00  0.00    -0.463 OA
ATOM      9  C   UNL     1      43.412 131.765  18.727  1.00  0.00     0.149 A 
ENDROOT
BRANCH   1  10
ATOM     10  C   UNL     1      45.384 131.078  17.330  1.00  0.00     0.214 A 
ATOM     11  C   UNL     1      46.711 130.902  14.873  1.00  0.00     0.038 A 
ATOM     12  C   UNL     1      46.628 129.778  15.713  1.00  0.00     0.021 A 
ATOM     13  C   UNL     1      46.103 132.093  15.298  1.00  0.00     0.314 A 
ATOM     14  C   UNL     1      45.972 129.866  16.940  1.00  0.00     0.081 A 
ATOM     15  N   UNL     1      45.466 132.158  16.499  1.00  0.00    -0.210 N 
ATOM     16  H   UNL     1      45.055 133.074  16.787  1.00  0.00     0.453 HD
BRANCH  11  17
ATOM     17  C   UNL     1      47.387 130.876  13.552  1.00  0.00     0.006 C 
ATOM     18  C   UNL     1      48.261 129.944  13.173  1.00  0.00     0.009 C 
ENDBRANCH  11  17
ENDBRANCH   1  10
BRANCH   3  19
ATOM     19  C   UNL     1      45.236 130.169  22.239  1.00  0.00     0.262 C 
ATOM     20  O   UNL     1      44.668 129.281  22.926  1.00  0.00    -0.298 OA
ENDBRANCH   3  19
BRANCH   4  21
ATOM     21  N   UNL     1      42.617 131.645  22.366  1.00  0.00    -0.398 N 
ATOM     22  H   UNL     1      41.738 132.206  22.396  1.00  0.00     0.156 HD
ATOM     23  H   UNL     1      43.037 131.384  23.283  1.00  0.00     0.156 HD
ENDBRANCH   4  21
TORSDOF 4
ENDMDL
MODEL 2
REMARK VINA RESULT:      -8.1      0.647      1.086
REMARK SMILES C=Cc1ccc(-c2cc(C=O)c(N)c3ccoc23)[nH+]c1
REMARK SMILES IDX 7 1 8 2 9 3 12 4 14 5 15 6 16 7 17 8 18 9 6 10 3 11 4 12
REMARK SMILES IDX 20 13 5 14 19 15 2 17 1 18 10 19 11 20 13 21
REMARK H PARENT 19 16 13 22 13 23
ROOT
ATOM      1  C   UNL     1      44.722 131.142  18.596  1.00  0.00     0.090 A 
ATOM      2  C   UNL     1      45.292 130.679  19.802  1.00  0.00     0.032 A 
ATOM      3  C   UNL     1      44.612 130.808  21.039  1.00  0.00     0.039 A 
ATOM      4  C   UNL     1      43.340 131.449  21.080  1.00  0.00     0.053 A 
ATOM      5  C   UNL     1      42.797 131.879  19.862  1.00  0.00     0.045 A 
ATOM      6  C   UNL     1      41.601 132.503  19.571  1.00  0.00     0.053 A 
ATOM      7  C   UNL     1      41.617 132.682  18.195  1.00  0.00     0.196 A 
ATOM      8  O   UNL     1      42.738 132.211  17.686  1.00  0.00    -0.463 OA
ATOM      9  C   UNL     1      43.460 131.732  18.672  1.00  0.00     0.149 A 
ENDROOT
BRANCH   1  10
ATOM     10  C   UNL     1      45.435 130.999  17.303  1.00  0.00     0.214 A 
ATOM     11  C   UNL     1      46.786 130.711  14.869  1.00  0.00     0.038 A 
ATOM     12  C   UNL     1      46.135 131.918  15.177  1.00  0.00     0.021 A 
ATOM     13  C   UNL     1      46.745 129.676  15.817  1.00  0.00     0.314 A 
ATOM     14  C   UNL     1      45.458 132.062  16.387  1.00  0.00     0.081 A 
ATOM     15  N   UNL     1      46.078 129.836  16.992  1.00  0.00    -0.210 N 
ATOM     16  H   UNL     1      46.049 129.028  17.654  1.00  0.00     0.453 HD
BRANCH  11  17
ATOM     17  C   UNL     1      47.532 130.492  13.605  1.00  0.00     0.006 C 
ATOM     18  C   UNL     1      48.448 129.541  13.428  1.00  0.00     0.009 C 
ENDBRANCH  11  17
ENDBRANCH   1  10
BRANCH   3  19
ATOM     19  C   UNL     1      45.260 130.221  22.233  1.00  0.00     0.262 C 
ATOM     20  O   UNL     1      44.655 129.414  22.986  1.00  0.00    -0.298 OA
ENDBRANCH   3  19
BRANCH   4  21
ATOM     21  N   UNL     1      42.648 131.712  22.309  1.00  0.00    -0.398 N 
ATOM     22  H   UNL     1      41.617 131.568  22.385  1.00  0.00     0.156 HD
ATOM     23  H   UNL     1      43.115 132.182  23.113  1.00  0.00     0.156 HD
ENDBRANCH   4  21
TORSDOF 4
ENDMDL
MODEL 3
REMARK VINA RESULT:      -8.0      1.384      3.142
REMARK SMILES C=Cc1ccc(-c2cc(C=O)c(N)c3ccoc23)[nH+]c1
REMARK SMILES IDX 7 1 8 2 9 3 12 4 14 5 15 6 16 7 17 8 18 9 6 10 3 11 4 12
REMARK SMILES IDX 20 13 5 14 19 15 2 17 1 18 10 19 11 20 13 21
REMARK H PARENT 19 16 13 22 13 23
ROOT
ATOM      1  C   UNL     1      44.517 131.223  18.654  1.00  0.00     0.090 A 
ATOM      2  C   UNL     1      43.377 132.053  18.697  1.00  0.00     0.032 A 
ATOM      3  C   UNL     1      42.656 132.258  19.900  1.00  0.00     0.039 A 
ATOM      4  C   UNL     1      43.065 131.587  21.089  1.00  0.00     0.053 A 
ATOM      5  C   UNL     1      44.212 130.787  21.014  1.00  0.00     0.045 A 
ATOM      6  C   UNL     1      44.863 130.039  21.974  1.00  0.00     0.053 A 
ATOM      7  C   UNL     1      45.937 129.462  21.311  1.00  0.00     0.196 A 
ATOM      8  O   UNL     1      45.939 129.824  20.043  1.00  0.00    -0.463 OA
ATOM      9  C   UNL     1      44.908 130.612  19.847  1.00  0.00     0.149 A 
ENDROOT
BRANCH   1  10
ATOM     10  C   UNL     1      45.273 131.016  17.394  1.00  0.00     0.214 A 
ATOM     11  C   UNL     1      46.704 130.606  15.025  1.00  0.00     0.038 A 
ATOM     12  C   UNL     1      46.057 131.832  15.256  1.00  0.00     0.021 A 
ATOM     13  C   UNL     1      46.619 129.615  16.015  1.00  0.00     0.314 A 
ATOM     14  C   UNL     1      45.340 132.036  16.434  1.00  0.00     0.081 A 
ATOM     15  N   UNL     1      45.914 129.834  17.158  1.00  0.00    -0.210 N 
ATOM     16  H   UNL     1      45.852 129.056  17.853  1.00  0.00     0.453 HD
BRANCH  11  17
ATOM     17  C   UNL     1      47.491 130.324  13.798  1.00  0.00     0.006 C 
ATOM     18  C   UNL     1      47.670 131.195  12.805  1.00  0.00     0.009 C 
ENDBRANCH  11  17
ENDBRANCH   1  10
BRANCH   3  19
ATOM     19  C   UNL     1      41.520 133.206  19.858  1.00  0.00     0.262 C 
ATOM     20  O   UNL     1      40.979 133.640  20.908  1.00  0.00    -0.298 OA
ENDBRANCH   3  19
BRANCH   4  21
ATOM     21  N   UNL     1      42.319 131.661  22.313  1.00  0.00    -0.398 N 
ATOM     22  H   UNL     1      41.358 132.070  22.331  1.00  0.00     0.156 HD
ATOM     23  H   UNL     1      42.753 131.446  23.235  1.00  0.00     0.156 HD
ENDBRANCH   4  21
TORSDOF 4
ENDMDL
MODEL 4
REMARK VINA RESULT:      -7.7      1.260      2.915
REMARK SMILES C=Cc1ccc(-c2cc(C=O)c(N)c3ccoc23)[nH+]c1
REMARK SMILES IDX 7 1 8 2 9 3 12 4 14 5 15 6 16 7 17 8 18 9 6 10 3 11 4 12
REMARK SMILES IDX 20 13 5 14 19 15 2 17 1 18 10 19 11 20 13 21
REMARK H PARENT 19 16 13 22 13 23
ROOT
ATOM      1  C   UNL     1      44.471 131.354  18.531  1.00  0.00     0.090 A 
ATOM      2  C   UNL     1      43.300 132.136  18.633  1.00  0.00     0.032 A 
ATOM      3  C   UNL     1      42.614 132.284  19.864  1.00  0.00     0.039 A 
ATOM      4  C   UNL     1      43.090 131.602  21.022  1.00  0.00     0.053 A 
ATOM      5  C   UNL     1      44.264 130.851  20.889  1.00  0.00     0.045 A 
ATOM      6  C   UNL     1      44.976 130.108  21.808  1.00  0.00     0.053 A 
ATOM      7  C   UNL     1      46.048 129.590  21.095  1.00  0.00     0.196 A 
ATOM      8  O   UNL     1      45.992 129.981  19.837  1.00  0.00    -0.463 OA
ATOM      9  C   UNL     1      44.926 130.731  19.695  1.00  0.00     0.149 A 
ENDROOT
BRANCH   1  10
ATOM     10  C   UNL     1      45.190 131.207  17.242  1.00  0.00     0.214 A 
ATOM     11  C   UNL     1      46.543 130.952  14.806  1.00  0.00     0.038 A 
ATOM     12  C   UNL     1      46.284 129.816  15.592  1.00  0.00     0.021 A 
ATOM     13  C   UNL     1      46.095 132.197  15.273  1.00  0.00     0.314 A 
ATOM     14  C   UNL     1      45.614 129.942  16.808  1.00  0.00     0.081 A 
ATOM     15  N   UNL     1      45.442 132.299  16.463  1.00  0.00    -0.210 N 
ATOM     16  H   UNL     1      45.154 133.251  16.784  1.00  0.00     0.453 HD
BRANCH  11  17
ATOM     17  C   UNL     1      47.243 130.889  13.499  1.00  0.00     0.006 C 
ATOM     18  C   UNL     1      48.209 130.018  13.206  1.00  0.00     0.009 C 
ENDBRANCH  11  17
ENDBRANCH   1  10
BRANCH   3  19
ATOM     19  C   UNL     1      41.441 133.187  19.883  1.00  0.00     0.262 C 
ATOM     20  O   UNL     1      40.931 133.589  20.961  1.00  0.00    -0.298 OA
ENDBRANCH   3  19
BRANCH   4  21
ATOM     21  N   UNL     1      42.384 131.618  22.271  1.00  0.00    -0.398 N 
ATOM     22  H   UNL     1      42.167 130.731  22.776  1.00  0.00     0.156 HD
ATOM     23  H   UNL     1      41.944 132.487  22.642  1.00  0.00     0.156 HD
ENDBRANCH   4  21
TORSDOF 4
ENDMDL
MODEL 5
REMARK VINA RESULT:      -7.3      0.935      1.051
REMARK SMILES C=Cc1ccc(-c2cc(C=O)c(N)c3ccoc23)[nH+]c1
REMARK SMILES IDX 7 1 8 2 9 3 12 4 14 5 15 6 16 7 17 8 18 9 6 10 3 11 4 12
REMARK SMILES IDX 20 13 5 14 19 15 2 17 1 18 10 19 11 20 13 21
REMARK H PARENT 19 16 13 22 13 23
ROOT
ATOM      1  C   UNL     1      44.468 131.039  19.477  1.00  0.00     0.090 A 
ATOM      2  C   UNL     1      44.994 130.215  20.495  1.00  0.00     0.032 A 
ATOM      3  C   UNL     1      44.417 130.178  21.790  1.00  0.00     0.039 A 
ATOM      4  C   UNL     1      43.303 131.016  22.087  1.00  0.00     0.053 A 
ATOM      5  C   UNL     1      42.795 131.805  21.048  1.00  0.00     0.045 A 
ATOM      6  C   UNL     1      41.735 132.688  21.012  1.00  0.00     0.053 A 
ATOM      7  C   UNL     1      41.718 133.172  19.712  1.00  0.00     0.196 A 
ATOM      8  O   UNL     1      42.694 132.633  19.010  1.00  0.00    -0.463 OA
ATOM      9  C   UNL     1      43.354 131.817  19.797  1.00  0.00     0.149 A 
ENDROOT
BRANCH   1  10
ATOM     10  C   UNL     1      45.071 131.069  18.122  1.00  0.00     0.214 A 
ATOM     11  C   UNL     1      46.200 131.147  15.563  1.00  0.00     0.038 A 
ATOM     12  C   UNL     1      46.319 129.990  16.352  1.00  0.00     0.021 A 
ATOM     13  C   UNL     1      45.494 132.239  16.090  1.00  0.00     0.314 A 
ATOM     14  C   UNL     1      45.761 129.952  17.630  1.00  0.00     0.081 A 
ATOM     15  N   UNL     1      44.957 132.182  17.339  1.00  0.00    -0.210 N 
ATOM     16  H   UNL     1      44.468 133.030  17.702  1.00  0.00     0.453 HD
BRANCH  11  17
ATOM     17  C   UNL     1      46.761 131.253  14.193  1.00  0.00     0.006 C 
ATOM     18  C   UNL     1      47.317 130.239  13.528  1.00  0.00     0.009 C 
ENDBRANCH  11  17
ENDBRANCH   1  10
BRANCH   3  19
ATOM     19  C   UNL     1      44.994 129.225  22.763  1.00  0.00     0.262 C 
ATOM     20  O   UNL     1      44.470 129.030  23.891  1.00  0.00    -0.298 OA
ENDBRANCH   3  19
BRANCH   4  21
ATOM     21  N   UNL     1      42.740 131.111  23.404  1.00  0.00    -0.398 N 
ATOM     22  H   UNL     1      41.740 130.866  23.579  1.00  0.00     0.156 HD
ATOM     23  H   UNL     1      43.258 131.555  24.192  1.00  0.00     0.156 HD
ENDBRANCH   4  21
TORSDOF 4
ENDMDL


