MODEL 1
REMARK VINA RESULT:      -8.9      0.000      0.000
REMARK SMILES C=C1C(=O)OC[C@H]1C(=O)N(N)c1cccc2cc3ccccc3cc12
REMARK SMILES IDX 8 1 9 2 7 3 2 4 3 5 5 6 6 7 1 8 4 9 10 10 11 11 12 14 13 15
REMARK SMILES IDX 25 16 14 17 24 18 16 19 15 20 23 21 17 22 22 23 18 24 21 25
REMARK SMILES IDX 19 26 20 27
REMARK H PARENT 11 12 11 13
ROOT
ATOM      1  C   UNL     1      45.136 129.708  21.445  1.00  0.00     0.252 C 
ATOM      2  O   UNL     1      45.401 128.761  20.653  1.00  0.00    -0.272 OA
ENDROOT
BRANCH   1   3
ATOM      3  C   UNL     1      44.840 129.371  22.890  1.00  0.00     0.155 C 
ATOM      4  C   UNL     1      43.517 129.906  23.340  1.00  0.00     0.046 C 
ATOM      5  C   UNL     1      42.736 128.794  23.822  1.00  0.00     0.334 C 
ATOM      6  O   UNL     1      43.441 127.616  23.701  1.00  0.00    -0.461 OA
ATOM      7  C   UNL     1      44.733 127.839  23.138  1.00  0.00     0.251 C 
ATOM      8  C   UNL     1      43.147 131.186  23.343  1.00  0.00     0.021 C 
ATOM      9  O   UNL     1      41.570 128.864  24.292  1.00  0.00    -0.247 OA
ENDBRANCH   1   3
BRANCH   1  10
ATOM     10  N   UNL     1      45.120 131.064  20.953  1.00  0.00    -0.247 N 
BRANCH  10  11
ATOM     11  N   UNL     1      46.154 131.956  21.288  1.00  0.00    -0.241 NA
ATOM     12  H   UNL     1      45.990 132.281  22.267  1.00  0.00     0.144 HD
ATOM     13  H   UNL     1      47.056 131.427  21.273  1.00  0.00     0.144 HD
ENDBRANCH  10  11
BRANCH  10  14
ATOM     14  C   UNL     1      44.113 131.474  20.011  1.00  0.00     0.068 A 
ATOM     15  C   UNL     1      42.911 132.009  20.492  1.00  0.00     0.028 A 
ATOM     16  C   UNL     1      44.318 131.349  18.616  1.00  0.00     0.008 A 
ATOM     17  C   UNL     1      41.920 132.435  19.607  1.00  0.00     0.003 A 
ATOM     18  C   UNL     1      45.498 130.786  18.093  1.00  0.00     0.019 A 
ATOM     19  C   UNL     1      43.306 131.788  17.723  1.00  0.00    -0.016 A 
ATOM     20  C   UNL     1      42.115 132.330  18.230  1.00  0.00     0.009 A 
ATOM     21  C   UNL     1      45.683 130.675  16.709  1.00  0.00    -0.018 A 
ATOM     22  C   UNL     1      43.494 131.675  16.338  1.00  0.00     0.017 A 
ATOM     23  C   UNL     1      46.863 130.117  16.189  1.00  0.00     0.009 A 
ATOM     24  C   UNL     1      44.675 131.124  15.824  1.00  0.00    -0.018 A 
ATOM     25  C   UNL     1      47.041 130.010  14.808  1.00  0.00     0.001 A 
ATOM     26  C   UNL     1      44.865 131.011  14.438  1.00  0.00     0.009 A 
ATOM     27  C   UNL     1      46.046 130.456  13.934  1.00  0.00     0.001 A 
ENDBRANCH  10  14
ENDBRANCH   1  10
TORSDOF 4
ENDMDL
MODEL 2
REMARK VINA RESULT:      -8.2      1.060      1.120
REMARK SMILES C=C1C(=O)OC[C@H]1C(=O)N(N)c1cccc2cc3ccccc3cc12
REMARK SMILES IDX 8 1 9 2 7 3 2 4 3 5 5 6 6 7 1 8 4 9 10 10 11 11 12 14 13 15
REMARK SMILES IDX 25 16 14 17 24 18 16 19 15 20 23 21 17 22 22 23 18 24 21 25
REMARK SMILES IDX 19 26 20 27
REMARK H PARENT 11 12 11 13
ROOT
ATOM      1  C   UNL     1      44.873 131.274  22.263  1.00  0.00     0.252 C 
ATOM      2  O   UNL     1      45.112 132.465  22.604  1.00  0.00    -0.272 OA
ENDROOT
BRANCH   1   3
ATOM      3  C   UNL     1      44.473 130.288  23.339  1.00  0.00     0.155 C 
ATOM      4  C   UNL     1      43.023 130.388  23.692  1.00  0.00     0.046 C 
ATOM      5  C   UNL     1      42.433 129.087  23.493  1.00  0.00     0.334 C 
ATOM      6  O   UNL     1      43.375 128.192  23.034  1.00  0.00    -0.461 OA
ATOM      7  C   UNL     1      44.654 128.809  22.894  1.00  0.00     0.251 C 
ATOM      8  C   UNL     1      42.400 131.470  24.157  1.00  0.00     0.021 C 
ATOM      9  O   UNL     1      41.228 128.788  23.701  1.00  0.00    -0.247 OA
ENDBRANCH   1   3
BRANCH   1  10
ATOM     10  N   UNL     1      44.992 130.892  20.877  1.00  0.00    -0.247 N 
BRANCH  10  11
ATOM     11  N   UNL     1      45.969 129.965  20.474  1.00  0.00    -0.241 NA
ATOM     12  H   UNL     1      46.313 130.254  19.531  1.00  0.00     0.144 HD
ATOM     13  H   UNL     1      46.771 130.030  21.141  1.00  0.00     0.144 HD
ENDBRANCH  10  11
BRANCH  10  14
ATOM     14  C   UNL     1      44.027 131.361  19.918  1.00  0.00     0.068 A 
ATOM     15  C   UNL     1      42.822 131.908  20.379  1.00  0.00     0.028 A 
ATOM     16  C   UNL     1      44.276 131.282  18.527  1.00  0.00     0.008 A 
ATOM     17  C   UNL     1      41.872 132.390  19.478  1.00  0.00     0.003 A 
ATOM     18  C   UNL     1      45.459 130.710  18.023  1.00  0.00     0.019 A 
ATOM     19  C   UNL     1      43.305 131.778  17.618  1.00  0.00    -0.016 A 
ATOM     20  C   UNL     1      42.111 132.330  18.105  1.00  0.00     0.009 A 
ATOM     21  C   UNL     1      45.689 130.644  16.642  1.00  0.00    -0.018 A 
ATOM     22  C   UNL     1      43.537 131.711  16.236  1.00  0.00     0.017 A 
ATOM     23  C   UNL     1      46.872 130.077  16.141  1.00  0.00     0.009 A 
ATOM     24  C   UNL     1      44.722 131.150  15.742  1.00  0.00    -0.018 A 
ATOM     25  C   UNL     1      47.094 130.016  14.763  1.00  0.00     0.001 A 
ATOM     26  C   UNL     1      44.957 131.083  14.359  1.00  0.00     0.009 A 
ATOM     27  C   UNL     1      46.140 130.517  13.874  1.00  0.00     0.001 A 
ENDBRANCH  10  14
ENDBRANCH   1  10
TORSDOF 4
ENDMDL
MODEL 3
REMARK VINA RESULT:      -7.8      1.064      1.403
REMARK SMILES C=C1C(=O)OC[C@H]1C(=O)N(N)c1cccc2cc3ccccc3cc12
REMARK SMILES IDX 8 1 9 2 7 3 2 4 3 5 5 6 6 7 1 8 4 9 10 10 11 11 12 14 13 15
REMARK SMILES IDX 25 16 14 17 24 18 16 19 15 20 23 21 17 22 22 23 18 24 21 25
REMARK SMILES IDX 19 26 20 27
REMARK H PARENT 11 12 11 13
ROOT
ATOM      1  C   UNL     1      44.847 129.990  22.051  1.00  0.00     0.252 C 
ATOM      2  O   UNL     1      44.991 128.804  21.647  1.00  0.00    -0.272 OA
ENDROOT
BRANCH   1   3
ATOM      3  C   UNL     1      44.430 130.211  23.489  1.00  0.00     0.155 C 
ATOM      4  C   UNL     1      44.027 131.627  23.754  1.00  0.00     0.046 C 
ATOM      5  C   UNL     1      42.681 131.609  24.273  1.00  0.00     0.334 C 
ATOM      6  O   UNL     1      42.204 130.318  24.342  1.00  0.00    -0.461 OA
ATOM      7  C   UNL     1      43.176 129.380  23.884  1.00  0.00     0.251 C 
ATOM      8  C   UNL     1      44.791 132.706  23.589  1.00  0.00     0.021 C 
ATOM      9  O   UNL     1      42.015 132.619  24.621  1.00  0.00    -0.247 OA
ENDBRANCH   1   3
BRANCH   1  10
ATOM     10  N   UNL     1      45.077 131.086  21.141  1.00  0.00    -0.247 N 
BRANCH  10  11
ATOM     11  N   UNL     1      46.333 131.715  21.085  1.00  0.00    -0.241 NA
ATOM     12  H   UNL     1      47.061 130.969  21.015  1.00  0.00     0.144 HD
ATOM     13  H   UNL     1      46.371 132.283  20.207  1.00  0.00     0.144 HD
ENDBRANCH  10  11
BRANCH  10  14
ATOM     14  C   UNL     1      44.061 131.457  20.193  1.00  0.00     0.068 A 
ATOM     15  C   UNL     1      42.842 131.962  20.666  1.00  0.00     0.028 A 
ATOM     16  C   UNL     1      44.271 131.323  18.800  1.00  0.00     0.008 A 
ATOM     17  C   UNL     1      41.842 132.349  19.775  1.00  0.00     0.003 A 
ATOM     18  C   UNL     1      45.468 130.789  18.285  1.00  0.00     0.019 A 
ATOM     19  C   UNL     1      43.249 131.723  17.900  1.00  0.00    -0.016 A 
ATOM     20  C   UNL     1      42.042 132.236  18.400  1.00  0.00     0.009 A 
ATOM     21  C   UNL     1      45.660 130.669  16.902  1.00  0.00    -0.018 A 
ATOM     22  C   UNL     1      43.443 131.602  16.517  1.00  0.00     0.017 A 
ATOM     23  C   UNL     1      46.856 130.140  16.390  1.00  0.00     0.009 A 
ATOM     24  C   UNL     1      44.640 131.079  16.011  1.00  0.00    -0.018 A 
ATOM     25  C   UNL     1      47.040 130.024  15.010  1.00  0.00     0.001 A 
ATOM     26  C   UNL     1      44.837 130.957  14.626  1.00  0.00     0.009 A 
ATOM     27  C   UNL     1      46.034 130.432  14.130  1.00  0.00     0.001 A 
ENDBRANCH  10  14
ENDBRANCH   1  10
TORSDOF 4
ENDMDL
MODEL 4
REMARK VINA RESULT:      -7.2      2.948      6.622
REMARK SMILES C=C1C(=O)OC[C@H]1C(=O)N(N)c1cccc2cc3ccccc3cc12
REMARK SMILES IDX 8 1 9 2 7 3 2 4 3 5 5 6 6 7 1 8 4 9 10 10 11 11 12 14 13 15
REMARK SMILES IDX 25 16 14 17 24 18 16 19 15 20 23 21 17 22 22 23 18 24 21 25
REMARK SMILES IDX 19 26 20 27
REMARK H PARENT 11 12 11 13
ROOT
ATOM      1  C   UNL     1      44.685 130.220  22.117  1.00  0.00     0.252 C 
ATOM      2  O   UNL     1      45.317 129.596  21.221  1.00  0.00    -0.272 OA
ENDROOT
BRANCH   1   3
ATOM      3  C   UNL     1      44.230 131.632  21.820  1.00  0.00     0.155 C 
ATOM      4  C   UNL     1      43.964 131.850  20.364  1.00  0.00     0.046 C 
ATOM      5  C   UNL     1      42.602 132.306  20.231  1.00  0.00     0.334 C 
ATOM      6  O   UNL     1      41.991 132.377  21.464  1.00  0.00    -0.461 OA
ATOM      7  C   UNL     1      42.880 131.984  22.508  1.00  0.00     0.251 C 
ATOM      8  C   UNL     1      44.842 131.701  19.373  1.00  0.00     0.021 C 
ATOM      9  O   UNL     1      42.030 132.603  19.150  1.00  0.00    -0.247 OA
ENDBRANCH   1   3
BRANCH   1  10
ATOM     10  N   UNL     1      44.425 129.579  23.383  1.00  0.00    -0.247 N 
BRANCH  10  11
ATOM     11  N   UNL     1      44.903 130.142  24.579  1.00  0.00    -0.241 NA
ATOM     12  H   UNL     1      45.906 129.870  24.681  1.00  0.00     0.144 HD
ATOM     13  H   UNL     1      44.861 131.183  24.485  1.00  0.00     0.144 HD
ENDBRANCH  10  11
BRANCH  10  14
ATOM     14  C   UNL     1      43.564 128.428  23.441  1.00  0.00     0.068 A 
ATOM     15  C   UNL     1      42.221 128.601  23.798  1.00  0.00     0.028 A 
ATOM     16  C   UNL     1      44.050 127.132  23.142  1.00  0.00     0.008 A 
ATOM     17  C   UNL     1      41.353 127.509  23.845  1.00  0.00     0.003 A 
ATOM     18  C   UNL     1      45.401 126.911  22.811  1.00  0.00     0.019 A 
ATOM     19  C   UNL     1      43.160 126.028  23.189  1.00  0.00    -0.016 A 
ATOM     20  C   UNL     1      41.816 126.230  23.540  1.00  0.00     0.009 A 
ATOM     21  C   UNL     1      45.861 125.621  22.514  1.00  0.00    -0.018 A 
ATOM     22  C   UNL     1      43.623 124.738  22.892  1.00  0.00     0.017 A 
ATOM     23  C   UNL     1      47.208 125.403  22.180  1.00  0.00     0.009 A 
ATOM     24  C   UNL     1      44.966 124.527  22.553  1.00  0.00    -0.018 A 
ATOM     25  C   UNL     1      47.659 124.115  21.884  1.00  0.00     0.001 A 
ATOM     26  C   UNL     1      45.432 123.236  22.255  1.00  0.00     0.009 A 
ATOM     27  C   UNL     1      46.775 123.034  21.921  1.00  0.00     0.001 A 
ENDBRANCH  10  14
ENDBRANCH   1  10
TORSDOF 4
ENDMDL
MODEL 5
REMARK VINA RESULT:      -6.7      2.212      6.639
REMARK SMILES C=C1C(=O)OC[C@H]1C(=O)N(N)c1cccc2cc3ccccc3cc12
REMARK SMILES IDX 8 1 9 2 7 3 2 4 3 5 5 6 6 7 1 8 4 9 10 10 11 11 12 14 13 15
REMARK SMILES IDX 25 16 14 17 24 18 16 19 15 20 23 21 17 22 22 23 18 24 21 25
REMARK SMILES IDX 19 26 20 27
REMARK H PARENT 11 12 11 13
ROOT
ATOM      1  C   UNL     1      43.876 131.564  19.597  1.00  0.00     0.252 C 
ATOM      2  O   UNL     1      42.629 131.376  19.568  1.00  0.00    -0.272 OA
ENDROOT
BRANCH   1   3
ATOM      3  C   UNL     1      44.600 131.768  18.284  1.00  0.00     0.155 C 
ATOM      4  C   UNL     1      45.411 130.574  17.889  1.00  0.00     0.046 C 
ATOM      5  C   UNL     1      44.964 130.152  16.585  1.00  0.00     0.334 C 
ATOM      6  O   UNL     1      43.942 130.960  16.137  1.00  0.00    -0.461 OA
ATOM      7  C   UNL     1      43.627 131.976  17.088  1.00  0.00     0.251 C 
ATOM      8  C   UNL     1      46.403 130.030  18.594  1.00  0.00     0.021 C 
ATOM      9  O   UNL     1      45.427 129.183  15.928  1.00  0.00    -0.247 OA
ENDBRANCH   1   3
BRANCH   1  10
ATOM     10  N   UNL     1      44.565 131.576  20.864  1.00  0.00    -0.247 N 
BRANCH  10  11
ATOM     11  N   UNL     1      45.861 132.113  20.967  1.00  0.00    -0.241 NA
ATOM     12  H   UNL     1      46.534 131.387  20.634  1.00  0.00     0.144 HD
ATOM     13  H   UNL     1      45.924 132.930  20.317  1.00  0.00     0.144 HD
ENDBRANCH  10  11
BRANCH  10  14
ATOM     14  C   UNL     1      43.881 131.154  22.057  1.00  0.00     0.068 A 
ATOM     15  C   UNL     1      43.014 132.050  22.695  1.00  0.00     0.028 A 
ATOM     16  C   UNL     1      44.067 129.856  22.591  1.00  0.00     0.008 A 
ATOM     17  C   UNL     1      42.319 131.669  23.843  1.00  0.00     0.003 A 
ATOM     18  C   UNL     1      44.954 128.938  21.998  1.00  0.00     0.019 A 
ATOM     19  C   UNL     1      43.354 129.475  23.757  1.00  0.00    -0.016 A 
ATOM     20  C   UNL     1      42.483 130.388  24.371  1.00  0.00     0.009 A 
ATOM     21  C   UNL     1      45.121 127.655  22.539  1.00  0.00    -0.018 A 
ATOM     22  C   UNL     1      43.522 128.192  24.296  1.00  0.00     0.017 A 
ATOM     23  C   UNL     1      46.003 126.739  21.944  1.00  0.00     0.009 A 
ATOM     24  C   UNL     1      44.399 127.279  23.696  1.00  0.00    -0.018 A 
ATOM     25  C   UNL     1      46.164 125.462  22.489  1.00  0.00     0.001 A 
ATOM     26  C   UNL     1      44.569 125.993  24.234  1.00  0.00     0.009 A 
ATOM     27  C   UNL     1      45.449 125.090  23.630  1.00  0.00     0.001 A 
ENDBRANCH  10  14
ENDBRANCH   1  10
TORSDOF 4
ENDMDL
MODEL 6
REMARK VINA RESULT:      -6.5      1.367      1.803
REMARK SMILES C=C1C(=O)OC[C@H]1C(=O)N(N)c1cccc2cc3ccccc3cc12
REMARK SMILES IDX 8 1 9 2 7 3 2 4 3 5 5 6 6 7 1 8 4 9 10 10 11 11 12 14 13 15
REMARK SMILES IDX 25 16 14 17 24 18 16 19 15 20 23 21 17 22 22 23 18 24 21 25
REMARK SMILES IDX 19 26 20 27
REMARK H PARENT 11 12 11 13
ROOT
ATOM      1  C   UNL     1      44.304 130.780  23.588  1.00  0.00     0.252 C 
ATOM      2  O   UNL     1      44.313 131.881  24.205  1.00  0.00    -0.272 OA
ENDROOT
BRANCH   1   3
ATOM      3  C   UNL     1      44.045 129.518  24.381  1.00  0.00     0.155 C 
ATOM      4  C   UNL     1      42.648 129.011  24.206  1.00  0.00     0.046 C 
ATOM      5  C   UNL     1      42.732 127.656  23.719  1.00  0.00     0.334 C 
ATOM      6  O   UNL     1      44.047 127.277  23.561  1.00  0.00    -0.461 OA
ATOM      7  C   UNL     1      44.939 128.329  23.925  1.00  0.00     0.251 C 
ATOM      8  C   UNL     1      41.530 129.674  24.496  1.00  0.00     0.021 C 
ATOM      9  O   UNL     1      41.753 126.905  23.467  1.00  0.00    -0.247 OA
ENDBRANCH   1   3
BRANCH   1  10
ATOM     10  N   UNL     1      44.542 130.759  22.166  1.00  0.00    -0.247 N 
BRANCH  10  11
ATOM     11  N   UNL     1      45.596 129.998  21.630  1.00  0.00    -0.241 NA
ATOM     12  H   UNL     1      46.110 130.600  20.949  1.00  0.00     0.144 HD
ATOM     13  H   UNL     1      46.252 129.762  22.409  1.00  0.00     0.144 HD
ENDBRANCH  10  11
BRANCH  10  14
ATOM     14  C   UNL     1      43.623 131.415  21.274  1.00  0.00     0.068 A 
ATOM     15  C   UNL     1      42.502 132.062  21.810  1.00  0.00     0.028 A 
ATOM     16  C   UNL     1      43.834 131.420  19.875  1.00  0.00     0.008 A 
ATOM     17  C   UNL     1      41.600 132.724  20.977  1.00  0.00     0.003 A 
ATOM     18  C   UNL     1      44.930 130.754  19.294  1.00  0.00     0.019 A 
ATOM     19  C   UNL     1      42.913 132.099  19.035  1.00  0.00    -0.016 A 
ATOM     20  C   UNL     1      41.804 132.748  19.598  1.00  0.00     0.009 A 
ATOM     21  C   UNL     1      45.124 130.773  17.906  1.00  0.00    -0.018 A 
ATOM     22  C   UNL     1      43.109 132.118  17.646  1.00  0.00     0.017 A 
ATOM     23  C   UNL     1      46.220 130.112  17.329  1.00  0.00     0.009 A 
ATOM     24  C   UNL     1      44.208 131.461  17.076  1.00  0.00    -0.018 A 
ATOM     25  C   UNL     1      46.407 130.137  15.945  1.00  0.00     0.001 A 
ATOM     26  C   UNL     1      44.406 131.479  15.686  1.00  0.00     0.009 A 
ATOM     27  C   UNL     1      45.504 130.818  15.125  1.00  0.00     0.001 A 
ENDBRANCH  10  14
ENDBRANCH   1  10
TORSDOF 4
ENDMDL
MODEL 7
REMARK VINA RESULT:      -6.4      1.151      1.708
REMARK SMILES C=C1C(=O)OC[C@H]1C(=O)N(N)c1cccc2cc3ccccc3cc12
REMARK SMILES IDX 8 1 9 2 7 3 2 4 3 5 5 6 6 7 1 8 4 9 10 10 11 11 12 14 13 15
REMARK SMILES IDX 25 16 14 17 24 18 16 19 15 20 23 21 17 22 22 23 18 24 21 25
REMARK SMILES IDX 19 26 20 27
REMARK H PARENT 11 12 11 13
ROOT
ATOM      1  C   UNL     1      44.315 130.124  22.547  1.00  0.00     0.252 C 
ATOM      2  O   UNL     1      44.981 130.080  23.618  1.00  0.00    -0.272 OA
ENDROOT
BRANCH   1   3
ATOM      3  C   UNL     1      43.128 129.197  22.405  1.00  0.00     0.155 C 
ATOM      4  C   UNL     1      43.402 127.831  22.950  1.00  0.00     0.046 C 
ATOM      5  C   UNL     1      42.404 127.550  23.951  1.00  0.00     0.334 C 
ATOM      6  O   UNL     1      41.543 128.617  24.092  1.00  0.00    -0.461 OA
ATOM      7  C   UNL     1      41.888 129.683  23.209  1.00  0.00     0.251 C 
ATOM      8  C   UNL     1      44.364 127.002  22.546  1.00  0.00     0.021 C 
ATOM      9  O   UNL     1      42.311 126.486  24.618  1.00  0.00    -0.247 OA
ENDBRANCH   1   3
BRANCH   1  10
ATOM     10  N   UNL     1      44.704 131.040  21.504  1.00  0.00    -0.247 N 
BRANCH  10  11
ATOM     11  N   UNL     1      46.059 131.350  21.295  1.00  0.00    -0.241 NA
ATOM     12  H   UNL     1      46.234 131.339  20.265  1.00  0.00     0.144 HD
ATOM     13  H   UNL     1      46.225 132.324  21.638  1.00  0.00     0.144 HD
ENDBRANCH  10  11
BRANCH  10  14
ATOM     14  C   UNL     1      43.717 131.545  20.587  1.00  0.00     0.068 A 
ATOM     15  C   UNL     1      42.524 132.073  21.096  1.00  0.00     0.028 A 
ATOM     16  C   UNL     1      43.931 131.517  19.188  1.00  0.00     0.008 A 
ATOM     17  C   UNL     1      41.553 132.588  20.238  1.00  0.00     0.003 A 
ATOM     18  C   UNL     1      45.102 130.964  18.635  1.00  0.00     0.019 A 
ATOM     19  C   UNL     1      42.940 132.046  18.322  1.00  0.00    -0.016 A 
ATOM     20  C   UNL     1      41.758 132.580  18.858  1.00  0.00     0.009 A 
ATOM     21  C   UNL     1      45.298 130.950  17.247  1.00  0.00    -0.018 A 
ATOM     22  C   UNL     1      43.138 132.031  16.934  1.00  0.00     0.017 A 
ATOM     23  C   UNL     1      46.469 130.402  16.697  1.00  0.00     0.009 A 
ATOM     24  C   UNL     1      44.310 131.489  16.390  1.00  0.00    -0.018 A 
ATOM     25  C   UNL     1      46.657 130.393  15.313  1.00  0.00     0.001 A 
ATOM     26  C   UNL     1      44.511 131.473  15.001  1.00  0.00     0.009 A 
ATOM     27  C   UNL     1      45.682 130.927  14.466  1.00  0.00     0.001 A 
ENDBRANCH  10  14
ENDBRANCH   1  10
TORSDOF 4
ENDMDL
MODEL 8
REMARK VINA RESULT:      -6.2      1.087      1.617
REMARK SMILES C=C1C(=O)OC[C@H]1C(=O)N(N)c1cccc2cc3ccccc3cc12
REMARK SMILES IDX 8 1 9 2 7 3 2 4 3 5 5 6 6 7 1 8 4 9 10 10 11 11 12 14 13 15
REMARK SMILES IDX 25 16 14 17 24 18 16 19 15 20 23 21 17 22 22 23 18 24 21 25
REMARK SMILES IDX 19 26 20 27
REMARK H PARENT 11 12 11 13
ROOT
ATOM      1  C   UNL     1      44.666 131.382  21.959  1.00  0.00     0.252 C 
ATOM      2  O   UNL     1      45.317 131.710  22.989  1.00  0.00    -0.272 OA
ENDROOT
BRANCH   1   3
ATOM      3  C   UNL     1      43.583 130.335  22.101  1.00  0.00     0.155 C 
ATOM      4  C   UNL     1      44.098 129.056  22.682  1.00  0.00     0.046 C 
ATOM      5  C   UNL     1      43.327 128.770  23.866  1.00  0.00     0.334 C 
ATOM      6  O   UNL     1      42.390 129.757  24.086  1.00  0.00    -0.461 OA
ATOM      7  C   UNL     1      42.455 130.768  23.081  1.00  0.00     0.251 C 
ATOM      8  C   UNL     1      45.062 128.293  22.169  1.00  0.00     0.021 C 
ATOM      9  O   UNL     1      43.471 127.766  24.612  1.00  0.00    -0.247 OA
ENDBRANCH   1   3
BRANCH   1  10
ATOM     10  N   UNL     1      44.973 132.003  20.694  1.00  0.00    -0.247 N 
BRANCH  10  11
ATOM     11  N   UNL     1      46.287 132.408  20.399  1.00  0.00    -0.241 NA
ATOM     12  H   UNL     1      46.479 133.282  20.937  1.00  0.00     0.144 HD
ATOM     13  H   UNL     1      46.939 131.668  20.747  1.00  0.00     0.144 HD
ENDBRANCH  10  11
BRANCH  10  14
ATOM     14  C   UNL     1      43.962 132.095  19.676  1.00  0.00     0.068 A 
ATOM     15  C   UNL     1      42.689 132.568  20.022  1.00  0.00     0.028 A 
ATOM     16  C   UNL     1      44.231 131.720  18.337  1.00  0.00     0.008 A 
ATOM     17  C   UNL     1      41.690 132.689  19.056  1.00  0.00     0.003 A 
ATOM     18  C   UNL     1      45.486 131.209  17.955  1.00  0.00     0.019 A 
ATOM     19  C   UNL     1      43.209 131.849  17.360  1.00  0.00    -0.016 A 
ATOM     20  C   UNL     1      41.947 132.335  17.731  1.00  0.00     0.009 A 
ATOM     21  C   UNL     1      45.734 130.846  16.624  1.00  0.00    -0.018 A 
ATOM     22  C   UNL     1      43.460 131.486  16.029  1.00  0.00     0.017 A 
ATOM     23  C   UNL     1      46.988 130.341  16.244  1.00  0.00     0.009 A 
ATOM     24  C   UNL     1      44.715 130.988  15.654  1.00  0.00    -0.018 A 
ATOM     25  C   UNL     1      47.228 129.983  14.915  1.00  0.00     0.001 A 
ATOM     26  C   UNL     1      44.968 130.624  14.321  1.00  0.00     0.009 A 
ATOM     27  C   UNL     1      46.222 130.124  13.956  1.00  0.00     0.001 A 
ENDBRANCH  10  14
ENDBRANCH   1  10
TORSDOF 4
ENDMDL
MODEL 9
REMARK VINA RESULT:      -6.1      2.449      6.724
REMARK SMILES C=C1C(=O)OC[C@H]1C(=O)N(N)c1cccc2cc3ccccc3cc12
REMARK SMILES IDX 8 1 9 2 7 3 2 4 3 5 5 6 6 7 1 8 4 9 10 10 11 11 12 14 13 15
REMARK SMILES IDX 25 16 14 17 24 18 16 19 15 20 23 21 17 22 22 23 18 24 21 25
REMARK SMILES IDX 19 26 20 27
REMARK H PARENT 11 12 11 13
ROOT
ATOM      1  C   UNL     1      44.501 131.601  19.501  1.00  0.00     0.252 C 
ATOM      2  O   UNL     1      43.870 132.677  19.313  1.00  0.00    -0.272 OA
ENDROOT
BRANCH   1   3
ATOM      3  C   UNL     1      44.620 130.631  18.345  1.00  0.00     0.155 C 
ATOM      4  C   UNL     1      44.290 131.266  17.032  1.00  0.00     0.046 C 
ATOM      5  C   UNL     1      45.429 131.095  16.164  1.00  0.00     0.334 C 
ATOM      6  O   UNL     1      46.442 130.427  16.818  1.00  0.00    -0.461 OA
ATOM      7  C   UNL     1      46.070 130.099  18.155  1.00  0.00     0.251 C 
ATOM      8  C   UNL     1      43.133 131.840  16.705  1.00  0.00     0.021 C 
ATOM      9  O   UNL     1      45.511 131.492  14.972  1.00  0.00    -0.247 OA
ENDBRANCH   1   3
BRANCH   1  10
ATOM     10  N   UNL     1      45.079 131.329  20.794  1.00  0.00    -0.247 N 
BRANCH  10  11
ATOM     11  N   UNL     1      46.452 131.530  21.019  1.00  0.00    -0.241 NA
ATOM     12  H   UNL     1      46.795 130.748  21.621  1.00  0.00     0.144 HD
ATOM     13  H   UNL     1      46.943 131.464  20.098  1.00  0.00     0.144 HD
ENDBRANCH  10  11
BRANCH  10  14
ATOM     14  C   UNL     1      44.229 130.974  21.899  1.00  0.00     0.068 A 
ATOM     15  C   UNL     1      43.363 131.940  22.428  1.00  0.00     0.028 A 
ATOM     16  C   UNL     1      44.251 129.672  22.455  1.00  0.00     0.008 A 
ATOM     17  C   UNL     1      42.511 131.625  23.487  1.00  0.00     0.003 A 
ATOM     18  C   UNL     1      45.130 128.683  21.973  1.00  0.00     0.019 A 
ATOM     19  C   UNL     1      43.379 129.359  23.530  1.00  0.00    -0.016 A 
ATOM     20  C   UNL     1      42.514 130.342  24.034  1.00  0.00     0.009 A 
ATOM     21  C   UNL     1      45.134 127.398  22.534  1.00  0.00    -0.018 A 
ATOM     22  C   UNL     1      43.385 128.073  24.089  1.00  0.00     0.017 A 
ATOM     23  C   UNL     1      46.008 126.411  22.049  1.00  0.00     0.009 A 
ATOM     24  C   UNL     1      44.255 127.090  23.598  1.00  0.00    -0.018 A 
ATOM     25  C   UNL     1      46.006 125.132  22.613  1.00  0.00     0.001 A 
ATOM     26  C   UNL     1      44.262 125.802  24.156  1.00  0.00     0.009 A 
ATOM     27  C   UNL     1      45.136 124.828  23.663  1.00  0.00     0.001 A 
ENDBRANCH  10  14
ENDBRANCH   1  10
TORSDOF 4
ENDMDL


