MODEL 1
REMARK VINA RESULT:      -3.8      0.000      0.000
REMARK SMILES Cc1cc(-c2c([NH2+]c3cccc4c3CCC4)ccc3[nH]ccc23)cc(O)c1F
REMARK SMILES IDX 5 1 6 2 17 3 18 4 19 5 20 6 21 7 22 8 23 9 4 11 2 12 3 13
REMARK SMILES IDX 27 14 25 15 24 16 1 17 28 18 26 19 7 21 8 24 9 25 13 26
REMARK SMILES IDX 10 27 12 28 14 29 11 30 16 31 15 32
REMARK H PARENT 20 10 26 20 7 22 7 23
ROOT
ATOM      1  C   UNL     1      44.252 130.137  21.774  1.00  0.00     0.053 A 
ATOM      2  C   UNL     1      44.859 128.955  22.294  1.00  0.00     0.143 A 
ATOM      3  C   UNL     1      44.702 128.643  23.672  1.00  0.00     0.071 A 
ATOM      4  C   UNL     1      43.961 129.477  24.526  1.00  0.00     0.033 A 
ATOM      5  C   UNL     1      43.383 130.619  23.983  1.00  0.00     0.046 A 
ATOM      6  N   UNL     1      42.640 131.537  24.623  1.00  0.00    -0.361 N 
ATOM      7  C   UNL     1      42.300 132.454  23.692  1.00  0.00     0.083 A 
ATOM      8  C   UNL     1      42.830 132.116  22.452  1.00  0.00     0.029 A 
ATOM      9  C   UNL     1      43.521 130.938  22.659  1.00  0.00     0.013 A 
ATOM     10  H   UNL     1      42.376 131.542  25.634  1.00  0.00     0.166 HD
ENDROOT
BRANCH   1  11
ATOM     11  C   UNL     1      44.357 130.518  20.354  1.00  0.00    -0.008 A 
ATOM     12  C   UNL     1      43.407 131.574  18.380  1.00  0.00    -0.011 A 
ATOM     13  C   UNL     1      43.313 131.215  19.734  1.00  0.00     0.015 A 
ATOM     14  C   UNL     1      44.571 131.254  17.658  1.00  0.00     0.167 A 
ATOM     15  C   UNL     1      45.612 130.550  18.276  1.00  0.00     0.152 A 
ATOM     16  C   UNL     1      45.496 130.167  19.617  1.00  0.00     0.058 A 
ATOM     17  C   UNL     1      42.310 132.365  17.730  1.00  0.00     0.048 C 
ATOM     18  F   UNL     1      44.699 131.632  16.360  1.00  0.00    -0.203 F 
BRANCH  15  19
ATOM     19  O   UNL     1      46.762 130.244  17.551  1.00  0.00    -0.505 OA
ATOM     20  H   UNL     1      47.664 130.635  17.800  1.00  0.00     0.293 HD
ENDBRANCH  15  19
ENDBRANCH   1  11
BRANCH   2  21
ATOM     21  N   UNL     1      45.620 128.063  21.444  1.00  0.00    -0.281 N 
ATOM     22  H   UNL     1      45.071 127.896  20.572  1.00  0.00     0.358 HD
ATOM     23  H   UNL     1      46.523 128.505  21.153  1.00  0.00     0.358 HD
BRANCH  21  24
ATOM     24  C   UNL     1      45.932 126.823  22.125  1.00  0.00     0.138 A 
ATOM     25  C   UNL     1      47.266 126.505  22.474  1.00  0.00     0.068 A 
ATOM     26  C   UNL     1      44.933 125.871  22.419  1.00  0.00     0.017 A 
ATOM     27  C   UNL     1      47.562 125.311  23.151  1.00  0.00     0.006 A 
ATOM     28  C   UNL     1      45.235 124.708  23.087  1.00  0.00    -0.039 A 
ATOM     29  C   UNL     1      43.490 125.928  22.067  1.00  0.00     0.042 C 
ATOM     30  C   UNL     1      46.543 124.408  23.470  1.00  0.00     0.004 A 
ATOM     31  C   UNL     1      44.045 123.856  23.309  1.00  0.00     0.036 C 
ATOM     32  C   UNL     1      42.883 124.680  22.731  1.00  0.00     0.010 C 
ENDBRANCH  21  24
ENDBRANCH   2  21
TORSDOF 4
ENDMDL
MODEL 2
REMARK VINA RESULT:      -3.6      1.097      2.479
REMARK SMILES Cc1cc(-c2c([NH2+]c3cccc4c3CCC4)ccc3[nH]ccc23)cc(O)c1F
REMARK SMILES IDX 5 1 6 2 17 3 18 4 19 5 20 6 21 7 22 8 23 9 4 11 2 12 3 13
REMARK SMILES IDX 27 14 25 15 24 16 1 17 28 18 26 19 7 21 8 24 9 25 13 26
REMARK SMILES IDX 10 27 12 28 14 29 11 30 16 31 15 32
REMARK H PARENT 20 10 26 20 7 22 7 23
ROOT
ATOM      1  C   UNL     1      44.300 130.126  21.759  1.00  0.00     0.053 A 
ATOM      2  C   UNL     1      44.849 128.914  22.275  1.00  0.00     0.143 A 
ATOM      3  C   UNL     1      44.691 128.613  23.656  1.00  0.00     0.071 A 
ATOM      4  C   UNL     1      44.004 129.486  24.516  1.00  0.00     0.033 A 
ATOM      5  C   UNL     1      43.482 130.657  23.977  1.00  0.00     0.046 A 
ATOM      6  N   UNL     1      42.796 131.613  24.623  1.00  0.00    -0.361 N 
ATOM      7  C   UNL     1      42.495 132.546  23.694  1.00  0.00     0.083 A 
ATOM      8  C   UNL     1      42.993 132.179  22.449  1.00  0.00     0.029 A 
ATOM      9  C   UNL     1      43.622 130.966  22.651  1.00  0.00     0.013 A 
ATOM     10  H   UNL     1      42.544 131.634  25.637  1.00  0.00     0.166 HD
ENDROOT
BRANCH   1  11
ATOM     11  C   UNL     1      44.410 130.498  20.338  1.00  0.00    -0.008 A 
ATOM     12  C   UNL     1      45.616 130.424  18.227  1.00  0.00    -0.011 A 
ATOM     13  C   UNL     1      45.505 130.065  19.580  1.00  0.00     0.015 A 
ATOM     14  C   UNL     1      44.604 131.196  17.630  1.00  0.00     0.167 A 
ATOM     15  C   UNL     1      43.513 131.636  18.389  1.00  0.00     0.152 A 
ATOM     16  C   UNL     1      43.427 131.301  19.746  1.00  0.00     0.058 A 
ATOM     17  C   UNL     1      46.764 129.917  17.404  1.00  0.00     0.048 C 
ATOM     18  F   UNL     1      44.672 131.515  16.312  1.00  0.00    -0.203 F 
BRANCH  15  19
ATOM     19  O   UNL     1      42.514 132.396  17.785  1.00  0.00    -0.505 OA
ATOM     20  H   UNL     1      42.671 133.361  17.518  1.00  0.00     0.293 HD
ENDBRANCH  15  19
ENDBRANCH   1  11
BRANCH   2  21
ATOM     21  N   UNL     1      45.552 127.981  21.419  1.00  0.00    -0.281 N 
ATOM     22  H   UNL     1      45.164 128.069  20.453  1.00  0.00     0.358 HD
ATOM     23  H   UNL     1      46.568 128.222  21.360  1.00  0.00     0.358 HD
BRANCH  21  24
ATOM     24  C   UNL     1      45.445 126.625  21.915  1.00  0.00     0.138 A 
ATOM     25  C   UNL     1      44.180 126.009  22.073  1.00  0.00     0.068 A 
ATOM     26  C   UNL     1      46.585 125.888  22.302  1.00  0.00     0.017 A 
ATOM     27  C   UNL     1      44.082 124.687  22.535  1.00  0.00     0.006 A 
ATOM     28  C   UNL     1      46.476 124.592  22.748  1.00  0.00    -0.039 A 
ATOM     29  C   UNL     1      47.999 126.346  22.325  1.00  0.00     0.042 C 
ATOM     30  C   UNL     1      45.234 123.967  22.868  1.00  0.00     0.004 A 
ATOM     31  C   UNL     1      47.788 123.997  23.087  1.00  0.00     0.036 C 
ATOM     32  C   UNL     1      48.801 125.098  22.729  1.00  0.00     0.010 C 
ENDBRANCH  21  24
ENDBRANCH   2  21
TORSDOF 4
ENDMDL
MODEL 3
REMARK VINA RESULT:      -3.5      4.267      6.533
REMARK SMILES Cc1cc(-c2c([NH2+]c3cccc4c3CCC4)ccc3[nH]ccc23)cc(O)c1F
REMARK SMILES IDX 5 1 6 2 17 3 18 4 19 5 20 6 21 7 22 8 23 9 4 11 2 12 3 13
REMARK SMILES IDX 27 14 25 15 24 16 1 17 28 18 26 19 7 21 8 24 9 25 13 26
REMARK SMILES IDX 10 27 12 28 14 29 11 30 16 31 15 32
REMARK H PARENT 20 10 26 20 7 22 7 23
ROOT
ATOM      1  C   UNL     1      44.957 131.902  21.671  1.00  0.00     0.053 A 
ATOM      2  C   UNL     1      45.888 132.860  22.174  1.00  0.00     0.143 A 
ATOM      3  C   UNL     1      45.969 133.079  23.577  1.00  0.00     0.071 A 
ATOM      4  C   UNL     1      45.150 132.369  24.471  1.00  0.00     0.033 A 
ATOM      5  C   UNL     1      44.257 131.443  23.944  1.00  0.00     0.046 A 
ATOM      6  N   UNL     1      43.397 130.667  24.624  1.00  0.00    -0.361 N 
ATOM      7  C   UNL     1      42.745 129.934  23.694  1.00  0.00     0.083 A 
ATOM      8  C   UNL     1      43.195 130.248  22.417  1.00  0.00     0.029 A 
ATOM      9  C   UNL     1      44.163 131.216  22.598  1.00  0.00     0.013 A 
ATOM     10  H   UNL     1      43.258 130.633  25.659  1.00  0.00     0.166 HD
ENDROOT
BRANCH   1  11
ATOM     11  C   UNL     1      44.827 131.610  20.233  1.00  0.00    -0.008 A 
ATOM     12  C   UNL     1      43.557 131.739  18.163  1.00  0.00    -0.011 A 
ATOM     13  C   UNL     1      43.687 132.022  19.532  1.00  0.00     0.015 A 
ATOM     14  C   UNL     1      44.594 131.065  17.494  1.00  0.00     0.167 A 
ATOM     15  C   UNL     1      45.730 130.646  18.196  1.00  0.00     0.152 A 
ATOM     16  C   UNL     1      45.837 130.903  19.568  1.00  0.00     0.058 A 
ATOM     17  C   UNL     1      42.358 132.225  17.402  1.00  0.00     0.048 C 
ATOM     18  F   UNL     1      44.506 130.823  16.161  1.00  0.00    -0.203 F 
BRANCH  15  19
ATOM     19  O   UNL     1      46.753 129.984  17.520  1.00  0.00    -0.505 OA
ATOM     20  H   UNL     1      46.562 129.197  16.911  1.00  0.00     0.293 HD
ENDBRANCH  15  19
ENDBRANCH   1  11
BRANCH   2  21
ATOM     21  N   UNL     1      46.758 133.603  21.287  1.00  0.00    -0.281 N 
ATOM     22  H   UNL     1      46.982 132.996  20.467  1.00  0.00     0.358 HD
ATOM     23  H   UNL     1      46.272 134.450  20.912  1.00  0.00     0.358 HD
BRANCH  21  24
ATOM     24  C   UNL     1      47.957 134.043  21.968  1.00  0.00     0.138 A 
ATOM     25  C   UNL     1      48.496 133.295  23.042  1.00  0.00     0.068 A 
ATOM     26  C   UNL     1      48.602 135.251  21.623  1.00  0.00     0.017 A 
ATOM     27  C   UNL     1      49.670 133.714  23.687  1.00  0.00     0.006 A 
ATOM     28  C   UNL     1      49.754 135.648  22.259  1.00  0.00    -0.039 A 
ATOM     29  C   UNL     1      48.176 136.251  20.610  1.00  0.00     0.042 C 
ATOM     30  C   UNL     1      50.311 134.892  23.292  1.00  0.00     0.004 A 
ATOM     31  C   UNL     1      50.275 136.932  21.738  1.00  0.00     0.036 C 
ATOM     32  C   UNL     1      49.308 137.293  20.599  1.00  0.00     0.010 C 
ENDBRANCH  21  24
ENDBRANCH   2  21
TORSDOF 4
ENDMDL
MODEL 4
REMARK VINA RESULT:      -3.5      0.999      1.619
REMARK SMILES Cc1cc(-c2c([NH2+]c3cccc4c3CCC4)ccc3[nH]ccc23)cc(O)c1F
REMARK SMILES IDX 5 1 6 2 17 3 18 4 19 5 20 6 21 7 22 8 23 9 4 11 2 12 3 13
REMARK SMILES IDX 27 14 25 15 24 16 1 17 28 18 26 19 7 21 8 24 9 25 13 26
REMARK SMILES IDX 10 27 12 28 14 29 11 30 16 31 15 32
REMARK H PARENT 20 10 26 20 7 22 7 23
ROOT
ATOM      1  C   UNL     1      44.230 130.235  21.729  1.00  0.00     0.053 A 
ATOM      2  C   UNL     1      44.784 129.022  22.238  1.00  0.00     0.143 A 
ATOM      3  C   UNL     1      44.662 128.731  23.624  1.00  0.00     0.071 A 
ATOM      4  C   UNL     1      44.006 129.614  24.497  1.00  0.00     0.033 A 
ATOM      5  C   UNL     1      43.477 130.785  23.965  1.00  0.00     0.046 A 
ATOM      6  N   UNL     1      42.815 131.750  24.624  1.00  0.00    -0.361 N 
ATOM      7  C   UNL     1      42.495 132.680  23.697  1.00  0.00     0.083 A 
ATOM      8  C   UNL     1      42.957 132.301  22.442  1.00  0.00     0.029 A 
ATOM      9  C   UNL     1      43.583 131.085  22.634  1.00  0.00     0.013 A 
ATOM     10  H   UNL     1      42.591 131.780  25.644  1.00  0.00     0.166 HD
ENDROOT
BRANCH   1  11
ATOM     11  C   UNL     1      44.304 130.598  20.303  1.00  0.00    -0.008 A 
ATOM     12  C   UNL     1      45.481 130.551  18.175  1.00  0.00    -0.011 A 
ATOM     13  C   UNL     1      45.404 130.202  19.533  1.00  0.00     0.015 A 
ATOM     14  C   UNL     1      44.429 131.277  17.587  1.00  0.00     0.167 A 
ATOM     15  C   UNL     1      43.333 131.679  18.359  1.00  0.00     0.152 A 
ATOM     16  C   UNL     1      43.280 131.355  19.719  1.00  0.00     0.058 A 
ATOM     17  C   UNL     1      46.636 130.084  17.339  1.00  0.00     0.048 C 
ATOM     18  F   UNL     1      44.464 131.585  16.265  1.00  0.00    -0.203 F 
BRANCH  15  19
ATOM     19  O   UNL     1      42.295 132.392  17.762  1.00  0.00    -0.505 OA
ATOM     20  H   UNL     1      42.464 133.262  17.271  1.00  0.00     0.293 HD
ENDBRANCH  15  19
ENDBRANCH   1  11
BRANCH   2  21
ATOM     21  N   UNL     1      45.457 128.079  21.369  1.00  0.00    -0.281 N 
ATOM     22  H   UNL     1      44.859 127.928  20.527  1.00  0.00     0.358 HD
ATOM     23  H   UNL     1      46.367 128.469  21.028  1.00  0.00     0.358 HD
BRANCH  21  24
ATOM     24  C   UNL     1      45.738 126.835  22.055  1.00  0.00     0.138 A 
ATOM     25  C   UNL     1      47.068 126.459  22.357  1.00  0.00     0.068 A 
ATOM     26  C   UNL     1      44.707 125.936  22.403  1.00  0.00     0.017 A 
ATOM     27  C   UNL     1      47.335 125.261  23.039  1.00  0.00     0.006 A 
ATOM     28  C   UNL     1      44.981 124.768  23.076  1.00  0.00    -0.039 A 
ATOM     29  C   UNL     1      43.256 126.056  22.107  1.00  0.00     0.042 C 
ATOM     30  C   UNL     1      46.288 124.412  23.411  1.00  0.00     0.004 A 
ATOM     31  C   UNL     1      43.762 123.977  23.357  1.00  0.00     0.036 C 
ATOM     32  C   UNL     1      42.618 124.848  22.812  1.00  0.00     0.010 C 
ENDBRANCH  21  24
ENDBRANCH   2  21
TORSDOF 4
ENDMDL
MODEL 5
REMARK VINA RESULT:      -3.0      0.636      1.894
REMARK SMILES Cc1cc(-c2c([NH2+]c3cccc4c3CCC4)ccc3[nH]ccc23)cc(O)c1F
REMARK SMILES IDX 5 1 6 2 17 3 18 4 19 5 20 6 21 7 22 8 23 9 4 11 2 12 3 13
REMARK SMILES IDX 27 14 25 15 24 16 1 17 28 18 26 19 7 21 8 24 9 25 13 26
REMARK SMILES IDX 10 27 12 28 14 29 11 30 16 31 15 32
REMARK H PARENT 20 10 26 20 7 22 7 23
ROOT
ATOM      1  C   UNL     1      43.869 130.322  21.911  1.00  0.00     0.053 A 
ATOM      2  C   UNL     1      44.448 129.149  22.480  1.00  0.00     0.143 A 
ATOM      3  C   UNL     1      44.175 128.829  23.838  1.00  0.00     0.071 A 
ATOM      4  C   UNL     1      43.345 129.645  24.624  1.00  0.00     0.033 A 
ATOM      5  C   UNL     1      42.797 130.779  24.035  1.00  0.00     0.046 A 
ATOM      6  N   UNL     1      41.983 131.680  24.608  1.00  0.00    -0.361 N 
ATOM      7  C   UNL     1      41.710 132.595  23.653  1.00  0.00     0.083 A 
ATOM      8  C   UNL     1      42.356 132.272  22.465  1.00  0.00     0.029 A 
ATOM      9  C   UNL     1      43.047 131.106  22.729  1.00  0.00     0.013 A 
ATOM     10  H   UNL     1      41.630 131.676  25.592  1.00  0.00     0.166 HD
ENDROOT
BRANCH   1  11
ATOM     11  C   UNL     1      44.093 130.710  20.508  1.00  0.00    -0.008 A 
ATOM     12  C   UNL     1      43.290 131.723  18.447  1.00  0.00    -0.011 A 
ATOM     13  C   UNL     1      43.082 131.357  19.786  1.00  0.00     0.015 A 
ATOM     14  C   UNL     1      44.533 131.461  17.843  1.00  0.00     0.167 A 
ATOM     15  C   UNL     1      45.542 130.808  18.561  1.00  0.00     0.152 A 
ATOM     16  C   UNL     1      45.314 130.417  19.886  1.00  0.00     0.058 A 
ATOM     17  C   UNL     1      42.224 132.461  17.691  1.00  0.00     0.048 C 
ATOM     18  F   UNL     1      44.768 131.848  16.563  1.00  0.00    -0.203 F 
BRANCH  15  19
ATOM     19  O   UNL     1      46.770 130.561  17.953  1.00  0.00    -0.505 OA
ATOM     20  H   UNL     1      47.061 131.064  17.123  1.00  0.00     0.293 HD
ENDBRANCH  15  19
ENDBRANCH   1  11
BRANCH   2  21
ATOM     21  N   UNL     1      45.299 128.274  21.700  1.00  0.00    -0.281 N 
ATOM     22  H   UNL     1      45.012 128.349  20.699  1.00  0.00     0.358 HD
ATOM     23  H   UNL     1      46.298 128.581  21.752  1.00  0.00     0.358 HD
BRANCH  21  24
ATOM     24  C   UNL     1      45.229 126.908  22.175  1.00  0.00     0.138 A 
ATOM     25  C   UNL     1      43.984 126.313  22.491  1.00  0.00     0.068 A 
ATOM     26  C   UNL     1      46.394 126.139  22.385  1.00  0.00     0.017 A 
ATOM     27  C   UNL     1      43.919 124.982  22.931  1.00  0.00     0.006 A 
ATOM     28  C   UNL     1      46.316 124.834  22.812  1.00  0.00    -0.039 A 
ATOM     29  C   UNL     1      47.808 126.568  22.225  1.00  0.00     0.042 C 
ATOM     30  C   UNL     1      45.088 124.231  23.086  1.00  0.00     0.004 A 
ATOM     31  C   UNL     1      47.648 124.204  22.954  1.00  0.00     0.036 C 
ATOM     32  C   UNL     1      48.628 125.293  22.487  1.00  0.00     0.010 C 
ENDBRANCH  21  24
ENDBRANCH   2  21
TORSDOF 4
ENDMDL
MODEL 6
REMARK VINA RESULT:      -3.0      4.258      6.671
REMARK SMILES Cc1cc(-c2c([NH2+]c3cccc4c3CCC4)ccc3[nH]ccc23)cc(O)c1F
REMARK SMILES IDX 5 1 6 2 17 3 18 4 19 5 20 6 21 7 22 8 23 9 4 11 2 12 3 13
REMARK SMILES IDX 27 14 25 15 24 16 1 17 28 18 26 19 7 21 8 24 9 25 13 26
REMARK SMILES IDX 10 27 12 28 14 29 11 30 16 31 15 32
REMARK H PARENT 20 10 26 20 7 22 7 23
ROOT
ATOM      1  C   UNL     1      44.766 131.793  21.741  1.00  0.00     0.053 A 
ATOM      2  C   UNL     1      45.606 132.805  22.294  1.00  0.00     0.143 A 
ATOM      3  C   UNL     1      45.763 132.881  23.706  1.00  0.00     0.071 A 
ATOM      4  C   UNL     1      45.108 131.978  24.559  1.00  0.00     0.033 A 
ATOM      5  C   UNL     1      44.299 131.005  23.983  1.00  0.00     0.046 A 
ATOM      6  N   UNL     1      43.595 130.054  24.619  1.00  0.00    -0.361 N 
ATOM      7  C   UNL     1      42.971 129.346  23.652  1.00  0.00     0.083 A 
ATOM      8  C   UNL     1      43.283 129.851  22.395  1.00  0.00     0.029 A 
ATOM      9  C   UNL     1      44.134 130.913  22.628  1.00  0.00     0.013 A 
ATOM     10  H   UNL     1      43.539 129.891  25.649  1.00  0.00     0.166 HD
ENDROOT
BRANCH   1  11
ATOM     11  C   UNL     1      44.566 131.642  20.289  1.00  0.00    -0.008 A 
ATOM     12  C   UNL     1      45.335 130.828  18.130  1.00  0.00    -0.011 A 
ATOM     13  C   UNL     1      45.519 130.968  19.515  1.00  0.00     0.015 A 
ATOM     14  C   UNL     1      44.172 131.344  17.530  1.00  0.00     0.167 A 
ATOM     15  C   UNL     1      43.224 132.025  18.303  1.00  0.00     0.152 A 
ATOM     16  C   UNL     1      43.431 132.188  19.677  1.00  0.00     0.058 A 
ATOM     17  C   UNL     1      46.331 130.061  17.310  1.00  0.00     0.048 C 
ATOM     18  F   UNL     1      43.956 131.178  16.200  1.00  0.00    -0.203 F 
BRANCH  15  19
ATOM     19  O   UNL     1      42.074 132.526  17.697  1.00  0.00    -0.505 OA
ATOM     20  H   UNL     1      41.260 131.942  17.541  1.00  0.00     0.293 HD
ENDBRANCH  15  19
ENDBRANCH   1  11
BRANCH   2  21
ATOM     21  N   UNL     1      46.309 133.747  21.448  1.00  0.00    -0.281 N 
ATOM     22  H   UNL     1      46.408 133.321  20.500  1.00  0.00     0.358 HD
ATOM     23  H   UNL     1      45.755 134.626  21.329  1.00  0.00     0.358 HD
BRANCH  21  24
ATOM     24  C   UNL     1      47.595 134.105  22.010  1.00  0.00     0.138 A 
ATOM     25  C   UNL     1      48.174 133.332  23.045  1.00  0.00     0.068 A 
ATOM     26  C   UNL     1      48.291 135.256  21.585  1.00  0.00     0.017 A 
ATOM     27  C   UNL     1      49.429 133.670  23.573  1.00  0.00     0.006 A 
ATOM     28  C   UNL     1      49.523 135.574  22.107  1.00  0.00    -0.039 A 
ATOM     29  C   UNL     1      47.849 136.273  20.595  1.00  0.00     0.042 C 
ATOM     30  C   UNL     1      50.116 134.792  23.098  1.00  0.00     0.004 A 
ATOM     31  C   UNL     1      50.087 136.809  21.516  1.00  0.00     0.036 C 
ATOM     32  C   UNL     1      49.049 137.227  20.462  1.00  0.00     0.010 C 
ENDBRANCH  21  24
ENDBRANCH   2  21
TORSDOF 4
ENDMDL
MODEL 7
REMARK VINA RESULT:      -2.9      3.133      6.857
REMARK SMILES Cc1cc(-c2c([NH2+]c3cccc4c3CCC4)ccc3[nH]ccc23)cc(O)c1F
REMARK SMILES IDX 5 1 6 2 17 3 18 4 19 5 20 6 21 7 22 8 23 9 4 11 2 12 3 13
REMARK SMILES IDX 27 14 25 15 24 16 1 17 28 18 26 19 7 21 8 24 9 25 13 26
REMARK SMILES IDX 10 27 12 28 14 29 11 30 16 31 15 32
REMARK H PARENT 20 10 26 20 7 22 7 23
ROOT
ATOM      1  C   UNL     1      45.081 126.989  22.717  1.00  0.00     0.053 A 
ATOM      2  C   UNL     1      44.903 128.287  22.154  1.00  0.00     0.143 A 
ATOM      3  C   UNL     1      43.663 128.959  22.338  1.00  0.00     0.071 A 
ATOM      4  C   UNL     1      42.616 128.367  23.064  1.00  0.00     0.033 A 
ATOM      5  C   UNL     1      42.828 127.101  23.600  1.00  0.00     0.046 A 
ATOM      6  N   UNL     1      41.964 126.370  24.323  1.00  0.00    -0.361 N 
ATOM      7  C   UNL     1      42.609 125.222  24.622  1.00  0.00     0.083 A 
ATOM      8  C   UNL     1      43.892 125.225  24.086  1.00  0.00     0.029 A 
ATOM      9  C   UNL     1      44.013 126.437  23.435  1.00  0.00     0.013 A 
ATOM     10  H   UNL     1      40.991 126.633  24.599  1.00  0.00     0.166 HD
ENDROOT
BRANCH   1  11
ATOM     11  C   UNL     1      46.341 126.238  22.582  1.00  0.00    -0.008 A 
ATOM     12  C   UNL     1      48.594 125.744  23.356  1.00  0.00    -0.011 A 
ATOM     13  C   UNL     1      47.389 126.453  23.486  1.00  0.00     0.015 A 
ATOM     14  C   UNL     1      48.730 124.793  22.329  1.00  0.00     0.167 A 
ATOM     15  C   UNL     1      47.686 124.583  21.420  1.00  0.00     0.152 A 
ATOM     16  C   UNL     1      46.501 125.318  21.537  1.00  0.00     0.058 A 
ATOM     17  C   UNL     1      49.696 125.939  24.355  1.00  0.00     0.048 C 
ATOM     18  F   UNL     1      49.871 124.066  22.215  1.00  0.00    -0.203 F 
BRANCH  15  19
ATOM     19  O   UNL     1      47.832 123.634  20.411  1.00  0.00    -0.505 OA
ATOM     20  H   UNL     1      47.053 123.063  20.105  1.00  0.00     0.293 HD
ENDBRANCH  15  19
ENDBRANCH   1  11
BRANCH   2  21
ATOM     21  N   UNL     1      45.961 128.938  21.410  1.00  0.00    -0.281 N 
ATOM     22  H   UNL     1      46.792 129.026  22.035  1.00  0.00     0.358 HD
ATOM     23  H   UNL     1      46.257 128.353  20.594  1.00  0.00     0.358 HD
BRANCH  21  24
ATOM     24  C   UNL     1      45.536 130.226  20.902  1.00  0.00     0.138 A 
ATOM     25  C   UNL     1      45.000 131.206  21.771  1.00  0.00     0.068 A 
ATOM     26  C   UNL     1      45.594 130.532  19.526  1.00  0.00     0.017 A 
ATOM     27  C   UNL     1      44.608 132.460  21.279  1.00  0.00     0.006 A 
ATOM     28  C   UNL     1      45.211 131.767  19.056  1.00  0.00    -0.039 A 
ATOM     29  C   UNL     1      46.017 129.643  18.413  1.00  0.00     0.042 C 
ATOM     30  C   UNL     1      44.720 132.750  19.915  1.00  0.00     0.004 A 
ATOM     31  C   UNL     1      45.363 131.887  17.589  1.00  0.00     0.036 C 
ATOM     32  C   UNL     1      45.975 130.541  17.165  1.00  0.00     0.010 C 
ENDBRANCH  21  24
ENDBRANCH   2  21
TORSDOF 4
ENDMDL
MODEL 8
REMARK VINA RESULT:      -1.8      2.632      6.413
REMARK SMILES Cc1cc(-c2c([NH2+]c3cccc4c3CCC4)ccc3[nH]ccc23)cc(O)c1F
REMARK SMILES IDX 5 1 6 2 17 3 18 4 19 5 20 6 21 7 22 8 23 9 4 11 2 12 3 13
REMARK SMILES IDX 27 14 25 15 24 16 1 17 28 18 26 19 7 21 8 24 9 25 13 26
REMARK SMILES IDX 10 27 12 28 14 29 11 30 16 31 15 32
REMARK H PARENT 20 10 26 20 7 22 7 23
ROOT
ATOM      1  C   UNL     1      44.629 129.694  21.685  1.00  0.00     0.053 A 
ATOM      2  C   UNL     1      44.909 130.467  20.519  1.00  0.00     0.143 A 
ATOM      3  C   UNL     1      44.513 131.832  20.480  1.00  0.00     0.071 A 
ATOM      4  C   UNL     1      43.854 132.429  21.567  1.00  0.00     0.033 A 
ATOM      5  C   UNL     1      43.599 131.645  22.687  1.00  0.00     0.046 A 
ATOM      6  N   UNL     1      42.989 132.023  23.822  1.00  0.00    -0.361 N 
ATOM      7  C   UNL     1      42.973 130.931  24.616  1.00  0.00     0.083 A 
ATOM      8  C   UNL     1      43.578 129.852  23.981  1.00  0.00     0.029 A 
ATOM      9  C   UNL     1      43.972 130.329  22.746  1.00  0.00     0.013 A 
ATOM     10  H   UNL     1      42.605 132.968  24.048  1.00  0.00     0.166 HD
ENDROOT
BRANCH   1  11
ATOM     11  C   UNL     1      45.022 128.279  21.806  1.00  0.00    -0.008 A 
ATOM     12  C   UNL     1      44.413 125.933  22.004  1.00  0.00    -0.011 A 
ATOM     13  C   UNL     1      44.042 127.281  21.882  1.00  0.00     0.015 A 
ATOM     14  C   UNL     1      45.776 125.589  22.019  1.00  0.00     0.167 A 
ATOM     15  C   UNL     1      46.756 126.586  21.951  1.00  0.00     0.152 A 
ATOM     16  C   UNL     1      46.377 127.931  21.862  1.00  0.00     0.058 A 
ATOM     17  C   UNL     1      43.363 124.861  22.035  1.00  0.00     0.048 C 
ATOM     18  F   UNL     1      46.154 124.286  22.090  1.00  0.00    -0.203 F 
BRANCH  15  19
ATOM     19  O   UNL     1      48.103 126.231  21.960  1.00  0.00    -0.505 OA
ATOM     20  H   UNL     1      48.821 126.886  22.246  1.00  0.00     0.293 HD
ENDBRANCH  15  19
ENDBRANCH   1  11
BRANCH   2  21
ATOM     21  N   UNL     1      45.598 129.893  19.382  1.00  0.00    -0.281 N 
ATOM     22  H   UNL     1      46.621 130.066  19.501  1.00  0.00     0.358 HD
ATOM     23  H   UNL     1      45.469 128.855  19.353  1.00  0.00     0.358 HD
BRANCH  21  24
ATOM     24  C   UNL     1      45.105 130.438  18.135  1.00  0.00     0.138 A 
ATOM     25  C   UNL     1      43.900 131.179  18.094  1.00  0.00     0.068 A 
ATOM     26  C   UNL     1      45.776 130.211  16.914  1.00  0.00     0.017 A 
ATOM     27  C   UNL     1      43.434 131.722  16.887  1.00  0.00     0.006 A 
ATOM     28  C   UNL     1      45.313 130.753  15.738  1.00  0.00    -0.039 A 
ATOM     29  C   UNL     1      46.992 129.389  16.683  1.00  0.00     0.042 C 
ATOM     30  C   UNL     1      44.146 131.518  15.700  1.00  0.00     0.004 A 
ATOM     31  C   UNL     1      46.168 130.408  14.580  1.00  0.00     0.036 C 
ATOM     32  C   UNL     1      47.319 129.594  15.194  1.00  0.00     0.010 C 
ENDBRANCH  21  24
ENDBRANCH   2  21
TORSDOF 4
ENDMDL
MODEL 9
REMARK VINA RESULT:      -1.7      1.420      2.451
REMARK SMILES Cc1cc(-c2c([NH2+]c3cccc4c3CCC4)ccc3[nH]ccc23)cc(O)c1F
REMARK SMILES IDX 5 1 6 2 17 3 18 4 19 5 20 6 21 7 22 8 23 9 4 11 2 12 3 13
REMARK SMILES IDX 27 14 25 15 24 16 1 17 28 18 26 19 7 21 8 24 9 25 13 26
REMARK SMILES IDX 10 27 12 28 14 29 11 30 16 31 15 32
REMARK H PARENT 20 10 26 20 7 22 7 23
ROOT
ATOM      1  C   UNL     1      43.490 131.255  21.127  1.00  0.00     0.053 A 
ATOM      2  C   UNL     1      43.906 130.482  22.252  1.00  0.00     0.143 A 
ATOM      3  C   UNL     1      43.256 130.672  23.503  1.00  0.00     0.071 A 
ATOM      4  C   UNL     1      42.215 131.605  23.646  1.00  0.00     0.033 A 
ATOM      5  C   UNL     1      41.837 132.338  22.527  1.00  0.00     0.046 A 
ATOM      6  N   UNL     1      40.870 133.268  22.455  1.00  0.00    -0.361 N 
ATOM      7  C   UNL     1      40.867 133.700  21.174  1.00  0.00     0.083 A 
ATOM      8  C   UNL     1      41.837 133.039  20.430  1.00  0.00     0.029 A 
ATOM      9  C   UNL     1      42.448 132.171  21.314  1.00  0.00     0.013 A 
ATOM     10  H   UNL     1      40.247 133.593  23.227  1.00  0.00     0.166 HD
ENDROOT
BRANCH   1  11
ATOM     11  C   UNL     1      44.105 131.103  19.797  1.00  0.00    -0.008 A 
ATOM     12  C   UNL     1      44.001 131.386  17.383  1.00  0.00    -0.011 A 
ATOM     13  C   UNL     1      43.421 131.535  18.653  1.00  0.00     0.015 A 
ATOM     14  C   UNL     1      45.286 130.827  17.270  1.00  0.00     0.167 A 
ATOM     15  C   UNL     1      45.967 130.388  18.413  1.00  0.00     0.152 A 
ATOM     16  C   UNL     1      45.368 130.510  19.672  1.00  0.00     0.058 A 
ATOM     17  C   UNL     1      43.289 131.894  16.164  1.00  0.00     0.048 C 
ATOM     18  F   UNL     1      45.882 130.716  16.055  1.00  0.00    -0.203 F 
BRANCH  15  19
ATOM     19  O   UNL     1      47.242 129.842  18.287  1.00  0.00    -0.505 OA
ATOM     20  H   UNL     1      48.048 130.420  18.080  1.00  0.00     0.293 HD
ENDBRANCH  15  19
ENDBRANCH   1  11
BRANCH   2  21
ATOM     21  N   UNL     1      44.966 129.502  22.143  1.00  0.00    -0.281 N 
ATOM     22  H   UNL     1      45.243 129.432  21.139  1.00  0.00     0.358 HD
ATOM     23  H   UNL     1      45.816 129.812  22.670  1.00  0.00     0.358 HD
BRANCH  21  24
ATOM     24  C   UNL     1      44.557 128.219  22.675  1.00  0.00     0.138 A 
ATOM     25  C   UNL     1      43.335 128.082  23.376  1.00  0.00     0.068 A 
ATOM     26  C   UNL     1      45.377 127.076  22.558  1.00  0.00     0.017 A 
ATOM     27  C   UNL     1      42.932 126.832  23.872  1.00  0.00     0.006 A 
ATOM     28  C   UNL     1      44.969 125.856  23.044  1.00  0.00    -0.039 A 
ATOM     29  C   UNL     1      46.735 126.988  21.962  1.00  0.00     0.042 C 
ATOM     30  C   UNL     1      43.746 125.708  23.700  1.00  0.00     0.004 A 
ATOM     31  C   UNL     1      45.966 124.789  22.806  1.00  0.00     0.036 C 
ATOM     32  C   UNL     1      47.085 125.491  22.020  1.00  0.00     0.010 C 
ENDBRANCH  21  24
ENDBRANCH   2  21
TORSDOF 4
ENDMDL


