REMARK SMILES CC(=O)n1[nH+]c2cc(-c3cnc(F)cc3C)ccc2c1C
REMARK SMILES IDX 4 1 5 2 6 3 7 4 8 5 17 6 18 7 19 8 20 9 21 10 2 12 1 13 3 14
REMARK SMILES IDX 9 15 10 16 15 17 11 18 14 19 12 20 16 21 13 22
REMARK H PARENT 5 11
ROOT
ATOM      1  N   UNL     1       1.047  -2.349  -1.014  1.00  0.00    -0.091 N 
ATOM      2  N   UNL     1       0.100  -1.527  -0.567  1.00  0.00    -0.116 N 
ATOM      3  C   UNL     1       0.700  -0.441  -0.056  1.00  0.00     0.237 A 
ATOM      4  C   UNL     1       0.103   0.678   0.518  1.00  0.00     0.091 A 
ATOM      5  C   UNL     1       0.946   1.707   0.995  1.00  0.00    -0.010 A 
ATOM      6  C   UNL     1       2.354   1.584   0.859  1.00  0.00     0.010 A 
ATOM      7  C   UNL     1       2.923   0.438   0.273  1.00  0.00     0.018 A 
ATOM      8  C   UNL     1       2.058  -0.560  -0.174  1.00  0.00     0.074 A 
ATOM      9  C   UNL     1       2.267  -1.784  -0.787  1.00  0.00     0.097 A 
ATOM     10  C   UNL     1       3.596  -2.384  -1.144  1.00  0.00     0.072 C 
ATOM     11  H   UNL     1      -0.929  -1.698  -0.609  1.00  0.00     0.489 HD
ENDROOT
BRANCH   1  12
ATOM     12  C   UNL     1       0.773  -3.623  -1.633  1.00  0.00     0.279 C 
ATOM     13  C   UNL     1      -0.634  -4.106  -1.804  1.00  0.00     0.121 C 
ATOM     14  O   UNL     1       1.716  -4.353  -2.042  1.00  0.00    -0.269 OA
ENDBRANCH   1  12
BRANCH   5  15
ATOM     15  C   UNL     1       0.367   2.925   1.604  1.00  0.00     0.003 A 
ATOM     16  C   UNL     1       0.651   4.174   1.027  1.00  0.00     0.123 A 
ATOM     17  C   UNL     1      -0.459   2.878   2.753  1.00  0.00    -0.037 A 
ATOM     18  N   UNL     1       0.114   5.309   1.544  1.00  0.00    -0.228 NA
ATOM     19  C   UNL     1      -1.008   4.072   3.247  1.00  0.00     0.064 A 
ATOM     20  C   UNL     1      -0.704   5.284   2.627  1.00  0.00     0.213 A 
ATOM     21  C   UNL     1      -0.781   1.584   3.453  1.00  0.00     0.045 C 
ATOM     22  F   UNL     1      -1.223   6.441   3.106  1.00  0.00    -0.185 F 
ENDBRANCH   5  15
TORSDOF 2


