MODEL 1
REMARK VINA RESULT:     -10.0      0.000      0.000
REMARK SMILES Fc1ccc2nc(-c3cccnc3F)ccc2c1
REMARK SMILES IDX 1 1 2 2 3 3 4 4 5 5 6 6 7 7 15 8 16 9 17 10 18 11 8 12 9 13
REMARK SMILES IDX 13 14 10 15 12 16 11 17 14 18
REMARK H PARENT
ROOT
ATOM      1  F   UNL     1      42.570 132.062  22.979  1.00  0.00    -0.207 F 
ATOM      2  C   UNL     1      43.257 131.814  21.838  1.00  0.00     0.123 A 
ATOM      3  C   UNL     1      44.580 131.363  21.903  1.00  0.00     0.041 A 
ATOM      4  C   UNL     1      45.294 131.105  20.728  1.00  0.00     0.032 A 
ATOM      5  C   UNL     1      44.686 131.299  19.483  1.00  0.00     0.071 A 
ATOM      6  N   UNL     1      45.376 131.050  18.339  1.00  0.00    -0.248 NA
ATOM      7  C   UNL     1      44.841 131.218  17.095  1.00  0.00     0.076 A 
ATOM      8  C   UNL     1      43.506 131.673  17.000  1.00  0.00     0.030 A 
ATOM      9  C   UNL     1      42.771 131.937  18.158  1.00  0.00     0.013 A 
ATOM     10  C   UNL     1      43.353 131.753  19.414  1.00  0.00     0.003 A 
ATOM     11  C   UNL     1      42.642 132.010  20.596  1.00  0.00     0.049 A 
ENDROOT
BRANCH   7  12
ATOM     12  C   UNL     1      45.686 130.915  15.890  1.00  0.00     0.055 A 
ATOM     13  C   UNL     1      46.338 131.932  15.155  1.00  0.00     0.017 A 
ATOM     14  C   UNL     1      45.861 129.582  15.442  1.00  0.00     0.222 A 
ATOM     15  C   UNL     1      47.116 131.620  14.040  1.00  0.00     0.021 A 
ATOM     16  N   UNL     1      46.627 129.314  14.350  1.00  0.00    -0.228 NA
ATOM     17  C   UNL     1      47.251 130.293  13.648  1.00  0.00     0.114 A 
ATOM     18  F   UNL     1      45.277 128.536  16.079  1.00  0.00    -0.184 F 
ENDBRANCH   7  12
TORSDOF 1
ENDMDL
MODEL 2
REMARK VINA RESULT:      -9.7      1.294      1.600
REMARK SMILES Fc1ccc2nc(-c3cccnc3F)ccc2c1
REMARK SMILES IDX 1 1 2 2 3 3 4 4 5 5 6 6 7 7 15 8 16 9 17 10 18 11 8 12 9 13
REMARK SMILES IDX 13 14 10 15 12 16 11 17 14 18
REMARK H PARENT
ROOT
ATOM      1  F   UNL     1      42.441 132.088  22.782  1.00  0.00    -0.207 F 
ATOM      2  C   UNL     1      43.171 131.811  21.675  1.00  0.00     0.123 A 
ATOM      3  C   UNL     1      44.483 131.343  21.803  1.00  0.00     0.041 A 
ATOM      4  C   UNL     1      45.242 131.056  20.663  1.00  0.00     0.032 A 
ATOM      5  C   UNL     1      44.689 131.237  19.390  1.00  0.00     0.071 A 
ATOM      6  N   UNL     1      45.423 130.961  18.281  1.00  0.00    -0.248 NA
ATOM      7  C   UNL     1      44.942 131.116  17.013  1.00  0.00     0.076 A 
ATOM      8  C   UNL     1      43.619 131.587  16.854  1.00  0.00     0.030 A 
ATOM      9  C   UNL     1      42.841 131.881  17.976  1.00  0.00     0.013 A 
ATOM     10  C   UNL     1      43.367 131.709  19.259  1.00  0.00     0.003 A 
ATOM     11  C   UNL     1      42.612 131.995  20.405  1.00  0.00     0.049 A 
ENDROOT
BRANCH   7  12
ATOM     12  C   UNL     1      45.833 130.782  15.849  1.00  0.00     0.055 A 
ATOM     13  C   UNL     1      46.098 129.447  15.465  1.00  0.00     0.017 A 
ATOM     14  C   UNL     1      46.448 131.807  15.087  1.00  0.00     0.222 A 
ATOM     15  C   UNL     1      46.929 129.168  14.380  1.00  0.00     0.021 A 
ATOM     16  N   UNL     1      47.253 131.498  14.035  1.00  0.00    -0.228 NA
ATOM     17  C   UNL     1      47.504 130.216  13.669  1.00  0.00     0.114 A 
ATOM     18  F   UNL     1      46.257 133.119  15.376  1.00  0.00    -0.184 F 
ENDBRANCH   7  12
TORSDOF 1
ENDMDL
MODEL 3
REMARK VINA RESULT:      -8.9      1.572      2.411
REMARK SMILES Fc1ccc2nc(-c3cccnc3F)ccc2c1
REMARK SMILES IDX 1 1 2 2 3 3 4 4 5 5 6 6 7 7 15 8 16 9 17 10 18 11 8 12 9 13
REMARK SMILES IDX 13 14 10 15 12 16 11 17 14 18
REMARK H PARENT
ROOT
ATOM      1  F   UNL     1      42.250 132.312  23.318  1.00  0.00    -0.207 F 
ATOM      2  C   UNL     1      42.727 132.118  22.064  1.00  0.00     0.123 A 
ATOM      3  C   UNL     1      41.997 132.574  20.961  1.00  0.00     0.041 A 
ATOM      4  C   UNL     1      42.484 132.377  19.665  1.00  0.00     0.032 A 
ATOM      5  C   UNL     1      43.706 131.722  19.469  1.00  0.00     0.071 A 
ATOM      6  N   UNL     1      44.183 131.528  18.212  1.00  0.00    -0.248 NA
ATOM      7  C   UNL     1      45.366 130.898  17.953  1.00  0.00     0.076 A 
ATOM      8  C   UNL     1      46.124 130.429  19.050  1.00  0.00     0.030 A 
ATOM      9  C   UNL     1      45.659 130.613  20.354  1.00  0.00     0.013 A 
ATOM     10  C   UNL     1      44.443 131.263  20.579  1.00  0.00     0.003 A 
ATOM     11  C   UNL     1      43.949 131.463  21.876  1.00  0.00     0.049 A 
ENDROOT
BRANCH   7  12
ATOM     12  C   UNL     1      45.808 130.733  16.526  1.00  0.00     0.055 A 
ATOM     13  C   UNL     1      45.990 129.460  15.939  1.00  0.00     0.017 A 
ATOM     14  C   UNL     1      46.061 131.863  15.708  1.00  0.00     0.222 A 
ATOM     15  C   UNL     1      46.401 129.338  14.612  1.00  0.00     0.021 A 
ATOM     16  N   UNL     1      46.461 131.706  14.418  1.00  0.00    -0.228 NA
ATOM     17  C   UNL     1      46.634 130.483  13.859  1.00  0.00     0.114 A 
ATOM     18  F   UNL     1      45.915 133.127  16.179  1.00  0.00    -0.184 F 
ENDBRANCH   7  12
TORSDOF 1
ENDMDL
MODEL 4
REMARK VINA RESULT:      -8.7      1.596      2.332
REMARK SMILES Fc1ccc2nc(-c3cccnc3F)ccc2c1
REMARK SMILES IDX 1 1 2 2 3 3 4 4 5 5 6 6 7 7 15 8 16 9 17 10 18 11 8 12 9 13
REMARK SMILES IDX 13 14 10 15 12 16 11 17 14 18
REMARK H PARENT
ROOT
ATOM      1  F   UNL     1      42.731 131.908  23.913  1.00  0.00    -0.207 F 
ATOM      2  C   UNL     1      43.052 131.822  22.599  1.00  0.00     0.123 A 
ATOM      3  C   UNL     1      42.200 132.372  21.635  1.00  0.00     0.041 A 
ATOM      4  C   UNL     1      42.526 132.285  20.277  1.00  0.00     0.032 A 
ATOM      5  C   UNL     1      43.707 131.647  19.880  1.00  0.00     0.071 A 
ATOM      6  N   UNL     1      44.027 131.561  18.563  1.00  0.00    -0.248 NA
ATOM      7  C   UNL     1      45.163 130.953  18.111  1.00  0.00     0.076 A 
ATOM      8  C   UNL     1      46.041 130.390  19.064  1.00  0.00     0.030 A 
ATOM      9  C   UNL     1      45.738 130.462  20.425  1.00  0.00     0.013 A 
ATOM     10  C   UNL     1      44.567 131.093  20.850  1.00  0.00     0.003 A 
ATOM     11  C   UNL     1      44.234 131.182  22.210  1.00  0.00     0.049 A 
ENDROOT
BRANCH   7  12
ATOM     12  C   UNL     1      45.428 130.910  16.632  1.00  0.00     0.055 A 
ATOM     13  C   UNL     1      46.614 130.356  16.097  1.00  0.00     0.017 A 
ATOM     14  C   UNL     1      44.486 131.431  15.709  1.00  0.00     0.222 A 
ATOM     15  C   UNL     1      46.832 130.330  14.720  1.00  0.00     0.021 A 
ATOM     16  N   UNL     1      44.732 131.389  14.372  1.00  0.00    -0.228 NA
ATOM     17  C   UNL     1      45.871 130.856  13.864  1.00  0.00     0.114 A 
ATOM     18  F   UNL     1      43.318 131.984  16.123  1.00  0.00    -0.184 F 
ENDBRANCH   7  12
TORSDOF 1
ENDMDL
MODEL 5
REMARK VINA RESULT:      -8.7      0.884      1.776
REMARK SMILES Fc1ccc2nc(-c3cccnc3F)ccc2c1
REMARK SMILES IDX 1 1 2 2 3 3 4 4 5 5 6 6 7 7 15 8 16 9 17 10 18 11 8 12 9 13
REMARK SMILES IDX 13 14 10 15 12 16 11 17 14 18
REMARK H PARENT
ROOT
ATOM      1  F   UNL     1      42.236 132.195  23.120  1.00  0.00    -0.207 F 
ATOM      2  C   UNL     1      42.718 132.054  21.861  1.00  0.00     0.123 A 
ATOM      3  C   UNL     1      42.017 132.600  20.780  1.00  0.00     0.041 A 
ATOM      4  C   UNL     1      42.510 132.458  19.479  1.00  0.00     0.032 A 
ATOM      5  C   UNL     1      43.706 131.768  19.255  1.00  0.00     0.071 A 
ATOM      6  N   UNL     1      44.188 131.627  17.992  1.00  0.00    -0.248 NA
ATOM      7  C   UNL     1      45.348 130.966  17.707  1.00  0.00     0.076 A 
ATOM      8  C   UNL     1      46.076 130.405  18.781  1.00  0.00     0.030 A 
ATOM      9  C   UNL     1      45.605 130.533  20.090  1.00  0.00     0.013 A 
ATOM     10  C   UNL     1      44.414 131.217  20.342  1.00  0.00     0.003 A 
ATOM     11  C   UNL     1      43.915 131.362  21.645  1.00  0.00     0.049 A 
ENDROOT
BRANCH   7  12
ATOM     12  C   UNL     1      45.797 130.864  16.276  1.00  0.00     0.055 A 
ATOM     13  C   UNL     1      46.303 131.978  15.567  1.00  0.00     0.017 A 
ATOM     14  C   UNL     1      45.727 129.632  15.579  1.00  0.00     0.222 A 
ATOM     15  C   UNL     1      46.712 131.853  14.240  1.00  0.00     0.021 A 
ATOM     16  N   UNL     1      46.134 129.547  14.284  1.00  0.00    -0.228 NA
ATOM     17  C   UNL     1      46.620 130.618  13.608  1.00  0.00     0.114 A 
ATOM     18  F   UNL     1      45.256 128.506  16.171  1.00  0.00    -0.184 F 
ENDBRANCH   7  12
TORSDOF 1
ENDMDL
MODEL 6
REMARK VINA RESULT:      -8.7      1.443      1.591
REMARK SMILES Fc1ccc2nc(-c3cccnc3F)ccc2c1
REMARK SMILES IDX 1 1 2 2 3 3 4 4 5 5 6 6 7 7 15 8 16 9 17 10 18 11 8 12 9 13
REMARK SMILES IDX 13 14 10 15 12 16 11 17 14 18
REMARK H PARENT
ROOT
ATOM      1  F   UNL     1      42.574 132.042  23.882  1.00  0.00    -0.207 F 
ATOM      2  C   UNL     1      43.141 131.794  22.676  1.00  0.00     0.123 A 
ATOM      3  C   UNL     1      44.405 131.197  22.609  1.00  0.00     0.041 A 
ATOM      4  C   UNL     1      44.995 130.938  21.367  1.00  0.00     0.032 A 
ATOM      5  C   UNL     1      44.321 131.277  20.188  1.00  0.00     0.071 A 
ATOM      6  N   UNL     1      44.891 131.028  18.980  1.00  0.00    -0.248 NA
ATOM      7  C   UNL     1      44.287 131.333  17.795  1.00  0.00     0.076 A 
ATOM      8  C   UNL     1      43.009 131.936  17.834  1.00  0.00     0.030 A 
ATOM      9  C   UNL     1      42.399 132.205  19.061  1.00  0.00     0.013 A 
ATOM     10  C   UNL     1      43.048 131.877  20.254  1.00  0.00     0.003 A 
ATOM     11  C   UNL     1      42.461 132.135  21.502  1.00  0.00     0.049 A 
ENDROOT
BRANCH   7  12
ATOM     12  C   UNL     1      45.000 131.017  16.510  1.00  0.00     0.055 A 
ATOM     13  C   UNL     1      46.275 130.407  16.489  1.00  0.00     0.017 A 
ATOM     14  C   UNL     1      44.411 131.325  15.258  1.00  0.00     0.222 A 
ATOM     15  C   UNL     1      46.912 130.126  15.281  1.00  0.00     0.021 A 
ATOM     16  N   UNL     1      45.062 131.037  14.098  1.00  0.00    -0.228 NA
ATOM     17  C   UNL     1      46.285 130.451  14.083  1.00  0.00     0.114 A 
ATOM     18  F   UNL     1      43.191 131.912  15.172  1.00  0.00    -0.184 F 
ENDBRANCH   7  12
TORSDOF 1
ENDMDL
MODEL 7
REMARK VINA RESULT:      -8.7      1.056      1.260
REMARK SMILES Fc1ccc2nc(-c3cccnc3F)ccc2c1
REMARK SMILES IDX 1 1 2 2 3 3 4 4 5 5 6 6 7 7 15 8 16 9 17 10 18 11 8 12 9 13
REMARK SMILES IDX 13 14 10 15 12 16 11 17 14 18
REMARK H PARENT
ROOT
ATOM      1  F   UNL     1      42.338 132.209  21.600  1.00  0.00    -0.207 F 
ATOM      2  C   UNL     1      43.167 131.909  20.571  1.00  0.00     0.123 A 
ATOM      3  C   UNL     1      44.469 131.468  20.828  1.00  0.00     0.041 A 
ATOM      4  C   UNL     1      45.329 131.157  19.770  1.00  0.00     0.032 A 
ATOM      5  C   UNL     1      44.887 131.287  18.448  1.00  0.00     0.071 A 
ATOM      6  N   UNL     1      45.719 130.987  17.417  1.00  0.00    -0.248 NA
ATOM      7  C   UNL     1      45.349 131.092  16.107  1.00  0.00     0.076 A 
ATOM      8  C   UNL     1      44.039 131.535  15.818  1.00  0.00     0.030 A 
ATOM      9  C   UNL     1      43.161 131.852  16.858  1.00  0.00     0.013 A 
ATOM     10  C   UNL     1      43.575 131.731  18.186  1.00  0.00     0.003 A 
ATOM     11  C   UNL     1      42.718 132.042  19.252  1.00  0.00     0.049 A 
ENDROOT
BRANCH   7  12
ATOM     12  C   UNL     1      46.344 130.735  15.038  1.00  0.00     0.055 A 
ATOM     13  C   UNL     1      46.541 131.545  13.895  1.00  0.00     0.017 A 
ATOM     14  C   UNL     1      47.128 129.558  15.138  1.00  0.00     0.222 A 
ATOM     15  C   UNL     1      47.471 131.187  12.920  1.00  0.00     0.021 A 
ATOM     16  N   UNL     1      48.025 129.241  14.167  1.00  0.00    -0.228 NA
ATOM     17  C   UNL     1      48.212 130.021  13.073  1.00  0.00     0.114 A 
ATOM     18  F   UNL     1      47.012 128.716  16.196  1.00  0.00    -0.184 F 
ENDBRANCH   7  12
TORSDOF 1
ENDMDL
MODEL 8
REMARK VINA RESULT:      -8.5      2.017      6.572
REMARK SMILES Fc1ccc2nc(-c3cccnc3F)ccc2c1
REMARK SMILES IDX 1 1 2 2 3 3 4 4 5 5 6 6 7 7 15 8 16 9 17 10 18 11 8 12 9 13
REMARK SMILES IDX 13 14 10 15 12 16 11 17 14 18
REMARK H PARENT
ROOT
ATOM      1  F   UNL     1      48.145 130.334  12.037  1.00  0.00    -0.207 F 
ATOM      2  C   UNL     1      47.631 130.312  13.291  1.00  0.00     0.123 A 
ATOM      3  C   UNL     1      47.767 129.165  14.080  1.00  0.00     0.041 A 
ATOM      4  C   UNL     1      47.239 129.135  15.375  1.00  0.00     0.032 A 
ATOM      5  C   UNL     1      46.571 130.256  15.884  1.00  0.00     0.071 A 
ATOM      6  N   UNL     1      46.056 130.231  17.141  1.00  0.00    -0.248 NA
ATOM      7  C   UNL     1      45.395 131.289  17.695  1.00  0.00     0.076 A 
ATOM      8  C   UNL     1      45.243 132.461  16.919  1.00  0.00     0.030 A 
ATOM      9  C   UNL     1      45.762 132.515  15.623  1.00  0.00     0.013 A 
ATOM     10  C   UNL     1      46.433 131.412  15.090  1.00  0.00     0.003 A 
ATOM     11  C   UNL     1      46.964 131.435  13.792  1.00  0.00     0.049 A 
ENDROOT
BRANCH   7  12
ATOM     12  C   UNL     1      44.861 131.164  19.095  1.00  0.00     0.055 A 
ATOM     13  C   UNL     1      45.627 130.604  20.143  1.00  0.00     0.017 A 
ATOM     14  C   UNL     1      43.553 131.607  19.416  1.00  0.00     0.222 A 
ATOM     15  C   UNL     1      45.105 130.501  21.432  1.00  0.00     0.021 A 
ATOM     16  N   UNL     1      43.077 131.491  20.685  1.00  0.00    -0.228 NA
ATOM     17  C   UNL     1      43.815 130.954  21.687  1.00  0.00     0.114 A 
ATOM     18  F   UNL     1      42.740 132.158  18.480  1.00  0.00    -0.184 F 
ENDBRANCH   7  12
TORSDOF 1
ENDMDL
MODEL 9
REMARK VINA RESULT:      -8.1      1.892      6.476
REMARK SMILES Fc1ccc2nc(-c3cccnc3F)ccc2c1
REMARK SMILES IDX 1 1 2 2 3 3 4 4 5 5 6 6 7 7 15 8 16 9 17 10 18 11 8 12 9 13
REMARK SMILES IDX 13 14 10 15 12 16 11 17 14 18
REMARK H PARENT
ROOT
ATOM      1  F   UNL     1      46.096 130.719  13.015  1.00  0.00    -0.207 F 
ATOM      2  C   UNL     1      45.852 130.770  14.347  1.00  0.00     0.123 A 
ATOM      3  C   UNL     1      46.811 130.302  15.251  1.00  0.00     0.041 A 
ATOM      4  C   UNL     1      46.565 130.352  16.627  1.00  0.00     0.032 A 
ATOM      5  C   UNL     1      45.355 130.870  17.103  1.00  0.00     0.071 A 
ATOM      6  N   UNL     1      45.110 130.920  18.439  1.00  0.00    -0.248 NA
ATOM      7  C   UNL     1      43.952 131.412  18.966  1.00  0.00     0.076 A 
ATOM      8  C   UNL     1      42.965 131.892  18.075  1.00  0.00     0.030 A 
ATOM      9  C   UNL     1      43.188 131.853  16.697  1.00  0.00     0.013 A 
ATOM     10  C   UNL     1      44.386 131.342  16.194  1.00  0.00     0.003 A 
ATOM     11  C   UNL     1      44.639 131.289  14.815  1.00  0.00     0.049 A 
ENDROOT
BRANCH   7  12
ATOM     12  C   UNL     1      43.777 131.425  20.459  1.00  0.00     0.055 A 
ATOM     13  C   UNL     1      44.657 130.734  21.324  1.00  0.00     0.017 A 
ATOM     14  C   UNL     1      42.709 132.138  21.059  1.00  0.00     0.222 A 
ATOM     15  C   UNL     1      44.469 130.763  22.705  1.00  0.00     0.021 A 
ATOM     16  N   UNL     1      42.556 132.144  22.411  1.00  0.00    -0.228 NA
ATOM     17  C   UNL     1      43.403 131.481  23.237  1.00  0.00     0.114 A 
ATOM     18  F   UNL     1      41.811 132.832  20.315  1.00  0.00    -0.184 F 
ENDBRANCH   7  12
TORSDOF 1
ENDMDL


