MODEL 1
REMARK VINA RESULT:      -5.8      0.000      0.000
REMARK SMILES O=C([N-][C@H]1C[C@H]1c1ccccc1)NCCc1ccc(-c2c[nH+]c3ccnn3c2)cc1
REMARK SMILES IDX 14 1 13 2 2 3 1 4 3 6 4 7 5 8 6 9 7 10 8 11 12 12 9 13 11 14
REMARK SMILES IDX 10 15 15 16 16 17 17 18 30 19 18 20 29 21 19 22 20 23 21 24
REMARK SMILES IDX 28 25 22 26 27 27 23 28 26 29 24 30 25 31
REMARK H PARENT 13 5 22 32
ROOT
ATOM      1  C   UNL     1      41.896 131.402  22.443  1.00  0.00     0.006 C 
ENDROOT
BRANCH   1   2
ATOM      2  N   UNL     1      42.222 129.977  22.393  1.00  0.00    -0.449 N 
ATOM      3  C   UNL     1      41.930 129.077  23.466  1.00  0.00     0.153 C 
ATOM      4  O   UNL     1      41.655 129.517  24.616  1.00  0.00    -0.299 OA
ATOM      5  H   UNL     1      42.508 129.573  21.473  1.00  0.00     0.024 HD
BRANCH   3   6
ATOM      6  N   UNL     1      41.933 127.671  23.218  1.00  0.00    -0.427 NA
BRANCH   6   7
ATOM      7  C   UNL     1      41.348 126.696  24.132  1.00  0.00     0.002 C 
ATOM      8  C   UNL     1      41.197 125.314  23.523  1.00  0.00     0.012 C 
ATOM      9  C   UNL     1      42.291 125.569  24.560  1.00  0.00     0.022 C 
BRANCH   9  10
ATOM     10  C   UNL     1      43.693 125.584  24.002  1.00  0.00    -0.045 A 
ATOM     11  C   UNL     1      44.707 124.820  24.603  1.00  0.00     0.004 A 
ATOM     12  C   UNL     1      44.017 126.430  22.928  1.00  0.00     0.004 A 
ATOM     13  C   UNL     1      46.008 124.850  24.093  1.00  0.00     0.000 A 
ATOM     14  C   UNL     1      45.319 126.458  22.422  1.00  0.00     0.000 A 
ATOM     15  C   UNL     1      46.313 125.663  22.999  1.00  0.00     0.000 A 
ENDBRANCH   9  10
ENDBRANCH   6   7
ENDBRANCH   3   6
ENDBRANCH   1   2
BRANCH   1  16
ATOM     16  C   UNL     1      43.152 132.250  22.213  1.00  0.00     0.034 C 
BRANCH  16  17
ATOM     17  C   UNL     1      43.846 131.876  20.928  1.00  0.00    -0.048 A 
ATOM     18  C   UNL     1      44.759 130.810  20.896  1.00  0.00     0.004 A 
ATOM     19  C   UNL     1      43.547 132.560  19.742  1.00  0.00     0.004 A 
ATOM     20  C   UNL     1      45.379 130.448  19.697  1.00  0.00     0.009 A 
ATOM     21  C   UNL     1      44.166 132.198  18.543  1.00  0.00     0.009 A 
ATOM     22  C   UNL     1      45.089 131.138  18.507  1.00  0.00    -0.011 A 
BRANCH  22  23
ATOM     23  C   UNL     1      45.743 130.754  17.232  1.00  0.00     0.063 A 
ATOM     24  C   UNL     1      46.241 129.442  17.032  1.00  0.00     0.210 A 
ATOM     25  C   UNL     1      45.889 131.684  16.183  1.00  0.00     0.245 A 
ATOM     26  N   UNL     1      46.844 129.096  15.856  1.00  0.00    -0.245 N 
ATOM     27  N   UNL     1      46.498 131.273  15.045  1.00  0.00    -0.104 N 
ATOM     28  C   UNL     1      46.959 130.031  14.883  1.00  0.00     0.306 A 
ATOM     29  N   UNL     1      46.729 131.992  13.961  1.00  0.00    -0.086 NA
ATOM     30  C   UNL     1      47.525 129.904  13.636  1.00  0.00     0.125 A 
ATOM     31  C   UNL     1      47.357 131.172  13.084  1.00  0.00     0.167 A 
ATOM     32  H   UNL     1      47.206 128.126  15.712  1.00  0.00     0.312 HD
ENDBRANCH  22  23
ENDBRANCH  16  17
ENDBRANCH   1  16
TORSDOF 7
ENDMDL
MODEL 2
REMARK VINA RESULT:      -3.9      1.318      2.411
REMARK SMILES O=C([N-][C@H]1C[C@H]1c1ccccc1)NCCc1ccc(-c2c[nH+]c3ccnn3c2)cc1
REMARK SMILES IDX 14 1 13 2 2 3 1 4 3 6 4 7 5 8 6 9 7 10 8 11 12 12 9 13 11 14
REMARK SMILES IDX 10 15 15 16 16 17 17 18 30 19 18 20 29 21 19 22 20 23 21 24
REMARK SMILES IDX 28 25 22 26 27 27 23 28 26 29 24 30 25 31
REMARK H PARENT 13 5 22 32
ROOT
ATOM      1  C   UNL     1      43.568 131.156  22.451  1.00  0.00     0.006 C 
ENDROOT
BRANCH   1   2
ATOM      2  N   UNL     1      43.865 129.726  22.516  1.00  0.00    -0.449 N 
ATOM      3  C   UNL     1      43.354 128.873  23.546  1.00  0.00     0.153 C 
ATOM      4  O   UNL     1      42.875 129.363  24.605  1.00  0.00    -0.299 OA
ATOM      5  H   UNL     1      44.312 129.280  21.683  1.00  0.00     0.024 HD
BRANCH   3   6
ATOM      6  N   UNL     1      43.373 127.459  23.353  1.00  0.00    -0.427 NA
BRANCH   6   7
ATOM      7  C   UNL     1      44.603 126.677  23.283  1.00  0.00     0.002 C 
ATOM      8  C   UNL     1      45.027 126.101  24.622  1.00  0.00     0.012 C 
ATOM      9  C   UNL     1      44.431 125.181  23.556  1.00  0.00     0.022 C 
BRANCH   9  10
ATOM     10  C   UNL     1      43.040 124.684  23.864  1.00  0.00    -0.045 A 
ATOM     11  C   UNL     1      42.744 123.313  23.801  1.00  0.00     0.004 A 
ATOM     12  C   UNL     1      42.007 125.597  24.132  1.00  0.00     0.004 A 
ATOM     13  C   UNL     1      41.450 122.857  24.070  1.00  0.00     0.000 A 
ATOM     14  C   UNL     1      40.714 125.139  24.399  1.00  0.00     0.000 A 
ATOM     15  C   UNL     1      40.437 123.770  24.376  1.00  0.00     0.000 A 
ENDBRANCH   9  10
ENDBRANCH   6   7
ENDBRANCH   3   6
ENDBRANCH   1   2
BRANCH   1  16
ATOM     16  C   UNL     1      42.862 131.499  21.135  1.00  0.00     0.034 C 
BRANCH  16  17
ATOM     17  C   UNL     1      43.755 131.253  19.946  1.00  0.00    -0.048 A 
ATOM     18  C   UNL     1      45.076 130.813  20.127  1.00  0.00     0.004 A 
ATOM     19  C   UNL     1      43.258 131.416  18.646  1.00  0.00     0.004 A 
ATOM     20  C   UNL     1      45.892 130.558  19.022  1.00  0.00     0.009 A 
ATOM     21  C   UNL     1      44.073 131.161  17.541  1.00  0.00     0.009 A 
ATOM     22  C   UNL     1      45.400 130.729  17.716  1.00  0.00    -0.011 A 
BRANCH  22  23
ATOM     23  C   UNL     1      46.263 130.457  16.541  1.00  0.00     0.063 A 
ATOM     24  C   UNL     1      47.495 129.770  16.681  1.00  0.00     0.210 A 
ATOM     25  C   UNL     1      45.882 130.873  15.249  1.00  0.00     0.245 A 
ATOM     26  N   UNL     1      48.286 129.525  15.595  1.00  0.00    -0.245 N 
ATOM     27  N   UNL     1      46.715 130.598  14.218  1.00  0.00    -0.104 N 
ATOM     28  C   UNL     1      47.872 129.951  14.378  1.00  0.00     0.306 A 
ATOM     29  N   UNL     1      46.537 130.906  12.945  1.00  0.00    -0.086 NA
ATOM     30  C   UNL     1      48.502 129.814  13.163  1.00  0.00     0.125 A 
ATOM     31  C   UNL     1      47.620 130.435  12.281  1.00  0.00     0.167 A 
ATOM     32  H   UNL     1      49.191 129.015  15.705  1.00  0.00     0.312 HD
ENDBRANCH  22  23
ENDBRANCH  16  17
ENDBRANCH   1  16
TORSDOF 7
ENDMDL
MODEL 3
REMARK VINA RESULT:      -3.8      6.412      9.458
REMARK SMILES O=C([N-][C@H]1C[C@H]1c1ccccc1)NCCc1ccc(-c2c[nH+]c3ccnn3c2)cc1
REMARK SMILES IDX 14 1 13 2 2 3 1 4 3 6 4 7 5 8 6 9 7 10 8 11 12 12 9 13 11 14
REMARK SMILES IDX 10 15 15 16 16 17 17 18 30 19 18 20 29 21 19 22 20 23 21 24
REMARK SMILES IDX 28 25 22 26 27 27 23 28 26 29 24 30 25 31
REMARK H PARENT 13 5 22 32
ROOT
ATOM      1  C   UNL     1      46.414 131.008  20.817  1.00  0.00     0.006 C 
ENDROOT
BRANCH   1   2
ATOM      2  N   UNL     1      46.317 130.646  19.404  1.00  0.00    -0.449 N 
ATOM      3  C   UNL     1      45.160 130.928  18.609  1.00  0.00     0.153 C 
ATOM      4  O   UNL     1      44.063 131.228  19.156  1.00  0.00    -0.299 OA
ATOM      5  H   UNL     1      47.188 130.340  18.916  1.00  0.00     0.024 HD
BRANCH   3   6
ATOM      6  N   UNL     1      45.265 130.888  17.186  1.00  0.00    -0.427 NA
BRANCH   6   7
ATOM      7  C   UNL     1      44.505 131.766  16.303  1.00  0.00     0.002 C 
ATOM      8  C   UNL     1      45.317 132.933  15.770  1.00  0.00     0.012 C 
ATOM      9  C   UNL     1      44.968 131.769  14.844  1.00  0.00     0.022 C 
BRANCH   9  10
ATOM     10  C   UNL     1      46.134 130.883  14.482  1.00  0.00    -0.045 A 
ATOM     11  C   UNL     1      46.495 129.807  15.310  1.00  0.00     0.004 A 
ATOM     12  C   UNL     1      46.924 131.179  13.358  1.00  0.00     0.004 A 
ATOM     13  C   UNL     1      47.587 128.998  14.979  1.00  0.00     0.000 A 
ATOM     14  C   UNL     1      48.016 130.370  13.032  1.00  0.00     0.000 A 
ATOM     15  C   UNL     1      48.343 129.276  13.837  1.00  0.00     0.000 A 
ENDBRANCH   9  10
ENDBRANCH   6   7
ENDBRANCH   3   6
ENDBRANCH   1   2
BRANCH   1  16
ATOM     16  C   UNL     1      45.868 132.420  21.050  1.00  0.00     0.034 C 
BRANCH  16  17
ATOM     17  C   UNL     1      46.968 133.390  21.396  1.00  0.00    -0.048 A 
ATOM     18  C   UNL     1      48.159 132.936  21.984  1.00  0.00     0.004 A 
ATOM     19  C   UNL     1      46.829 134.751  21.089  1.00  0.00     0.004 A 
ATOM     20  C   UNL     1      49.189 133.834  22.277  1.00  0.00     0.009 A 
ATOM     21  C   UNL     1      47.858 135.649  21.381  1.00  0.00     0.009 A 
ATOM     22  C   UNL     1      49.050 135.202  21.978  1.00  0.00    -0.011 A 
BRANCH  22  23
ATOM     23  C   UNL     1      50.142 136.157  22.286  1.00  0.00     0.063 A 
ATOM     24  C   UNL     1      50.379 137.287  21.464  1.00  0.00     0.210 A 
ATOM     25  C   UNL     1      50.977 135.967  23.405  1.00  0.00     0.245 A 
ATOM     26  N   UNL     1      51.388 138.161  21.752  1.00  0.00    -0.245 N 
ATOM     27  N   UNL     1      51.959 136.873  23.631  1.00  0.00    -0.104 N 
ATOM     28  C   UNL     1      52.161 137.929  22.839  1.00  0.00     0.306 A 
ATOM     29  N   UNL     1      52.838 136.866  24.617  1.00  0.00    -0.086 NA
ATOM     30  C   UNL     1      53.220 138.668  23.311  1.00  0.00     0.125 A 
ATOM     31  C   UNL     1      53.620 137.958  24.441  1.00  0.00     0.167 A 
ATOM     32  H   UNL     1      51.555 138.995  21.145  1.00  0.00     0.312 HD
ENDBRANCH  22  23
ENDBRANCH  16  17
ENDBRANCH   1  16
TORSDOF 7
ENDMDL


