REMARK SMILES Nc1c([C@@H]2O[C@H]2c2ccccc2)cc(C(=O)[O-])c([NH2+]c2cc3ccccc3[n-]2)c1[O-]
REMARK SMILES IDX 2 1 3 2 13 3 14 4 18 5 29 6 30 7 1 8 4 11 5 12 6 13 7 14
REMARK SMILES IDX 8 15 12 16 9 17 11 18 10 19 19 20 20 23 21 24 28 25 22 26
REMARK SMILES IDX 27 27 23 28 26 29 24 30 25 31 15 32 16 33 17 34
REMARK H PARENT 1 9 1 10 19 21 19 22
ROOT
ATOM      1  C   UNL     1      -0.564  -1.784   1.845  1.00  0.00     0.035 A 
ATOM      2  C   UNL     1       0.411  -2.000   0.850  1.00  0.00     0.007 A 
ATOM      3  C   UNL     1       0.145  -1.624  -0.471  1.00  0.00     0.024 A 
ATOM      4  C   UNL     1      -1.057  -0.997  -0.827  1.00  0.00     0.058 A 
ATOM      5  C   UNL     1      -2.030  -0.730   0.178  1.00  0.00     0.136 A 
ATOM      6  C   UNL     1      -1.764  -1.132   1.509  1.00  0.00    -0.020 A 
ATOM      7  O   UNL     1      -2.699  -0.878   2.509  1.00  0.00    -0.867 OA
ENDROOT
BRANCH   1   8
ATOM      8  N   UNL     1      -0.349  -2.223   3.196  1.00  0.00    -0.399 N 
ATOM      9  H   UNL     1       0.479  -2.796   3.466  1.00  0.00     0.156 HD
ATOM     10  H   UNL     1      -1.041  -2.015   3.950  1.00  0.00     0.156 HD
ENDBRANCH   1   8
BRANCH   2  11
ATOM     11  C   UNL     1       1.717  -2.680   1.160  1.00  0.00     0.185 C 
ATOM     12  O   UNL     1       2.485  -1.938   2.082  1.00  0.00    -0.359 OA
ATOM     13  C   UNL     1       2.949  -1.954   0.752  1.00  0.00     0.183 C 
BRANCH  13  14
ATOM     14  C   UNL     1       4.178  -2.799   0.602  1.00  0.00    -0.016 A 
ATOM     15  C   UNL     1       5.286  -2.598   1.440  1.00  0.00     0.006 A 
ATOM     16  C   UNL     1       4.248  -3.757  -0.421  1.00  0.00     0.006 A 
ATOM     17  C   UNL     1       6.441  -3.369   1.272  1.00  0.00     0.000 A 
ATOM     18  C   UNL     1       5.404  -4.527  -0.585  1.00  0.00     0.000 A 
ATOM     19  C   UNL     1       6.499  -4.334   0.263  1.00  0.00     0.000 A 
ENDBRANCH  13  14
ENDBRANCH   2  11
BRANCH   5  20
ATOM     20  N   UNL     1      -3.236   0.021  -0.113  1.00  0.00    -0.299 N 
ATOM     21  H   UNL     1      -3.715  -0.355  -0.959  1.00  0.00     0.356 HD
ATOM     22  H   UNL     1      -3.937  -0.058   0.658  1.00  0.00     0.356 HD
BRANCH  20  23
ATOM     23  C   UNL     1      -2.919   1.410  -0.288  1.00  0.00     0.036 A 
ATOM     24  C   UNL     1      -2.517   2.263   0.738  1.00  0.00     0.050 A 
ATOM     25  N   UNL     1      -2.945   2.029  -1.494  1.00  0.00    -0.610 NA
ATOM     26  C   UNL     1      -2.290   3.463   0.111  1.00  0.00    -0.036 A 
ATOM     27  C   UNL     1      -2.557   3.288  -1.223  1.00  0.00    -0.125 A 
ATOM     28  C   UNL     1      -1.859   4.685   0.624  1.00  0.00     0.007 A 
ATOM     29  C   UNL     1      -2.410   4.330  -2.137  1.00  0.00    -0.015 A 
ATOM     30  C   UNL     1      -1.704   5.755  -0.276  1.00  0.00     0.001 A 
ATOM     31  C   UNL     1      -1.978   5.578  -1.651  1.00  0.00    -0.001 A 
ENDBRANCH  20  23
ENDBRANCH   5  20
BRANCH   4  32
ATOM     32  C   UNL     1      -1.229  -0.618  -2.250  1.00  0.00     0.077 C 
ATOM     33  O   UNL     1      -2.341  -0.735  -2.827  1.00  0.00    -0.545 OA
ATOM     34  O   UNL     1      -0.134  -0.180  -2.986  1.00  0.00    -0.545 OA
ENDBRANCH   4  32
TORSDOF 6


