REMARK SMILES CC(=O)N(N)c1cc(C)cc(-n2nc3ccccc3[nH+]2)c1[O-]
REMARK SMILES IDX 6 1 7 2 8 3 9 4 10 5 11 6 21 7 22 8 4 9 2 10 1 11 3 12 5 13
REMARK SMILES IDX 12 16 13 17 20 18 14 19 19 20 15 21 18 22 16 23 17 24
REMARK H PARENT 5 14 5 15 20 25
ROOT
ATOM      1  C   UNL     1      -0.910   1.133   0.564  1.00  0.00     0.055 A 
ATOM      2  C   UNL     1      -1.823   0.095   0.799  1.00  0.00     0.030 A 
ATOM      3  C   UNL     1      -1.583  -1.190   0.298  1.00  0.00    -0.047 A 
ATOM      4  C   UNL     1      -2.582  -2.286   0.524  1.00  0.00     0.044 C 
ATOM      5  C   UNL     1      -0.440  -1.429  -0.476  1.00  0.00     0.037 A 
ATOM      6  C   UNL     1       0.483  -0.400  -0.734  1.00  0.00     0.122 A 
ATOM      7  C   UNL     1       0.238   0.887  -0.211  1.00  0.00    -0.050 A 
ATOM      8  O   UNL     1       1.129   1.926  -0.462  1.00  0.00    -0.869 OA
ENDROOT
BRANCH   1   9
ATOM      9  N   UNL     1      -1.168   2.448   1.096  1.00  0.00    -0.249 N 
BRANCH   9  10
ATOM     10  C   UNL     1      -0.232   3.073   1.993  1.00  0.00     0.238 C 
ATOM     11  C   UNL     1      -0.448   4.478   2.462  1.00  0.00     0.116 C 
ATOM     12  O   UNL     1       0.765   2.429   2.421  1.00  0.00    -0.273 OA
ENDBRANCH   9  10
BRANCH   9  13
ATOM     13  N   UNL     1      -2.408   3.071   0.859  1.00  0.00    -0.241 NA
ATOM     14  H   UNL     1      -3.107   2.646   1.509  1.00  0.00     0.144 HD
ATOM     15  H   UNL     1      -2.705   2.854  -0.120  1.00  0.00     0.144 HD
ENDBRANCH   9  13
ENDBRANCH   1   9
BRANCH   6  16
ATOM     16  N   UNL     1       1.648  -0.662  -1.541  1.00  0.00    -0.013 N 
ATOM     17  N   UNL     1       2.241   0.256  -2.305  1.00  0.00     0.053 NA
ATOM     18  N   UNL     1       2.255  -1.846  -1.622  1.00  0.00    -0.161 N 
ATOM     19  C   UNL     1       3.268  -0.386  -2.890  1.00  0.00     0.249 A 
ATOM     20  C   UNL     1       3.278  -1.680  -2.470  1.00  0.00     0.198 A 
ATOM     21  C   UNL     1       4.216   0.109  -3.780  1.00  0.00     0.064 A 
ATOM     22  C   UNL     1       4.234  -2.597  -2.896  1.00  0.00     0.058 A 
ATOM     23  C   UNL     1       5.202  -0.787  -4.240  1.00  0.00     0.005 A 
ATOM     24  C   UNL     1       5.211  -2.134  -3.800  1.00  0.00     0.005 A 
ATOM     25  H   UNL     1       1.997  -2.715  -1.103  1.00  0.00     0.340 HD
ENDBRANCH   6  16
TORSDOF 4


