REMARK SMILES C=Cc1ccc(-c2cnc3oc[nH+]c3c2C)c(Cl)c1F
REMARK SMILES IDX 3 1 4 2 5 3 6 4 17 5 18 6 19 7 20 8 2 9 1 10 7 11 8 12 15 13
REMARK SMILES IDX 9 14 14 15 10 16 13 17 11 18 12 19 16 20
REMARK H PARENT 13 21
ROOT
ATOM      1  C   UNL     1       2.921  -0.230  -2.229  1.00  0.00     0.011 A 
ATOM      2  C   UNL     1       1.812   0.507  -2.687  1.00  0.00     0.012 A 
ATOM      3  C   UNL     1       0.637   0.561  -1.934  1.00  0.00     0.011 A 
ATOM      4  C   UNL     1       0.545  -0.110  -0.708  1.00  0.00     0.005 A 
ATOM      5  C   UNL     1       1.653  -0.837  -0.233  1.00  0.00     0.085 A 
ATOM      6  Cl  UNL     1       1.602  -1.660   1.325  1.00  0.00    -0.080 Cl
ATOM      7  C   UNL     1       2.833  -0.890  -0.989  1.00  0.00     0.149 A 
ATOM      8  F   UNL     1       3.894  -1.596  -0.517  1.00  0.00    -0.205 F 
ENDROOT
BRANCH   1   9
ATOM      9  C   UNL     1       4.190  -0.298  -2.998  1.00  0.00     0.003 C 
ATOM     10  C   UNL     1       4.280  -0.074  -4.309  1.00  0.00     0.009 C 
ENDBRANCH   1   9
BRANCH   4  11
ATOM     11  C   UNL     1      -0.717  -0.041   0.060  1.00  0.00     0.011 A 
ATOM     12  C   UNL     1      -1.506  -1.216   0.189  1.00  0.00     0.124 A 
ATOM     13  C   UNL     1      -1.170   1.175   0.647  1.00  0.00     0.036 A 
ATOM     14  N   UNL     1      -2.701  -1.189   0.851  1.00  0.00    -0.215 NA
ATOM     15  C   UNL     1      -2.410   1.131   1.293  1.00  0.00     0.273 A 
ATOM     16  C   UNL     1      -3.124  -0.020   1.383  1.00  0.00     0.297 A 
ATOM     17  N   UNL     1      -3.099   2.109   1.903  1.00  0.00    -0.175 N 
ATOM     18  O   UNL     1      -4.239   0.198   2.032  1.00  0.00    -0.384 OA
ATOM     19  C   UNL     1      -4.221   1.485   2.345  1.00  0.00     0.522 A 
ATOM     20  C   UNL     1      -0.393   2.462   0.548  1.00  0.00     0.052 C 
ATOM     21  H   UNL     1      -2.849   3.116   2.014  1.00  0.00     0.457 HD
ENDBRANCH   4  11
TORSDOF 2


