REMARK SMILES Cc1ccc([NH2+]c2cccc(N=[N+]=[N-])c2O)cc1F
REMARK SMILES IDX 15 1 11 2 10 3 9 4 8 5 7 6 16 7 12 9 13 10 14 11 6 12 5 15
REMARK SMILES IDX 4 16 17 17 3 18 18 19 2 20 19 21 1 22
REMARK H PARENT 16 8 6 13 6 14
ROOT
ATOM      1  C   UNL     1      -0.207   0.826   1.730  1.00  0.00     0.187 A 
ATOM      2  C   UNL     1       0.752   0.673   2.766  1.00  0.00     0.086 A 
ATOM      3  C   UNL     1       2.108   0.868   2.480  1.00  0.00     0.014 A 
ATOM      4  C   UNL     1       2.516   1.277   1.212  1.00  0.00     0.007 A 
ATOM      5  C   UNL     1       1.574   1.491   0.209  1.00  0.00     0.072 A 
ATOM      6  C   UNL     1       0.207   1.270   0.453  1.00  0.00     0.177 A 
ENDROOT
BRANCH   1   7
ATOM      7  O   UNL     1      -1.554   0.512   1.926  1.00  0.00    -0.502 OA
ATOM      8  H   UNL     1      -1.892  -0.016   2.718  1.00  0.00     0.293 HD
ENDBRANCH   1   7
BRANCH   2   9
ATOM      9  N   UNL     1       0.398   0.338   4.115  1.00  0.00    -0.057 NA
BRANCH   9  10
ATOM     10  N   UNL     1      -0.623   0.764   4.655  1.00  0.00     0.005 N 
ATOM     11  N   UNL     1      -1.641   1.190   5.199  1.00  0.00    -0.003 NA
ENDBRANCH   9  10
ENDBRANCH   2   9
BRANCH   6  12
ATOM     12  N   UNL     1      -0.747   1.439  -0.620  1.00  0.00    -0.278 N 
ATOM     13  H   UNL     1      -1.666   1.768  -0.242  1.00  0.00     0.358 HD
ATOM     14  H   UNL     1      -0.418   2.183  -1.279  1.00  0.00     0.358 HD
BRANCH  12  15
ATOM     15  C   UNL     1      -0.908   0.197  -1.337  1.00  0.00     0.137 A 
ATOM     16  C   UNL     1       0.014  -0.174  -2.332  1.00  0.00     0.068 A 
ATOM     17  C   UNL     1      -1.972  -0.671  -1.035  1.00  0.00     0.107 A 
ATOM     18  C   UNL     1      -0.126  -1.387  -3.011  1.00  0.00     0.012 A 
ATOM     19  C   UNL     1      -2.113  -1.885  -1.715  1.00  0.00     0.132 A 
ATOM     20  C   UNL     1      -1.195  -2.247  -2.715  1.00  0.00    -0.015 A 
ATOM     21  F   UNL     1      -3.143  -2.709  -1.396  1.00  0.00    -0.206 F 
ATOM     22  C   UNL     1      -1.331  -3.562  -3.425  1.00  0.00     0.047 C 
ENDBRANCH  12  15
ENDBRANCH   6  12
TORSDOF 5


