MODEL 1
REMARK VINA RESULT:      -4.8      0.000      0.000
REMARK SMILES CO[C@@H]1CCC[C@@H](c2cc3cc(F)ccc3[nH]2)N1C(=O)c1ccc(Cl)c(C)c1
REMARK SMILES IDX 3 1 4 2 5 3 6 4 7 5 18 6 2 7 1 8 19 9 20 10 21 11 22 12
REMARK SMILES IDX 28 13 23 14 26 15 24 16 27 17 25 18 8 19 9 20 17 21 10 22
REMARK SMILES IDX 16 23 11 24 15 25 12 26 14 27 13 29
REMARK H PARENT 17 28
ROOT
ATOM      1  C   UNL     1      42.899 132.308  21.260  1.00  0.00     0.217 C 
ATOM      2  C   UNL     1      41.871 133.317  20.728  1.00  0.00     0.055 C 
ATOM      3  C   UNL     1      41.122 132.756  19.518  1.00  0.00     0.007 C 
ATOM      4  C   UNL     1      42.110 132.396  18.409  1.00  0.00     0.032 C 
ATOM      5  C   UNL     1      43.160 131.386  18.906  1.00  0.00     0.135 C 
ATOM      6  N   UNL     1      43.775 131.846  20.170  1.00  0.00    -0.304 N 
ENDROOT
BRANCH   1   7
ATOM      7  O   UNL     1      42.230 131.185  21.813  1.00  0.00    -0.362 OA
ATOM      8  C   UNL     1      42.030 131.352  23.199  1.00  0.00     0.197 C 
ENDBRANCH   1   7
BRANCH   6   9
ATOM      9  C   UNL     1      45.067 131.342  20.558  1.00  0.00     0.256 C 
ATOM     10  O   UNL     1      46.097 132.022  20.299  1.00  0.00    -0.269 OA
BRANCH   9  11
ATOM     11  C   UNL     1      45.193 130.048  21.270  1.00  0.00     0.040 A 
ATOM     12  C   UNL     1      45.822 128.954  20.654  1.00  0.00     0.015 A 
ATOM     13  C   UNL     1      44.663 129.891  22.564  1.00  0.00     0.018 A 
ATOM     14  C   UNL     1      45.928 127.732  21.321  1.00  0.00     0.021 A 
ATOM     15  C   UNL     1      44.767 128.664  23.241  1.00  0.00    -0.032 A 
ATOM     16  C   UNL     1      45.407 127.580  22.609  1.00  0.00     0.044 A 
ATOM     17  C   UNL     1      44.197 128.520  24.625  1.00  0.00     0.046 C 
ATOM     18  Cl  UNL     1      45.569 126.017  23.404  1.00  0.00    -0.084 Cl
ENDBRANCH   9  11
ENDBRANCH   6   9
BRANCH   5  19
ATOM     19  C   UNL     1      44.195 131.183  17.823  1.00  0.00     0.039 A 
ATOM     20  C   UNL     1      44.910 130.005  17.599  1.00  0.00     0.034 A 
ATOM     21  N   UNL     1      44.544 132.140  16.933  1.00  0.00    -0.357 N 
ATOM     22  C   UNL     1      45.715 130.282  16.516  1.00  0.00     0.003 A 
ATOM     23  C   UNL     1      45.471 131.577  16.140  1.00  0.00     0.046 A 
ATOM     24  C   UNL     1      46.635 129.481  15.844  1.00  0.00     0.049 A 
ATOM     25  C   UNL     1      46.132 132.163  15.062  1.00  0.00     0.029 A 
ATOM     26  C   UNL     1      47.320 130.045  14.750  1.00  0.00     0.123 A 
ATOM     27  C   UNL     1      47.069 131.380  14.362  1.00  0.00     0.041 A 
ATOM     28  H   UNL     1      44.168 133.112  16.869  1.00  0.00     0.166 HD
ATOM     29  F   UNL     1      48.224 129.302  14.067  1.00  0.00    -0.207 F 
ENDBRANCH   5  19
TORSDOF 4
ENDMDL
MODEL 2
REMARK VINA RESULT:      -4.4      0.709      1.209
REMARK SMILES CO[C@@H]1CCC[C@@H](c2cc3cc(F)ccc3[nH]2)N1C(=O)c1ccc(Cl)c(C)c1
REMARK SMILES IDX 3 1 4 2 5 3 6 4 7 5 18 6 2 7 1 8 19 9 20 10 21 11 22 12
REMARK SMILES IDX 28 13 23 14 26 15 24 16 27 17 25 18 8 19 9 20 17 21 10 22
REMARK SMILES IDX 16 23 11 24 15 25 12 26 14 27 13 29
REMARK H PARENT 17 28
ROOT
ATOM      1  C   UNL     1      43.087 132.170  21.155  1.00  0.00     0.217 C 
ATOM      2  C   UNL     1      42.094 133.245  20.689  1.00  0.00     0.055 C 
ATOM      3  C   UNL     1      41.286 132.763  19.482  1.00  0.00     0.007 C 
ATOM      4  C   UNL     1      42.224 132.396  18.333  1.00  0.00     0.032 C 
ATOM      5  C   UNL     1      43.237 131.321  18.764  1.00  0.00     0.135 C 
ATOM      6  N   UNL     1      43.909 131.706  20.024  1.00  0.00    -0.304 N 
ENDROOT
BRANCH   1   7
ATOM      7  O   UNL     1      42.380 131.061  21.688  1.00  0.00    -0.362 OA
ATOM      8  C   UNL     1      42.076 131.267  23.050  1.00  0.00     0.197 C 
ENDBRANCH   1   7
BRANCH   6   9
ATOM      9  C   UNL     1      45.185 131.129  20.357  1.00  0.00     0.256 C 
ATOM     10  O   UNL     1      46.241 131.697  19.963  1.00  0.00    -0.269 OA
BRANCH   9  11
ATOM     11  C   UNL     1      45.269 129.890  21.166  1.00  0.00     0.040 A 
ATOM     12  C   UNL     1      45.863 128.732  20.639  1.00  0.00     0.015 A 
ATOM     13  C   UNL     1      44.732 129.850  22.466  1.00  0.00     0.018 A 
ATOM     14  C   UNL     1      45.929 127.562  21.397  1.00  0.00     0.021 A 
ATOM     15  C   UNL     1      44.796 128.676  23.236  1.00  0.00    -0.032 A 
ATOM     16  C   UNL     1      45.401 127.526  22.691  1.00  0.00     0.044 A 
ATOM     17  C   UNL     1      44.220 128.657  24.624  1.00  0.00     0.046 C 
ATOM     18  Cl  UNL     1      45.511 126.025  23.604  1.00  0.00    -0.084 Cl
ENDBRANCH   9  11
ENDBRANCH   6   9
BRANCH   5  19
ATOM     19  C   UNL     1      44.231 131.108  17.645  1.00  0.00     0.039 A 
ATOM     20  C   UNL     1      44.731 132.105  16.806  1.00  0.00     0.034 A 
ATOM     21  N   UNL     1      44.759 129.901  17.333  1.00  0.00    -0.357 N 
ATOM     22  C   UNL     1      45.603 131.454  15.963  1.00  0.00     0.003 A 
ATOM     23  C   UNL     1      45.595 130.127  16.306  1.00  0.00     0.046 A 
ATOM     24  C   UNL     1      46.396 131.942  14.928  1.00  0.00     0.049 A 
ATOM     25  C   UNL     1      46.384 129.193  15.635  1.00  0.00     0.029 A 
ATOM     26  C   UNL     1      47.204 131.023  14.231  1.00  0.00     0.123 A 
ATOM     27  C   UNL     1      47.197 129.655  14.583  1.00  0.00     0.041 A 
ATOM     28  H   UNL     1      44.563 128.986  17.796  1.00  0.00     0.166 HD
ATOM     29  F   UNL     1      47.992 131.454  13.216  1.00  0.00    -0.207 F 
ENDBRANCH   5  19
TORSDOF 4
ENDMDL
MODEL 3
REMARK VINA RESULT:      -3.4      1.195      2.022
REMARK SMILES CO[C@@H]1CCC[C@@H](c2cc3cc(F)ccc3[nH]2)N1C(=O)c1ccc(Cl)c(C)c1
REMARK SMILES IDX 3 1 4 2 5 3 6 4 7 5 18 6 2 7 1 8 19 9 20 10 21 11 22 12
REMARK SMILES IDX 28 13 23 14 26 15 24 16 27 17 25 18 8 19 9 20 17 21 10 22
REMARK SMILES IDX 16 23 11 24 15 25 12 26 14 27 13 29
REMARK H PARENT 17 28
ROOT
ATOM      1  C   UNL     1      43.176 131.614  22.309  1.00  0.00     0.217 C 
ATOM      2  C   UNL     1      42.311 132.869  22.118  1.00  0.00     0.055 C 
ATOM      3  C   UNL     1      41.415 132.739  20.885  1.00  0.00     0.007 C 
ATOM      4  C   UNL     1      42.266 132.506  19.638  1.00  0.00     0.032 C 
ATOM      5  C   UNL     1      43.150 131.256  19.793  1.00  0.00     0.135 C 
ATOM      6  N   UNL     1      43.901 131.297  21.067  1.00  0.00    -0.304 N 
ENDROOT
BRANCH   1   7
ATOM      7  O   UNL     1      42.352 130.510  22.650  1.00  0.00    -0.362 OA
ATOM      8  C   UNL     1      41.894 130.616  23.980  1.00  0.00     0.197 C 
ENDBRANCH   1   7
BRANCH   6   9
ATOM      9  C   UNL     1      45.105 130.520  21.210  1.00  0.00     0.256 C 
ATOM     10  O   UNL     1      46.161 130.909  20.640  1.00  0.00    -0.269 OA
BRANCH   9  11
ATOM     11  C   UNL     1      45.116 129.285  22.029  1.00  0.00     0.040 A 
ATOM     12  C   UNL     1      44.608 129.292  23.339  1.00  0.00     0.015 A 
ATOM     13  C   UNL     1      45.658 128.093  21.515  1.00  0.00     0.018 A 
ATOM     14  C   UNL     1      44.631 128.132  24.113  1.00  0.00     0.021 A 
ATOM     15  C   UNL     1      45.684 126.921  22.289  1.00  0.00    -0.032 A 
ATOM     16  C   UNL     1      45.164 126.947  23.598  1.00  0.00     0.044 A 
ATOM     17  C   UNL     1      46.265 125.657  21.717  1.00  0.00     0.046 C 
ATOM     18  Cl  UNL     1      45.168 125.512  24.618  1.00  0.00    -0.084 Cl
ENDBRANCH   9  11
ENDBRANCH   6   9
BRANCH   5  19
ATOM     19  C   UNL     1      44.077 131.160  18.602  1.00  0.00     0.039 A 
ATOM     20  C   UNL     1      44.269 132.156  17.644  1.00  0.00     0.034 A 
ATOM     21  N   UNL     1      44.841 130.075  18.335  1.00  0.00    -0.357 N 
ATOM     22  C   UNL     1      45.199 131.635  16.773  1.00  0.00     0.003 A 
ATOM     23  C   UNL     1      45.522 130.379  17.217  1.00  0.00     0.046 A 
ATOM     24  C   UNL     1      45.777 132.183  15.631  1.00  0.00     0.049 A 
ATOM     25  C   UNL     1      46.449 129.582  16.547  1.00  0.00     0.029 A 
ATOM     26  C   UNL     1      46.717 131.402  14.932  1.00  0.00     0.123 A 
ATOM     27  C   UNL     1      47.051 130.107  15.389  1.00  0.00     0.041 A 
ATOM     28  H   UNL     1      44.897 129.189  18.885  1.00  0.00     0.166 HD
ATOM     29  F   UNL     1      47.305 131.895  13.815  1.00  0.00    -0.207 F 
ENDBRANCH   5  19
TORSDOF 4
ENDMDL
MODEL 4
REMARK VINA RESULT:      -3.2      3.640      6.821
REMARK SMILES CO[C@@H]1CCC[C@@H](c2cc3cc(F)ccc3[nH]2)N1C(=O)c1ccc(Cl)c(C)c1
REMARK SMILES IDX 3 1 4 2 5 3 6 4 7 5 18 6 2 7 1 8 19 9 20 10 21 11 22 12
REMARK SMILES IDX 28 13 23 14 26 15 24 16 27 17 25 18 8 19 9 20 17 21 10 22
REMARK SMILES IDX 16 23 11 24 15 25 12 26 14 27 13 29
REMARK H PARENT 17 28
ROOT
ATOM      1  C   UNL     1      44.120 131.885  22.290  1.00  0.00     0.217 C 
ATOM      2  C   UNL     1      42.849 132.160  23.107  1.00  0.00     0.055 C 
ATOM      3  C   UNL     1      42.909 131.470  24.471  1.00  0.00     0.007 C 
ATOM      4  C   UNL     1      43.090 129.964  24.291  1.00  0.00     0.032 C 
ATOM      5  C   UNL     1      44.355 129.648  23.474  1.00  0.00     0.135 C 
ATOM      6  N   UNL     1      44.384 130.437  22.223  1.00  0.00    -0.304 N 
ENDROOT
BRANCH   1   7
ATOM      7  O   UNL     1      45.231 132.522  22.901  1.00  0.00    -0.362 OA
ATOM      8  C   UNL     1      46.125 133.015  21.927  1.00  0.00     0.197 C 
ENDBRANCH   1   7
BRANCH   6   9
ATOM      9  C   UNL     1      45.179 129.983  21.112  1.00  0.00     0.256 C 
ATOM     10  O   UNL     1      46.106 129.153  21.316  1.00  0.00    -0.269 OA
BRANCH   9  11
ATOM     11  C   UNL     1      44.907 130.469  19.737  1.00  0.00     0.040 A 
ATOM     12  C   UNL     1      43.783 131.269  19.473  1.00  0.00     0.015 A 
ATOM     13  C   UNL     1      45.758 130.114  18.675  1.00  0.00     0.018 A 
ATOM     14  C   UNL     1      43.522 131.714  18.176  1.00  0.00     0.021 A 
ATOM     15  C   UNL     1      45.501 130.560  17.367  1.00  0.00    -0.032 A 
ATOM     16  C   UNL     1      44.373 131.366  17.123  1.00  0.00     0.044 A 
ATOM     17  C   UNL     1      46.427 130.172  16.247  1.00  0.00     0.046 C 
ATOM     18  Cl  UNL     1      43.995 131.955  15.507  1.00  0.00    -0.084 Cl
ENDBRANCH   9  11
ENDBRANCH   6   9
BRANCH   5  19
ATOM     19  C   UNL     1      44.402 128.163  23.197  1.00  0.00     0.039 A 
ATOM     20  C   UNL     1      43.294 127.349  22.959  1.00  0.00     0.034 A 
ATOM     21  N   UNL     1      45.550 127.448  23.143  1.00  0.00    -0.357 N 
ATOM     22  C   UNL     1      43.816 126.093  22.747  1.00  0.00     0.003 A 
ATOM     23  C   UNL     1      45.178 126.186  22.867  1.00  0.00     0.046 A 
ATOM     24  C   UNL     1      43.185 124.886  22.457  1.00  0.00     0.049 A 
ATOM     25  C   UNL     1      46.006 125.076  22.703  1.00  0.00     0.029 A 
ATOM     26  C   UNL     1      43.993 123.746  22.286  1.00  0.00     0.123 A 
ATOM     27  C   UNL     1      45.398 123.842  22.409  1.00  0.00     0.041 A 
ATOM     28  H   UNL     1      46.523 127.801  23.282  1.00  0.00     0.166 HD
ATOM     29  F   UNL     1      43.421 122.551  22.002  1.00  0.00    -0.207 F 
ENDBRANCH   5  19
TORSDOF 4
ENDMDL
MODEL 5
REMARK VINA RESULT:      -3.0      0.948      1.795
REMARK SMILES CO[C@@H]1CCC[C@@H](c2cc3cc(F)ccc3[nH]2)N1C(=O)c1ccc(Cl)c(C)c1
REMARK SMILES IDX 3 1 4 2 5 3 6 4 7 5 18 6 2 7 1 8 19 9 20 10 21 11 22 12
REMARK SMILES IDX 28 13 23 14 26 15 24 16 27 17 25 18 8 19 9 20 17 21 10 22
REMARK SMILES IDX 16 23 11 24 15 25 12 26 14 27 13 29
REMARK H PARENT 17 28
ROOT
ATOM      1  C   UNL     1      43.222 132.099  20.881  1.00  0.00     0.217 C 
ATOM      2  C   UNL     1      42.390 133.314  20.446  1.00  0.00     0.055 C 
ATOM      3  C   UNL     1      41.576 133.004  19.189  1.00  0.00     0.007 C 
ATOM      4  C   UNL     1      42.504 132.581  18.051  1.00  0.00     0.032 C 
ATOM      5  C   UNL     1      43.358 131.365  18.452  1.00  0.00     0.135 C 
ATOM      6  N   UNL     1      44.023 131.594  19.753  1.00  0.00    -0.304 N 
ENDROOT
BRANCH   1   7
ATOM      7  O   UNL     1      42.361 131.062  21.327  1.00  0.00    -0.362 OA
ATOM      8  C   UNL     1      42.166 131.136  22.723  1.00  0.00     0.197 C 
ENDBRANCH   1   7
BRANCH   6   9
ATOM      9  C   UNL     1      45.203 130.843  20.093  1.00  0.00     0.256 C 
ATOM     10  O   UNL     1      46.271 131.050  19.454  1.00  0.00    -0.269 OA
BRANCH   9  11
ATOM     11  C   UNL     1      45.176 129.846  21.189  1.00  0.00     0.040 A 
ATOM     12  C   UNL     1      44.557 130.148  22.414  1.00  0.00     0.015 A 
ATOM     13  C   UNL     1      45.793 128.592  21.028  1.00  0.00     0.018 A 
ATOM     14  C   UNL     1      44.545 129.213  23.449  1.00  0.00     0.021 A 
ATOM     15  C   UNL     1      45.783 127.645  22.067  1.00  0.00    -0.032 A 
ATOM     16  C   UNL     1      45.152 127.965  23.285  1.00  0.00     0.044 A 
ATOM     17  C   UNL     1      46.444 126.309  21.870  1.00  0.00     0.046 C 
ATOM     18  Cl  UNL     1      45.106 126.823  24.624  1.00  0.00    -0.084 Cl
ENDBRANCH   9  11
ENDBRANCH   6   9
BRANCH   5  19
ATOM     19  C   UNL     1      44.360 131.086  17.355  1.00  0.00     0.039 A 
ATOM     20  C   UNL     1      44.920 132.045  16.509  1.00  0.00     0.034 A 
ATOM     21  N   UNL     1      44.836 129.851  17.073  1.00  0.00    -0.357 N 
ATOM     22  C   UNL     1      45.775 131.339  15.692  1.00  0.00     0.003 A 
ATOM     23  C   UNL     1      45.700 130.020  16.057  1.00  0.00     0.046 A 
ATOM     24  C   UNL     1      46.608 131.771  14.664  1.00  0.00     0.049 A 
ATOM     25  C   UNL     1      46.456 129.038  15.417  1.00  0.00     0.029 A 
ATOM     26  C   UNL     1      47.384 130.804  13.997  1.00  0.00     0.123 A 
ATOM     27  C   UNL     1      47.308 129.444  14.373  1.00  0.00     0.041 A 
ATOM     28  H   UNL     1      44.590 128.955  17.548  1.00  0.00     0.166 HD
ATOM     29  F   UNL     1      48.209 131.180  12.990  1.00  0.00    -0.207 F 
ENDBRANCH   5  19
TORSDOF 4
ENDMDL
MODEL 6
REMARK VINA RESULT:      -2.6      2.533      3.362
REMARK SMILES CO[C@@H]1CCC[C@@H](c2cc3cc(F)ccc3[nH]2)N1C(=O)c1ccc(Cl)c(C)c1
REMARK SMILES IDX 3 1 4 2 5 3 6 4 7 5 18 6 2 7 1 8 19 9 20 10 21 11 22 12
REMARK SMILES IDX 28 13 23 14 26 15 24 16 27 17 25 18 8 19 9 20 17 21 10 22
REMARK SMILES IDX 16 23 11 24 15 25 12 26 14 27 13 29
REMARK H PARENT 17 28
ROOT
ATOM      1  C   UNL     1      43.051 132.316  20.721  1.00  0.00     0.217 C 
ATOM      2  C   UNL     1      41.847 133.068  20.133  1.00  0.00     0.055 C 
ATOM      3  C   UNL     1      41.172 132.252  19.030  1.00  0.00     0.007 C 
ATOM      4  C   UNL     1      42.174 131.938  17.920  1.00  0.00     0.032 C 
ATOM      5  C   UNL     1      43.398 131.185  18.471  1.00  0.00     0.135 C 
ATOM      6  N   UNL     1      43.961 131.886  19.646  1.00  0.00    -0.304 N 
ENDROOT
BRANCH   1   7
ATOM      7  O   UNL     1      42.604 131.168  21.425  1.00  0.00    -0.362 OA
ATOM      8  C   UNL     1      42.643 131.387  22.818  1.00  0.00     0.197 C 
ENDBRANCH   1   7
BRANCH   6   9
ATOM      9  C   UNL     1      45.332 131.657  20.023  1.00  0.00     0.256 C 
ATOM     10  O   UNL     1      46.015 130.813  19.381  1.00  0.00    -0.269 OA
BRANCH   9  11
ATOM     11  C   UNL     1      45.946 132.411  21.142  1.00  0.00     0.040 A 
ATOM     12  C   UNL     1      45.475 132.249  22.455  1.00  0.00     0.015 A 
ATOM     13  C   UNL     1      46.993 133.318  20.900  1.00  0.00     0.018 A 
ATOM     14  C   UNL     1      46.046 132.969  23.505  1.00  0.00     0.021 A 
ATOM     15  C   UNL     1      47.573 134.046  21.953  1.00  0.00    -0.032 A 
ATOM     16  C   UNL     1      47.091 133.865  23.263  1.00  0.00     0.044 A 
ATOM     17  C   UNL     1      48.695 135.007  21.671  1.00  0.00     0.046 C 
ATOM     18  Cl  UNL     1      47.775 134.748  24.625  1.00  0.00    -0.084 Cl
ENDBRANCH   9  11
ENDBRANCH   6   9
BRANCH   5  19
ATOM     19  C   UNL     1      44.420 131.035  17.368  1.00  0.00     0.039 A 
ATOM     20  C   UNL     1      45.049 129.844  17.004  1.00  0.00     0.034 A 
ATOM     21  N   UNL     1      44.841 132.063  16.594  1.00  0.00    -0.357 N 
ATOM     22  C   UNL     1      45.876 130.186  15.957  1.00  0.00     0.003 A 
ATOM     23  C   UNL     1      45.728 131.531  15.737  1.00  0.00     0.046 A 
ATOM     24  C   UNL     1      46.739 129.406  15.192  1.00  0.00     0.049 A 
ATOM     25  C   UNL     1      46.434 132.190  14.731  1.00  0.00     0.029 A 
ATOM     26  C   UNL     1      47.466 130.043  14.169  1.00  0.00     0.123 A 
ATOM     27  C   UNL     1      47.314 131.429  13.940  1.00  0.00     0.041 A 
ATOM     28  H   UNL     1      44.536 133.061  16.647  1.00  0.00     0.166 HD
ATOM     29  F   UNL     1      48.317 129.322  13.399  1.00  0.00    -0.207 F 
ENDBRANCH   5  19
TORSDOF 4
ENDMDL
MODEL 7
REMARK VINA RESULT:      -2.0      2.983      3.899
REMARK SMILES CO[C@@H]1CCC[C@@H](c2cc3cc(F)ccc3[nH]2)N1C(=O)c1ccc(Cl)c(C)c1
REMARK SMILES IDX 3 1 4 2 5 3 6 4 7 5 18 6 2 7 1 8 19 9 20 10 21 11 22 12
REMARK SMILES IDX 28 13 23 14 26 15 24 16 27 17 25 18 8 19 9 20 17 21 10 22
REMARK SMILES IDX 16 23 11 24 15 25 12 26 14 27 13 29
REMARK H PARENT 17 28
ROOT
ATOM      1  C   UNL     1      43.426 132.324  21.151  1.00  0.00     0.217 C 
ATOM      2  C   UNL     1      42.197 133.096  20.650  1.00  0.00     0.055 C 
ATOM      3  C   UNL     1      41.444 132.303  19.581  1.00  0.00     0.007 C 
ATOM      4  C   UNL     1      42.371 131.994  18.406  1.00  0.00     0.032 C 
ATOM      5  C   UNL     1      43.619 131.220  18.869  1.00  0.00     0.135 C 
ATOM      6  N   UNL     1      44.262 131.899  20.015  1.00  0.00    -0.304 N 
ENDROOT
BRANCH   1   7
ATOM      7  O   UNL     1      43.011 131.171  21.867  1.00  0.00    -0.362 OA
ATOM      8  C   UNL     1      43.857 130.934  22.971  1.00  0.00     0.197 C 
ENDBRANCH   1   7
BRANCH   6   9
ATOM      9  C   UNL     1      45.651 131.651  20.302  1.00  0.00     0.256 C 
ATOM     10  O   UNL     1      46.127 130.500  20.098  1.00  0.00    -0.269 OA
BRANCH   9  11
ATOM     11  C   UNL     1      46.524 132.733  20.817  1.00  0.00     0.040 A 
ATOM     12  C   UNL     1      46.279 134.072  20.470  1.00  0.00     0.015 A 
ATOM     13  C   UNL     1      47.624 132.432  21.640  1.00  0.00     0.018 A 
ATOM     14  C   UNL     1      47.109 135.089  20.945  1.00  0.00     0.021 A 
ATOM     15  C   UNL     1      48.463 133.451  22.122  1.00  0.00    -0.032 A 
ATOM     16  C   UNL     1      48.198 134.788  21.768  1.00  0.00     0.044 A 
ATOM     17  C   UNL     1      49.631 133.106  23.004  1.00  0.00     0.046 C 
ATOM     18  Cl  UNL     1      49.212 136.109  22.339  1.00  0.00    -0.084 Cl
ENDBRANCH   9  11
ENDBRANCH   6   9
BRANCH   5  19
ATOM     19  C   UNL     1      44.568 131.076  17.702  1.00  0.00     0.039 A 
ATOM     20  C   UNL     1      44.892 132.085  16.794  1.00  0.00     0.034 A 
ATOM     21  N   UNL     1      45.224 129.929  17.409  1.00  0.00    -0.357 N 
ATOM     22  C   UNL     1      45.791 131.505  15.927  1.00  0.00     0.003 A 
ATOM     23  C   UNL     1      45.968 130.205  16.324  1.00  0.00     0.046 A 
ATOM     24  C   UNL     1      46.458 132.035  14.826  1.00  0.00     0.049 A 
ATOM     25  C   UNL     1      46.828 129.342  15.646  1.00  0.00     0.029 A 
ATOM     26  C   UNL     1      47.335 131.189  14.120  1.00  0.00     0.123 A 
ATOM     27  C   UNL     1      47.518 129.848  14.528  1.00  0.00     0.041 A 
ATOM     28  H   UNL     1      45.170 129.021  17.921  1.00  0.00     0.166 HD
ATOM     29  F   UNL     1      48.006 131.662  13.042  1.00  0.00    -0.207 F 
ENDBRANCH   5  19
TORSDOF 4
ENDMDL


