REMARK SMILES C=C[C@H]1CN[C@H](c2ccc3[nH+]c[nH+]n3c2)N(C(=O)OCCCCCC)C1
REMARK SMILES IDX 20 1 19 2 17 3 18 4 16 5 3 6 4 7 26 8 5 9 6 10 2 12 1 13
REMARK SMILES IDX 7 14 8 15 15 16 9 17 14 18 10 19 13 20 11 21 12 22 21 25
REMARK SMILES IDX 22 26 23 27 24 28 25 29
REMARK H PARENT 5 11 13 23 11 24
ROOT
ATOM      1  C   UNL     1      -2.094   1.032   1.490  1.00  0.00     0.235 C 
ENDROOT
BRANCH   1   2
ATOM      2  O   UNL     1      -0.753   0.558   1.610  1.00  0.00    -0.449 OA
BRANCH   2   3
ATOM      3  C   UNL     1       0.369   1.393   1.688  1.00  0.00     0.411 C 
ATOM      4  O   UNL     1       0.237   2.640   1.550  1.00  0.00    -0.224 OA
BRANCH   3   5
ATOM      5  N   UNL     1       1.670   0.831   1.972  1.00  0.00    -0.288 N 
ATOM      6  C   UNL     1       3.969   1.106   2.923  1.00  0.00     0.045 C 
ATOM      7  C   UNL     1       3.925  -0.407   3.136  1.00  0.00     0.092 C 
ATOM      8  C   UNL     1       2.537   1.646   2.842  1.00  0.00     0.134 C 
ATOM      9  N   UNL     1       3.261  -1.046   2.002  1.00  0.00    -0.293 NA
ATOM     10  C   UNL     1       1.847  -0.641   1.895  1.00  0.00     0.192 C 
ATOM     11  H   UNL     1       3.784  -0.791   1.130  1.00  0.00     0.125 HD
BRANCH   6  12
ATOM     12  C   UNL     1       4.736   1.779   4.038  1.00  0.00    -0.028 C 
ATOM     13  C   UNL     1       5.093   3.066   3.963  1.00  0.00     0.004 C 
ENDBRANCH   6  12
BRANCH  10  14
ATOM     14  C   UNL     1       1.284  -1.196   0.597  1.00  0.00     0.042 A 
ATOM     15  C   UNL     1       1.729  -0.704  -0.657  1.00  0.00     0.022 A 
ATOM     16  C   UNL     1       0.318  -2.225   0.617  1.00  0.00     0.308 A 
ATOM     17  C   UNL     1       1.224  -1.232  -1.857  1.00  0.00     0.124 A 
ATOM     18  N   UNL     1      -0.147  -2.688  -0.570  1.00  0.00     0.004 N 
ATOM     19  C   UNL     1       0.269  -2.238  -1.760  1.00  0.00     0.386 A 
ATOM     20  N   UNL     1      -1.064  -3.615  -0.779  1.00  0.00    -0.039 N 
ATOM     21  N   UNL     1      -0.367  -2.863  -2.768  1.00  0.00    -0.167 N 
ATOM     22  C   UNL     1      -1.197  -3.719  -2.121  1.00  0.00     0.528 A 
ATOM     23  H   UNL     1      -1.580  -4.146  -0.042  1.00  0.00     0.426 HD
ATOM     24  H   UNL     1      -0.261  -2.717  -3.796  1.00  0.00     0.366 HD
ENDBRANCH  10  14
ENDBRANCH   3   5
ENDBRANCH   2   3
ENDBRANCH   1   2
BRANCH   1  25
ATOM     25  C   UNL     1      -2.388   1.577   0.086  1.00  0.00     0.042 C 
BRANCH  25  26
ATOM     26  C   UNL     1      -2.075   0.548  -1.007  1.00  0.00     0.003 C 
BRANCH  26  27
ATOM     27  C   UNL     1      -2.508   1.063  -2.383  1.00  0.00    -0.000 C 
BRANCH  27  28
ATOM     28  C   UNL     1      -2.091   0.091  -3.494  1.00  0.00    -0.003 C 
ATOM     29  C   UNL     1      -2.511   0.609  -4.866  1.00  0.00     0.004 C 
ENDBRANCH  27  28
ENDBRANCH  26  27
ENDBRANCH  25  26
ENDBRANCH   1  25
TORSDOF 9


