REMARK SMILES C[C@@H]1CC[C@H](c2ccc3[nH+]cccc3c2)[C@H](F)N1C(=O)Oc1ccc([N+](=O)[O-])cc1
REMARK SMILES IDX 19 1 20 2 18 3 2 4 3 5 4 6 16 7 5 8 1 9 17 10 6 11 7 12
REMARK SMILES IDX 15 13 8 14 14 15 9 16 13 17 10 18 12 19 11 20 21 22 22 23
REMARK SMILES IDX 23 24 30 25 24 26 29 27 25 28 26 29 27 30 28 31
REMARK H PARENT 10 21
ROOT
ATOM      1  C   UNL     1      -0.254   2.165   0.028  1.00  0.00     0.417 C 
ATOM      2  O   UNL     1       0.821   2.644  -0.428  1.00  0.00    -0.224 OA
ENDROOT
BRANCH   1   3
ATOM      3  N   UNL     1      -0.399   0.737   0.192  1.00  0.00    -0.274 N 
ATOM      4  C   UNL     1      -1.617   0.212   0.844  1.00  0.00     0.088 C 
ATOM      5  C   UNL     1      -1.975  -1.196   0.325  1.00  0.00     0.026 C 
ATOM      6  C   UNL     1      -0.764  -2.131   0.291  1.00  0.00     0.015 C 
ATOM      7  C   UNL     1       0.776  -0.137   0.014  1.00  0.00     0.275 C 
ATOM      8  C   UNL     1       0.360  -1.507  -0.551  1.00  0.00     0.075 C 
ATOM      9  C   UNL     1      -1.468   0.242   2.371  1.00  0.00     0.031 C 
ATOM     10  F   UNL     1       1.432  -0.272   1.226  1.00  0.00    -0.223 F 
BRANCH   8  11
ATOM     11  C   UNL     1       1.552  -2.438  -0.703  1.00  0.00    -0.039 A 
ATOM     12  C   UNL     1       2.063  -2.708  -1.985  1.00  0.00     0.011 A 
ATOM     13  C   UNL     1       2.184  -3.015   0.417  1.00  0.00     0.019 A 
ATOM     14  C   UNL     1       3.168  -3.546  -2.153  1.00  0.00     0.080 A 
ATOM     15  C   UNL     1       3.293  -3.857   0.254  1.00  0.00     0.047 A 
ATOM     16  C   UNL     1       3.790  -4.128  -1.041  1.00  0.00     0.210 A 
ATOM     17  C   UNL     1       3.925  -4.441   1.359  1.00  0.00     0.021 A 
ATOM     18  N   UNL     1       4.870  -4.948  -1.197  1.00  0.00    -0.211 N 
ATOM     19  C   UNL     1       5.027  -5.275   1.168  1.00  0.00     0.071 A 
ATOM     20  C   UNL     1       5.489  -5.519  -0.127  1.00  0.00     0.306 A 
ATOM     21  H   UNL     1       5.242  -5.151  -2.153  1.00  0.00     0.453 HD
ENDBRANCH   8  11
ENDBRANCH   1   3
BRANCH   1  22
ATOM     22  O   UNL     1      -1.328   3.014   0.330  1.00  0.00    -0.410 OA
BRANCH  22  23
ATOM     23  C   UNL     1      -1.237   4.400   0.527  1.00  0.00     0.133 A 
ATOM     24  C   UNL     1      -0.079   5.013   1.038  1.00  0.00     0.054 A 
ATOM     25  C   UNL     1      -2.357   5.189   0.244  1.00  0.00     0.054 A 
ATOM     26  C   UNL     1      -0.039   6.397   1.229  1.00  0.00     0.089 A 
ATOM     27  C   UNL     1      -2.319   6.573   0.433  1.00  0.00     0.089 A 
ATOM     28  C   UNL     1      -1.157   7.194   0.924  1.00  0.00     0.269 A 
BRANCH  28  29
ATOM     29  N   UNL     1      -1.120   8.619   1.119  1.00  0.00     0.062 N 
ATOM     30  O   UNL     1      -0.093   9.175   1.562  1.00  0.00    -0.258 OA
ATOM     31  O   UNL     1      -2.215   9.396   0.814  1.00  0.00    -0.258 OA
ENDBRANCH  28  29
ENDBRANCH  22  23
ENDBRANCH   1  22
TORSDOF 5


