REMARK SMILES Nc1c(/C(O)=N/Cc2ccc[nH]2)ccc2cc[nH]c12
REMARK SMILES IDX 4 1 5 2 6 4 7 5 8 6 9 7 12 8 10 9 11 10 3 12 13 13 2 14
REMARK SMILES IDX 14 15 19 16 15 17 18 18 16 19 17 20 1 22
REMARK H PARENT 5 3 12 11 18 21 1 23 1 24
ROOT
ATOM      1  C   UNL     1       1.123  -1.562  -0.494  1.00  0.00     0.216 C 
ENDROOT
BRANCH   1   2
ATOM      2  O   UNL     1       2.426  -1.842  -0.077  1.00  0.00    -0.493 OA
ATOM      3  H   UNL     1       3.182  -1.185  -0.225  1.00  0.00     0.295 HD
ENDBRANCH   1   2
BRANCH   1   4
ATOM      4  N   UNL     1       0.164  -2.408  -0.257  1.00  0.00    -0.245 NA
BRANCH   4   5
ATOM      5  C   UNL     1       0.337  -3.659   0.475  1.00  0.00     0.199 C 
BRANCH   5   6
ATOM      6  C   UNL     1       0.520  -3.385   1.936  1.00  0.00     0.037 A 
ATOM      7  C   UNL     1       1.703  -3.511   2.638  1.00  0.00     0.025 A 
ATOM      8  N   UNL     1      -0.454  -2.920   2.740  1.00  0.00    -0.363 N 
ATOM      9  C   UNL     1       1.427  -3.110   3.930  1.00  0.00     0.020 A 
ATOM     10  C   UNL     1       0.093  -2.754   3.957  1.00  0.00     0.082 A 
ATOM     11  H   UNL     1      -1.442  -2.717   2.471  1.00  0.00     0.166 HD
ENDBRANCH   5   6
ENDBRANCH   4   5
ENDBRANCH   1   4
BRANCH   1  12
ATOM     12  C   UNL     1       0.834  -0.318  -1.240  1.00  0.00     0.061 A 
ATOM     13  C   UNL     1       1.696   0.041  -2.307  1.00  0.00     0.016 A 
ATOM     14  C   UNL     1      -0.296   0.498  -0.939  1.00  0.00     0.069 A 
ATOM     15  C   UNL     1       1.443   1.177  -3.090  1.00  0.00     0.011 A 
ATOM     16  C   UNL     1      -0.520   1.620  -1.755  1.00  0.00     0.070 A 
ATOM     17  C   UNL     1       0.322   1.938  -2.788  1.00  0.00     0.002 A 
ATOM     18  N   UNL     1      -1.508   2.530  -1.663  1.00  0.00    -0.359 N 
ATOM     19  C   UNL     1      -0.152   3.089  -3.377  1.00  0.00     0.028 A 
ATOM     20  C   UNL     1      -1.288   3.425  -2.652  1.00  0.00     0.083 A 
ATOM     21  H   UNL     1      -2.292   2.562  -0.976  1.00  0.00     0.166 HD
BRANCH  14  22
ATOM     22  N   UNL     1      -1.148   0.229   0.184  1.00  0.00    -0.396 N 
ATOM     23  H   UNL     1      -0.863  -0.429   0.942  1.00  0.00     0.156 HD
ATOM     24  H   UNL     1      -2.045   0.742   0.322  1.00  0.00     0.156 HD
ENDBRANCH  14  22
ENDBRANCH   1  12
TORSDOF 6


