REMARK SMILES Cc1ccc(-c2ccc([O-])cc2)c2c[nH]nc12
REMARK SMILES IDX 1 1 2 2 3 3 4 4 5 5 13 6 14 7 15 8 16 9 17 10 6 12 7 13
REMARK SMILES IDX 12 14 8 15 11 16 9 17 10 18
REMARK H PARENT 15 11
ROOT
ATOM      1  C   UNL     1       0.268   5.441  -0.097  1.00  0.00     0.047 C 
ATOM      2  C   UNL     1       0.261   3.957   0.121  1.00  0.00    -0.023 A 
ATOM      3  C   UNL     1       1.435   3.263   0.484  1.00  0.00     0.006 A 
ATOM      4  C   UNL     1       1.408   1.869   0.707  1.00  0.00     0.010 A 
ATOM      5  C   UNL     1       0.204   1.138   0.590  1.00  0.00    -0.007 A 
ATOM      6  C   UNL     1      -0.944   1.860   0.236  1.00  0.00     0.028 A 
ATOM      7  C   UNL     1      -2.248   1.484  -0.002  1.00  0.00     0.114 A 
ATOM      8  N   UNL     1      -2.940   2.595  -0.335  1.00  0.00    -0.284 N 
ATOM      9  N   UNL     1      -2.140   3.655  -0.331  1.00  0.00    -0.175 NA
ATOM     10  C   UNL     1      -0.917   3.213   0.014  1.00  0.00     0.096 A 
ATOM     11  H   UNL     1      -3.955   2.632  -0.575  1.00  0.00     0.189 HD
ENDROOT
BRANCH   5  12
ATOM     12  C   UNL     1       0.177  -0.323   0.838  1.00  0.00    -0.018 A 
ATOM     13  C   UNL     1      -0.792  -0.888   1.684  1.00  0.00     0.008 A 
ATOM     14  C   UNL     1       1.142  -1.158   0.248  1.00  0.00     0.008 A 
ATOM     15  C   UNL     1      -0.806  -2.266   1.922  1.00  0.00    -0.008 A 
ATOM     16  C   UNL     1       1.125  -2.536   0.487  1.00  0.00    -0.008 A 
ATOM     17  C   UNL     1       0.151  -3.090   1.323  1.00  0.00    -0.109 A 
ATOM     18  O   UNL     1       0.135  -4.459   1.560  1.00  0.00    -0.872 OA
ENDBRANCH   5  12
TORSDOF 1


