REMARK SMILES c1nc2cc(-c3ncc([C@H]4CO4)c[nH+]3)c[nH+]c2o1
REMARK SMILES IDX 1 1 2 2 3 3 4 4 5 5 15 6 16 7 17 8 18 9 6 11 7 12 14 13 8 14
REMARK SMILES IDX 13 15 9 16 10 18 11 19 12 20
REMARK H PARENT 16 10 14 17
ROOT
ATOM      1  C   UNL     1      -0.890   4.413   2.604  1.00  0.00     0.316 A 
ATOM      2  N   UNL     1      -0.298   3.217   2.874  1.00  0.00    -0.209 NA
ATOM      3  C   UNL     1      -0.715   2.461   1.845  1.00  0.00     0.180 A 
ATOM      4  C   UNL     1      -0.426   1.129   1.573  1.00  0.00     0.062 A 
ATOM      5  C   UNL     1      -0.996   0.561   0.407  1.00  0.00     0.134 A 
ATOM      6  C   UNL     1      -1.814   1.379  -0.426  1.00  0.00     0.326 A 
ATOM      7  N   UNL     1      -2.059   2.685  -0.101  1.00  0.00    -0.177 N 
ATOM      8  C   UNL     1      -1.504   3.191   1.026  1.00  0.00     0.399 A 
ATOM      9  O   UNL     1      -1.615   4.402   1.495  1.00  0.00    -0.391 OA
ATOM     10  H   UNL     1      -2.662   3.281  -0.711  1.00  0.00     0.457 HD
ENDROOT
BRANCH   5  11
ATOM     11  C   UNL     1      -0.735  -0.851   0.032  1.00  0.00     0.334 A 
ATOM     12  N   UNL     1      -0.779  -1.212  -1.280  1.00  0.00    -0.049 NA
ATOM     13  N   UNL     1      -0.459  -1.799   0.977  1.00  0.00    -0.243 N 
ATOM     14  C   UNL     1      -0.548  -2.490  -1.673  1.00  0.00     0.264 A 
ATOM     15  C   UNL     1      -0.218  -3.089   0.624  1.00  0.00     0.208 A 
ATOM     16  C   UNL     1      -0.270  -3.472  -0.719  1.00  0.00     0.066 A 
ATOM     17  H   UNL     1      -0.450  -1.559   1.993  1.00  0.00     0.312 HD
BRANCH  16  18
ATOM     18  C   UNL     1       0.026  -4.884  -1.127  1.00  0.00     0.181 C 
ATOM     19  C   UNL     1      -0.932  -5.912  -0.658  1.00  0.00     0.198 C 
ATOM     20  O   UNL     1      -0.976  -5.405  -1.971  1.00  0.00    -0.368 OA
ENDBRANCH  16  18
ENDBRANCH   5  11
TORSDOF 2


