REMARK SMILES C=C1CC[C@@H](Nc2cccc(N=C=S)c2[O-])C[C@H]1F
REMARK SMILES IDX 7 1 8 2 9 3 10 4 11 5 15 6 16 7 6 8 5 10 2 11 3 12 18 13
REMARK SMILES IDX 4 14 17 15 1 16 19 17 12 18 13 19 14 20
REMARK H PARENT 6 9
ROOT
ATOM      1  C   UNL     1      -0.707  -0.278   0.279  1.00  0.00     0.028 A 
ATOM      2  C   UNL     1      -1.772   0.317   0.982  1.00  0.00     0.025 A 
ATOM      3  C   UNL     1      -3.064  -0.203   0.884  1.00  0.00     0.004 A 
ATOM      4  C   UNL     1      -3.315  -1.316   0.082  1.00  0.00     0.028 A 
ATOM      5  C   UNL     1      -2.268  -1.924  -0.636  1.00  0.00     0.068 A 
ATOM      6  C   UNL     1      -0.969  -1.400  -0.534  1.00  0.00    -0.058 A 
ATOM      7  O   UNL     1       0.066  -2.007  -1.239  1.00  0.00    -0.870 OA
ENDROOT
BRANCH   1   8
ATOM      8  N   UNL     1       0.636   0.248   0.357  1.00  0.00    -0.383 N 
ATOM      9  H   UNL     1       1.306  -0.031  -0.393  1.00  0.00     0.160 HD
BRANCH   8  10
ATOM     10  C   UNL     1       1.116   1.147   1.419  1.00  0.00     0.082 C 
ATOM     11  C   UNL     1       3.502  -0.192   2.465  1.00  0.00    -0.043 C 
ATOM     12  C   UNL     1       3.614   0.595   1.181  1.00  0.00     0.035 C 
ATOM     13  C   UNL     1       2.140  -0.680   2.897  1.00  0.00     0.194 C 
ATOM     14  C   UNL     1       2.531   1.681   1.104  1.00  0.00     0.029 C 
ATOM     15  C   UNL     1       1.104   0.448   2.796  1.00  0.00     0.067 C 
ATOM     16  C   UNL     1       4.605  -0.588   3.118  1.00  0.00     0.011 C 
ATOM     17  F   UNL     1       1.761  -1.746   2.098  1.00  0.00    -0.243 F 
ENDBRANCH   8  10
ENDBRANCH   1   8
BRANCH   5  18
ATOM     18  N   UNL     1      -2.488  -3.071  -1.473  1.00  0.00    -0.195 NA
BRANCH  18  19
ATOM     19  C   UNL     1      -3.622  -3.627  -1.637  1.00  0.00     0.064 C 
ATOM     20  S   UNL     1      -5.057  -4.330  -1.844  1.00  0.00    -0.006 S 
ENDBRANCH  18  19
ENDBRANCH   5  18
TORSDOF 4


