REMARK SMILES C=C1CC[C@@H](Nc2cccc(N=C=O)c2O)C[C@H]1F
REMARK SMILES IDX 15 1 11 2 10 3 9 4 8 5 7 6 16 7 12 9 13 10 14 11 6 12 5 14
REMARK SMILES IDX 4 15 17 16 3 17 18 18 2 19 19 20 1 21
REMARK H PARENT 16 8 6 13
ROOT
ATOM      1  C   UNL     1       2.706  -0.008  -0.541  1.00  0.00     0.165 A 
ATOM      2  C   UNL     1       3.394  -1.205  -0.274  1.00  0.00     0.120 A 
ATOM      3  C   UNL     1       2.712  -2.278   0.330  1.00  0.00     0.033 A 
ATOM      4  C   UNL     1       1.362  -2.159   0.657  1.00  0.00     0.005 A 
ATOM      5  C   UNL     1       0.675  -0.977   0.383  1.00  0.00     0.030 A 
ATOM      6  C   UNL     1       1.333   0.109  -0.219  1.00  0.00     0.079 A 
ENDROOT
BRANCH   1   7
ATOM      7  O   UNL     1       3.416   1.055  -1.106  1.00  0.00    -0.504 OA
ATOM      8  H   UNL     1       3.018   1.975  -1.246  1.00  0.00     0.293 HD
ENDBRANCH   1   7
BRANCH   2   9
ATOM      9  N   UNL     1       4.787  -1.292  -0.619  1.00  0.00    -0.164 NA
BRANCH   9  10
ATOM     10  C   UNL     1       5.508  -2.323  -0.421  1.00  0.00     0.240 C 
ATOM     11  O   UNL     1       6.208  -3.325  -0.228  1.00  0.00    -0.211 OA
ENDBRANCH   9  10
ENDBRANCH   2   9
BRANCH   6  12
ATOM     12  N   UNL     1       0.605   1.306  -0.549  1.00  0.00    -0.379 N 
ATOM     13  H   UNL     1       0.813   1.787  -1.454  1.00  0.00     0.160 HD
BRANCH  12  14
ATOM     14  C   UNL     1      -0.478   1.844   0.278  1.00  0.00     0.082 C 
ATOM     15  C   UNL     1      -1.828   1.618  -0.422  1.00  0.00     0.029 C 
ATOM     16  C   UNL     1      -0.249   3.346   0.513  1.00  0.00     0.067 C 
ATOM     17  C   UNL     1      -2.988   2.170   0.415  1.00  0.00     0.035 C 
ATOM     18  C   UNL     1      -1.363   3.958   1.375  1.00  0.00     0.194 C 
ATOM     19  C   UNL     1      -2.729   3.604   0.820  1.00  0.00    -0.043 C 
ATOM     20  F   UNL     1      -1.178   5.330   1.428  1.00  0.00    -0.243 F 
ATOM     21  C   UNL     1      -3.749   4.477   0.875  1.00  0.00     0.011 C 
ENDBRANCH  12  14
ENDBRANCH   6  12
TORSDOF 5


