MODEL 1
REMARK VINA RESULT:     -10.3      0.000      0.000
REMARK SMILES Nc1cc(O)c(F)cc1[NH2+]c1ccc2cc[nH]c2c1
REMARK SMILES IDX 2 1 3 2 4 3 6 4 7 5 8 6 9 7 1 8 10 11 11 14 12 15 19 16
REMARK SMILES IDX 13 17 18 18 14 19 17 20 15 21 16 22 5 24
REMARK H PARENT 1 9 1 10 10 12 10 13 17 23 5 25
ROOT
ATOM      1  C   UNL     1      42.869 132.070  19.159  1.00  0.00     0.098 A 
ATOM      2  C   UNL     1      43.142 131.901  20.525  1.00  0.00     0.081 A 
ATOM      3  C   UNL     1      44.382 131.422  20.957  1.00  0.00     0.153 A 
ATOM      4  C   UNL     1      45.367 131.104  20.016  1.00  0.00     0.170 A 
ATOM      5  F   UNL     1      46.576 130.636  20.418  1.00  0.00    -0.203 F 
ATOM      6  C   UNL     1      45.111 131.263  18.653  1.00  0.00     0.113 A 
ATOM      7  C   UNL     1      43.867 131.744  18.201  1.00  0.00     0.161 A 
ENDROOT
BRANCH   1   8
ATOM      8  N   UNL     1      41.583 132.575  18.776  1.00  0.00    -0.394 N 
ATOM      9  H   UNL     1      41.109 132.214  17.918  1.00  0.00     0.156 HD
ATOM     10  H   UNL     1      41.062 133.278  19.338  1.00  0.00     0.156 HD
ENDBRANCH   1   8
BRANCH   7  11
ATOM     11  N   UNL     1      43.631 131.861  16.776  1.00  0.00    -0.280 N 
ATOM     12  H   UNL     1      43.651 132.865  16.483  1.00  0.00     0.358 HD
ATOM     13  H   UNL     1      42.671 131.515  16.547  1.00  0.00     0.358 HD
BRANCH  11  14
ATOM     14  C   UNL     1      44.646 131.158  16.027  1.00  0.00     0.136 A 
ATOM     15  C   UNL     1      44.817 129.754  16.189  1.00  0.00     0.069 A 
ATOM     16  C   UNL     1      45.522 131.866  15.169  1.00  0.00     0.094 A 
ATOM     17  C   UNL     1      45.814 129.061  15.480  1.00  0.00     0.016 A 
ATOM     18  C   UNL     1      46.499 131.148  14.483  1.00  0.00     0.051 A 
ATOM     19  C   UNL     1      46.637 129.795  14.632  1.00  0.00    -0.000 A 
ATOM     20  N   UNL     1      47.413 131.628  13.624  1.00  0.00    -0.361 N 
ATOM     21  C   UNL     1      47.684 129.395  13.831  1.00  0.00     0.028 A 
ATOM     22  C   UNL     1      48.140 130.560  13.222  1.00  0.00     0.083 A 
ATOM     23  H   UNL     1      47.540 132.621  13.326  1.00  0.00     0.166 HD
ENDBRANCH  11  14
ENDBRANCH   7  11
BRANCH   3  24
ATOM     24  O   UNL     1      44.616 131.268  22.322  1.00  0.00    -0.505 OA
ATOM     25  H   UNL     1      44.804 132.060  22.925  1.00  0.00     0.293 HD
ENDBRANCH   3  24
TORSDOF 4
ENDMDL
MODEL 2
REMARK VINA RESULT:      -9.3      0.820      1.455
REMARK SMILES Nc1cc(O)c(F)cc1[NH2+]c1ccc2cc[nH]c2c1
REMARK SMILES IDX 2 1 3 2 4 3 6 4 7 5 8 6 9 7 1 8 10 11 11 14 12 15 19 16
REMARK SMILES IDX 13 17 18 18 14 19 17 20 15 21 16 22 5 24
REMARK H PARENT 1 9 1 10 10 12 10 13 17 23 5 25
ROOT
ATOM      1  C   UNL     1      42.876 132.076  19.160  1.00  0.00     0.098 A 
ATOM      2  C   UNL     1      43.216 132.040  20.522  1.00  0.00     0.081 A 
ATOM      3  C   UNL     1      44.453 131.546  20.942  1.00  0.00     0.153 A 
ATOM      4  C   UNL     1      45.370 131.079  19.994  1.00  0.00     0.170 A 
ATOM      5  F   UNL     1      46.576 130.595  20.385  1.00  0.00    -0.203 F 
ATOM      6  C   UNL     1      45.048 131.105  18.636  1.00  0.00     0.113 A 
ATOM      7  C   UNL     1      43.805 131.598  18.195  1.00  0.00     0.161 A 
ENDROOT
BRANCH   1   8
ATOM      8  N   UNL     1      41.596 132.602  18.788  1.00  0.00    -0.394 N 
ATOM      9  H   UNL     1      40.798 132.576  19.461  1.00  0.00     0.156 HD
ATOM     10  H   UNL     1      41.417 133.053  17.868  1.00  0.00     0.156 HD
ENDBRANCH   1   8
BRANCH   7  11
ATOM     11  N   UNL     1      43.497 131.574  16.780  1.00  0.00    -0.280 N 
ATOM     12  H   UNL     1      43.068 132.482  16.483  1.00  0.00     0.358 HD
ATOM     13  H   UNL     1      42.777 130.842  16.586  1.00  0.00     0.358 HD
BRANCH  11  14
ATOM     14  C   UNL     1      44.693 131.370  15.997  1.00  0.00     0.136 A 
ATOM     15  C   UNL     1      45.437 132.483  15.514  1.00  0.00     0.069 A 
ATOM     16  C   UNL     1      45.108 130.061  15.651  1.00  0.00     0.094 A 
ATOM     17  C   UNL     1      46.592 132.298  14.734  1.00  0.00     0.016 A 
ATOM     18  C   UNL     1      46.257 129.913  14.877  1.00  0.00     0.051 A 
ATOM     19  C   UNL     1      46.973 130.994  14.438  1.00  0.00    -0.000 A 
ATOM     20  N   UNL     1      46.814 128.768  14.452  1.00  0.00    -0.361 N 
ATOM     21  C   UNL     1      48.035 130.514  13.703  1.00  0.00     0.028 A 
ATOM     22  C   UNL     1      47.902 129.129  13.735  1.00  0.00     0.083 A 
ATOM     23  H   UNL     1      46.479 127.796  14.636  1.00  0.00     0.166 HD
ENDBRANCH  11  14
ENDBRANCH   7  11
BRANCH   3  24
ATOM     24  O   UNL     1      44.754 131.527  22.302  1.00  0.00    -0.505 OA
ATOM     25  H   UNL     1      45.398 132.190  22.717  1.00  0.00     0.293 HD
ENDBRANCH   3  24
TORSDOF 4
ENDMDL
MODEL 3
REMARK VINA RESULT:      -9.2      3.218      6.382
REMARK SMILES Nc1cc(O)c(F)cc1[NH2+]c1ccc2cc[nH]c2c1
REMARK SMILES IDX 2 1 3 2 4 3 6 4 7 5 8 6 9 7 1 8 10 11 11 14 12 15 19 16
REMARK SMILES IDX 13 17 18 18 14 19 17 20 15 21 16 22 5 24
REMARK H PARENT 1 9 1 10 10 12 10 13 17 23 5 25
ROOT
ATOM      1  C   UNL     1      45.813 129.386  14.990  1.00  0.00     0.098 A 
ATOM      2  C   UNL     1      47.010 128.904  14.437  1.00  0.00     0.081 A 
ATOM      3  C   UNL     1      47.870 129.751  13.735  1.00  0.00     0.153 A 
ATOM      4  C   UNL     1      47.537 131.101  13.578  1.00  0.00     0.170 A 
ATOM      5  F   UNL     1      48.362 131.937  12.898  1.00  0.00    -0.203 F 
ATOM      6  C   UNL     1      46.350 131.596  14.119  1.00  0.00     0.113 A 
ATOM      7  C   UNL     1      45.470 130.756  14.828  1.00  0.00     0.161 A 
ENDROOT
BRANCH   1   8
ATOM      8  N   UNL     1      44.974 128.471  15.708  1.00  0.00    -0.394 N 
ATOM      9  H   UNL     1      45.288 127.490  15.879  1.00  0.00     0.156 HD
ATOM     10  H   UNL     1      44.055 128.746  16.111  1.00  0.00     0.156 HD
ENDBRANCH   1   8
BRANCH   7  11
ATOM     11  N   UNL     1      44.232 131.303  15.343  1.00  0.00    -0.280 N 
ATOM     12  H   UNL     1      43.425 130.688  15.085  1.00  0.00     0.358 HD
ATOM     13  H   UNL     1      44.039 132.228  14.895  1.00  0.00     0.358 HD
BRANCH  11  14
ATOM     14  C   UNL     1      44.273 131.404  16.783  1.00  0.00     0.136 A 
ATOM     15  C   UNL     1      45.463 131.081  17.493  1.00  0.00     0.069 A 
ATOM     16  C   UNL     1      43.112 131.767  17.509  1.00  0.00     0.094 A 
ATOM     17  C   UNL     1      45.511 131.157  18.896  1.00  0.00     0.016 A 
ATOM     18  C   UNL     1      43.195 131.831  18.898  1.00  0.00     0.051 A 
ATOM     19  C   UNL     1      44.353 131.539  19.566  1.00  0.00    -0.000 A 
ATOM     20  N   UNL     1      42.218 132.159  19.760  1.00  0.00    -0.361 N 
ATOM     21  C   UNL     1      44.103 131.690  20.912  1.00  0.00     0.028 A 
ATOM     22  C   UNL     1      42.769 132.076  20.993  1.00  0.00     0.083 A 
ATOM     23  H   UNL     1      41.235 132.425  19.529  1.00  0.00     0.166 HD
ENDBRANCH  11  14
ENDBRANCH   7  11
BRANCH   3  24
ATOM     24  O   UNL     1      49.049 129.236  13.201  1.00  0.00    -0.505 OA
ATOM     25  H   UNL     1      49.594 129.746  12.516  1.00  0.00     0.293 HD
ENDBRANCH   3  24
TORSDOF 4
ENDMDL
MODEL 4
REMARK VINA RESULT:      -8.9      3.365      6.136
REMARK SMILES Nc1cc(O)c(F)cc1[NH2+]c1ccc2cc[nH]c2c1
REMARK SMILES IDX 2 1 3 2 4 3 6 4 7 5 8 6 9 7 1 8 10 11 11 14 12 15 19 16
REMARK SMILES IDX 13 17 18 18 14 19 17 20 15 21 16 22 5 24
REMARK H PARENT 1 9 1 10 10 12 10 13 17 23 5 25
ROOT
ATOM      1  C   UNL     1      45.766 129.479  15.060  1.00  0.00     0.098 A 
ATOM      2  C   UNL     1      46.960 128.950  14.547  1.00  0.00     0.081 A 
ATOM      3  C   UNL     1      47.828 129.737  13.786  1.00  0.00     0.153 A 
ATOM      4  C   UNL     1      47.505 131.074  13.530  1.00  0.00     0.170 A 
ATOM      5  F   UNL     1      48.336 131.853  12.792  1.00  0.00    -0.203 F 
ATOM      6  C   UNL     1      46.320 131.616  14.030  1.00  0.00     0.113 A 
ATOM      7  C   UNL     1      45.433 130.836  14.797  1.00  0.00     0.161 A 
ENDROOT
BRANCH   1   8
ATOM      8  N   UNL     1      44.919 128.626  15.841  1.00  0.00    -0.394 N 
ATOM      9  H   UNL     1      45.324 128.029  16.597  1.00  0.00     0.156 HD
ATOM     10  H   UNL     1      43.887 128.589  15.718  1.00  0.00     0.156 HD
ENDBRANCH   1   8
BRANCH   7  11
ATOM     11  N   UNL     1      44.198 131.428  15.267  1.00  0.00    -0.280 N 
ATOM     12  H   UNL     1      43.375 130.877  14.928  1.00  0.00     0.358 HD
ATOM     13  H   UNL     1      44.086 132.386  14.862  1.00  0.00     0.358 HD
BRANCH  11  14
ATOM     14  C   UNL     1      44.154 131.450  16.711  1.00  0.00     0.136 A 
ATOM     15  C   UNL     1      42.954 131.804  17.389  1.00  0.00     0.069 A 
ATOM     16  C   UNL     1      45.320 131.178  17.467  1.00  0.00     0.094 A 
ATOM     17  C   UNL     1      42.904 131.848  18.794  1.00  0.00     0.016 A 
ATOM     18  C   UNL     1      45.235 131.230  18.856  1.00  0.00     0.051 A 
ATOM     19  C   UNL     1      44.068 131.551  19.495  1.00  0.00    -0.000 A 
ATOM     20  N   UNL     1      46.216 131.000  19.744  1.00  0.00    -0.361 N 
ATOM     21  C   UNL     1      44.317 131.522  20.849  1.00  0.00     0.028 A 
ATOM     22  C   UNL     1      45.660 131.176  20.964  1.00  0.00     0.083 A 
ATOM     23  H   UNL     1      47.206 130.739  19.538  1.00  0.00     0.166 HD
ENDBRANCH  11  14
ENDBRANCH   7  11
BRANCH   3  24
ATOM     24  O   UNL     1      49.005 129.176  13.295  1.00  0.00    -0.505 OA
ATOM     25  H   UNL     1      49.914 129.431  13.663  1.00  0.00     0.293 HD
ENDBRANCH   3  24
TORSDOF 4
ENDMDL
MODEL 5
REMARK VINA RESULT:      -8.8      2.418      2.928
REMARK SMILES Nc1cc(O)c(F)cc1[NH2+]c1ccc2cc[nH]c2c1
REMARK SMILES IDX 2 1 3 2 4 3 6 4 7 5 8 6 9 7 1 8 10 11 11 14 12 15 19 16
REMARK SMILES IDX 13 17 18 18 14 19 17 20 15 21 16 22 5 24
REMARK H PARENT 1 9 1 10 10 12 10 13 17 23 5 25
ROOT
ATOM      1  C   UNL     1      44.273 131.517  20.607  1.00  0.00     0.098 A 
ATOM      2  C   UNL     1      43.139 132.267  20.957  1.00  0.00     0.081 A 
ATOM      3  C   UNL     1      42.195 132.634  19.996  1.00  0.00     0.153 A 
ATOM      4  C   UNL     1      42.379 132.252  18.663  1.00  0.00     0.170 A 
ATOM      5  F   UNL     1      41.471 132.602  17.716  1.00  0.00    -0.203 F 
ATOM      6  C   UNL     1      43.502 131.508  18.296  1.00  0.00     0.113 A 
ATOM      7  C   UNL     1      44.464 131.130  19.252  1.00  0.00     0.161 A 
ENDROOT
BRANCH   1   8
ATOM      8  N   UNL     1      45.203 131.160  21.638  1.00  0.00    -0.394 N 
ATOM      9  H   UNL     1      44.967 130.410  22.325  1.00  0.00     0.156 HD
ATOM     10  H   UNL     1      46.143 131.597  21.726  1.00  0.00     0.156 HD
ENDBRANCH   1   8
BRANCH   7  11
ATOM     11  N   UNL     1      45.632 130.389  18.823  1.00  0.00    -0.280 N 
ATOM     12  H   UNL     1      45.461 129.359  18.899  1.00  0.00     0.358 HD
ATOM     13  H   UNL     1      46.435 130.592  19.461  1.00  0.00     0.358 HD
BRANCH  11  14
ATOM     14  C   UNL     1      45.954 130.687  17.447  1.00  0.00     0.136 A 
ATOM     15  C   UNL     1      45.555 131.924  16.866  1.00  0.00     0.069 A 
ATOM     16  C   UNL     1      46.617 129.729  16.642  1.00  0.00     0.094 A 
ATOM     17  C   UNL     1      45.844 132.219  15.522  1.00  0.00     0.016 A 
ATOM     18  C   UNL     1      46.888 130.054  15.315  1.00  0.00     0.051 A 
ATOM     19  C   UNL     1      46.517 131.256  14.777  1.00  0.00    -0.000 A 
ATOM     20  N   UNL     1      47.508 129.293  14.398  1.00  0.00    -0.361 N 
ATOM     21  C   UNL     1      46.920 131.261  13.460  1.00  0.00     0.028 A 
ATOM     22  C   UNL     1      47.531 130.027  13.262  1.00  0.00     0.083 A 
ATOM     23  H   UNL     1      47.894 128.332  14.531  1.00  0.00     0.166 HD
ENDBRANCH  11  14
ENDBRANCH   7  11
BRANCH   3  24
ATOM     24  O   UNL     1      41.082 133.378  20.382  1.00  0.00    -0.505 OA
ATOM     25  H   UNL     1      40.868 134.276  19.964  1.00  0.00     0.293 HD
ENDBRANCH   3  24
TORSDOF 4
ENDMDL
MODEL 6
REMARK VINA RESULT:      -8.2      1.070      1.429
REMARK SMILES Nc1cc(O)c(F)cc1[NH2+]c1ccc2cc[nH]c2c1
REMARK SMILES IDX 2 1 3 2 4 3 6 4 7 5 8 6 9 7 1 8 10 11 11 14 12 15 19 16
REMARK SMILES IDX 13 17 18 18 14 19 17 20 15 21 16 22 5 24
REMARK H PARENT 1 9 1 10 10 12 10 13 17 23 5 25
ROOT
ATOM      1  C   UNL     1      42.674 132.042  19.659  1.00  0.00     0.098 A 
ATOM      2  C   UNL     1      43.170 131.861  20.960  1.00  0.00     0.081 A 
ATOM      3  C   UNL     1      44.483 131.437  21.177  1.00  0.00     0.153 A 
ATOM      4  C   UNL     1      45.320 131.188  20.084  1.00  0.00     0.170 A 
ATOM      5  F   UNL     1      46.598 130.775  20.276  1.00  0.00    -0.203 F 
ATOM      6  C   UNL     1      44.842 131.360  18.783  1.00  0.00     0.113 A 
ATOM      7  C   UNL     1      43.521 131.786  18.546  1.00  0.00     0.161 A 
ENDROOT
BRANCH   1   8
ATOM      8  N   UNL     1      41.321 132.488  19.499  1.00  0.00    -0.394 N 
ATOM      9  H   UNL     1      41.121 133.458  19.169  1.00  0.00     0.156 HD
ATOM     10  H   UNL     1      40.500 131.872  19.666  1.00  0.00     0.156 HD
ENDBRANCH   1   8
BRANCH   7  11
ATOM     11  N   UNL     1      43.055 131.918  17.181  1.00  0.00    -0.280 N 
ATOM     12  H   UNL     1      42.829 132.917  16.967  1.00  0.00     0.358 HD
ATOM     13  H   UNL     1      42.161 131.390  17.059  1.00  0.00     0.358 HD
BRANCH  11  14
ATOM     14  C   UNL     1      44.067 131.480  16.248  1.00  0.00     0.136 A 
ATOM     15  C   UNL     1      43.918 131.730  14.855  1.00  0.00     0.069 A 
ATOM     16  C   UNL     1      45.189 130.745  16.701  1.00  0.00     0.094 A 
ATOM     17  C   UNL     1      44.886 131.291  13.934  1.00  0.00     0.016 A 
ATOM     18  C   UNL     1      46.129 130.326  15.762  1.00  0.00     0.051 A 
ATOM     19  C   UNL     1      45.982 130.592  14.428  1.00  0.00    -0.000 A 
ATOM     20  N   UNL     1      47.255 129.630  15.988  1.00  0.00    -0.361 N 
ATOM     21  C   UNL     1      47.064 130.044  13.775  1.00  0.00     0.028 A 
ATOM     22  C   UNL     1      47.831 129.456  14.776  1.00  0.00     0.083 A 
ATOM     23  H   UNL     1      47.615 129.291  16.907  1.00  0.00     0.166 HD
ENDBRANCH  11  14
ENDBRANCH   7  11
BRANCH   3  24
ATOM     24  O   UNL     1      44.939 131.269  22.482  1.00  0.00    -0.505 OA
ATOM     25  H   UNL     1      44.329 130.947  23.225  1.00  0.00     0.293 HD
ENDBRANCH   3  24
TORSDOF 4
ENDMDL
MODEL 7
REMARK VINA RESULT:      -8.1      2.769      6.354
REMARK SMILES Nc1cc(O)c(F)cc1[NH2+]c1ccc2cc[nH]c2c1
REMARK SMILES IDX 2 1 3 2 4 3 6 4 7 5 8 6 9 7 1 8 10 11 11 14 12 15 19 16
REMARK SMILES IDX 13 17 18 18 14 19 17 20 15 21 16 22 5 24
REMARK H PARENT 1 9 1 10 10 12 10 13 17 23 5 25
ROOT
ATOM      1  C   UNL     1      45.822 131.840  15.550  1.00  0.00     0.098 A 
ATOM      2  C   UNL     1      46.778 131.087  14.849  1.00  0.00     0.081 A 
ATOM      3  C   UNL     1      46.661 129.699  14.741  1.00  0.00     0.153 A 
ATOM      4  C   UNL     1      45.578 129.046  15.339  1.00  0.00     0.170 A 
ATOM      5  F   UNL     1      45.450 127.698  15.244  1.00  0.00    -0.203 F 
ATOM      6  C   UNL     1      44.620 129.779  16.042  1.00  0.00     0.113 A 
ATOM      7  C   UNL     1      44.723 131.178  16.162  1.00  0.00     0.161 A 
ENDROOT
BRANCH   1   8
ATOM      8  N   UNL     1      45.989 133.262  15.620  1.00  0.00    -0.394 N 
ATOM      9  H   UNL     1      45.367 133.837  16.230  1.00  0.00     0.156 HD
ATOM     10  H   UNL     1      46.739 133.768  15.107  1.00  0.00     0.156 HD
ENDBRANCH   1   8
BRANCH   7  11
ATOM     11  N   UNL     1      43.727 131.896  16.931  1.00  0.00    -0.280 N 
ATOM     12  H   UNL     1      42.767 131.545  16.705  1.00  0.00     0.358 HD
ATOM     13  H   UNL     1      43.732 132.906  16.662  1.00  0.00     0.358 HD
BRANCH  11  14
ATOM     14  C   UNL     1      43.944 131.719  18.347  1.00  0.00     0.136 A 
ATOM     15  C   UNL     1      45.185 131.213  18.828  1.00  0.00     0.069 A 
ATOM     16  C   UNL     1      42.905 131.990  19.271  1.00  0.00     0.094 A 
ATOM     17  C   UNL     1      45.402 131.017  20.203  1.00  0.00     0.016 A 
ATOM     18  C   UNL     1      43.155 131.785  20.626  1.00  0.00     0.051 A 
ATOM     19  C   UNL     1      44.360 131.318  21.074  1.00  0.00    -0.000 A 
ATOM     20  N   UNL     1      42.311 131.987  21.651  1.00  0.00    -0.361 N 
ATOM     21  C   UNL     1      44.282 131.221  22.446  1.00  0.00     0.028 A 
ATOM     22  C   UNL     1      42.996 131.645  22.767  1.00  0.00     0.083 A 
ATOM     23  H   UNL     1      41.329 132.337  21.602  1.00  0.00     0.166 HD
ENDBRANCH  11  14
ENDBRANCH   7  11
BRANCH   3  24
ATOM     24  O   UNL     1      47.629 128.986  14.037  1.00  0.00    -0.505 OA
ATOM     25  H   UNL     1      48.580 128.896  14.376  1.00  0.00     0.293 HD
ENDBRANCH   3  24
TORSDOF 4
ENDMDL
MODEL 8
REMARK VINA RESULT:      -7.9      3.307      4.801
REMARK SMILES Nc1cc(O)c(F)cc1[NH2+]c1ccc2cc[nH]c2c1
REMARK SMILES IDX 2 1 3 2 4 3 6 4 7 5 8 6 9 7 1 8 10 11 11 14 12 15 19 16
REMARK SMILES IDX 13 17 18 18 14 19 17 20 15 21 16 22 5 24
REMARK H PARENT 1 9 1 10 10 12 10 13 17 23 5 25
ROOT
ATOM      1  C   UNL     1      42.831 130.232  23.340  1.00  0.00     0.098 A 
ATOM      2  C   UNL     1      42.164 129.090  23.810  1.00  0.00     0.081 A 
ATOM      3  C   UNL     1      42.768 127.831  23.758  1.00  0.00     0.153 A 
ATOM      4  C   UNL     1      44.057 127.703  23.229  1.00  0.00     0.170 A 
ATOM      5  F   UNL     1      44.658 126.488  23.170  1.00  0.00    -0.203 F 
ATOM      6  C   UNL     1      44.734 128.828  22.755  1.00  0.00     0.113 A 
ATOM      7  C   UNL     1      44.140 130.104  22.799  1.00  0.00     0.161 A 
ENDROOT
BRANCH   1   8
ATOM      8  N   UNL     1      42.165 131.498  23.428  1.00  0.00    -0.394 N 
ATOM      9  H   UNL     1      42.172 132.155  22.616  1.00  0.00     0.156 HD
ATOM     10  H   UNL     1      41.630 131.797  24.268  1.00  0.00     0.156 HD
ENDBRANCH   1   8
BRANCH   7  11
ATOM     11  N   UNL     1      44.863 131.239  22.263  1.00  0.00    -0.280 N 
ATOM     12  H   UNL     1      45.881 131.167  22.495  1.00  0.00     0.358 HD
ATOM     13  H   UNL     1      44.528 132.119  22.718  1.00  0.00     0.358 HD
BRANCH  11  14
ATOM     14  C   UNL     1      44.736 131.297  20.826  1.00  0.00     0.136 A 
ATOM     15  C   UNL     1      43.592 131.897  20.228  1.00  0.00     0.069 A 
ATOM     16  C   UNL     1      45.719 130.706  19.995  1.00  0.00     0.094 A 
ATOM     17  C   UNL     1      43.448 131.944  18.830  1.00  0.00     0.016 A 
ATOM     18  C   UNL     1      45.545 130.770  18.615  1.00  0.00     0.051 A 
ATOM     19  C   UNL     1      44.450 131.370  18.054  1.00  0.00    -0.000 A 
ATOM     20  N   UNL     1      46.359 130.281  17.665  1.00  0.00    -0.361 N 
ATOM     21  C   UNL     1      44.573 131.260  16.687  1.00  0.00     0.028 A 
ATOM     22  C   UNL     1      45.770 130.579  16.484  1.00  0.00     0.083 A 
ATOM     23  H   UNL     1      47.261 129.776  17.805  1.00  0.00     0.166 HD
ENDBRANCH  11  14
ENDBRANCH   7  11
BRANCH   3  24
ATOM     24  O   UNL     1      42.074 126.721  24.234  1.00  0.00    -0.505 OA
ATOM     25  H   UNL     1      41.094 126.771  24.487  1.00  0.00     0.293 HD
ENDBRANCH   3  24
TORSDOF 4
ENDMDL
MODEL 9
REMARK VINA RESULT:      -7.6      2.731      6.256
REMARK SMILES Nc1cc(O)c(F)cc1[NH2+]c1ccc2cc[nH]c2c1
REMARK SMILES IDX 2 1 3 2 4 3 6 4 7 5 8 6 9 7 1 8 10 11 11 14 12 15 19 16
REMARK SMILES IDX 13 17 18 18 14 19 17 20 15 21 16 22 5 24
REMARK H PARENT 1 9 1 10 10 12 10 13 17 23 5 25
ROOT
ATOM      1  C   UNL     1      44.157 131.418  14.782  1.00  0.00     0.098 A 
ATOM      2  C   UNL     1      45.190 130.889  13.991  1.00  0.00     0.081 A 
ATOM      3  C   UNL     1      46.297 130.268  14.575  1.00  0.00     0.153 A 
ATOM      4  C   UNL     1      46.381 130.171  15.968  1.00  0.00     0.170 A 
ATOM      5  F   UNL     1      47.450 129.572  16.552  1.00  0.00    -0.203 F 
ATOM      6  C   UNL     1      45.365 130.694  16.770  1.00  0.00     0.113 A 
ATOM      7  C   UNL     1      44.243 131.324  16.198  1.00  0.00     0.161 A 
ENDROOT
BRANCH   1   8
ATOM      8  N   UNL     1      43.042 132.036  14.127  1.00  0.00    -0.394 N 
ATOM      9  H   UNL     1      42.170 132.250  14.660  1.00  0.00     0.156 HD
ATOM     10  H   UNL     1      43.062 132.321  13.127  1.00  0.00     0.156 HD
ENDBRANCH   1   8
BRANCH   7  11
ATOM     11  N   UNL     1      43.229 131.884  17.067  1.00  0.00    -0.280 N 
ATOM     12  H   UNL     1      42.318 131.385  16.935  1.00  0.00     0.358 HD
ATOM     13  H   UNL     1      43.049 132.880  16.806  1.00  0.00     0.358 HD
BRANCH  11  14
ATOM     14  C   UNL     1      43.611 131.754  18.454  1.00  0.00     0.136 A 
ATOM     15  C   UNL     1      44.958 131.458  18.804  1.00  0.00     0.069 A 
ATOM     16  C   UNL     1      42.639 131.862  19.478  1.00  0.00     0.094 A 
ATOM     17  C   UNL     1      45.339 131.310  20.150  1.00  0.00     0.016 A 
ATOM     18  C   UNL     1      43.051 131.710  20.800  1.00  0.00     0.051 A 
ATOM     19  C   UNL     1      44.354 131.446  21.122  1.00  0.00    -0.000 A 
ATOM     20  N   UNL     1      42.292 131.782  21.905  1.00  0.00    -0.361 N 
ATOM     21  C   UNL     1      44.429 131.348  22.494  1.00  0.00     0.028 A 
ATOM     22  C   UNL     1      43.130 131.563  22.945  1.00  0.00     0.083 A 
ATOM     23  H   UNL     1      41.266 131.969  21.956  1.00  0.00     0.166 HD
ENDBRANCH  11  14
ENDBRANCH   7  11
BRANCH   3  24
ATOM     24  O   UNL     1      47.301 129.755  13.757  1.00  0.00    -0.505 OA
ATOM     25  H   UNL     1      47.144 129.561  12.775  1.00  0.00     0.293 HD
ENDBRANCH   3  24
TORSDOF 4
ENDMDL


