REMARK SMILES COC[N-]C(=O)Nc1c(N)cc(C)cc1-n1[nH+]c2ccccc2[nH+]1
REMARK SMILES IDX 5 1 6 2 7 3 4 5 3 6 2 7 1 8 8 9 9 10 15 11 11 12 14 13 12 14
REMARK SMILES IDX 13 15 10 16 16 19 17 20 24 21 18 22 23 23 19 24 22 25 20 26
REMARK SMILES IDX 21 27
REMARK H PARENT 7 4 10 17 10 18 17 28 24 29
ROOT
ATOM      1  C   UNL     1       1.341  -1.144   2.085  1.00  0.00     0.158 C 
ATOM      2  O   UNL     1       2.578  -1.296   1.901  1.00  0.00    -0.299 OA
ATOM      3  N   UNL     1       0.640  -0.075   1.426  1.00  0.00    -0.420 N 
ATOM      4  H   UNL     1      -0.398  -0.013   1.510  1.00  0.00     0.029 HD
ENDROOT
BRANCH   1   5
ATOM      5  N   UNL     1       0.654  -2.063   2.943  1.00  0.00    -0.406 NA
BRANCH   5   6
ATOM      6  C   UNL     1      -0.786  -2.068   3.162  1.00  0.00     0.167 C 
BRANCH   6   7
ATOM      7  O   UNL     1      -1.439  -2.399   1.955  1.00  0.00    -0.385 OA
ATOM      8  C   UNL     1      -2.832  -2.271   2.126  1.00  0.00     0.194 C 
ENDBRANCH   6   7
ENDBRANCH   5   6
ENDBRANCH   1   5
BRANCH   3   9
ATOM      9  C   UNL     1       1.268   0.752   0.435  1.00  0.00     0.019 A 
ATOM     10  C   UNL     1       2.316   1.633   0.786  1.00  0.00     0.037 A 
ATOM     11  C   UNL     1       0.774   0.748  -0.888  1.00  0.00     0.173 A 
ATOM     12  C   UNL     1       2.890   2.454  -0.194  1.00  0.00     0.029 A 
ATOM     13  C   UNL     1       1.344   1.598  -1.846  1.00  0.00     0.042 A 
ATOM     14  C   UNL     1       2.419   2.430  -1.513  1.00  0.00    -0.047 A 
ATOM     15  C   UNL     1       3.006   3.353  -2.540  1.00  0.00     0.044 C 
BRANCH  10  16
ATOM     16  N   UNL     1       2.768   1.749   2.142  1.00  0.00    -0.398 N 
ATOM     17  H   UNL     1       2.273   1.277   2.930  1.00  0.00     0.156 HD
ATOM     18  H   UNL     1       3.573   2.370   2.382  1.00  0.00     0.156 HD
ENDBRANCH  10  16
BRANCH  11  19
ATOM     19  N   UNL     1      -0.307  -0.118  -1.272  1.00  0.00     0.080 N 
ATOM     20  N   UNL     1      -0.371  -1.417  -0.984  1.00  0.00    -0.062 N 
ATOM     21  N   UNL     1      -1.363   0.278  -1.979  1.00  0.00    -0.062 N 
ATOM     22  C   UNL     1      -1.520  -1.860  -1.518  1.00  0.00     0.306 A 
ATOM     23  C   UNL     1      -2.135  -0.810  -2.133  1.00  0.00     0.306 A 
ATOM     24  C   UNL     1      -2.068  -3.138  -1.502  1.00  0.00     0.089 A 
ATOM     25  C   UNL     1      -3.359  -0.944  -2.782  1.00  0.00     0.089 A 
ATOM     26  C   UNL     1      -3.308  -3.315  -2.148  1.00  0.00     0.007 A 
ATOM     27  C   UNL     1      -3.950  -2.223  -2.785  1.00  0.00     0.007 A 
ATOM     28  H   UNL     1       0.349  -1.973  -0.471  1.00  0.00     0.495 HD
ATOM     29  H   UNL     1      -1.547   1.247  -2.322  1.00  0.00     0.495 HD
ENDBRANCH  11  19
ENDBRANCH   3   9
TORSDOF 6


