REMARK SMILES C/C=C(\C)C(=O)N1CC[C@H](C)[C@H](F)[C@H]1c1ccc(C(C)=O)cc1
REMARK SMILES IDX 7 1 8 2 9 3 10 4 11 5 12 6 13 7 14 8 5 9 6 10 3 11 4 12 2 13
REMARK SMILES IDX 1 14 15 15 16 16 23 17 17 18 22 19 18 20 19 21 21 22 20 23
REMARK H PARENT
ROOT
ATOM      1  N   UNL     1       0.449  -0.299  -1.165  1.00  0.00    -0.329 N 
ATOM      2  C   UNL     1      -0.797  -0.458  -1.936  1.00  0.00     0.121 C 
ATOM      3  C   UNL     1      -1.482   0.875  -2.231  1.00  0.00     0.028 C 
ATOM      4  C   UNL     1      -1.600   1.721  -0.961  1.00  0.00     0.024 C 
ATOM      5  C   UNL     1      -2.380   3.012  -1.241  1.00  0.00     0.011 C 
ATOM      6  C   UNL     1      -0.196   2.033  -0.421  1.00  0.00     0.196 C 
ATOM      7  F   UNL     1       0.492   2.818  -1.336  1.00  0.00    -0.245 F 
ATOM      8  C   UNL     1       0.629   0.756  -0.139  1.00  0.00     0.150 C 
ENDROOT
BRANCH   1   9
ATOM      9  C   UNL     1       1.385  -1.395  -1.192  1.00  0.00     0.249 C 
ATOM     10  O   UNL     1       0.951  -2.579  -1.200  1.00  0.00    -0.269 OA
BRANCH   9  11
ATOM     11  C   UNL     1       2.848  -1.163  -1.213  1.00  0.00     0.010 C 
ATOM     12  C   UNL     1       3.753  -2.169  -0.548  1.00  0.00     0.050 C 
BRANCH  11  13
ATOM     13  C   UNL     1       3.347  -0.124  -1.909  1.00  0.00    -0.021 C 
ATOM     14  C   UNL     1       4.813   0.162  -2.029  1.00  0.00     0.036 C 
ENDBRANCH  11  13
ENDBRANCH   9  11
ENDBRANCH   1   9
BRANCH   8  15
ATOM     15  C   UNL     1       0.386   0.223   1.267  1.00  0.00    -0.022 A 
ATOM     16  C   UNL     1       1.278   0.565   2.298  1.00  0.00     0.007 A 
ATOM     17  C   UNL     1      -0.727  -0.576   1.579  1.00  0.00     0.007 A 
ATOM     18  C   UNL     1       1.075   0.103   3.600  1.00  0.00     0.012 A 
ATOM     19  C   UNL     1      -0.931  -1.039   2.881  1.00  0.00     0.012 A 
ATOM     20  C   UNL     1      -0.030  -0.709   3.910  1.00  0.00     0.017 A 
BRANCH  20  21
ATOM     21  C   UNL     1      -0.231  -1.196   5.302  1.00  0.00     0.159 C 
ATOM     22  O   UNL     1       0.581  -0.858   6.206  1.00  0.00    -0.295 OA
ATOM     23  C   UNL     1      -1.379  -2.086   5.672  1.00  0.00     0.093 C 
ENDBRANCH  20  21
ENDBRANCH   8  15
TORSDOF 5


