REMARK SMILES N#Cc1ccc([NH2+]c2ccc3cc[nH]c3c2)c(F)c1
REMARK SMILES IDX 3 1 4 2 5 3 6 4 17 5 18 6 19 7 2 8 1 9 7 10 8 13 9 14 16 15
REMARK SMILES IDX 10 16 15 17 11 18 14 19 12 20 13 21
REMARK H PARENT 7 11 7 12 14 22
ROOT
ATOM      1  C   UNL     1      -0.018  -3.201   1.317  1.00  0.00     0.055 A 
ATOM      2  C   UNL     1      -0.040  -2.150   2.240  1.00  0.00     0.026 A 
ATOM      3  C   UNL     1       0.645  -0.963   1.968  1.00  0.00     0.073 A 
ATOM      4  C   UNL     1       1.366  -0.812   0.770  1.00  0.00     0.170 A 
ATOM      5  C   UNL     1       1.379  -1.874  -0.158  1.00  0.00     0.185 A 
ATOM      6  F   UNL     1       2.060  -1.763  -1.326  1.00  0.00    -0.200 F 
ATOM      7  C   UNL     1       0.693  -3.061   0.119  1.00  0.00     0.065 A 
ENDROOT
BRANCH   1   8
ATOM      8  C   UNL     1      -0.724  -4.424   1.597  1.00  0.00     0.099 C 
ATOM      9  N   UNL     1      -1.293  -5.406   1.823  1.00  0.00    -0.192 NA
ENDBRANCH   1   8
BRANCH   4  10
ATOM     10  N   UNL     1       2.044   0.429   0.483  1.00  0.00    -0.279 N 
ATOM     11  H   UNL     1       2.887   0.256  -0.113  1.00  0.00     0.358 HD
ATOM     12  H   UNL     1       2.391   0.860   1.372  1.00  0.00     0.358 HD
BRANCH  10  13
ATOM     13  C   UNL     1       1.140   1.335  -0.180  1.00  0.00     0.136 A 
ATOM     14  C   UNL     1       1.068   1.367  -1.599  1.00  0.00     0.069 A 
ATOM     15  C   UNL     1       0.288   2.172   0.579  1.00  0.00     0.094 A 
ATOM     16  C   UNL     1       0.168   2.225  -2.255  1.00  0.00     0.016 A 
ATOM     17  C   UNL     1      -0.592   3.010  -0.104  1.00  0.00     0.051 A 
ATOM     18  C   UNL     1      -0.648   3.034  -1.471  1.00  0.00    -0.000 A 
ATOM     19  N   UNL     1      -1.474   3.872   0.426  1.00  0.00    -0.361 N 
ATOM     20  C   UNL     1      -1.610   3.954  -1.828  1.00  0.00     0.028 A 
ATOM     21  C   UNL     1      -2.099   4.452  -0.625  1.00  0.00     0.083 A 
ATOM     22  H   UNL     1      -1.646   4.059   1.439  1.00  0.00     0.166 HD
ENDBRANCH  10  13
ENDBRANCH   4  10
TORSDOF 3


