REMARK SMILES Cc1ccc([C@@H]2CC[C@@H]3CC=N[C@]3(C=O)C2)c(F)c1F
REMARK SMILES IDX 6 1 7 2 8 3 9 4 10 5 11 6 12 7 13 8 16 9 5 10 2 11 3 12
REMARK SMILES IDX 19 13 4 14 17 15 1 16 20 17 18 18 14 19 15 20
REMARK H PARENT
ROOT
ATOM      1  C   UNL     1      -0.052   0.625  -0.132  1.00  0.00     0.025 C 
ATOM      2  C   UNL     1      -0.531   1.518   1.050  1.00  0.00     0.009 C 
ATOM      3  C   UNL     1      -1.769   0.956   1.759  1.00  0.00     0.007 C 
ATOM      4  C   UNL     1      -2.932   0.778   0.759  1.00  0.00     0.029 C 
ATOM      5  C   UNL     1      -4.056  -0.102   1.333  1.00  0.00     0.054 C 
ATOM      6  C   UNL     1      -4.240  -1.136   0.287  1.00  0.00     0.079 C 
ATOM      7  N   UNL     1      -3.433  -1.032  -0.697  1.00  0.00    -0.283 NA
ATOM      8  C   UNL     1      -2.516   0.071  -0.572  1.00  0.00     0.119 C 
ATOM      9  C   UNL     1      -1.069  -0.476  -0.514  1.00  0.00     0.047 C 
ENDROOT
BRANCH   1  10
ATOM     10  C   UNL     1       1.313   0.009   0.135  1.00  0.00    -0.006 A 
ATOM     11  C   UNL     1       3.831  -1.170   0.628  1.00  0.00    -0.012 A 
ATOM     12  C   UNL     1       2.771  -1.365   1.523  1.00  0.00     0.007 A 
ATOM     13  C   UNL     1       3.622  -0.404  -0.530  1.00  0.00     0.162 A 
ATOM     14  C   UNL     1       1.525  -0.781   1.281  1.00  0.00     0.007 A 
ATOM     15  C   UNL     1       2.375   0.182  -0.776  1.00  0.00     0.162 A 
ATOM     16  C   UNL     1       5.162  -1.821   0.875  1.00  0.00     0.047 C 
ATOM     17  F   UNL     1       4.628  -0.229  -1.426  1.00  0.00    -0.203 F 
ATOM     18  F   UNL     1       2.207   0.912  -1.908  1.00  0.00    -0.203 F 
ENDBRANCH   1  10
BRANCH   8  19
ATOM     19  C   UNL     1      -2.679   0.983  -1.770  1.00  0.00     0.254 C 
ATOM     20  O   UNL     1      -2.600   0.534  -2.904  1.00  0.00    -0.301 OA
ENDBRANCH   8  19
TORSDOF 2


