REMARK SMILES [H]/N=c1\c(Nc2ccc3c(c2)[nH+]nn3C)cccn1C(=O)OCc1ccccc1
REMARK SMILES IDX 3 1 4 2 16 3 17 4 18 5 19 6 2 7 1 8 5 9 6 11 7 12 11 13 8 14
REMARK SMILES IDX 10 15 9 16 12 17 14 18 13 19 15 21 20 22 21 23 22 24 23 25
REMARK SMILES IDX 24 26 25 27 29 28 26 29 28 30 27 31
REMARK H PARENT 5 10 12 20
ROOT
ATOM      1  C   UNL     1       0.392  -1.645   1.006  1.00  0.00     0.158 A 
ATOM      2  C   UNL     1       1.001  -2.520   0.072  1.00  0.00     0.082 A 
ATOM      3  C   UNL     1       0.525  -3.825  -0.050  1.00  0.00     0.031 A 
ATOM      4  C   UNL     1      -0.565  -4.241   0.702  1.00  0.00     0.021 A 
ATOM      5  C   UNL     1      -1.170  -3.351   1.585  1.00  0.00     0.100 A 
ATOM      6  N   UNL     1      -0.692  -2.077   1.743  1.00  0.00    -0.235 N 
ENDROOT
BRANCH   1   7
ATOM      7  N   UNL     1       0.854  -0.439   1.172  1.00  0.00    -0.282 NA
ATOM      8  H   UNL     1       1.678  -0.048   0.666  1.00  0.00     0.189 HD
ENDBRANCH   1   7
BRANCH   2   9
ATOM      9  N   UNL     1       2.103  -2.109  -0.753  1.00  0.00    -0.352 N 
ATOM     10  H   UNL     1       2.981  -2.673  -0.698  1.00  0.00     0.167 HD
BRANCH   9  11
ATOM     11  C   UNL     1       1.994  -1.109  -1.783  1.00  0.00     0.043 A 
ATOM     12  C   UNL     1       3.172  -0.672  -2.449  1.00  0.00     0.031 A 
ATOM     13  C   UNL     1       0.737  -0.567  -2.157  1.00  0.00     0.084 A 
ATOM     14  C   UNL     1       3.112   0.302  -3.465  1.00  0.00     0.061 A 
ATOM     15  C   UNL     1       0.724   0.393  -3.163  1.00  0.00     0.197 A 
ATOM     16  C   UNL     1       1.857   0.810  -3.787  1.00  0.00     0.197 A 
ATOM     17  N   UNL     1      -0.316   1.053  -3.699  1.00  0.00    -0.143 N 
ATOM     18  N   UNL     1       1.499   1.728  -4.702  1.00  0.00    -0.133 N 
ATOM     19  N   UNL     1       0.177   1.860  -4.636  1.00  0.00     0.088 NA
ATOM     20  H   UNL     1      -1.326   0.966  -3.450  1.00  0.00     0.342 HD
ATOM     21  C   UNL     1       2.362   2.447  -5.630  1.00  0.00     0.327 C 
ENDBRANCH   9  11
ENDBRANCH   2   9
BRANCH   6  22
ATOM     22  C   UNL     1      -1.366  -1.219   2.694  1.00  0.00     0.420 C 
ATOM     23  O   UNL     1      -0.741  -0.287   3.272  1.00  0.00    -0.223 OA
BRANCH  22  24
ATOM     24  O   UNL     1      -2.718  -1.439   2.992  1.00  0.00    -0.444 OA
BRANCH  24  25
ATOM     25  C   UNL     1      -3.478  -0.597   3.856  1.00  0.00     0.270 C 
BRANCH  25  26
ATOM     26  C   UNL     1      -3.743   0.728   3.195  1.00  0.00    -0.011 A 
ATOM     27  C   UNL     1      -4.575   0.793   2.066  1.00  0.00     0.007 A 
ATOM     28  C   UNL     1      -3.140   1.903   3.675  1.00  0.00     0.007 A 
ATOM     29  C   UNL     1      -4.808   2.018   1.431  1.00  0.00     0.000 A 
ATOM     30  C   UNL     1      -3.375   3.125   3.038  1.00  0.00     0.000 A 
ATOM     31  C   UNL     1      -4.208   3.183   1.918  1.00  0.00     0.000 A 
ENDBRANCH  25  26
ENDBRANCH  24  25
ENDBRANCH  22  24
ENDBRANCH   6  22
TORSDOF 7


