MODEL 1
REMARK VINA RESULT:      -8.4      0.000      0.000
REMARK SMILES O=C(CCc1c(F)ccc(C2CC2)c1F)c1ccc(-c2ccc(O)cc2)c2c[n-]nc12
REMARK SMILES IDX 1 1 2 2 3 3 4 4 5 5 6 6 14 7 8 8 10 9 9 10 7 11 15 12 11 13
REMARK SMILES IDX 12 14 13 15 16 16 17 17 31 18 18 19 30 20 27 21 19 22 29 23
REMARK SMILES IDX 28 24 20 25 21 26 26 27 22 28 25 29 23 30 24 31
REMARK H PARENT 24 32
ROOT
ATOM      1  O   UNL     1      42.294 131.715  22.545  1.00  0.00    -0.294 OA
ATOM      2  C   UNL     1      43.432 131.216  22.328  1.00  0.00     0.165 C 
ENDROOT
BRANCH   2   3
ATOM      3  C   UNL     1      44.216 130.658  23.490  1.00  0.00     0.086 C 
BRANCH   3   4
ATOM      4  C   UNL     1      43.305 129.964  24.517  1.00  0.00     0.050 C 
BRANCH   4   5
ATOM      5  C   UNL     1      43.174 128.479  24.254  1.00  0.00     0.024 A 
ATOM      6  C   UNL     1      41.908 127.904  24.031  1.00  0.00     0.129 A 
ATOM      7  C   UNL     1      44.324 127.672  24.157  1.00  0.00     0.132 A 
ATOM      8  C   UNL     1      41.799 126.553  23.698  1.00  0.00     0.040 A 
ATOM      9  C   UNL     1      44.212 126.318  23.787  1.00  0.00    -0.009 A 
ATOM     10  C   UNL     1      42.943 125.764  23.575  1.00  0.00     0.010 A 
ATOM     11  F   UNL     1      40.780 128.654  24.111  1.00  0.00    -0.207 F 
ATOM     12  F   UNL     1      45.547 128.205  24.412  1.00  0.00    -0.206 F 
BRANCH   9  13
ATOM     13  C   UNL     1      45.429 125.434  23.704  1.00  0.00     0.022 C 
ATOM     14  C   UNL     1      45.310 124.296  22.696  1.00  0.00     0.009 C 
ATOM     15  C   UNL     1      46.205 125.483  22.395  1.00  0.00     0.009 C 
ENDBRANCH   9  13
ENDBRANCH   4   5
ENDBRANCH   3   4
ENDBRANCH   2   3
BRANCH   2  16
ATOM     16  C   UNL     1      43.897 131.059  20.932  1.00  0.00     0.042 A 
ATOM     17  C   UNL     1      45.134 130.433  20.666  1.00  0.00     0.015 A 
ATOM     18  C   UNL     1      43.193 131.571  19.832  1.00  0.00     0.058 A 
ATOM     19  C   UNL     1      45.662 130.396  19.359  1.00  0.00     0.010 A 
ATOM     20  N   UNL     1      41.986 132.162  19.822  1.00  0.00    -0.367 NA
ATOM     21  C   UNL     1      43.694 131.509  18.561  1.00  0.00    -0.014 A 
ATOM     22  C   UNL     1      44.944 130.947  18.275  1.00  0.00    -0.011 A 
ATOM     23  N   UNL     1      41.715 132.495  18.563  1.00  0.00    -0.581 NA
ATOM     24  C   UNL     1      42.742 132.115  17.771  1.00  0.00    -0.113 A 
BRANCH  22  25
ATOM     25  C   UNL     1      45.517 130.943  16.911  1.00  0.00    -0.018 A 
ATOM     26  C   UNL     1      44.984 131.786  15.922  1.00  0.00     0.012 A 
ATOM     27  C   UNL     1      46.601 130.109  16.591  1.00  0.00     0.012 A 
ATOM     28  C   UNL     1      45.515 131.783  14.630  1.00  0.00     0.047 A 
ATOM     29  C   UNL     1      47.133 130.109  15.297  1.00  0.00     0.047 A 
ATOM     30  C   UNL     1      46.592 130.943  14.314  1.00  0.00     0.115 A 
BRANCH  30  31
ATOM     31  O   UNL     1      47.131 130.932  13.030  1.00  0.00    -0.508 OA
ATOM     32  H   UNL     1      48.014 131.386  12.822  1.00  0.00     0.293 HD
ENDBRANCH  30  31
ENDBRANCH  22  25
ENDBRANCH   2  16
TORSDOF 7
ENDMDL
MODEL 2
REMARK VINA RESULT:      -8.0      1.150      1.479
REMARK SMILES O=C(CCc1c(F)ccc(C2CC2)c1F)c1ccc(-c2ccc(O)cc2)c2c[n-]nc12
REMARK SMILES IDX 1 1 2 2 3 3 4 4 5 5 6 6 14 7 8 8 10 9 9 10 7 11 15 12 11 13
REMARK SMILES IDX 12 14 13 15 16 16 17 17 31 18 18 19 30 20 27 21 19 22 29 23
REMARK SMILES IDX 28 24 20 25 21 26 26 27 22 28 25 29 23 30 24 31
REMARK H PARENT 24 32
ROOT
ATOM      1  O   UNL     1      43.318 132.054  23.108  1.00  0.00    -0.294 OA
ATOM      2  C   UNL     1      43.942 131.052  22.665  1.00  0.00     0.165 C 
ENDROOT
BRANCH   2   3
ATOM      3  C   UNL     1      44.217 129.896  23.594  1.00  0.00     0.086 C 
BRANCH   3   4
ATOM      4  C   UNL     1      43.328 128.681  23.279  1.00  0.00     0.050 C 
BRANCH   4   5
ATOM      5  C   UNL     1      43.968 127.378  23.705  1.00  0.00     0.024 A 
ATOM      6  C   UNL     1      43.197 126.371  24.317  1.00  0.00     0.129 A 
ATOM      7  C   UNL     1      45.327 127.131  23.427  1.00  0.00     0.132 A 
ATOM      8  C   UNL     1      43.770 125.136  24.624  1.00  0.00     0.040 A 
ATOM      9  C   UNL     1      45.893 125.873  23.709  1.00  0.00    -0.009 A 
ATOM     10  C   UNL     1      45.109 124.886  24.322  1.00  0.00     0.010 A 
ATOM     11  F   UNL     1      41.883 126.573  24.592  1.00  0.00    -0.207 F 
ATOM     12  F   UNL     1      46.092 128.109  22.877  1.00  0.00    -0.206 F 
BRANCH   9  13
ATOM     13  C   UNL     1      47.350 125.601  23.443  1.00  0.00     0.022 C 
ATOM     14  C   UNL     1      48.278 125.980  24.591  1.00  0.00     0.009 C 
ATOM     15  C   UNL     1      47.997 124.519  24.297  1.00  0.00     0.009 C 
ENDBRANCH   9  13
ENDBRANCH   4   5
ENDBRANCH   3   4
ENDBRANCH   2   3
BRANCH   2  16
ATOM     16  C   UNL     1      44.253 130.977  21.220  1.00  0.00     0.042 A 
ATOM     17  C   UNL     1      45.450 130.366  20.786  1.00  0.00     0.015 A 
ATOM     18  C   UNL     1      43.439 131.553  20.234  1.00  0.00     0.058 A 
ATOM     19  C   UNL     1      45.834 130.406  19.430  1.00  0.00     0.010 A 
ATOM     20  N   UNL     1      42.242 132.146  20.388  1.00  0.00    -0.367 NA
ATOM     21  C   UNL     1      43.800 131.566  18.914  1.00  0.00    -0.014 A 
ATOM     22  C   UNL     1      45.008 131.020  18.464  1.00  0.00    -0.011 A 
ATOM     23  N   UNL     1      41.840 132.552  19.187  1.00  0.00    -0.581 NA
ATOM     24  C   UNL     1      42.774 132.218  18.269  1.00  0.00    -0.113 A 
BRANCH  22  25
ATOM     25  C   UNL     1      45.431 131.096  17.048  1.00  0.00    -0.018 A 
ATOM     26  C   UNL     1      44.733 131.919  16.149  1.00  0.00     0.012 A 
ATOM     27  C   UNL     1      46.535 130.359  16.589  1.00  0.00     0.012 A 
ATOM     28  C   UNL     1      45.123 131.990  14.808  1.00  0.00     0.047 A 
ATOM     29  C   UNL     1      46.925 130.434  15.248  1.00  0.00     0.047 A 
ATOM     30  C   UNL     1      46.221 131.246  14.354  1.00  0.00     0.115 A 
BRANCH  30  31
ATOM     31  O   UNL     1      46.619 131.310  13.021  1.00  0.00    -0.508 OA
ATOM     32  H   UNL     1      45.961 131.528  12.282  1.00  0.00     0.293 HD
ENDBRANCH  30  31
ENDBRANCH  22  25
ENDBRANCH   2  16
TORSDOF 7
ENDMDL
MODEL 3
REMARK VINA RESULT:      -6.7      0.900      1.343
REMARK SMILES O=C(CCc1c(F)ccc(C2CC2)c1F)c1ccc(-c2ccc(O)cc2)c2c[n-]nc12
REMARK SMILES IDX 1 1 2 2 3 3 4 4 5 5 6 6 14 7 8 8 10 9 9 10 7 11 15 12 11 13
REMARK SMILES IDX 12 14 13 15 16 16 17 17 31 18 18 19 30 20 27 21 19 22 29 23
REMARK SMILES IDX 28 24 20 25 21 26 26 27 22 28 25 29 23 30 24 31
REMARK H PARENT 24 32
ROOT
ATOM      1  O   UNL     1      42.428 131.799  21.433  1.00  0.00    -0.294 OA
ATOM      2  C   UNL     1      43.536 131.217  21.286  1.00  0.00     0.165 C 
ENDROOT
BRANCH   2   3
ATOM      3  C   UNL     1      44.203 130.602  22.491  1.00  0.00     0.086 C 
BRANCH   3   4
ATOM      4  C   UNL     1      43.231 130.460  23.675  1.00  0.00     0.050 C 
BRANCH   4   5
ATOM      5  C   UNL     1      42.860 129.018  23.941  1.00  0.00     0.024 A 
ATOM      6  C   UNL     1      41.528 128.665  24.231  1.00  0.00     0.129 A 
ATOM      7  C   UNL     1      43.831 128.003  23.828  1.00  0.00     0.132 A 
ATOM      8  C   UNL     1      41.172 127.324  24.384  1.00  0.00     0.040 A 
ATOM      9  C   UNL     1      43.462 126.650  23.950  1.00  0.00    -0.009 A 
ATOM     10  C   UNL     1      42.132 126.322  24.244  1.00  0.00     0.010 A 
ATOM     11  F   UNL     1      40.565 129.617  24.341  1.00  0.00    -0.207 F 
ATOM     12  F   UNL     1      45.127 128.333  23.591  1.00  0.00    -0.206 F 
BRANCH   9  13
ATOM     13  C   UNL     1      44.492 125.554  23.858  1.00  0.00     0.022 C 
ATOM     14  C   UNL     1      44.107 124.408  22.929  1.00  0.00     0.009 C 
ATOM     15  C   UNL     1      45.181 125.394  22.509  1.00  0.00     0.009 C 
ENDBRANCH   9  13
ENDBRANCH   4   5
ENDBRANCH   3   4
ENDBRANCH   2   3
BRANCH   2  16
ATOM     16  C   UNL     1      44.075 131.025  19.920  1.00  0.00     0.042 A 
ATOM     17  C   UNL     1      45.339 130.423  19.738  1.00  0.00     0.015 A 
ATOM     18  C   UNL     1      43.414 131.480  18.770  1.00  0.00     0.058 A 
ATOM     19  C   UNL     1      45.932 130.357  18.461  1.00  0.00     0.010 A 
ATOM     20  N   UNL     1      42.195 132.039  18.679  1.00  0.00    -0.367 NA
ATOM     21  C   UNL     1      43.980 131.389  17.528  1.00  0.00    -0.014 A 
ATOM     22  C   UNL     1      45.256 130.851  17.324  1.00  0.00    -0.011 A 
ATOM     23  N   UNL     1      41.979 132.321  17.398  1.00  0.00    -0.581 NA
ATOM     24  C   UNL     1      43.054 131.942  16.671  1.00  0.00    -0.113 A 
BRANCH  22  25
ATOM     25  C   UNL     1      45.897 130.817  15.991  1.00  0.00    -0.018 A 
ATOM     26  C   UNL     1      47.075 130.078  15.795  1.00  0.00     0.012 A 
ATOM     27  C   UNL     1      45.334 131.511  14.907  1.00  0.00     0.012 A 
ATOM     28  C   UNL     1      47.690 130.047  14.540  1.00  0.00     0.047 A 
ATOM     29  C   UNL     1      45.949 131.477  13.651  1.00  0.00     0.047 A 
ATOM     30  C   UNL     1      47.127 130.748  13.464  1.00  0.00     0.115 A 
BRANCH  30  31
ATOM     31  O   UNL     1      47.730 130.724  12.209  1.00  0.00    -0.508 OA
ATOM     32  H   UNL     1      48.146 129.878  11.837  1.00  0.00     0.293 HD
ENDBRANCH  30  31
ENDBRANCH  22  25
ENDBRANCH   2  16
TORSDOF 7
ENDMDL


