MODEL 1
REMARK VINA RESULT:      -8.7      0.000      0.000
REMARK SMILES OC(CCc1c(F)c(-c2c[n-]c3nccc-3c2)c(F)c2[nH]ccc12)=C1CCC1
REMARK SMILES IDX 3 1 2 2 1 3 25 5 26 6 28 7 27 8 4 9 5 10 6 11 24 12 8 13
REMARK SMILES IDX 23 14 20 15 18 16 22 17 21 18 7 19 19 20 9 22 10 23 17 24
REMARK SMILES IDX 11 25 16 26 12 27 15 28 13 29 14 30
REMARK H PARENT 1 4 21 21
ROOT
ATOM      1  C   UNL     1      45.412 130.047  21.888  1.00  0.00     0.079 C 
ENDROOT
BRANCH   1   2
ATOM      2  C   UNL     1      44.293 129.496  22.732  1.00  0.00     0.092 C 
BRANCH   2   3
ATOM      3  O   UNL     1      43.199 130.299  23.045  1.00  0.00    -0.512 OA
ATOM      4  H   UNL     1      42.400 130.360  22.427  1.00  0.00     0.293 HD
ENDBRANCH   2   3
BRANCH   2   5
ATOM      5  C   UNL     1      44.309 128.233  23.154  1.00  0.00    -0.033 C 
ATOM      6  C   UNL     1      44.829 126.889  22.676  1.00  0.00     0.035 C 
ATOM      7  C   UNL     1      43.784 127.462  24.349  1.00  0.00     0.035 C 
ATOM      8  C   UNL     1      44.298 126.147  23.858  1.00  0.00     0.009 C 
ENDBRANCH   2   5
ENDBRANCH   1   2
BRANCH   1   9
ATOM      9  C   UNL     1      45.108 131.475  21.413  1.00  0.00     0.047 C 
BRANCH   9  10
ATOM     10  C   UNL     1      44.516 131.482  20.023  1.00  0.00    -0.002 A 
ATOM     11  C   UNL     1      45.259 131.016  18.911  1.00  0.00     0.137 A 
ATOM     12  C   UNL     1      43.261 132.047  19.767  1.00  0.00     0.009 A 
ATOM     13  C   UNL     1      44.743 131.134  17.591  1.00  0.00     0.055 A 
ATOM     14  C   UNL     1      42.329 132.613  20.617  1.00  0.00     0.028 A 
ATOM     15  C   UNL     1      42.755 132.147  18.498  1.00  0.00     0.083 A 
ATOM     16  C   UNL     1      43.468 131.705  17.386  1.00  0.00     0.157 A 
ATOM     17  C   UNL     1      41.285 133.027  19.799  1.00  0.00     0.083 A 
ATOM     18  N   UNL     1      41.550 132.741  18.506  1.00  0.00    -0.359 N 
ATOM     19  F   UNL     1      46.504 130.506  19.102  1.00  0.00    -0.206 F 
ATOM     20  F   UNL     1      42.934 131.820  16.143  1.00  0.00    -0.204 F 
ATOM     21  H   UNL     1      40.943 132.952  17.682  1.00  0.00     0.166 HD
BRANCH  13  22
ATOM     22  C   UNL     1      45.555 130.694  16.435  1.00  0.00    -0.016 A 
ATOM     23  C   UNL     1      45.734 129.304  16.176  1.00  0.00    -0.013 A 
ATOM     24  C   UNL     1      46.141 131.652  15.577  1.00  0.00     0.016 A 
ATOM     25  N   UNL     1      46.470 128.866  15.110  1.00  0.00    -0.442 NA
ATOM     26  C   UNL     1      46.881 131.177  14.506  1.00  0.00    -0.026 A 
ATOM     27  C   UNL     1      47.034 129.780  14.289  1.00  0.00    -0.052 A 
ATOM     28  C   UNL     1      47.576 131.793  13.498  1.00  0.00     0.003 A 
ATOM     29  N   UNL     1      47.783 129.525  13.205  1.00  0.00    -0.442 NA
ATOM     30  C   UNL     1      48.109 130.756  12.728  1.00  0.00    -0.022 A 
ENDBRANCH  13  22
ENDBRANCH   9  10
ENDBRANCH   1   9
TORSDOF 6
ENDMDL
MODEL 2
REMARK VINA RESULT:      -8.3      0.995      1.218
REMARK SMILES OC(CCc1c(F)c(-c2c[n-]c3nccc-3c2)c(F)c2[nH]ccc12)=C1CCC1
REMARK SMILES IDX 3 1 2 2 1 3 25 5 26 6 28 7 27 8 4 9 5 10 6 11 24 12 8 13
REMARK SMILES IDX 23 14 20 15 18 16 22 17 21 18 7 19 19 20 9 22 10 23 17 24
REMARK SMILES IDX 11 25 16 26 12 27 15 28 13 29 14 30
REMARK H PARENT 1 4 21 21
ROOT
ATOM      1  C   UNL     1      44.907 129.463  21.981  1.00  0.00     0.079 C 
ENDROOT
BRANCH   1   2
ATOM      2  C   UNL     1      44.442 129.211  23.391  1.00  0.00     0.092 C 
BRANCH   2   3
ATOM      3  O   UNL     1      45.301 129.454  24.459  1.00  0.00    -0.512 OA
ATOM      4  H   UNL     1      45.451 130.392  24.809  1.00  0.00     0.293 HD
ENDBRANCH   2   3
BRANCH   2   5
ATOM      5  C   UNL     1      43.201 128.795  23.641  1.00  0.00    -0.033 C 
ATOM      6  C   UNL     1      41.801 129.038  23.111  1.00  0.00     0.035 C 
ATOM      7  C   UNL     1      42.530 127.858  24.625  1.00  0.00     0.035 C 
ATOM      8  C   UNL     1      41.157 128.115  24.093  1.00  0.00     0.009 C 
ENDBRANCH   2   5
ENDBRANCH   1   2
BRANCH   1   9
ATOM      9  C   UNL     1      44.842 130.954  21.625  1.00  0.00     0.047 C 
BRANCH   9  10
ATOM     10  C   UNL     1      44.355 131.166  20.210  1.00  0.00    -0.002 A 
ATOM     11  C   UNL     1      45.128 130.746  19.101  1.00  0.00     0.137 A 
ATOM     12  C   UNL     1      43.180 131.879  19.943  1.00  0.00     0.009 A 
ATOM     13  C   UNL     1      44.721 131.052  17.774  1.00  0.00     0.055 A 
ATOM     14  C   UNL     1      42.247 132.445  20.792  1.00  0.00     0.028 A 
ATOM     15  C   UNL     1      42.778 132.161  18.664  1.00  0.00     0.083 A 
ATOM     16  C   UNL     1      43.523 131.768  17.556  1.00  0.00     0.157 A 
ATOM     17  C   UNL     1      41.308 133.045  19.963  1.00  0.00     0.083 A 
ATOM     18  N   UNL     1      41.636 132.870  18.665  1.00  0.00    -0.359 N 
ATOM     19  F   UNL     1      46.302 130.095  19.310  1.00  0.00    -0.206 F 
ATOM     20  F   UNL     1      43.092 132.065  16.303  1.00  0.00    -0.204 F 
ATOM     21  H   UNL     1      41.112 133.227  17.834  1.00  0.00     0.166 HD
BRANCH  13  22
ATOM     22  C   UNL     1      45.568 130.655  16.628  1.00  0.00    -0.016 A 
ATOM     23  C   UNL     1      45.925 129.288  16.444  1.00  0.00    -0.013 A 
ATOM     24  C   UNL     1      46.011 131.629  15.704  1.00  0.00     0.016 A 
ATOM     25  N   UNL     1      46.699 128.888  15.389  1.00  0.00    -0.442 NA
ATOM     26  C   UNL     1      46.793 131.193  14.646  1.00  0.00    -0.026 A 
ATOM     27  C   UNL     1      47.127 129.818  14.506  1.00  0.00    -0.052 A 
ATOM     28  C   UNL     1      47.387 131.835  13.591  1.00  0.00     0.003 A 
ATOM     29  N   UNL     1      47.888 129.600  13.422  1.00  0.00    -0.442 NA
ATOM     30  C   UNL     1      48.042 130.833  12.870  1.00  0.00    -0.022 A 
ENDBRANCH  13  22
ENDBRANCH   9  10
ENDBRANCH   1   9
TORSDOF 6
ENDMDL
MODEL 3
REMARK VINA RESULT:      -7.9      0.936      1.332
REMARK SMILES OC(CCc1c(F)c(-c2c[n-]c3nccc-3c2)c(F)c2[nH]ccc12)=C1CCC1
REMARK SMILES IDX 3 1 2 2 1 3 25 5 26 6 28 7 27 8 4 9 5 10 6 11 24 12 8 13
REMARK SMILES IDX 23 14 20 15 18 16 22 17 21 18 7 19 19 20 9 22 10 23 17 24
REMARK SMILES IDX 11 25 16 26 12 27 15 28 13 29 14 30
REMARK H PARENT 1 4 21 21
ROOT
ATOM      1  C   UNL     1      45.417 129.372  21.609  1.00  0.00     0.079 C 
ENDROOT
BRANCH   1   2
ATOM      2  C   UNL     1      44.489 128.793  22.645  1.00  0.00     0.092 C 
BRANCH   2   3
ATOM      3  O   UNL     1      43.467 129.575  23.176  1.00  0.00    -0.512 OA
ATOM      4  H   UNL     1      42.587 129.164  23.461  1.00  0.00     0.293 HD
ENDBRANCH   2   3
BRANCH   2   5
ATOM      5  C   UNL     1      44.603 127.525  23.037  1.00  0.00    -0.033 C 
ATOM      6  C   UNL     1      45.707 126.551  23.404  1.00  0.00     0.035 C 
ATOM      7  C   UNL     1      43.664 126.365  23.304  1.00  0.00     0.035 C 
ATOM      8  C   UNL     1      44.767 125.419  23.656  1.00  0.00     0.009 C 
ENDBRANCH   2   5
ENDBRANCH   1   2
BRANCH   1   9
ATOM      9  C   UNL     1      45.163 130.871  21.402  1.00  0.00     0.047 C 
BRANCH   9  10
ATOM     10  C   UNL     1      44.580 131.152  20.036  1.00  0.00    -0.002 A 
ATOM     11  C   UNL     1      45.347 130.959  18.861  1.00  0.00     0.137 A 
ATOM     12  C   UNL     1      43.306 131.712  19.888  1.00  0.00     0.009 A 
ATOM     13  C   UNL     1      44.836 131.335  17.590  1.00  0.00     0.055 A 
ATOM     14  C   UNL     1      42.347 132.050  20.825  1.00  0.00     0.028 A 
ATOM     15  C   UNL     1      42.805 132.059  18.661  1.00  0.00     0.083 A 
ATOM     16  C   UNL     1      43.541 131.890  17.492  1.00  0.00     0.157 A 
ATOM     17  C   UNL     1      41.293 132.590  20.098  1.00  0.00     0.083 A 
ATOM     18  N   UNL     1      41.577 132.594  18.777  1.00  0.00    -0.359 N 
ATOM     19  F   UNL     1      46.610 130.466  18.959  1.00  0.00    -0.206 F 
ATOM     20  F   UNL     1      43.011 132.245  16.294  1.00  0.00    -0.204 F 
ATOM     21  H   UNL     1      40.968 132.953  18.009  1.00  0.00     0.166 HD
BRANCH  13  22
ATOM     22  C   UNL     1      45.671 131.180  16.378  1.00  0.00    -0.016 A 
ATOM     23  C   UNL     1      45.911 132.300  15.529  1.00  0.00    -0.013 A 
ATOM     24  C   UNL     1      46.245 129.926  16.069  1.00  0.00     0.016 A 
ATOM     25  N   UNL     1      46.686 132.191  14.408  1.00  0.00    -0.442 NA
ATOM     26  C   UNL     1      47.025 129.847  14.927  1.00  0.00    -0.026 A 
ATOM     27  C   UNL     1      47.234 130.991  14.108  1.00  0.00    -0.052 A 
ATOM     28  C   UNL     1      47.717 128.826  14.330  1.00  0.00     0.003 A 
ATOM     29  N   UNL     1      48.015 130.711  13.053  1.00  0.00    -0.442 NA
ATOM     30  C   UNL     1      48.305 129.390  13.195  1.00  0.00    -0.022 A 
ENDBRANCH  13  22
ENDBRANCH   9  10
ENDBRANCH   1   9
TORSDOF 6
ENDMDL
MODEL 4
REMARK VINA RESULT:      -7.7      1.347      1.642
REMARK SMILES OC(CCc1c(F)c(-c2c[n-]c3nccc-3c2)c(F)c2[nH]ccc12)=C1CCC1
REMARK SMILES IDX 3 1 2 2 1 3 25 5 26 6 28 7 27 8 4 9 5 10 6 11 24 12 8 13
REMARK SMILES IDX 23 14 20 15 18 16 22 17 21 18 7 19 19 20 9 22 10 23 17 24
REMARK SMILES IDX 11 25 16 26 12 27 15 28 13 29 14 30
REMARK H PARENT 1 4 21 21
ROOT
ATOM      1  C   UNL     1      44.637 132.321  22.177  1.00  0.00     0.079 C 
ENDROOT
BRANCH   1   2
ATOM      2  C   UNL     1      44.472 131.920  23.620  1.00  0.00     0.092 C 
BRANCH   2   3
ATOM      3  O   UNL     1      45.160 132.609  24.615  1.00  0.00    -0.512 OA
ATOM      4  H   UNL     1      44.958 133.581  24.815  1.00  0.00     0.293 HD
ENDBRANCH   2   3
BRANCH   2   5
ATOM      5  C   UNL     1      43.643 130.938  23.969  1.00  0.00    -0.033 C 
ATOM      6  C   UNL     1      42.151 130.663  23.961  1.00  0.00     0.035 C 
ATOM      7  C   UNL     1      43.765 129.561  24.591  1.00  0.00     0.035 C 
ATOM      8  C   UNL     1      42.291 129.311  24.580  1.00  0.00     0.009 C 
ENDBRANCH   2   5
ENDBRANCH   1   2
BRANCH   1   9
ATOM      9  C   UNL     1      45.044 131.126  21.304  1.00  0.00     0.047 C 
BRANCH   9  10
ATOM     10  C   UNL     1      44.491 131.249  19.903  1.00  0.00    -0.002 A 
ATOM     11  C   UNL     1      45.239 130.815  18.782  1.00  0.00     0.137 A 
ATOM     12  C   UNL     1      43.272 131.893  19.654  1.00  0.00     0.009 A 
ATOM     13  C   UNL     1      44.765 131.039  17.461  1.00  0.00     0.055 A 
ATOM     14  C   UNL     1      42.347 132.452  20.516  1.00  0.00     0.028 A 
ATOM     15  C   UNL     1      42.806 132.096  18.382  1.00  0.00     0.083 A 
ATOM     16  C   UNL     1      43.525 131.687  17.262  1.00  0.00     0.157 A 
ATOM     17  C   UNL     1      41.348 132.969  19.701  1.00  0.00     0.083 A 
ATOM     18  N   UNL     1      41.633 132.749  18.399  1.00  0.00    -0.359 N 
ATOM     19  F   UNL     1      46.451 130.231  18.971  1.00  0.00    -0.206 F 
ATOM     20  F   UNL     1      43.031 131.905  16.017  1.00  0.00    -0.204 F 
ATOM     21  H   UNL     1      41.059 133.042  17.576  1.00  0.00     0.166 HD
BRANCH  13  22
ATOM     22  C   UNL     1      45.584 130.630  16.299  1.00  0.00    -0.016 A 
ATOM     23  C   UNL     1      45.729 129.249  15.979  1.00  0.00    -0.013 A 
ATOM     24  C   UNL     1      46.212 131.609  15.495  1.00  0.00     0.016 A 
ATOM     25  N   UNL     1      46.472 128.840  14.906  1.00  0.00    -0.442 NA
ATOM     26  C   UNL     1      46.957 131.163  14.416  1.00  0.00    -0.026 A 
ATOM     27  C   UNL     1      47.076 129.774  14.137  1.00  0.00    -0.052 A 
ATOM     28  C   UNL     1      47.686 131.805  13.449  1.00  0.00     0.003 A 
ATOM     29  N   UNL     1      47.836 129.547  13.055  1.00  0.00    -0.442 NA
ATOM     30  C   UNL     1      48.204 130.789  12.641  1.00  0.00    -0.022 A 
ENDBRANCH  13  22
ENDBRANCH   9  10
ENDBRANCH   1   9
TORSDOF 6
ENDMDL
MODEL 5
REMARK VINA RESULT:      -7.0      1.150      1.448
REMARK SMILES OC(CCc1c(F)c(-c2c[n-]c3nccc-3c2)c(F)c2[nH]ccc12)=C1CCC1
REMARK SMILES IDX 3 1 2 2 1 3 25 5 26 6 28 7 27 8 4 9 5 10 6 11 24 12 8 13
REMARK SMILES IDX 23 14 20 15 18 16 22 17 21 18 7 19 19 20 9 22 10 23 17 24
REMARK SMILES IDX 11 25 16 26 12 27 15 28 13 29 14 30
REMARK H PARENT 1 4 21 21
ROOT
ATOM      1  C   UNL     1      44.527 130.382  22.411  1.00  0.00     0.079 C 
ENDROOT
BRANCH   1   2
ATOM      2  C   UNL     1      44.880 128.923  22.288  1.00  0.00     0.092 C 
BRANCH   2   3
ATOM      3  O   UNL     1      45.759 128.504  21.293  1.00  0.00    -0.512 OA
ATOM      4  H   UNL     1      46.433 129.140  20.886  1.00  0.00     0.293 HD
ENDBRANCH   2   3
BRANCH   2   5
ATOM      5  C   UNL     1      44.396 128.024  23.143  1.00  0.00    -0.033 C 
ATOM      6  C   UNL     1      43.697 128.009  24.490  1.00  0.00     0.035 C 
ATOM      7  C   UNL     1      44.310 126.513  23.224  1.00  0.00     0.035 C 
ATOM      8  C   UNL     1      43.628 126.519  24.554  1.00  0.00     0.009 C 
ENDBRANCH   2   5
ENDBRANCH   1   2
BRANCH   1   9
ATOM      9  C   UNL     1      45.324 131.240  21.420  1.00  0.00     0.047 C 
BRANCH   9  10
ATOM     10  C   UNL     1      44.587 131.404  20.111  1.00  0.00    -0.002 A 
ATOM     11  C   UNL     1      45.211 131.094  18.878  1.00  0.00     0.137 A 
ATOM     12  C   UNL     1      43.307 131.968  20.060  1.00  0.00     0.009 A 
ATOM     13  C   UNL     1      44.557 131.360  17.645  1.00  0.00     0.055 A 
ATOM     14  C   UNL     1      42.466 132.405  21.067  1.00  0.00     0.028 A 
ATOM     15  C   UNL     1      42.668 132.210  18.873  1.00  0.00     0.083 A 
ATOM     16  C   UNL     1      43.261 131.924  17.647  1.00  0.00     0.157 A 
ATOM     17  C   UNL     1      41.337 132.892  20.420  1.00  0.00     0.083 A 
ATOM     18  N   UNL     1      41.465 132.772  19.081  1.00  0.00    -0.359 N 
ATOM     19  F   UNL     1      46.474 130.592  18.873  1.00  0.00    -0.206 F 
ATOM     20  F   UNL     1      42.597 132.177  16.490  1.00  0.00    -0.204 F 
ATOM     21  H   UNL     1      40.772 133.069  18.358  1.00  0.00     0.166 HD
BRANCH  13  22
ATOM     22  C   UNL     1      45.244 131.083  16.364  1.00  0.00    -0.016 A 
ATOM     23  C   UNL     1      44.726 131.614  15.147  1.00  0.00    -0.013 A 
ATOM     24  C   UNL     1      46.423 130.304  16.347  1.00  0.00     0.016 A 
ATOM     25  N   UNL     1      45.344 131.384  13.949  1.00  0.00    -0.442 NA
ATOM     26  C   UNL     1      47.026 130.088  15.119  1.00  0.00    -0.026 A 
ATOM     27  C   UNL     1      46.471 130.637  13.929  1.00  0.00    -0.052 A 
ATOM     28  C   UNL     1      48.145 129.400  14.729  1.00  0.00     0.003 A 
ATOM     29  N   UNL     1      47.198 130.315  12.848  1.00  0.00    -0.442 NA
ATOM     30  C   UNL     1      48.216 129.563  13.343  1.00  0.00    -0.022 A 
ENDBRANCH  13  22
ENDBRANCH   9  10
ENDBRANCH   1   9
TORSDOF 6
ENDMDL
MODEL 6
REMARK VINA RESULT:      -7.0      1.461      1.792
REMARK SMILES OC(CCc1c(F)c(-c2c[n-]c3nccc-3c2)c(F)c2[nH]ccc12)=C1CCC1
REMARK SMILES IDX 3 1 2 2 1 3 25 5 26 6 28 7 27 8 4 9 5 10 6 11 24 12 8 13
REMARK SMILES IDX 23 14 20 15 18 16 22 17 21 18 7 19 19 20 9 22 10 23 17 24
REMARK SMILES IDX 11 25 16 26 12 27 15 28 13 29 14 30
REMARK H PARENT 1 4 21 21
ROOT
ATOM      1  C   UNL     1      44.698 129.409  22.178  1.00  0.00     0.079 C 
ENDROOT
BRANCH   1   2
ATOM      2  C   UNL     1      44.334 129.212  23.626  1.00  0.00     0.092 C 
BRANCH   2   3
ATOM      3  O   UNL     1      45.206 129.640  24.625  1.00  0.00    -0.512 OA
ATOM      4  H   UNL     1      46.056 129.130  24.833  1.00  0.00     0.293 HD
ENDBRANCH   2   3
BRANCH   2   5
ATOM      5  C   UNL     1      43.169 128.670  23.975  1.00  0.00    -0.033 C 
ATOM      6  C   UNL     1      42.661 127.371  24.572  1.00  0.00     0.035 C 
ATOM      7  C   UNL     1      41.709 129.075  23.935  1.00  0.00     0.035 C 
ATOM      8  C   UNL     1      41.227 127.785  24.518  1.00  0.00     0.009 C 
ENDBRANCH   2   5
ENDBRANCH   1   2
BRANCH   1   9
ATOM      9  C   UNL     1      44.884 130.894  21.841  1.00  0.00     0.047 C 
BRANCH   9  10
ATOM     10  C   UNL     1      44.151 131.272  20.574  1.00  0.00    -0.002 A 
ATOM     11  C   UNL     1      44.713 131.014  19.301  1.00  0.00     0.137 A 
ATOM     12  C   UNL     1      42.946 131.984  20.613  1.00  0.00     0.009 A 
ATOM     13  C   UNL     1      44.076 131.475  18.117  1.00  0.00     0.055 A 
ATOM     14  C   UNL     1      42.179 132.415  21.680  1.00  0.00     0.028 A 
ATOM     15  C   UNL     1      42.322 132.415  19.474  1.00  0.00     0.083 A 
ATOM     16  C   UNL     1      42.857 132.184  18.209  1.00  0.00     0.157 A 
ATOM     17  C   UNL     1      41.107 133.092  21.115  1.00  0.00     0.083 A 
ATOM     18  N   UNL     1      41.198 133.091  19.767  1.00  0.00    -0.359 N 
ATOM     19  F   UNL     1      45.907 130.370  19.213  1.00  0.00    -0.206 F 
ATOM     20  F   UNL     1      42.209 132.626  17.102  1.00  0.00    -0.204 F 
ATOM     21  H   UNL     1      40.533 133.537  19.096  1.00  0.00     0.166 HD
BRANCH  13  22
ATOM     22  C   UNL     1      44.705 131.247  16.798  1.00  0.00    -0.016 A 
ATOM     23  C   UNL     1      44.044 131.676  15.610  1.00  0.00    -0.013 A 
ATOM     24  C   UNL     1      45.967 130.618  16.714  1.00  0.00     0.016 A 
ATOM     25  N   UNL     1      44.604 131.488  14.376  1.00  0.00    -0.442 NA
ATOM     26  C   UNL     1      46.508 130.442  15.451  1.00  0.00    -0.026 A 
ATOM     27  C   UNL     1      45.811 130.884  14.293  1.00  0.00    -0.052 A 
ATOM     28  C   UNL     1      47.676 129.885  14.998  1.00  0.00     0.003 A 
ATOM     29  N   UNL     1      46.498 130.623  13.170  1.00  0.00    -0.442 NA
ATOM     30  C   UNL     1      47.633 130.015  13.607  1.00  0.00    -0.022 A 
ENDBRANCH  13  22
ENDBRANCH   9  10
ENDBRANCH   1   9
TORSDOF 6
ENDMDL
MODEL 7
REMARK VINA RESULT:      -6.4      1.136      1.528
REMARK SMILES OC(CCc1c(F)c(-c2c[n-]c3nccc-3c2)c(F)c2[nH]ccc12)=C1CCC1
REMARK SMILES IDX 3 1 2 2 1 3 25 5 26 6 28 7 27 8 4 9 5 10 6 11 24 12 8 13
REMARK SMILES IDX 23 14 20 15 18 16 22 17 21 18 7 19 19 20 9 22 10 23 17 24
REMARK SMILES IDX 11 25 16 26 12 27 15 28 13 29 14 30
REMARK H PARENT 1 4 21 21
ROOT
ATOM      1  C   UNL     1      44.653 131.895  22.676  1.00  0.00     0.079 C 
ENDROOT
BRANCH   1   2
ATOM      2  C   UNL     1      43.902 131.068  23.685  1.00  0.00     0.092 C 
BRANCH   2   3
ATOM      3  O   UNL     1      43.077 131.691  24.618  1.00  0.00    -0.512 OA
ATOM      4  H   UNL     1      42.160 132.034  24.360  1.00  0.00     0.293 HD
ENDBRANCH   2   3
BRANCH   2   5
ATOM      5  C   UNL     1      43.979 129.738  23.678  1.00  0.00    -0.033 C 
ATOM      6  C   UNL     1      45.019 128.666  23.946  1.00  0.00     0.035 C 
ATOM      7  C   UNL     1      43.050 128.581  23.368  1.00  0.00     0.035 C 
ATOM      8  C   UNL     1      44.090 127.540  23.631  1.00  0.00     0.009 C 
ENDBRANCH   2   5
ENDBRANCH   1   2
BRANCH   1   9
ATOM      9  C   UNL     1      45.247 131.022  21.562  1.00  0.00     0.047 C 
BRANCH   9  10
ATOM     10  C   UNL     1      44.570 131.280  20.235  1.00  0.00    -0.002 A 
ATOM     11  C   UNL     1      45.241 131.033  19.013  1.00  0.00     0.137 A 
ATOM     12  C   UNL     1      43.303 131.872  20.165  1.00  0.00     0.009 A 
ATOM     13  C   UNL     1      44.646 131.387  17.772  1.00  0.00     0.055 A 
ATOM     14  C   UNL     1      42.427 132.264  21.161  1.00  0.00     0.028 A 
ATOM     15  C   UNL     1      42.721 132.199  18.970  1.00  0.00     0.083 A 
ATOM     16  C   UNL     1      43.362 131.975  17.754  1.00  0.00     0.157 A 
ATOM     17  C   UNL     1      41.336 132.812  20.498  1.00  0.00     0.083 A 
ATOM     18  N   UNL     1      41.520 132.771  19.161  1.00  0.00    -0.359 N 
ATOM     19  F   UNL     1      46.495 130.507  19.032  1.00  0.00    -0.206 F 
ATOM     20  F   UNL     1      42.753 132.311  16.589  1.00  0.00    -0.204 F 
ATOM     21  H   UNL     1      40.864 133.125  18.429  1.00  0.00     0.166 HD
BRANCH  13  22
ATOM     22  C   UNL     1      45.383 131.174  16.508  1.00  0.00    -0.016 A 
ATOM     23  C   UNL     1      45.169 132.047  15.402  1.00  0.00    -0.013 A 
ATOM     24  C   UNL     1      46.312 130.115  16.399  1.00  0.00     0.016 A 
ATOM     25  N   UNL     1      45.842 131.882  14.222  1.00  0.00    -0.442 NA
ATOM     26  C   UNL     1      46.978 129.974  15.192  1.00  0.00    -0.026 A 
ATOM     27  C   UNL     1      46.729 130.868  14.114  1.00  0.00    -0.052 A 
ATOM     28  C   UNL     1      47.918 129.086  14.735  1.00  0.00     0.003 A 
ATOM     29  N   UNL     1      47.469 130.565  13.037  1.00  0.00    -0.442 NA
ATOM     30  C   UNL     1      48.191 129.479  13.423  1.00  0.00    -0.022 A 
ENDBRANCH  13  22
ENDBRANCH   9  10
ENDBRANCH   1   9
TORSDOF 6
ENDMDL
MODEL 8
REMARK VINA RESULT:      -6.4      0.951      1.052
REMARK SMILES OC(CCc1c(F)c(-c2c[n-]c3nccc-3c2)c(F)c2[nH]ccc12)=C1CCC1
REMARK SMILES IDX 3 1 2 2 1 3 25 5 26 6 28 7 27 8 4 9 5 10 6 11 24 12 8 13
REMARK SMILES IDX 23 14 20 15 18 16 22 17 21 18 7 19 19 20 9 22 10 23 17 24
REMARK SMILES IDX 11 25 16 26 12 27 15 28 13 29 14 30
REMARK H PARENT 1 4 21 21
ROOT
ATOM      1  C   UNL     1      44.398 130.540  22.202  1.00  0.00     0.079 C 
ENDROOT
BRANCH   1   2
ATOM      2  C   UNL     1      44.594 129.059  22.396  1.00  0.00     0.092 C 
BRANCH   2   3
ATOM      3  O   UNL     1      45.613 128.398  21.716  1.00  0.00    -0.512 OA
ATOM      4  H   UNL     1      46.444 128.889  21.411  1.00  0.00     0.293 HD
ENDBRANCH   2   3
BRANCH   2   5
ATOM      5  C   UNL     1      43.831 128.371  23.244  1.00  0.00    -0.033 C 
ATOM      6  C   UNL     1      43.902 127.075  24.030  1.00  0.00     0.035 C 
ATOM      7  C   UNL     1      42.455 128.521  23.861  1.00  0.00     0.035 C 
ATOM      8  C   UNL     1      42.541 127.237  24.622  1.00  0.00     0.009 C 
ENDBRANCH   2   5
ENDBRANCH   1   2
BRANCH   1   9
ATOM      9  C   UNL     1      45.444 131.124  21.242  1.00  0.00     0.047 C 
BRANCH   9  10
ATOM     10  C   UNL     1      44.901 131.246  19.838  1.00  0.00    -0.002 A 
ATOM     11  C   UNL     1      45.642 130.779  18.725  1.00  0.00     0.137 A 
ATOM     12  C   UNL     1      43.701 131.919  19.575  1.00  0.00     0.009 A 
ATOM     13  C   UNL     1      45.182 131.001  17.399  1.00  0.00     0.055 A 
ATOM     14  C   UNL     1      42.788 132.513  20.425  1.00  0.00     0.028 A 
ATOM     15  C   UNL     1      43.247 132.120  18.298  1.00  0.00     0.083 A 
ATOM     16  C   UNL     1      43.961 131.680  17.187  1.00  0.00     0.157 A 
ATOM     17  C   UNL     1      41.806 133.047  19.600  1.00  0.00     0.083 A 
ATOM     18  N   UNL     1      42.091 132.805  18.302  1.00  0.00    -0.359 N 
ATOM     19  F   UNL     1      46.838 130.165  18.927  1.00  0.00    -0.206 F 
ATOM     20  F   UNL     1      43.479 131.896  15.936  1.00  0.00    -0.204 F 
ATOM     21  H   UNL     1      41.530 133.103  17.473  1.00  0.00     0.166 HD
BRANCH  13  22
ATOM     22  C   UNL     1      45.995 130.557  16.246  1.00  0.00    -0.016 A 
ATOM     23  C   UNL     1      46.601 129.267  16.256  1.00  0.00    -0.013 A 
ATOM     24  C   UNL     1      46.160 131.405  15.128  1.00  0.00     0.016 A 
ATOM     25  N   UNL     1      47.351 128.824  15.200  1.00  0.00    -0.442 NA
ATOM     26  C   UNL     1      46.924 130.928  14.075  1.00  0.00    -0.026 A 
ATOM     27  C   UNL     1      47.512 129.634  14.130  1.00  0.00    -0.052 A 
ATOM     28  C   UNL     1      47.292 131.458  12.866  1.00  0.00     0.003 A 
ATOM     29  N   UNL     1      48.212 129.359  13.019  1.00  0.00    -0.442 NA
ATOM     30  C   UNL     1      48.073 130.474  12.253  1.00  0.00    -0.022 A 
ENDBRANCH  13  22
ENDBRANCH   9  10
ENDBRANCH   1   9
TORSDOF 6
ENDMDL
MODEL 9
REMARK VINA RESULT:      -6.0      1.305      1.752
REMARK SMILES OC(CCc1c(F)c(-c2c[n-]c3nccc-3c2)c(F)c2[nH]ccc12)=C1CCC1
REMARK SMILES IDX 3 1 2 2 1 3 25 5 26 6 28 7 27 8 4 9 5 10 6 11 24 12 8 13
REMARK SMILES IDX 23 14 20 15 18 16 22 17 21 18 7 19 19 20 9 22 10 23 17 24
REMARK SMILES IDX 11 25 16 26 12 27 15 28 13 29 14 30
REMARK H PARENT 1 4 21 21
ROOT
ATOM      1  C   UNL     1      45.809 129.212  21.180  1.00  0.00     0.079 C 
ENDROOT
BRANCH   1   2
ATOM      2  C   UNL     1      45.168 128.290  22.184  1.00  0.00     0.092 C 
BRANCH   2   3
ATOM      3  O   UNL     1      45.504 126.939  22.198  1.00  0.00    -0.512 OA
ATOM      4  H   UNL     1      45.223 126.337  22.963  1.00  0.00     0.293 HD
ENDBRANCH   2   3
BRANCH   2   5
ATOM      5  C   UNL     1      44.311 128.753  23.092  1.00  0.00    -0.033 C 
ATOM      6  C   UNL     1      43.532 130.026  23.364  1.00  0.00     0.035 C 
ATOM      7  C   UNL     1      43.672 128.240  24.367  1.00  0.00     0.035 C 
ATOM      8  C   UNL     1      42.917 129.505  24.622  1.00  0.00     0.009 C 
ENDBRANCH   2   5
ENDBRANCH   1   2
BRANCH   1   9
ATOM      9  C   UNL     1      45.177 130.610  21.216  1.00  0.00     0.047 C 
BRANCH   9  10
ATOM     10  C   UNL     1      44.565 130.977  19.884  1.00  0.00    -0.002 A 
ATOM     11  C   UNL     1      45.255 130.732  18.672  1.00  0.00     0.137 A 
ATOM     12  C   UNL     1      43.349 131.667  19.804  1.00  0.00     0.009 A 
ATOM     13  C   UNL     1      44.729 131.184  17.431  1.00  0.00     0.055 A 
ATOM     14  C   UNL     1      42.474 132.082  20.790  1.00  0.00     0.028 A 
ATOM     15  C   UNL     1      42.833 132.090  18.608  1.00  0.00     0.083 A 
ATOM     16  C   UNL     1      43.494 131.871  17.403  1.00  0.00     0.157 A 
ATOM     17  C   UNL     1      41.450 132.741  20.122  1.00  0.00     0.083 A 
ATOM     18  N   UNL     1      41.673 132.744  18.790  1.00  0.00    -0.359 N 
ATOM     19  F   UNL     1      46.463 130.111  18.702  1.00  0.00    -0.206 F 
ATOM     20  F   UNL     1      42.951 132.303  16.237  1.00  0.00    -0.204 F 
ATOM     21  H   UNL     1      41.070 133.179  18.056  1.00  0.00     0.166 HD
BRANCH  13  22
ATOM     22  C   UNL     1      45.489 130.971  16.180  1.00  0.00    -0.016 A 
ATOM     23  C   UNL     1      45.190 131.747  15.023  1.00  0.00    -0.013 A 
ATOM     24  C   UNL     1      46.522 130.008  16.134  1.00  0.00     0.016 A 
ATOM     25  N   UNL     1      45.880 131.580  13.854  1.00  0.00    -0.442 NA
ATOM     26  C   UNL     1      47.203 129.862  14.937  1.00  0.00    -0.026 A 
ATOM     27  C   UNL     1      46.868 130.657  13.807  1.00  0.00    -0.052 A 
ATOM     28  C   UNL     1      48.231 129.049  14.534  1.00  0.00     0.003 A 
ATOM     29  N   UNL     1      47.639 130.366  12.748  1.00  0.00    -0.442 NA
ATOM     30  C   UNL     1      48.467 129.386  13.199  1.00  0.00    -0.022 A 
ENDBRANCH  13  22
ENDBRANCH   9  10
ENDBRANCH   1   9
TORSDOF 6
ENDMDL


