REMARK SMILES Fc1ccc2[nH+]c(-c3cccnc3F)ccc2c1
REMARK SMILES IDX 1 1 2 2 3 3 4 4 5 5 6 6 7 7 15 8 16 9 17 10 18 11 8 13 9 14
REMARK SMILES IDX 13 15 10 16 12 17 11 18 14 19
REMARK H PARENT 6 12
ROOT
ATOM      1  F   UNL     1       5.717   0.246   0.542  1.00  0.00    -0.207 F 
ATOM      2  C   UNL     1       4.368   0.369   0.503  1.00  0.00     0.124 A 
ATOM      3  C   UNL     1       3.761   1.549   0.945  1.00  0.00     0.046 A 
ATOM      4  C   UNL     1       2.370   1.682   0.907  1.00  0.00     0.083 A 
ATOM      5  C   UNL     1       1.573   0.632   0.425  1.00  0.00     0.211 A 
ATOM      6  N   UNL     1       0.213   0.753   0.386  1.00  0.00    -0.204 N 
ATOM      7  C   UNL     1      -0.585  -0.255  -0.080  1.00  0.00     0.215 A 
ATOM      8  C   UNL     1      -0.001  -1.454  -0.521  1.00  0.00     0.081 A 
ATOM      9  C   UNL     1       1.385  -1.603  -0.491  1.00  0.00     0.022 A 
ATOM     10  C   UNL     1       2.188  -0.561  -0.019  1.00  0.00     0.049 A 
ATOM     11  C   UNL     1       3.585  -0.685   0.022  1.00  0.00     0.054 A 
ATOM     12  H   UNL     1      -0.229   1.631   0.741  1.00  0.00     0.454 HD
ENDROOT
BRANCH   7  13
ATOM     13  C   UNL     1      -2.058  -0.089  -0.113  1.00  0.00     0.101 A 
ATOM     14  C   UNL     1      -2.900  -1.112   0.352  1.00  0.00     0.021 A 
ATOM     15  C   UNL     1      -2.647   1.090  -0.608  1.00  0.00     0.226 A 
ATOM     16  C   UNL     1      -4.286  -0.947   0.327  1.00  0.00     0.021 A 
ATOM     17  N   UNL     1      -4.000   1.222  -0.624  1.00  0.00    -0.228 NA
ATOM     18  C   UNL     1      -4.823   0.241  -0.168  1.00  0.00     0.114 A 
ATOM     19  F   UNL     1      -1.882   2.091  -1.110  1.00  0.00    -0.184 F 
ENDBRANCH   7  13
TORSDOF 1


