MODEL 1
REMARK VINA RESULT:      -7.2      0.000      0.000
REMARK SMILES C#C[C@@H]1CNC(=[NH2+])[C@@H](Nc2cc(C)c3c(n[nH+]n3C)c2O)C1
REMARK SMILES IDX 9 1 8 3 3 4 4 5 22 6 5 7 6 8 2 10 1 11 7 12 10 15 11 16
REMARK SMILES IDX 20 17 12 18 15 19 14 20 16 21 18 22 17 23 13 24 19 25 21 27
REMARK H PARENT 9 2 5 9 7 13 7 14 17 26 21 28
ROOT
ATOM      1  N   UNL     1      45.446 131.247  17.876  1.00  0.00    -0.368 N 
ATOM      2  H   UNL     1      46.254 130.592  17.772  1.00  0.00     0.161 HD
ENDROOT
BRANCH   1   3
ATOM      3  C   UNL     1      45.091 132.110  16.739  1.00  0.00     0.195 C 
ATOM      4  C   UNL     1      46.141 130.686  14.923  1.00  0.00     0.108 C 
ATOM      5  C   UNL     1      44.796 130.505  14.205  1.00  0.00     0.250 C 
ATOM      6  C   UNL     1      46.172 132.041  15.645  1.00  0.00     0.058 C 
ATOM      7  N   UNL     1      43.672 130.746  15.108  1.00  0.00    -0.276 N 
ATOM      8  C   UNL     1      43.745 131.696  16.184  1.00  0.00     0.263 C 
ATOM      9  H   UNL     1      42.738 130.372  14.823  1.00  0.00     0.304 HD
BRANCH   4  10
ATOM     10  C   UNL     1      47.245 130.602  13.955  1.00  0.00    -0.099 C 
ATOM     11  C   UNL     1      48.150 130.535  13.161  1.00  0.00     0.004 C 
ENDBRANCH   4  10
BRANCH   8  12
ATOM     12  N   UNL     1      42.654 132.105  16.759  1.00  0.00    -0.289 N 
ATOM     13  H   UNL     1      42.535 132.039  17.794  1.00  0.00     0.301 HD
ATOM     14  H   UNL     1      41.868 132.509  16.200  1.00  0.00     0.301 HD
ENDBRANCH   8  12
ENDBRANCH   1   3
BRANCH   1  15
ATOM     15  C   UNL     1      44.784 131.307  19.153  1.00  0.00     0.080 A 
ATOM     16  C   UNL     1      43.633 132.123  19.327  1.00  0.00     0.035 A 
ATOM     17  C   UNL     1      45.258 130.530  20.242  1.00  0.00     0.173 A 
ATOM     18  C   UNL     1      42.944 132.177  20.561  1.00  0.00    -0.017 A 
ATOM     19  C   UNL     1      44.552 130.593  21.437  1.00  0.00     0.206 A 
ATOM     20  C   UNL     1      43.445 131.378  21.604  1.00  0.00     0.140 A 
ATOM     21  N   UNL     1      44.821 129.949  22.588  1.00  0.00     0.029 NA
ATOM     22  N   UNL     1      43.032 131.202  22.879  1.00  0.00    -0.132 N 
ATOM     23  N   UNL     1      43.878 130.343  23.437  1.00  0.00    -0.016 N 
ATOM     24  C   UNL     1      41.729 133.049  20.704  1.00  0.00     0.047 C 
ATOM     25  C   UNL     1      41.904 131.807  23.582  1.00  0.00     0.226 C 
ATOM     26  H   UNL     1      43.818 130.011  24.427  1.00  0.00     0.526 HD
BRANCH  17  27
ATOM     27  O   UNL     1      46.405 129.737  20.165  1.00  0.00    -0.504 OA
ATOM     28  H   UNL     1      47.337 130.121  20.094  1.00  0.00     0.293 HD
ENDBRANCH  17  27
ENDBRANCH   1  15
TORSDOF 5
ENDMDL
MODEL 2
REMARK VINA RESULT:      -6.5      2.058      3.026
REMARK SMILES C#C[C@@H]1CNC(=[NH2+])[C@@H](Nc2cc(C)c3c(n[nH+]n3C)c2O)C1
REMARK SMILES IDX 9 1 8 3 3 4 4 5 22 6 5 7 6 8 2 10 1 11 7 12 10 15 11 16
REMARK SMILES IDX 20 17 12 18 15 19 14 20 16 21 18 22 17 23 13 24 19 25 21 27
REMARK H PARENT 9 2 5 9 7 13 7 14 17 26 21 28
ROOT
ATOM      1  N   UNL     1      44.769 131.797  16.004  1.00  0.00    -0.368 N 
ATOM      2  H   UNL     1      45.027 132.731  15.613  1.00  0.00     0.161 HD
ENDROOT
BRANCH   1   3
ATOM      3  C   UNL     1      44.646 130.659  15.080  1.00  0.00     0.195 C 
ATOM      4  C   UNL     1      46.959 130.832  14.057  1.00  0.00     0.108 C 
ATOM      5  C   UNL     1      47.334 129.417  14.519  1.00  0.00     0.250 C 
ATOM      6  C   UNL     1      45.448 130.914  13.791  1.00  0.00     0.058 C 
ATOM      7  N   UNL     1      46.491 128.976  15.629  1.00  0.00    -0.276 N 
ATOM      8  C   UNL     1      45.121 129.394  15.762  1.00  0.00     0.263 C 
ATOM      9  H   UNL     1      46.836 128.178  16.207  1.00  0.00     0.304 HD
BRANCH   4  10
ATOM     10  C   UNL     1      47.707 131.180  12.839  1.00  0.00    -0.099 C 
ATOM     11  C   UNL     1      48.321 131.464  11.842  1.00  0.00     0.004 C 
ENDBRANCH   4  10
BRANCH   8  12
ATOM     12  N   UNL     1      44.327 128.752  16.565  1.00  0.00    -0.289 N 
ATOM     13  H   UNL     1      44.319 128.956  17.589  1.00  0.00     0.301 HD
ATOM     14  H   UNL     1      43.676 128.017  16.206  1.00  0.00     0.301 HD
ENDBRANCH   8  12
ENDBRANCH   1   3
BRANCH   1  15
ATOM     15  C   UNL     1      44.481 131.709  17.411  1.00  0.00     0.080 A 
ATOM     16  C   UNL     1      45.482 131.278  18.324  1.00  0.00     0.035 A 
ATOM     17  C   UNL     1      43.203 132.081  17.904  1.00  0.00     0.173 A 
ATOM     18  C   UNL     1      45.237 131.213  19.715  1.00  0.00    -0.017 A 
ATOM     19  C   UNL     1      42.997 132.020  19.278  1.00  0.00     0.206 A 
ATOM     20  C   UNL     1      43.961 131.604  20.155  1.00  0.00     0.140 A 
ATOM     21  N   UNL     1      41.874 132.319  19.957  1.00  0.00     0.029 NA
ATOM     22  N   UNL     1      43.413 131.660  21.389  1.00  0.00    -0.132 N 
ATOM     23  N   UNL     1      42.165 132.090  21.232  1.00  0.00    -0.016 N 
ATOM     24  C   UNL     1      46.323 130.755  20.647  1.00  0.00     0.047 C 
ATOM     25  C   UNL     1      44.000 131.318  22.682  1.00  0.00     0.226 C 
ATOM     26  H   UNL     1      41.486 132.232  22.014  1.00  0.00     0.526 HD
BRANCH  17  27
ATOM     27  O   UNL     1      42.153 132.474  17.072  1.00  0.00    -0.504 OA
ATOM     28  H   UNL     1      42.142 132.293  16.077  1.00  0.00     0.293 HD
ENDBRANCH  17  27
ENDBRANCH   1  15
TORSDOF 5
ENDMDL
MODEL 3
REMARK VINA RESULT:      -6.3      1.558      2.068
REMARK SMILES C#C[C@@H]1CNC(=[NH2+])[C@@H](Nc2cc(C)c3c(n[nH+]n3C)c2O)C1
REMARK SMILES IDX 9 1 8 3 3 4 4 5 22 6 5 7 6 8 2 10 1 11 7 12 10 15 11 16
REMARK SMILES IDX 20 17 12 18 15 19 14 20 16 21 18 22 17 23 13 24 19 25 21 27
REMARK H PARENT 9 2 5 9 7 13 7 14 17 26 21 28
ROOT
ATOM      1  N   UNL     1      44.910 131.793  16.116  1.00  0.00    -0.368 N 
ATOM      2  H   UNL     1      45.264 132.712  15.765  1.00  0.00     0.161 HD
ENDROOT
BRANCH   1   3
ATOM      3  C   UNL     1      44.681 130.711  15.147  1.00  0.00     0.195 C 
ATOM      4  C   UNL     1      46.962 130.789  14.043  1.00  0.00     0.108 C 
ATOM      5  C   UNL     1      47.263 129.333  14.424  1.00  0.00     0.250 C 
ATOM      6  C   UNL     1      45.452 130.977  13.841  1.00  0.00     0.058 C 
ATOM      7  N   UNL     1      46.434 128.892  15.545  1.00  0.00    -0.276 N 
ATOM      8  C   UNL     1      45.099 129.387  15.751  1.00  0.00     0.263 C 
ATOM      9  H   UNL     1      46.748 128.047  16.073  1.00  0.00     0.304 HD
BRANCH   4  10
ATOM     10  C   UNL     1      47.687 131.148  12.815  1.00  0.00    -0.099 C 
ATOM     11  C   UNL     1      48.280 131.444  11.808  1.00  0.00     0.004 C 
ENDBRANCH   4  10
BRANCH   8  12
ATOM     12  N   UNL     1      44.295 128.758  16.554  1.00  0.00    -0.289 N 
ATOM     13  H   UNL     1      44.143 127.729  16.465  1.00  0.00     0.301 HD
ATOM     14  H   UNL     1      43.780 129.267  17.309  1.00  0.00     0.301 HD
ENDBRANCH   8  12
ENDBRANCH   1   3
BRANCH   1  15
ATOM     15  C   UNL     1      44.604 131.679  17.518  1.00  0.00     0.080 A 
ATOM     16  C   UNL     1      43.398 132.225  18.037  1.00  0.00     0.035 A 
ATOM     17  C   UNL     1      45.489 130.994  18.390  1.00  0.00     0.173 A 
ATOM     18  C   UNL     1      43.056 132.099  19.403  1.00  0.00    -0.017 A 
ATOM     19  C   UNL     1      45.119 130.875  19.724  1.00  0.00     0.206 A 
ATOM     20  C   UNL     1      43.960 131.400  20.223  1.00  0.00     0.140 A 
ATOM     21  N   UNL     1      45.801 130.274  20.718  1.00  0.00     0.029 NA
ATOM     22  N   UNL     1      43.935 131.108  21.542  1.00  0.00    -0.132 N 
ATOM     23  N   UNL     1      45.051 130.435  21.803  1.00  0.00    -0.016 N 
ATOM     24  C   UNL     1      41.771 132.689  19.912  1.00  0.00     0.047 C 
ATOM     25  C   UNL     1      42.931 131.440  22.549  1.00  0.00     0.226 C 
ATOM     26  H   UNL     1      45.317 130.074  22.747  1.00  0.00     0.526 HD
BRANCH  17  27
ATOM     27  O   UNL     1      46.712 130.466  17.969  1.00  0.00    -0.504 OA
ATOM     28  H   UNL     1      46.811 129.906  17.133  1.00  0.00     0.293 HD
ENDBRANCH  17  27
ENDBRANCH   1  15
TORSDOF 5
ENDMDL
MODEL 4
REMARK VINA RESULT:      -6.2      1.437      2.261
REMARK SMILES C#C[C@@H]1CNC(=[NH2+])[C@@H](Nc2cc(C)c3c(n[nH+]n3C)c2O)C1
REMARK SMILES IDX 9 1 8 3 3 4 4 5 22 6 5 7 6 8 2 10 1 11 7 12 10 15 11 16
REMARK SMILES IDX 20 17 12 18 15 19 14 20 16 21 18 22 17 23 13 24 19 25 21 27
REMARK H PARENT 9 2 5 9 7 13 7 14 17 26 21 28
ROOT
ATOM      1  N   UNL     1      45.774 131.461  18.244  1.00  0.00    -0.368 N 
ATOM      2  H   UNL     1      46.802 131.313  18.123  1.00  0.00     0.161 HD
ENDROOT
BRANCH   1   3
ATOM      3  C   UNL     1      45.027 132.118  17.161  1.00  0.00     0.195 C 
ATOM      4  C   UNL     1      46.158 130.927  15.230  1.00  0.00     0.108 C 
ATOM      5  C   UNL     1      44.829 130.336  14.738  1.00  0.00     0.250 C 
ATOM      6  C   UNL     1      45.910 132.281  15.910  1.00  0.00     0.058 C 
ATOM      7  N   UNL     1      43.828 130.313  15.803  1.00  0.00    -0.276 N 
ATOM      8  C   UNL     1      43.786 131.314  16.835  1.00  0.00     0.263 C 
ATOM      9  H   UNL     1      43.007 129.679  15.678  1.00  0.00     0.304 HD
BRANCH   4  10
ATOM     10  C   UNL     1      47.086 131.089  14.101  1.00  0.00    -0.099 C 
ATOM     11  C   UNL     1      47.848 131.221  13.176  1.00  0.00     0.004 C 
ENDBRANCH   4  10
BRANCH   8  12
ATOM     12  N   UNL     1      42.721 131.441  17.568  1.00  0.00    -0.289 N 
ATOM     13  H   UNL     1      42.534 130.788  18.361  1.00  0.00     0.301 HD
ATOM     14  H   UNL     1      42.025 132.199  17.382  1.00  0.00     0.301 HD
ENDBRANCH   8  12
ENDBRANCH   1   3
BRANCH   1  15
ATOM     15  C   UNL     1      45.179 131.074  19.496  1.00  0.00     0.080 A 
ATOM     16  C   UNL     1      45.561 129.860  20.129  1.00  0.00     0.035 A 
ATOM     17  C   UNL     1      44.225 131.917  20.125  1.00  0.00     0.173 A 
ATOM     18  C   UNL     1      45.016 129.471  21.375  1.00  0.00    -0.017 A 
ATOM     19  C   UNL     1      43.718 131.514  21.355  1.00  0.00     0.206 A 
ATOM     20  C   UNL     1      44.086 130.346  21.963  1.00  0.00     0.140 A 
ATOM     21  N   UNL     1      42.811 132.150  22.120  1.00  0.00     0.029 NA
ATOM     22  N   UNL     1      43.393 130.275  23.121  1.00  0.00    -0.132 N 
ATOM     23  N   UNL     1      42.641 131.369  23.181  1.00  0.00    -0.016 N 
ATOM     24  C   UNL     1      45.448 128.181  22.012  1.00  0.00     0.047 C 
ATOM     25  C   UNL     1      43.401 129.235  24.146  1.00  0.00     0.226 C 
ATOM     26  H   UNL     1      41.989 131.596  23.966  1.00  0.00     0.526 HD
BRANCH  17  27
ATOM     27  O   UNL     1      43.766 133.103  19.550  1.00  0.00    -0.504 OA
ATOM     28  H   UNL     1      42.813 133.232  19.239  1.00  0.00     0.293 HD
ENDBRANCH  17  27
ENDBRANCH   1  15
TORSDOF 5
ENDMDL
MODEL 5
REMARK VINA RESULT:      -5.8      1.931      6.765
REMARK SMILES C#C[C@@H]1CNC(=[NH2+])[C@@H](Nc2cc(C)c3c(n[nH+]n3C)c2O)C1
REMARK SMILES IDX 9 1 8 3 3 4 4 5 22 6 5 7 6 8 2 10 1 11 7 12 10 15 11 16
REMARK SMILES IDX 20 17 12 18 15 19 14 20 16 21 18 22 17 23 13 24 19 25 21 27
REMARK H PARENT 9 2 5 9 7 13 7 14 17 26 21 28
ROOT
ATOM      1  N   UNL     1      43.915 131.908  19.954  1.00  0.00    -0.368 N 
ATOM      2  H   UNL     1      44.468 132.611  20.494  1.00  0.00     0.161 HD
ENDROOT
BRANCH   1   3
ATOM      3  C   UNL     1      42.717 131.326  20.577  1.00  0.00     0.195 C 
ATOM      4  C   UNL     1      43.792 130.679  22.780  1.00  0.00     0.108 C 
ATOM      5  C   UNL     1      42.826 131.566  23.580  1.00  0.00     0.250 C 
ATOM      6  C   UNL     1      43.100 130.163  21.510  1.00  0.00     0.058 C 
ATOM      7  N   UNL     1      42.234 132.604  22.738  1.00  0.00    -0.276 N 
ATOM      8  C   UNL     1      41.966 132.395  21.340  1.00  0.00     0.263 C 
ATOM      9  H   UNL     1      41.806 133.427  23.219  1.00  0.00     0.304 HD
BRANCH   4  10
ATOM     10  C   UNL     1      44.241 129.550  23.608  1.00  0.00    -0.099 C 
ATOM     11  C   UNL     1      44.610 128.625  24.287  1.00  0.00     0.004 C 
ENDBRANCH   4  10
BRANCH   8  12
ATOM     12  N   UNL     1      41.171 133.205  20.708  1.00  0.00    -0.289 N 
ATOM     13  H   UNL     1      40.272 132.865  20.299  1.00  0.00     0.301 HD
ATOM     14  H   UNL     1      41.411 134.216  20.594  1.00  0.00     0.301 HD
ENDBRANCH   8  12
ENDBRANCH   1   3
BRANCH   1  15
ATOM     15  C   UNL     1      44.410 131.508  18.662  1.00  0.00     0.080 A 
ATOM     16  C   UNL     1      43.722 131.894  17.479  1.00  0.00     0.035 A 
ATOM     17  C   UNL     1      45.604 130.750  18.557  1.00  0.00     0.173 A 
ATOM     18  C   UNL     1      44.203 131.543  16.196  1.00  0.00    -0.017 A 
ATOM     19  C   UNL     1      46.058 130.432  17.283  1.00  0.00     0.206 A 
ATOM     20  C   UNL     1      45.397 130.803  16.145  1.00  0.00     0.140 A 
ATOM     21  N   UNL     1      47.155 129.726  16.952  1.00  0.00     0.029 NA
ATOM     22  N   UNL     1      46.110 130.317  15.105  1.00  0.00    -0.132 N 
ATOM     23  N   UNL     1      47.153 129.679  15.624  1.00  0.00    -0.016 N 
ATOM     24  C   UNL     1      43.449 131.972  14.969  1.00  0.00     0.047 C 
ATOM     25  C   UNL     1      45.848 130.417  13.672  1.00  0.00     0.226 C 
ATOM     26  H   UNL     1      47.888 129.192  15.063  1.00  0.00     0.526 HD
BRANCH  17  27
ATOM     27  O   UNL     1      46.314 130.296  19.671  1.00  0.00    -0.504 OA
ATOM     28  H   UNL     1      47.133 130.766  20.032  1.00  0.00     0.293 HD
ENDBRANCH  17  27
ENDBRANCH   1  15
TORSDOF 5
ENDMDL
MODEL 6
REMARK VINA RESULT:      -5.8      2.089      7.171
REMARK SMILES C#C[C@@H]1CNC(=[NH2+])[C@@H](Nc2cc(C)c3c(n[nH+]n3C)c2O)C1
REMARK SMILES IDX 9 1 8 3 3 4 4 5 22 6 5 7 6 8 2 10 1 11 7 12 10 15 11 16
REMARK SMILES IDX 20 17 12 18 15 19 14 20 16 21 18 22 17 23 13 24 19 25 21 27
REMARK H PARENT 9 2 5 9 7 13 7 14 17 26 21 28
ROOT
ATOM      1  N   UNL     1      44.345 131.413  20.465  1.00  0.00    -0.368 N 
ATOM      2  H   UNL     1      45.117 131.826  21.036  1.00  0.00     0.161 HD
ENDROOT
BRANCH   1   3
ATOM      3  C   UNL     1      43.154 130.901  21.160  1.00  0.00     0.195 C 
ATOM      4  C   UNL     1      44.336 130.078  23.246  1.00  0.00     0.108 C 
ATOM      5  C   UNL     1      43.510 131.003  24.151  1.00  0.00     0.250 C 
ATOM      6  C   UNL     1      43.510 129.672  22.017  1.00  0.00     0.058 C 
ATOM      7  N   UNL     1      42.943 132.120  23.397  1.00  0.00    -0.276 N 
ATOM      8  C   UNL     1      42.553 131.993  22.018  1.00  0.00     0.263 C 
ATOM      9  H   UNL     1      42.622 132.953  23.940  1.00  0.00     0.304 HD
BRANCH   4  10
ATOM     10  C   UNL     1      44.753 128.882  23.994  1.00  0.00    -0.099 C 
ATOM     11  C   UNL     1      45.093 127.902  24.608  1.00  0.00     0.004 C 
ENDBRANCH   4  10
BRANCH   8  12
ATOM     12  N   UNL     1      41.782 132.889  21.481  1.00  0.00    -0.289 N 
ATOM     13  H   UNL     1      40.775 132.961  21.748  1.00  0.00     0.301 HD
ATOM     14  H   UNL     1      42.150 133.560  20.768  1.00  0.00     0.301 HD
ENDBRANCH   8  12
ENDBRANCH   1   3
BRANCH   1  15
ATOM     15  C   UNL     1      44.537 131.311  19.042  1.00  0.00     0.080 A 
ATOM     16  C   UNL     1      45.684 130.655  18.517  1.00  0.00     0.035 A 
ATOM     17  C   UNL     1      43.568 131.839  18.150  1.00  0.00     0.173 A 
ATOM     18  C   UNL     1      45.883 130.512  17.124  1.00  0.00    -0.017 A 
ATOM     19  C   UNL     1      43.784 131.670  16.787  1.00  0.00     0.206 A 
ATOM     20  C   UNL     1      44.888 131.039  16.283  1.00  0.00     0.140 A 
ATOM     21  N   UNL     1      43.006 132.088  15.772  1.00  0.00     0.029 NA
ATOM     22  N   UNL     1      44.772 131.071  14.937  1.00  0.00    -0.132 N 
ATOM     23  N   UNL     1      43.637 131.706  14.668  1.00  0.00    -0.016 N 
ATOM     24  C   UNL     1      47.107 129.809  16.610  1.00  0.00     0.047 C 
ATOM     25  C   UNL     1      45.676 130.549  13.915  1.00  0.00     0.226 C 
ATOM     26  H   UNL     1      43.276 131.889  13.704  1.00  0.00     0.526 HD
BRANCH  17  27
ATOM     27  O   UNL     1      42.437 132.533  18.583  1.00  0.00    -0.504 OA
ATOM     28  H   UNL     1      41.925 133.175  17.994  1.00  0.00     0.293 HD
ENDBRANCH  17  27
ENDBRANCH   1  15
TORSDOF 5
ENDMDL
MODEL 7
REMARK VINA RESULT:      -5.7      2.108      3.377
REMARK SMILES C#C[C@@H]1CNC(=[NH2+])[C@@H](Nc2cc(C)c3c(n[nH+]n3C)c2O)C1
REMARK SMILES IDX 9 1 8 3 3 4 4 5 22 6 5 7 6 8 2 10 1 11 7 12 10 15 11 16
REMARK SMILES IDX 20 17 12 18 15 19 14 20 16 21 18 22 17 23 13 24 19 25 21 27
REMARK H PARENT 9 2 5 9 7 13 7 14 17 26 21 28
ROOT
ATOM      1  N   UNL     1      46.274 130.748  17.398  1.00  0.00    -0.368 N 
ATOM      2  H   UNL     1      47.050 131.439  17.285  1.00  0.00     0.161 HD
ENDROOT
BRANCH   1   3
ATOM      3  C   UNL     1      46.067 129.744  16.343  1.00  0.00     0.195 C 
ATOM      4  C   UNL     1      44.883 131.261  14.693  1.00  0.00     0.108 C 
ATOM      5  C   UNL     1      45.958 131.033  13.620  1.00  0.00     0.250 C 
ATOM      6  C   UNL     1      44.757 130.016  15.582  1.00  0.00     0.058 C 
ATOM      7  N   UNL     1      47.213 130.571  14.212  1.00  0.00    -0.276 N 
ATOM      8  C   UNL     1      47.246 129.751  15.393  1.00  0.00     0.263 C 
ATOM      9  H   UNL     1      48.079 130.667  13.636  1.00  0.00     0.304 HD
BRANCH   4  10
ATOM     10  C   UNL     1      43.592 131.563  14.056  1.00  0.00    -0.099 C 
ATOM     11  C   UNL     1      42.534 131.808  13.534  1.00  0.00     0.004 C 
ENDBRANCH   4  10
BRANCH   8  12
ATOM     12  N   UNL     1      48.333 129.113  15.705  1.00  0.00    -0.289 N 
ATOM     13  H   UNL     1      49.187 129.627  16.017  1.00  0.00     0.301 HD
ATOM     14  H   UNL     1      48.381 128.070  15.651  1.00  0.00     0.301 HD
ENDBRANCH   8  12
ENDBRANCH   1   3
BRANCH   1  15
ATOM     15  C   UNL     1      45.417 130.877  18.547  1.00  0.00     0.080 A 
ATOM     16  C   UNL     1      45.694 130.145  19.735  1.00  0.00     0.035 A 
ATOM     17  C   UNL     1      44.305 131.757  18.515  1.00  0.00     0.173 A 
ATOM     18  C   UNL     1      44.888 130.276  20.890  1.00  0.00    -0.017 A 
ATOM     19  C   UNL     1      43.540 131.875  19.670  1.00  0.00     0.206 A 
ATOM     20  C   UNL     1      43.806 131.171  20.812  1.00  0.00     0.140 A 
ATOM     21  N   UNL     1      42.450 132.641  19.861  1.00  0.00     0.029 NA
ATOM     22  N   UNL     1      42.863 131.522  21.713  1.00  0.00    -0.132 N 
ATOM     23  N   UNL     1      42.069 132.401  21.111  1.00  0.00    -0.016 N 
ATOM     24  C   UNL     1      45.215 129.488  22.126  1.00  0.00     0.047 C 
ATOM     25  C   UNL     1      42.675 131.063  23.087  1.00  0.00     0.226 C 
ATOM     26  H   UNL     1      41.240 132.853  21.559  1.00  0.00     0.526 HD
BRANCH  17  27
ATOM     27  O   UNL     1      43.941 132.478  17.376  1.00  0.00    -0.504 OA
ATOM     28  H   UNL     1      43.554 132.043  16.549  1.00  0.00     0.293 HD
ENDBRANCH  17  27
ENDBRANCH   1  15
TORSDOF 5
ENDMDL
MODEL 8
REMARK VINA RESULT:      -5.6      1.453      2.382
REMARK SMILES C#C[C@@H]1CNC(=[NH2+])[C@@H](Nc2cc(C)c3c(n[nH+]n3C)c2O)C1
REMARK SMILES IDX 9 1 8 3 3 4 4 5 22 6 5 7 6 8 2 10 1 11 7 12 10 15 11 16
REMARK SMILES IDX 20 17 12 18 15 19 14 20 16 21 18 22 17 23 13 24 19 25 21 27
REMARK H PARENT 9 2 5 9 7 13 7 14 17 26 21 28
ROOT
ATOM      1  N   UNL     1      45.661 131.262  17.707  1.00  0.00    -0.368 N 
ATOM      2  H   UNL     1      46.291 132.055  17.447  1.00  0.00     0.161 HD
ENDROOT
BRANCH   1   3
ATOM      3  C   UNL     1      45.521 130.138  16.769  1.00  0.00     0.195 C 
ATOM      4  C   UNL     1      44.586 131.468  14.823  1.00  0.00     0.108 C 
ATOM      5  C   UNL     1      45.756 131.070  13.912  1.00  0.00     0.250 C 
ATOM      6  C   UNL     1      44.311 130.351  15.841  1.00  0.00     0.058 C 
ATOM      7  N   UNL     1      46.919 130.650  14.690  1.00  0.00    -0.276 N 
ATOM      8  C   UNL     1      46.792 129.987  15.960  1.00  0.00     0.263 C 
ATOM      9  H   UNL     1      47.845 130.643  14.206  1.00  0.00     0.304 HD
BRANCH   4  10
ATOM     10  C   UNL     1      43.384 131.725  14.017  1.00  0.00    -0.099 C 
ATOM     11  C   UNL     1      42.397 131.937  13.357  1.00  0.00     0.004 C 
ENDBRANCH   4  10
BRANCH   8  12
ATOM     12  N   UNL     1      47.811 129.360  16.466  1.00  0.00    -0.289 N 
ATOM     13  H   UNL     1      48.606 129.053  15.863  1.00  0.00     0.301 HD
ATOM     14  H   UNL     1      47.861 129.149  17.489  1.00  0.00     0.301 HD
ENDBRANCH   8  12
ENDBRANCH   1   3
BRANCH   1  15
ATOM     15  C   UNL     1      44.920 131.364  18.937  1.00  0.00     0.080 A 
ATOM     16  C   UNL     1      43.732 132.144  18.997  1.00  0.00     0.035 A 
ATOM     17  C   UNL     1      45.351 130.662  20.093  1.00  0.00     0.173 A 
ATOM     18  C   UNL     1      42.966 132.236  20.183  1.00  0.00    -0.017 A 
ATOM     19  C   UNL     1      44.570 130.761  21.238  1.00  0.00     0.206 A 
ATOM     20  C   UNL     1      43.429 131.511  21.295  1.00  0.00     0.140 A 
ATOM     21  N   UNL     1      44.789 130.188  22.436  1.00  0.00     0.029 NA
ATOM     22  N   UNL     1      42.944 131.386  22.550  1.00  0.00    -0.132 N 
ATOM     23  N   UNL     1      43.782 130.589  23.204  1.00  0.00    -0.016 N 
ATOM     24  C   UNL     1      41.716 133.068  20.205  1.00  0.00     0.047 C 
ATOM     25  C   UNL     1      41.754 131.984  23.151  1.00  0.00     0.226 C 
ATOM     26  H   UNL     1      43.672 130.308  24.205  1.00  0.00     0.526 HD
BRANCH  17  27
ATOM     27  O   UNL     1      46.527 129.910  20.128  1.00  0.00    -0.504 OA
ATOM     28  H   UNL     1      46.625 129.066  20.675  1.00  0.00     0.293 HD
ENDBRANCH  17  27
ENDBRANCH   1  15
TORSDOF 5
ENDMDL
MODEL 9
REMARK VINA RESULT:      -5.4      2.156      6.756
REMARK SMILES C#C[C@@H]1CNC(=[NH2+])[C@@H](Nc2cc(C)c3c(n[nH+]n3C)c2O)C1
REMARK SMILES IDX 9 1 8 3 3 4 4 5 22 6 5 7 6 8 2 10 1 11 7 12 10 15 11 16
REMARK SMILES IDX 20 17 12 18 15 19 14 20 16 21 18 22 17 23 13 24 19 25 21 27
REMARK H PARENT 9 2 5 9 7 13 7 14 17 26 21 28
ROOT
ATOM      1  N   UNL     1      44.486 131.186  21.405  1.00  0.00    -0.368 N 
ATOM      2  H   UNL     1      45.432 131.396  21.794  1.00  0.00     0.161 HD
ENDROOT
BRANCH   1   3
ATOM      3  C   UNL     1      43.423 130.765  22.330  1.00  0.00     0.195 C 
ATOM      4  C   UNL     1      44.421 128.521  22.957  1.00  0.00     0.108 C 
ATOM      5  C   UNL     1      44.493 128.901  24.443  1.00  0.00     0.250 C 
ATOM      6  C   UNL     1      43.239 129.237  22.289  1.00  0.00     0.058 C 
ATOM      7  N   UNL     1      44.472 130.351  24.624  1.00  0.00    -0.276 N 
ATOM      8  C   UNL     1      43.755 131.224  23.734  1.00  0.00     0.263 C 
ATOM      9  H   UNL     1      44.808 130.726  25.540  1.00  0.00     0.304 HD
BRANCH   4  10
ATOM     10  C   UNL     1      44.277 127.064  22.816  1.00  0.00    -0.099 C 
ATOM     11  C   UNL     1      44.157 125.870  22.699  1.00  0.00     0.004 C 
ENDBRANCH   4  10
BRANCH   8  12
ATOM     12  N   UNL     1      43.503 132.447  24.093  1.00  0.00    -0.289 N 
ATOM     13  H   UNL     1      44.241 133.183  24.046  1.00  0.00     0.301 HD
ATOM     14  H   UNL     1      42.555 132.723  24.438  1.00  0.00     0.301 HD
ENDBRANCH   8  12
ENDBRANCH   1   3
BRANCH   1  15
ATOM     15  C   UNL     1      44.312 131.255  19.978  1.00  0.00     0.080 A 
ATOM     16  C   UNL     1      43.100 131.752  19.425  1.00  0.00     0.035 A 
ATOM     17  C   UNL     1      45.360 130.854  19.109  1.00  0.00     0.173 A 
ATOM     18  C   UNL     1      42.914 131.861  18.027  1.00  0.00    -0.017 A 
ATOM     19  C   UNL     1      45.152 130.986  17.741  1.00  0.00     0.206 A 
ATOM     20  C   UNL     1      43.987 131.464  17.210  1.00  0.00     0.140 A 
ATOM     21  N   UNL     1      46.000 130.668  16.745  1.00  0.00     0.029 NA
ATOM     22  N   UNL     1      44.133 131.440  15.867  1.00  0.00    -0.132 N 
ATOM     23  N   UNL     1      45.348 130.958  15.625  1.00  0.00    -0.016 N 
ATOM     24  C   UNL     1      41.619 132.394  17.482  1.00  0.00     0.047 C 
ATOM     25  C   UNL     1      43.190 131.833  14.823  1.00  0.00     0.226 C 
ATOM     26  H   UNL     1      45.749 130.819  14.670  1.00  0.00     0.526 HD
BRANCH  17  27
ATOM     27  O   UNL     1      46.563 130.316  19.570  1.00  0.00    -0.504 OA
ATOM     28  H   UNL     1      47.450 130.794  19.484  1.00  0.00     0.293 HD
ENDBRANCH  17  27
ENDBRANCH   1  15
TORSDOF 5
ENDMDL


