REMARK SMILES C[C@H](Cn1cccc1CNC(=O)c1ccc2cc[nH]c2c1N)OCCC#N
REMARK SMILES IDX 3 1 2 2 1 3 23 4 24 5 25 6 26 7 27 8 4 9 5 10 8 11 6 12 7 13
REMARK SMILES IDX 9 14 10 15 11 16 12 18 13 19 14 20 21 21 15 22 20 23 16 24
REMARK SMILES IDX 19 25 17 26 18 27 22 29
REMARK H PARENT 10 17 19 28 22 30 22 31
ROOT
ATOM      1  C   UNL     1      -3.359  -0.133  -2.695  1.00  0.00     0.153 C 
ENDROOT
BRANCH   1   2
ATOM      2  C   UNL     1      -2.437  -1.336  -2.432  1.00  0.00     0.135 C 
ATOM      3  C   UNL     1      -1.877  -1.864  -3.753  1.00  0.00     0.040 C 
BRANCH   2   4
ATOM      4  O   UNL     1      -1.351  -0.929  -1.614  1.00  0.00    -0.376 OA
BRANCH   4   5
ATOM      5  C   UNL     1      -1.367  -1.569  -0.350  1.00  0.00     0.176 C 
BRANCH   5   6
ATOM      6  C   UNL     1      -0.620  -2.903  -0.397  1.00  0.00     0.148 C 
BRANCH   6   7
ATOM      7  C   UNL     1       0.779  -2.706  -0.796  1.00  0.00     0.065 C 
ATOM      8  N   UNL     1       1.882  -2.551  -1.112  1.00  0.00    -0.198 NA
ENDBRANCH   6   7
ENDBRANCH   5   6
ENDBRANCH   4   5
ENDBRANCH   2   4
ENDBRANCH   1   2
BRANCH   1   9
ATOM      9  N   UNL     1      -3.826   0.457  -1.436  1.00  0.00    -0.347 N 
ATOM     10  C   UNL     1      -4.699  -0.122  -0.588  1.00  0.00     0.086 A 
ATOM     11  C   UNL     1      -3.459   1.635  -0.878  1.00  0.00     0.037 A 
ATOM     12  C   UNL     1      -4.884   0.680   0.521  1.00  0.00     0.020 A 
ATOM     13  C   UNL     1      -4.093   1.797   0.339  1.00  0.00     0.025 A 
BRANCH  11  14
ATOM     14  C   UNL     1      -2.491   2.621  -1.471  1.00  0.00     0.170 C 
BRANCH  14  15
ATOM     15  N   UNL     1      -1.128   2.109  -1.373  1.00  0.00    -0.346 N 
ATOM     16  C   UNL     1      -0.376   2.158  -0.150  1.00  0.00     0.253 C 
ATOM     17  H   UNL     1      -0.733   1.615  -2.204  1.00  0.00     0.164 HD
ATOM     18  O   UNL     1      -0.824   2.808   0.833  1.00  0.00    -0.269 OA
BRANCH  16  19
ATOM     19  C   UNL     1       0.936   1.477  -0.045  1.00  0.00     0.064 A 
ATOM     20  C   UNL     1       1.824   1.538  -1.152  1.00  0.00     0.017 A 
ATOM     21  C   UNL     1       1.339   0.791   1.141  1.00  0.00     0.069 A 
ATOM     22  C   UNL     1       3.089   0.936  -1.101  1.00  0.00     0.011 A 
ATOM     23  C   UNL     1       2.616   0.208   1.151  1.00  0.00     0.070 A 
ATOM     24  C   UNL     1       3.451   0.281   0.068  1.00  0.00     0.002 A 
ATOM     25  N   UNL     1       3.196  -0.505   2.136  1.00  0.00    -0.359 N 
ATOM     26  C   UNL     1       4.606  -0.402   0.378  1.00  0.00     0.028 A 
ATOM     27  C   UNL     1       4.409  -0.876   1.668  1.00  0.00     0.083 A 
ATOM     28  H   UNL     1       2.806  -0.743   3.074  1.00  0.00     0.166 HD
BRANCH  21  29
ATOM     29  N   UNL     1       0.463   0.643   2.269  1.00  0.00    -0.396 N 
ATOM     30  H   UNL     1      -0.562   0.817   2.198  1.00  0.00     0.156 HD
ATOM     31  H   UNL     1       0.810   0.276   3.181  1.00  0.00     0.156 HD
ENDBRANCH  21  29
ENDBRANCH  16  19
ENDBRANCH  14  15
ENDBRANCH  11  14
ENDBRANCH   1   9
TORSDOF 10


