MODEL 1
REMARK VINA RESULT:      -8.9      0.000      0.000
REMARK SMILES C=Cc1cc([S-])cc(-c2ccc3c(c2)CC3)c1
REMARK SMILES IDX 3 1 4 2 5 3 6 4 7 5 8 6 17 7 2 8 1 9 9 10 10 11 14 12 11 13
REMARK SMILES IDX 13 14 12 15 15 16 16 17
REMARK H PARENT
ROOT
ATOM      1  C   UNL     1      44.951 130.324  20.550  1.00  0.00    -0.027 A 
ATOM      2  C   UNL     1      43.813 131.122  20.747  1.00  0.00    -0.013 A 
ATOM      3  C   UNL     1      43.301 131.900  19.706  1.00  0.00    -0.174 A 
ATOM      4  S   UNL     1      41.847 132.930  19.983  1.00  0.00    -0.780 S 
ATOM      5  C   UNL     1      43.915 131.883  18.451  1.00  0.00    -0.012 A 
ATOM      6  C   UNL     1      45.047 131.083  18.224  1.00  0.00    -0.019 A 
ATOM      7  C   UNL     1      45.556 130.301  19.276  1.00  0.00     0.016 A 
ENDROOT
BRANCH   1   8
ATOM      8  C   UNL     1      45.449 129.509  21.685  1.00  0.00     0.000 C 
ATOM      9  C   UNL     1      44.673 129.021  22.653  1.00  0.00     0.009 C 
ENDBRANCH   1   8
BRANCH   6  10
ATOM     10  C   UNL     1      45.691 131.056  16.886  1.00  0.00    -0.018 A 
ATOM     11  C   UNL     1      45.638 132.222  16.043  1.00  0.00     0.009 A 
ATOM     12  C   UNL     1      46.357 129.875  16.447  1.00  0.00     0.012 A 
ATOM     13  C   UNL     1      46.238 132.251  14.760  1.00  0.00     0.004 A 
ATOM     14  C   UNL     1      46.931 129.937  15.194  1.00  0.00    -0.044 A 
ATOM     15  C   UNL     1      46.872 131.090  14.375  1.00  0.00    -0.044 A 
ATOM     16  C   UNL     1      47.712 129.214  14.152  1.00  0.00     0.040 C 
ATOM     17  C   UNL     1      47.650 130.395  13.311  1.00  0.00     0.040 C 
ENDBRANCH   6  10
TORSDOF 2
ENDMDL
MODEL 2
REMARK VINA RESULT:      -8.7      1.932      6.277
REMARK SMILES C=Cc1cc([S-])cc(-c2ccc3c(c2)CC3)c1
REMARK SMILES IDX 3 1 4 2 5 3 6 4 7 5 8 6 17 7 2 8 1 9 9 10 10 11 14 12 11 13
REMARK SMILES IDX 13 14 12 15 15 16 16 17
REMARK H PARENT
ROOT
ATOM      1  C   UNL     1      46.453 130.198  15.176  1.00  0.00    -0.027 A 
ATOM      2  C   UNL     1      45.468 130.696  14.309  1.00  0.00    -0.013 A 
ATOM      3  C   UNL     1      44.304 131.279  14.816  1.00  0.00    -0.174 A 
ATOM      4  S   UNL     1      43.043 131.898  13.686  1.00  0.00    -0.780 S 
ATOM      5  C   UNL     1      44.113 131.379  16.196  1.00  0.00    -0.012 A 
ATOM      6  C   UNL     1      45.090 130.902  17.085  1.00  0.00    -0.019 A 
ATOM      7  C   UNL     1      46.261 130.318  16.568  1.00  0.00     0.016 A 
ENDROOT
BRANCH   1   8
ATOM      8  C   UNL     1      47.676 129.597  14.589  1.00  0.00     0.000 C 
ATOM      9  C   UNL     1      48.193 129.954  13.412  1.00  0.00     0.009 C 
ENDBRANCH   1   8
BRANCH   6  10
ATOM     10  C   UNL     1      44.893 131.021  18.552  1.00  0.00    -0.018 A 
ATOM     11  C   UNL     1      45.922 130.570  19.452  1.00  0.00     0.009 A 
ATOM     12  C   UNL     1      43.685 131.583  19.058  1.00  0.00     0.012 A 
ATOM     13  C   UNL     1      45.786 130.663  20.859  1.00  0.00     0.004 A 
ATOM     14  C   UNL     1      43.584 131.659  20.432  1.00  0.00    -0.044 A 
ATOM     15  C   UNL     1      44.604 131.212  21.306  1.00  0.00    -0.044 A 
ATOM     16  C   UNL     1      42.745 132.072  21.592  1.00  0.00     0.040 C 
ATOM     17  C   UNL     1      43.790 131.611  22.488  1.00  0.00     0.040 C 
ENDBRANCH   6  10
TORSDOF 2
ENDMDL
MODEL 3
REMARK VINA RESULT:      -8.2      1.484      2.568
REMARK SMILES C=Cc1cc([S-])cc(-c2ccc3c(c2)CC3)c1
REMARK SMILES IDX 3 1 4 2 5 3 6 4 7 5 8 6 17 7 2 8 1 9 9 10 10 11 14 12 11 13
REMARK SMILES IDX 13 14 12 15 15 16 16 17
REMARK H PARENT
ROOT
ATOM      1  C   UNL     1      43.020 132.031  19.445  1.00  0.00    -0.027 A 
ATOM      2  C   UNL     1      43.520 131.338  20.558  1.00  0.00    -0.013 A 
ATOM      3  C   UNL     1      44.679 130.565  20.453  1.00  0.00    -0.174 A 
ATOM      4  S   UNL     1      45.297 129.669  21.890  1.00  0.00    -0.780 S 
ATOM      5  C   UNL     1      45.359 130.483  19.235  1.00  0.00    -0.012 A 
ATOM      6  C   UNL     1      44.887 131.179  18.109  1.00  0.00    -0.019 A 
ATOM      7  C   UNL     1      43.720 131.956  18.223  1.00  0.00     0.016 A 
ENDROOT
BRANCH   1   8
ATOM      8  C   UNL     1      41.791 132.845  19.611  1.00  0.00     0.000 C 
ATOM      9  C   UNL     1      41.339 133.286  20.786  1.00  0.00     0.009 C 
ENDBRANCH   1   8
BRANCH   6  10
ATOM     10  C   UNL     1      45.617 131.102  16.819  1.00  0.00    -0.018 A 
ATOM     11  C   UNL     1      45.683 132.258  15.963  1.00  0.00     0.009 A 
ATOM     12  C   UNL     1      46.248 129.882  16.437  1.00  0.00     0.012 A 
ATOM     13  C   UNL     1      46.369 132.239  14.723  1.00  0.00     0.004 A 
ATOM     14  C   UNL     1      46.906 129.897  15.225  1.00  0.00    -0.044 A 
ATOM     15  C   UNL     1      46.965 131.042  14.393  1.00  0.00    -0.044 A 
ATOM     16  C   UNL     1      47.717 129.121  14.244  1.00  0.00     0.040 C 
ATOM     17  C   UNL     1      47.774 130.293  13.390  1.00  0.00     0.040 C 
ENDBRANCH   6  10
TORSDOF 2
ENDMDL
MODEL 4
REMARK VINA RESULT:      -7.6      0.934      1.643
REMARK SMILES C=Cc1cc([S-])cc(-c2ccc3c(c2)CC3)c1
REMARK SMILES IDX 3 1 4 2 5 3 6 4 7 5 8 6 17 7 2 8 1 9 9 10 10 11 14 12 11 13
REMARK SMILES IDX 13 14 12 15 15 16 16 17
REMARK H PARENT
ROOT
ATOM      1  C   UNL     1      44.842 131.127  20.095  1.00  0.00    -0.027 A 
ATOM      2  C   UNL     1      43.555 131.679  19.984  1.00  0.00    -0.013 A 
ATOM      3  C   UNL     1      42.987 131.913  18.729  1.00  0.00    -0.174 A 
ATOM      4  S   UNL     1      41.341 132.638  18.608  1.00  0.00    -0.780 S 
ATOM      5  C   UNL     1      43.694 131.590  17.568  1.00  0.00    -0.012 A 
ATOM      6  C   UNL     1      44.977 131.023  17.651  1.00  0.00    -0.019 A 
ATOM      7  C   UNL     1      45.542 130.789  18.918  1.00  0.00     0.016 A 
ENDROOT
BRANCH   1   8
ATOM      8  C   UNL     1      45.396 130.889  21.450  1.00  0.00     0.000 C 
ATOM      9  C   UNL     1      44.745 130.248  22.422  1.00  0.00     0.009 C 
ENDBRANCH   1   8
BRANCH   6  10
ATOM     10  C   UNL     1      45.722 130.668  16.417  1.00  0.00    -0.018 A 
ATOM     11  C   UNL     1      45.898 129.284  16.060  1.00  0.00     0.009 A 
ATOM     12  C   UNL     1      46.258 131.701  15.594  1.00  0.00     0.012 A 
ATOM     13  C   UNL     1      46.598 128.891  14.893  1.00  0.00     0.004 A 
ATOM     14  C   UNL     1      46.933 131.284  14.466  1.00  0.00    -0.044 A 
ATOM     15  C   UNL     1      47.098 129.920  14.126  1.00  0.00    -0.044 A 
ATOM     16  C   UNL     1      47.685 131.698  13.248  1.00  0.00     0.040 C 
ATOM     17  C   UNL     1      47.857 130.299  12.901  1.00  0.00     0.040 C 
ENDBRANCH   6  10
TORSDOF 2
ENDMDL
MODEL 5
REMARK VINA RESULT:      -7.4      2.021      6.166
REMARK SMILES C=Cc1cc([S-])cc(-c2ccc3c(c2)CC3)c1
REMARK SMILES IDX 3 1 4 2 5 3 6 4 7 5 8 6 17 7 2 8 1 9 9 10 10 11 14 12 11 13
REMARK SMILES IDX 13 14 12 15 15 16 16 17
REMARK H PARENT
ROOT
ATOM      1  C   UNL     1      46.233 130.423  15.536  1.00  0.00    -0.027 A 
ATOM      2  C   UNL     1      45.358 130.835  14.518  1.00  0.00    -0.013 A 
ATOM      3  C   UNL     1      44.118 131.398  14.830  1.00  0.00    -0.174 A 
ATOM      4  S   UNL     1      43.002 131.905  13.508  1.00  0.00    -0.780 S 
ATOM      5  C   UNL     1      43.740 131.565  16.164  1.00  0.00    -0.012 A 
ATOM      6  C   UNL     1      44.603 131.175  17.202  1.00  0.00    -0.019 A 
ATOM      7  C   UNL     1      45.850 130.610  16.881  1.00  0.00     0.016 A 
ENDROOT
BRANCH   1   8
ATOM      8  C   UNL     1      47.542 129.840  15.153  1.00  0.00     0.000 C 
ATOM      9  C   UNL     1      47.877 129.512  13.904  1.00  0.00     0.009 C 
ENDBRANCH   1   8
BRANCH   6  10
ATOM     10  C   UNL     1      44.205 131.365  18.620  1.00  0.00    -0.018 A 
ATOM     11  C   UNL     1      42.961 132.019  18.933  1.00  0.00     0.009 A 
ATOM     12  C   UNL     1      45.059 130.899  19.661  1.00  0.00     0.012 A 
ATOM     13  C   UNL     1      42.533 132.224  20.268  1.00  0.00     0.004 A 
ATOM     14  C   UNL     1      44.613 131.113  20.949  1.00  0.00    -0.044 A 
ATOM     15  C   UNL     1      43.387 131.757  21.243  1.00  0.00    -0.044 A 
ATOM     16  C   UNL     1      44.891 130.939  22.402  1.00  0.00     0.040 C 
ATOM     17  C   UNL     1      43.635 131.601  22.704  1.00  0.00     0.040 C 
ENDBRANCH   6  10
TORSDOF 2
ENDMDL
MODEL 6
REMARK VINA RESULT:      -6.9      1.620      2.964
REMARK SMILES C=Cc1cc([S-])cc(-c2ccc3c(c2)CC3)c1
REMARK SMILES IDX 3 1 4 2 5 3 6 4 7 5 8 6 17 7 2 8 1 9 9 10 10 11 14 12 11 13
REMARK SMILES IDX 13 14 12 15 15 16 16 17
REMARK H PARENT
ROOT
ATOM      1  C   UNL     1      43.010 131.964  19.090  1.00  0.00    -0.027 A 
ATOM      2  C   UNL     1      43.585 131.528  20.295  1.00  0.00    -0.013 A 
ATOM      3  C   UNL     1      44.776 130.799  20.292  1.00  0.00    -0.174 A 
ATOM      4  S   UNL     1      45.491 130.235  21.848  1.00  0.00    -0.780 S 
ATOM      5  C   UNL     1      45.414 130.504  19.084  1.00  0.00    -0.012 A 
ATOM      6  C   UNL     1      44.868 130.940  17.866  1.00  0.00    -0.019 A 
ATOM      7  C   UNL     1      43.668 131.675  17.877  1.00  0.00     0.016 A 
ENDROOT
BRANCH   1   8
ATOM      8  C   UNL     1      41.749 132.742  19.148  1.00  0.00     0.000 C 
ATOM      9  C   UNL     1      41.278 133.323  20.253  1.00  0.00     0.009 C 
ENDBRANCH   1   8
BRANCH   6  10
ATOM     10  C   UNL     1      45.553 130.636  16.584  1.00  0.00    -0.018 A 
ATOM     11  C   UNL     1      45.578 129.284  16.088  1.00  0.00     0.009 A 
ATOM     12  C   UNL     1      46.182 131.686  15.854  1.00  0.00     0.012 A 
ATOM     13  C   UNL     1      46.215 128.941  14.870  1.00  0.00     0.004 A 
ATOM     14  C   UNL     1      46.794 131.318  14.674  1.00  0.00    -0.044 A 
ATOM     15  C   UNL     1      46.810 129.985  14.196  1.00  0.00    -0.044 A 
ATOM     16  C   UNL     1      47.567 131.772  13.484  1.00  0.00     0.040 C 
ATOM     17  C   UNL     1      47.586 130.406  12.996  1.00  0.00     0.040 C 
ENDBRANCH   6  10
TORSDOF 2
ENDMDL
MODEL 7
REMARK VINA RESULT:      -6.9      1.811      2.755
REMARK SMILES C=Cc1cc([S-])cc(-c2ccc3c(c2)CC3)c1
REMARK SMILES IDX 3 1 4 2 5 3 6 4 7 5 8 6 17 7 2 8 1 9 9 10 10 11 14 12 11 13
REMARK SMILES IDX 13 14 12 15 15 16 16 17
REMARK H PARENT
ROOT
ATOM      1  C   UNL     1      42.697 132.362  19.980  1.00  0.00    -0.027 A 
ATOM      2  C   UNL     1      43.302 131.640  21.021  1.00  0.00    -0.013 A 
ATOM      3  C   UNL     1      44.366 130.774  20.760  1.00  0.00    -0.174 A 
ATOM      4  S   UNL     1      45.120 129.843  22.108  1.00  0.00    -0.780 S 
ATOM      5  C   UNL     1      44.845 130.624  19.456  1.00  0.00    -0.012 A 
ATOM      6  C   UNL     1      44.267 131.346  18.399  1.00  0.00    -0.019 A 
ATOM      7  C   UNL     1      43.197 132.218  18.669  1.00  0.00     0.016 A 
ENDROOT
BRANCH   1   8
ATOM      8  C   UNL     1      41.576 133.276  20.311  1.00  0.00     0.000 C 
ATOM      9  C   UNL     1      40.907 133.253  21.464  1.00  0.00     0.009 C 
ENDBRANCH   1   8
BRANCH   6  10
ATOM     10  C   UNL     1      44.785 131.196  17.016  1.00  0.00    -0.018 A 
ATOM     11  C   UNL     1      43.997 131.658  15.902  1.00  0.00     0.009 A 
ATOM     12  C   UNL     1      46.060 130.597  16.801  1.00  0.00     0.012 A 
ATOM     13  C   UNL     1      44.446 131.542  14.563  1.00  0.00     0.004 A 
ATOM     14  C   UNL     1      46.467 130.499  15.486  1.00  0.00    -0.044 A 
ATOM     15  C   UNL     1      45.683 130.957  14.400  1.00  0.00    -0.044 A 
ATOM     16  C   UNL     1      47.538 130.057  14.550  1.00  0.00     0.040 C 
ATOM     17  C   UNL     1      46.733 130.524  13.436  1.00  0.00     0.040 C 
ENDBRANCH   6  10
TORSDOF 2
ENDMDL
MODEL 8
REMARK VINA RESULT:      -6.5      0.906      1.730
REMARK SMILES C=Cc1cc([S-])cc(-c2ccc3c(c2)CC3)c1
REMARK SMILES IDX 3 1 4 2 5 3 6 4 7 5 8 6 17 7 2 8 1 9 9 10 10 11 14 12 11 13
REMARK SMILES IDX 13 14 12 15 15 16 16 17
REMARK H PARENT
ROOT
ATOM      1  C   UNL     1      44.402 130.796  21.365  1.00  0.00    -0.027 A 
ATOM      2  C   UNL     1      43.270 131.625  21.391  1.00  0.00    -0.013 A 
ATOM      3  C   UNL     1      42.808 132.235  20.222  1.00  0.00    -0.174 A 
ATOM      4  S   UNL     1      41.361 133.309  20.279  1.00  0.00    -0.780 S 
ATOM      5  C   UNL     1      43.467 132.018  19.010  1.00  0.00    -0.012 A 
ATOM      6  C   UNL     1      44.595 131.181  18.954  1.00  0.00    -0.019 A 
ATOM      7  C   UNL     1      45.053 130.569  20.134  1.00  0.00     0.016 A 
ENDROOT
BRANCH   1   8
ATOM      8  C   UNL     1      44.847 130.164  22.631  1.00  0.00     0.000 C 
ATOM      9  C   UNL     1      44.030 129.852  23.638  1.00  0.00     0.009 C 
ENDBRANCH   1   8
BRANCH   6  10
ATOM     10  C   UNL     1      45.287 130.941  17.662  1.00  0.00    -0.018 A 
ATOM     11  C   UNL     1      45.769 129.621  17.344  1.00  0.00     0.009 A 
ATOM     12  C   UNL     1      45.469 132.018  16.748  1.00  0.00     0.012 A 
ATOM     13  C   UNL     1      46.434 129.337  16.126  1.00  0.00     0.004 A 
ATOM     14  C   UNL     1      46.119 131.707  15.572  1.00  0.00    -0.044 A 
ATOM     15  C   UNL     1      46.588 130.406  15.270  1.00  0.00    -0.044 A 
ATOM     16  C   UNL     1      46.628 132.213  14.265  1.00  0.00     0.040 C 
ATOM     17  C   UNL     1      47.111 130.879  13.957  1.00  0.00     0.040 C 
ENDBRANCH   6  10
TORSDOF 2
ENDMDL
MODEL 9
REMARK VINA RESULT:      -6.5      1.440      2.240
REMARK SMILES C=Cc1cc([S-])cc(-c2ccc3c(c2)CC3)c1
REMARK SMILES IDX 3 1 4 2 5 3 6 4 7 5 8 6 17 7 2 8 1 9 9 10 10 11 14 12 11 13
REMARK SMILES IDX 13 14 12 15 15 16 16 17
REMARK H PARENT
ROOT
ATOM      1  C   UNL     1      44.085 131.010  21.886  1.00  0.00    -0.027 A 
ATOM      2  C   UNL     1      42.952 131.826  22.035  1.00  0.00    -0.013 A 
ATOM      3  C   UNL     1      42.361 132.432  20.924  1.00  0.00    -0.174 A 
ATOM      4  S   UNL     1      40.916 133.489  21.137  1.00  0.00    -0.780 S 
ATOM      5  C   UNL     1      42.890 132.224  19.647  1.00  0.00    -0.012 A 
ATOM      6  C   UNL     1      44.014 131.401  19.469  1.00  0.00    -0.019 A 
ATOM      7  C   UNL     1      44.603 130.792  20.592  1.00  0.00     0.016 A 
ENDROOT
BRANCH   1   8
ATOM      8  C   UNL     1      44.668 130.381  23.096  1.00  0.00     0.000 C 
ATOM      9  C   UNL     1      44.019 129.518  23.878  1.00  0.00     0.009 C 
ENDBRANCH   1   8
BRANCH   6  10
ATOM     10  C   UNL     1      44.568 131.170  18.111  1.00  0.00    -0.018 A 
ATOM     11  C   UNL     1      45.826 130.486  17.957  1.00  0.00     0.009 A 
ATOM     12  C   UNL     1      43.849 131.627  16.969  1.00  0.00     0.012 A 
ATOM     13  C   UNL     1      46.397 130.237  16.685  1.00  0.00     0.004 A 
ATOM     14  C   UNL     1      44.432 131.369  15.746  1.00  0.00    -0.044 A 
ATOM     15  C   UNL     1      45.670 130.695  15.608  1.00  0.00    -0.044 A 
ATOM     16  C   UNL     1      44.321 131.504  14.266  1.00  0.00     0.040 C 
ATOM     17  C   UNL     1      45.591 130.815  14.125  1.00  0.00     0.040 C 
ENDBRANCH   6  10
TORSDOF 2
ENDMDL


