REMARK SMILES C=C(C)C(=O)Oc1c([NH2+]N)cc(C)cc1-n1[nH+]c2ccccc2[nH+]1
REMARK SMILES IDX 7 1 8 2 11 3 12 4 13 5 14 6 15 7 6 8 4 9 5 10 2 11 1 12 3 13
REMARK SMILES IDX 9 14 10 17 16 20 17 21 24 22 18 23 23 24 19 25 22 26 20 27
REMARK SMILES IDX 21 28
REMARK H PARENT 9 15 9 16 10 18 10 19 17 29 24 30
ROOT
ATOM      1  C   UNL     1      -0.764  -0.056  -0.851  1.00  0.00     0.229 A 
ATOM      2  C   UNL     1      -1.681   0.184  -1.895  1.00  0.00     0.194 A 
ATOM      3  C   UNL     1      -1.208   0.329  -3.211  1.00  0.00     0.077 A 
ATOM      4  C   UNL     1       0.156   0.203  -3.498  1.00  0.00    -0.042 A 
ATOM      5  C   UNL     1       0.650   0.384  -4.903  1.00  0.00     0.044 C 
ATOM      6  C   UNL     1       1.066  -0.001  -2.454  1.00  0.00     0.047 A 
ATOM      7  C   UNL     1       0.621  -0.112  -1.129  1.00  0.00     0.217 A 
ENDROOT
BRANCH   1   8
ATOM      8  O   UNL     1      -1.252  -0.223   0.453  1.00  0.00    -0.414 OA
BRANCH   8   9
ATOM      9  C   UNL     1      -0.918  -1.308   1.274  1.00  0.00     0.338 C 
ATOM     10  O   UNL     1      -0.370  -2.332   0.778  1.00  0.00    -0.246 OA
BRANCH   9  11
ATOM     11  C   UNL     1      -1.222  -1.245   2.720  1.00  0.00     0.027 C 
ATOM     12  C   UNL     1      -0.836  -2.224   3.547  1.00  0.00     0.020 C 
ATOM     13  C   UNL     1      -1.884  -0.015   3.276  1.00  0.00     0.051 C 
ENDBRANCH   9  11
ENDBRANCH   8   9
ENDBRANCH   1   8
BRANCH   2  14
ATOM     14  N   UNL     1      -3.091   0.316  -1.622  1.00  0.00    -0.236 N 
ATOM     15  H   UNL     1      -3.650   0.053  -2.468  1.00  0.00     0.376 HD
ATOM     16  H   UNL     1      -3.385  -0.304  -0.830  1.00  0.00     0.376 HD
BRANCH  14  17
ATOM     17  N   UNL     1      -3.362   1.661  -1.300  1.00  0.00    -0.178 NA
ATOM     18  H   UNL     1      -4.401   1.777  -1.250  1.00  0.00     0.183 HD
ATOM     19  H   UNL     1      -3.000   1.852  -0.336  1.00  0.00     0.183 HD
ENDBRANCH  14  17
ENDBRANCH   2  14
BRANCH   7  20
ATOM     20  N   UNL     1       1.588  -0.223  -0.071  1.00  0.00     0.083 N 
ATOM     21  N   UNL     1       1.541   0.469   1.067  1.00  0.00    -0.062 N 
ATOM     22  N   UNL     1       2.650  -1.024  -0.111  1.00  0.00    -0.062 N 
ATOM     23  C   UNL     1       2.606   0.078   1.784  1.00  0.00     0.306 A 
ATOM     24  C   UNL     1       3.294  -0.847   1.054  1.00  0.00     0.306 A 
ATOM     25  C   UNL     1       3.014   0.477   3.052  1.00  0.00     0.089 A 
ATOM     26  C   UNL     1       4.450  -1.456   1.529  1.00  0.00     0.089 A 
ATOM     27  C   UNL     1       4.183  -0.117   3.569  1.00  0.00     0.007 A 
ATOM     28  C   UNL     1       4.898  -1.078   2.811  1.00  0.00     0.007 A 
ATOM     29  H   UNL     1       0.820   1.177   1.330  1.00  0.00     0.495 HD
ATOM     30  H   UNL     1       2.904  -1.673  -0.890  1.00  0.00     0.495 HD
ENDBRANCH   7  20
TORSDOF 6


