REMARK SMILES c1ccc2[nH]c([NH2+]c3cn4ccccc4n3)cc2c1
REMARK SMILES IDX 1 1 2 2 3 3 4 4 5 5 6 6 17 7 18 8 19 9 7 11 8 14 9 15 16 16
REMARK SMILES IDX 10 17 15 18 11 19 14 20 12 21 13 22
REMARK H PARENT 5 10 7 12 7 13
ROOT
ATOM      1  C   UNL     1       2.433   3.936  -3.043  1.00  0.00     0.001 A 
ATOM      2  C   UNL     1       2.802   4.300  -1.728  1.00  0.00     0.002 A 
ATOM      3  C   UNL     1       2.024   3.889  -0.630  1.00  0.00     0.027 A 
ATOM      4  C   UNL     1       0.887   3.123  -0.888  1.00  0.00     0.050 A 
ATOM      5  N   UNL     1       0.021   2.622   0.009  1.00  0.00    -0.310 N 
ATOM      6  C   UNL     1      -0.900   1.952  -0.722  1.00  0.00     0.209 A 
ATOM      7  C   UNL     1      -0.616   2.010  -2.085  1.00  0.00     0.099 A 
ATOM      8  C   UNL     1       0.530   2.771  -2.166  1.00  0.00     0.006 A 
ATOM      9  C   UNL     1       1.283   3.159  -3.272  1.00  0.00     0.010 A 
ATOM     10  H   UNL     1       0.060   2.715   1.048  1.00  0.00     0.172 HD
ENDROOT
BRANCH   6  11
ATOM     11  N   UNL     1      -1.971   1.196  -0.140  1.00  0.00    -0.249 N 
ATOM     12  H   UNL     1      -2.773   1.135  -0.810  1.00  0.00     0.361 HD
ATOM     13  H   UNL     1      -2.298   1.667   0.734  1.00  0.00     0.361 HD
BRANCH  11  14
ATOM     14  C   UNL     1      -1.497  -0.120   0.174  1.00  0.00     0.249 A 
ATOM     15  C   UNL     1      -1.490  -1.197  -0.698  1.00  0.00     0.183 A 
ATOM     16  N   UNL     1      -0.902  -0.440   1.350  1.00  0.00    -0.177 NA
ATOM     17  N   UNL     1      -0.898  -2.207  -0.046  1.00  0.00    -0.301 N 
ATOM     18  C   UNL     1      -0.560  -1.732   1.166  1.00  0.00     0.143 A 
ATOM     19  C   UNL     1      -0.639  -3.474  -0.455  1.00  0.00     0.093 A 
ATOM     20  C   UNL     1       0.091  -2.544   2.094  1.00  0.00     0.048 A 
ATOM     21  C   UNL     1       0.013  -4.337   0.439  1.00  0.00     0.018 A 
ATOM     22  C   UNL     1       0.377  -3.866   1.716  1.00  0.00     0.005 A 
ENDBRANCH  11  14
ENDBRANCH   6  11
TORSDOF 2


