REMARK SMILES CC(C)C[C@H](C)OC(=O)n1[nH]c(-c2ccc3[nH]ccc3c2)c/c(=N\N)c1=O
REMARK SMILES IDX 8 1 9 2 10 3 12 4 22 5 11 6 23 7 26 8 27 10 13 11 14 12
REMARK SMILES IDX 15 13 21 14 16 15 20 16 17 17 19 18 18 19 24 21 25 22 7 25
REMARK SMILES IDX 5 26 6 27 4 28 2 29 1 30 3 31
REMARK H PARENT 11 9 17 20 25 23 25 24
ROOT
ATOM      1  C   UNL     1       2.272   1.434   0.509  1.00  0.00     0.436 C 
ATOM      2  O   UNL     1       2.773   2.556   0.799  1.00  0.00    -0.222 OA
ENDROOT
BRANCH   1   3
ATOM      3  N   UNL     1       1.411   1.286  -0.643  1.00  0.00    -0.148 N 
ATOM      4  C   UNL     1      -0.270   0.019  -1.728  1.00  0.00     0.065 A 
ATOM      5  C   UNL     1      -0.265   0.908  -2.806  1.00  0.00     0.064 A 
ATOM      6  N   UNL     1       0.569   0.243  -0.678  1.00  0.00    -0.285 N 
ATOM      7  C   UNL     1       0.598   2.014  -2.790  1.00  0.00     0.152 A 
ATOM      8  C   UNL     1       1.450   2.179  -1.688  1.00  0.00     0.302 A 
ATOM      9  H   UNL     1       0.521  -0.407   0.138  1.00  0.00     0.189 HD
ATOM     10  O   UNL     1       2.258   3.150  -1.674  1.00  0.00    -0.265 OA
BRANCH   4  11
ATOM     11  C   UNL     1      -1.171  -1.163  -1.727  1.00  0.00     0.000 A 
ATOM     12  C   UNL     1      -0.704  -2.414  -1.242  1.00  0.00     0.012 A 
ATOM     13  C   UNL     1      -1.546  -3.541  -1.225  1.00  0.00     0.027 A 
ATOM     14  C   UNL     1      -2.501  -1.053  -2.199  1.00  0.00     0.020 A 
ATOM     15  C   UNL     1      -2.846  -3.389  -1.698  1.00  0.00     0.045 A 
ATOM     16  C   UNL     1      -3.305  -2.189  -2.168  1.00  0.00     0.000 A 
ATOM     17  N   UNL     1      -3.805  -4.327  -1.767  1.00  0.00    -0.361 N 
ATOM     18  C   UNL     1      -4.616  -2.370  -2.551  1.00  0.00     0.028 A 
ATOM     19  C   UNL     1      -4.889  -3.709  -2.288  1.00  0.00     0.083 A 
ATOM     20  H   UNL     1      -3.732  -5.328  -1.477  1.00  0.00     0.166 HD
ENDBRANCH   4  11
BRANCH   7  21
ATOM     21  N   UNL     1       0.656   2.882  -3.766  1.00  0.00    -0.177 NA
BRANCH  21  22
ATOM     22  N   UNL     1      -0.153   2.890  -4.915  1.00  0.00    -0.323 N 
ATOM     23  H   UNL     1       0.050   3.583  -5.668  1.00  0.00     0.179 HD
ATOM     24  H   UNL     1      -1.025   2.326  -5.003  1.00  0.00     0.179 HD
ENDBRANCH  21  22
ENDBRANCH   7  21
ENDBRANCH   1   3
BRANCH   1  25
ATOM     25  O   UNL     1       2.542   0.320   1.316  1.00  0.00    -0.445 OA
BRANCH  25  26
ATOM     26  C   UNL     1       3.313   0.372   2.517  1.00  0.00     0.175 C 
ATOM     27  C   UNL     1       2.527   1.062   3.636  1.00  0.00     0.053 C 
BRANCH  26  28
ATOM     28  C   UNL     1       3.819  -1.042   2.892  1.00  0.00     0.048 C 
BRANCH  28  29
ATOM     29  C   UNL     1       2.782  -2.132   3.286  1.00  0.00    -0.014 C 
ATOM     30  C   UNL     1       1.591  -2.238   2.326  1.00  0.00     0.007 C 
ATOM     31  C   UNL     1       2.312  -2.027   4.745  1.00  0.00     0.007 C 
ENDBRANCH  28  29
ENDBRANCH  26  28
ENDBRANCH  25  26
ENDBRANCH   1  25
TORSDOF 8


