MODEL 1
REMARK VINA RESULT:      -9.7      0.000      0.000
REMARK SMILES C=Cc1cccc(-c2ccc3c(c2)[C@H](N)CC3)c1
REMARK SMILES IDX 8 1 9 2 10 3 11 4 12 5 13 6 14 7 16 8 17 9 7 10 3 11 4 12
REMARK SMILES IDX 18 13 5 14 6 15 2 16 1 17 15 18
REMARK H PARENT 15 19 15 20
ROOT
ATOM      1  C   UNL     1      44.899 131.151  18.142  1.00  0.00    -0.018 A 
ATOM      2  C   UNL     1      45.920 130.857  19.076  1.00  0.00     0.009 A 
ATOM      3  C   UNL     1      45.687 130.982  20.453  1.00  0.00     0.005 A 
ATOM      4  C   UNL     1      44.429 131.402  20.888  1.00  0.00    -0.043 A 
ATOM      5  C   UNL     1      43.434 131.698  19.993  1.00  0.00    -0.027 A 
ATOM      6  C   UNL     1      43.639 131.578  18.617  1.00  0.00     0.014 A 
ATOM      7  C   UNL     1      42.187 132.142  20.677  1.00  0.00     0.081 C 
ATOM      8  C   UNL     1      42.500 131.938  22.177  1.00  0.00     0.028 C 
ATOM      9  C   UNL     1      43.998 131.596  22.291  1.00  0.00     0.038 C 
ENDROOT
BRANCH   1  10
ATOM     10  C   UNL     1      45.148 131.017  16.685  1.00  0.00    -0.018 A 
ATOM     11  C   UNL     1      46.505 130.162  14.834  1.00  0.00    -0.026 A 
ATOM     12  C   UNL     1      45.618 130.770  13.924  1.00  0.00     0.008 A 
ATOM     13  C   UNL     1      46.264 130.302  16.212  1.00  0.00     0.016 A 
ATOM     14  C   UNL     1      44.509 131.482  14.386  1.00  0.00     0.001 A 
ATOM     15  C   UNL     1      44.273 131.604  15.756  1.00  0.00     0.009 A 
BRANCH  11  16
ATOM     16  C   UNL     1      47.705 129.406  14.398  1.00  0.00     0.000 C 
ATOM     17  C   UNL     1      48.419 129.695  13.310  1.00  0.00     0.009 C 
ENDBRANCH  11  16
ENDBRANCH   1  10
BRANCH   7  18
ATOM     18  N   UNL     1      41.892 133.548  20.391  1.00  0.00    -0.324 NA
ATOM     19  H   UNL     1      42.785 134.062  20.206  1.00  0.00     0.119 HD
ATOM     20  H   UNL     1      41.317 133.597  19.520  1.00  0.00     0.119 HD
ENDBRANCH   7  18
TORSDOF 3
ENDMDL
MODEL 2
REMARK VINA RESULT:      -9.4      1.431      2.073
REMARK SMILES C=Cc1cccc(-c2ccc3c(c2)[C@H](N)CC3)c1
REMARK SMILES IDX 8 1 9 2 10 3 11 4 12 5 13 6 14 7 16 8 17 9 7 10 3 11 4 12
REMARK SMILES IDX 18 13 5 14 6 15 2 16 1 17 15 18
REMARK H PARENT 15 19 15 20
ROOT
ATOM      1  C   UNL     1      44.088 131.437  17.876  1.00  0.00    -0.018 A 
ATOM      2  C   UNL     1      42.791 131.962  18.090  1.00  0.00     0.009 A 
ATOM      3  C   UNL     1      42.307 132.160  19.391  1.00  0.00     0.005 A 
ATOM      4  C   UNL     1      43.126 131.831  20.472  1.00  0.00    -0.043 A 
ATOM      5  C   UNL     1      44.380 131.314  20.278  1.00  0.00    -0.027 A 
ATOM      6  C   UNL     1      44.888 131.110  18.993  1.00  0.00     0.014 A 
ATOM      7  C   UNL     1      45.065 131.020  21.567  1.00  0.00     0.081 C 
ATOM      8  C   UNL     1      44.093 131.577  22.633  1.00  0.00     0.028 C 
ATOM      9  C   UNL     1      42.791 131.964  21.908  1.00  0.00     0.038 C 
ENDROOT
BRANCH   1  10
ATOM     10  C   UNL     1      44.598 131.229  16.497  1.00  0.00    -0.018 A 
ATOM     11  C   UNL     1      46.304 130.349  14.977  1.00  0.00    -0.026 A 
ATOM     12  C   UNL     1      45.563 130.841  13.885  1.00  0.00     0.008 A 
ATOM     13  C   UNL     1      45.816 130.559  16.278  1.00  0.00     0.016 A 
ATOM     14  C   UNL     1      44.354 131.508  14.095  1.00  0.00     0.001 A 
ATOM     15  C   UNL     1      43.872 131.700  15.390  1.00  0.00     0.009 A 
BRANCH  11  16
ATOM     16  C   UNL     1      47.600 129.645  14.811  1.00  0.00     0.000 C 
ATOM     17  C   UNL     1      48.258 129.547  13.656  1.00  0.00     0.009 C 
ENDBRANCH  11  16
ENDBRANCH   1  10
BRANCH   7  18
ATOM     18  N   UNL     1      45.269 129.581  21.749  1.00  0.00    -0.324 NA
ATOM     19  H   UNL     1      45.918 129.419  22.554  1.00  0.00     0.119 HD
ATOM     20  H   UNL     1      44.353 129.143  21.993  1.00  0.00     0.119 HD
ENDBRANCH   7  18
TORSDOF 3
ENDMDL
MODEL 3
REMARK VINA RESULT:      -8.3      1.893      6.614
REMARK SMILES C=Cc1cccc(-c2ccc3c(c2)[C@H](N)CC3)c1
REMARK SMILES IDX 8 1 9 2 10 3 11 4 12 5 13 6 14 7 16 8 17 9 7 10 3 11 4 12
REMARK SMILES IDX 18 13 5 14 6 15 2 16 1 17 15 18
REMARK H PARENT 15 19 15 20
ROOT
ATOM      1  C   UNL     1      44.610 131.209  18.302  1.00  0.00    -0.018 A 
ATOM      2  C   UNL     1      45.687 130.303  18.449  1.00  0.00     0.009 A 
ATOM      3  C   UNL     1      46.443 129.905  17.337  1.00  0.00     0.005 A 
ATOM      4  C   UNL     1      46.116 130.419  16.082  1.00  0.00    -0.043 A 
ATOM      5  C   UNL     1      45.071 131.291  15.924  1.00  0.00    -0.027 A 
ATOM      6  C   UNL     1      44.304 131.706  17.016  1.00  0.00     0.014 A 
ATOM      7  C   UNL     1      44.893 131.693  14.502  1.00  0.00     0.081 C 
ATOM      8  C   UNL     1      46.100 131.046  13.785  1.00  0.00     0.028 C 
ATOM      9  C   UNL     1      46.791 130.116  14.799  1.00  0.00     0.038 C 
ENDROOT
BRANCH   1  10
ATOM     10  C   UNL     1      43.812 131.629  19.481  1.00  0.00    -0.018 A 
ATOM     11  C   UNL     1      43.489 131.706  21.907  1.00  0.00    -0.026 A 
ATOM     12  C   UNL     1      42.293 132.423  21.710  1.00  0.00     0.008 A 
ATOM     13  C   UNL     1      44.233 131.306  20.784  1.00  0.00     0.016 A 
ATOM     14  C   UNL     1      41.868 132.747  20.420  1.00  0.00     0.001 A 
ATOM     15  C   UNL     1      42.621 132.356  19.312  1.00  0.00     0.009 A 
BRANCH  11  16
ATOM     16  C   UNL     1      43.980 131.324  23.255  1.00  0.00     0.000 C 
ATOM     17  C   UNL     1      43.570 131.889  24.390  1.00  0.00     0.009 C 
ENDBRANCH  11  16
ENDBRANCH   1  10
BRANCH   7  18
ATOM     18  N   UNL     1      43.630 131.188  13.957  1.00  0.00    -0.324 NA
ATOM     19  H   UNL     1      42.831 131.565  14.519  1.00  0.00     0.119 HD
ATOM     20  H   UNL     1      43.522 131.546  12.981  1.00  0.00     0.119 HD
ENDBRANCH   7  18
TORSDOF 3
ENDMDL
MODEL 4
REMARK VINA RESULT:      -8.2      2.528      6.981
REMARK SMILES C=Cc1cccc(-c2ccc3c(c2)[C@H](N)CC3)c1
REMARK SMILES IDX 8 1 9 2 10 3 11 4 12 5 13 6 14 7 16 8 17 9 7 10 3 11 4 12
REMARK SMILES IDX 18 13 5 14 6 15 2 16 1 17 15 18
REMARK H PARENT 15 19 15 20
ROOT
ATOM      1  C   UNL     1      45.699 131.114  17.177  1.00  0.00    -0.018 A 
ATOM      2  C   UNL     1      45.376 132.265  16.418  1.00  0.00     0.009 A 
ATOM      3  C   UNL     1      45.776 132.372  15.079  1.00  0.00     0.005 A 
ATOM      4  C   UNL     1      46.498 131.325  14.505  1.00  0.00    -0.043 A 
ATOM      5  C   UNL     1      46.824 130.209  15.231  1.00  0.00    -0.027 A 
ATOM      6  C   UNL     1      46.434 130.075  16.566  1.00  0.00     0.014 A 
ATOM      7  C   UNL     1      47.609 129.233  14.426  1.00  0.00     0.081 C 
ATOM      8  C   UNL     1      47.606 129.844  13.005  1.00  0.00     0.028 C 
ATOM      9  C   UNL     1      47.007 131.259  13.116  1.00  0.00     0.038 C 
ENDROOT
BRANCH   1  10
ATOM     10  C   UNL     1      45.274 131.002  18.595  1.00  0.00    -0.018 A 
ATOM     11  C   UNL     1      43.700 131.553  20.388  1.00  0.00    -0.026 A 
ATOM     12  C   UNL     1      44.475 130.790  21.282  1.00  0.00     0.008 A 
ATOM     13  C   UNL     1      44.116 131.660  19.049  1.00  0.00     0.016 A 
ATOM     14  C   UNL     1      45.626 130.135  20.838  1.00  0.00     0.001 A 
ATOM     15  C   UNL     1      46.023 130.237  19.505  1.00  0.00     0.009 A 
BRANCH  11  16
ATOM     16  C   UNL     1      42.476 132.280  20.809  1.00  0.00     0.000 C 
ATOM     17  C   UNL     1      41.732 133.031  19.997  1.00  0.00     0.009 C 
ENDBRANCH  11  16
ENDBRANCH   1  10
BRANCH   7  18
ATOM     18  N   UNL     1      48.976 129.097  14.933  1.00  0.00    -0.324 NA
ATOM     19  H   UNL     1      49.042 128.243  15.535  1.00  0.00     0.119 HD
ATOM     20  H   UNL     1      49.620 128.959  14.122  1.00  0.00     0.119 HD
ENDBRANCH   7  18
TORSDOF 3
ENDMDL
MODEL 5
REMARK VINA RESULT:      -7.3      1.824      3.127
REMARK SMILES C=Cc1cccc(-c2ccc3c(c2)[C@H](N)CC3)c1
REMARK SMILES IDX 8 1 9 2 10 3 11 4 12 5 13 6 14 7 16 8 17 9 7 10 3 11 4 12
REMARK SMILES IDX 18 13 5 14 6 15 2 16 1 17 15 18
REMARK H PARENT 15 19 15 20
ROOT
ATOM      1  C   UNL     1      44.125 131.381  19.255  1.00  0.00    -0.018 A 
ATOM      2  C   UNL     1      42.934 132.145  19.298  1.00  0.00     0.009 A 
ATOM      3  C   UNL     1      42.312 132.430  20.521  1.00  0.00     0.005 A 
ATOM      4  C   UNL     1      42.887 131.948  21.698  1.00  0.00    -0.043 A 
ATOM      5  C   UNL     1      44.035 131.201  21.670  1.00  0.00    -0.027 A 
ATOM      6  C   UNL     1      44.677 130.905  20.465  1.00  0.00     0.014 A 
ATOM      7  C   UNL     1      44.457 130.780  23.035  1.00  0.00     0.081 C 
ATOM      8  C   UNL     1      43.463 131.512  23.966  1.00  0.00     0.028 C 
ATOM      9  C   UNL     1      42.378 132.142  23.075  1.00  0.00     0.038 C 
ENDROOT
BRANCH   1  10
ATOM     10  C   UNL     1      44.782 131.080  17.958  1.00  0.00    -0.018 A 
ATOM     11  C   UNL     1      44.863 131.296  15.520  1.00  0.00    -0.026 A 
ATOM     12  C   UNL     1      46.028 130.505  15.505  1.00  0.00     0.008 A 
ATOM     13  C   UNL     1      44.244 131.568  16.753  1.00  0.00     0.016 A 
ATOM     14  C   UNL     1      46.567 130.017  16.697  1.00  0.00     0.001 A 
ATOM     15  C   UNL     1      45.952 130.303  17.916  1.00  0.00     0.009 A 
BRANCH  11  16
ATOM     16  C   UNL     1      44.241 131.829  14.283  1.00  0.00     0.000 C 
ATOM     17  C   UNL     1      43.034 131.478  13.839  1.00  0.00     0.009 C 
ENDBRANCH  11  16
ENDBRANCH   1  10
BRANCH   7  18
ATOM     18  N   UNL     1      44.356 129.328  23.201  1.00  0.00    -0.324 NA
ATOM     19  H   UNL     1      43.792 129.112  24.057  1.00  0.00     0.119 HD
ATOM     20  H   UNL     1      43.842 128.933  22.381  1.00  0.00     0.119 HD
ENDBRANCH   7  18
TORSDOF 3
ENDMDL
MODEL 6
REMARK VINA RESULT:      -7.0      1.626      2.379
REMARK SMILES C=Cc1cccc(-c2ccc3c(c2)[C@H](N)CC3)c1
REMARK SMILES IDX 8 1 9 2 10 3 11 4 12 5 13 6 14 7 16 8 17 9 7 10 3 11 4 12
REMARK SMILES IDX 18 13 5 14 6 15 2 16 1 17 15 18
REMARK H PARENT 15 19 15 20
ROOT
ATOM      1  C   UNL     1      44.559 131.000  17.819  1.00  0.00    -0.018 A 
ATOM      2  C   UNL     1      43.301 131.633  17.681  1.00  0.00     0.009 A 
ATOM      3  C   UNL     1      42.622 132.124  18.805  1.00  0.00     0.005 A 
ATOM      4  C   UNL     1      43.207 131.977  20.063  1.00  0.00    -0.043 A 
ATOM      5  C   UNL     1      44.422 131.359  20.211  1.00  0.00    -0.027 A 
ATOM      6  C   UNL     1      45.121 130.865  19.107  1.00  0.00     0.014 A 
ATOM      7  C   UNL     1      44.843 131.299  21.638  1.00  0.00     0.081 C 
ATOM      8  C   UNL     1      43.760 132.120  22.375  1.00  0.00     0.028 C 
ATOM      9  C   UNL     1      42.645 132.424  21.358  1.00  0.00     0.038 C 
ENDROOT
BRANCH   1  10
ATOM     10  C   UNL     1      45.277 130.482  16.627  1.00  0.00    -0.018 A 
ATOM     11  C   UNL     1      46.706 130.870  14.676  1.00  0.00    -0.026 A 
ATOM     12  C   UNL     1      46.631 129.497  14.368  1.00  0.00     0.008 A 
ATOM     13  C   UNL     1      46.016 131.351  15.802  1.00  0.00     0.016 A 
ATOM     14  C   UNL     1      45.899 128.630  15.182  1.00  0.00     0.001 A 
ATOM     15  C   UNL     1      45.229 129.116  16.304  1.00  0.00     0.009 A 
BRANCH  11  16
ATOM     16  C   UNL     1      47.457 131.837  13.839  1.00  0.00     0.000 C 
ATOM     17  C   UNL     1      48.034 131.533  12.676  1.00  0.00     0.009 C 
ENDBRANCH  11  16
ENDBRANCH   1  10
BRANCH   7  18
ATOM     18  N   UNL     1      44.876 129.919  22.128  1.00  0.00    -0.324 NA
ATOM     19  H   UNL     1      45.062 129.268  21.329  1.00  0.00     0.119 HD
ATOM     20  H   UNL     1      45.670 129.823  22.800  1.00  0.00     0.119 HD
ENDBRANCH   7  18
TORSDOF 3
ENDMDL
MODEL 7
REMARK VINA RESULT:      -6.9      0.804      2.136
REMARK SMILES C=Cc1cccc(-c2ccc3c(c2)[C@H](N)CC3)c1
REMARK SMILES IDX 8 1 9 2 10 3 11 4 12 5 13 6 14 7 16 8 17 9 7 10 3 11 4 12
REMARK SMILES IDX 18 13 5 14 6 15 2 16 1 17 15 18
REMARK H PARENT 15 19 15 20
ROOT
ATOM      1  C   UNL     1      45.076 130.964  18.456  1.00  0.00    -0.018 A 
ATOM      2  C   UNL     1      46.012 130.731  19.491  1.00  0.00     0.009 A 
ATOM      3  C   UNL     1      45.667 130.959  20.830  1.00  0.00     0.005 A 
ATOM      4  C   UNL     1      44.384 131.420  21.127  1.00  0.00    -0.043 A 
ATOM      5  C   UNL     1      43.470 131.658  20.133  1.00  0.00    -0.027 A 
ATOM      6  C   UNL     1      43.787 131.435  18.791  1.00  0.00     0.014 A 
ATOM      7  C   UNL     1      42.178 132.161  20.675  1.00  0.00     0.081 C 
ATOM      8  C   UNL     1      42.362 132.065  22.208  1.00  0.00     0.028 C 
ATOM      9  C   UNL     1      43.840 131.720  22.471  1.00  0.00     0.038 C 
ENDROOT
BRANCH   1  10
ATOM     10  C   UNL     1      45.443 130.722  17.038  1.00  0.00    -0.018 A 
ATOM     11  C   UNL     1      44.958 130.959  14.649  1.00  0.00    -0.026 A 
ATOM     12  C   UNL     1      46.142 130.255  14.355  1.00  0.00     0.008 A 
ATOM     13  C   UNL     1      44.615 131.177  15.995  1.00  0.00     0.016 A 
ATOM     14  C   UNL     1      46.968 129.800  15.384  1.00  0.00     0.001 A 
ATOM     15  C   UNL     1      46.625 130.032  16.716  1.00  0.00     0.009 A 
BRANCH  11  16
ATOM     16  C   UNL     1      44.038 131.453  13.595  1.00  0.00     0.000 C 
ATOM     17  C   UNL     1      42.776 131.824  13.814  1.00  0.00     0.009 C 
ENDBRANCH  11  16
ENDBRANCH   1  10
BRANCH   7  18
ATOM     18  N   UNL     1      41.928 133.544  20.265  1.00  0.00    -0.324 NA
ATOM     19  H   UNL     1      42.830 133.993  19.981  1.00  0.00     0.119 HD
ATOM     20  H   UNL     1      41.306 133.535  19.425  1.00  0.00     0.119 HD
ENDBRANCH   7  18
TORSDOF 3
ENDMDL
MODEL 8
REMARK VINA RESULT:      -6.7      1.053      1.273
REMARK SMILES C=Cc1cccc(-c2ccc3c(c2)[C@H](N)CC3)c1
REMARK SMILES IDX 8 1 9 2 10 3 11 4 12 5 13 6 14 7 16 8 17 9 7 10 3 11 4 12
REMARK SMILES IDX 18 13 5 14 6 15 2 16 1 17 15 18
REMARK H PARENT 15 19 15 20
ROOT
ATOM      1  C   UNL     1      45.136 130.797  18.326  1.00  0.00    -0.018 A 
ATOM      2  C   UNL     1      46.116 130.731  19.345  1.00  0.00     0.009 A 
ATOM      3  C   UNL     1      45.813 131.129  20.654  1.00  0.00     0.005 A 
ATOM      4  C   UNL     1      44.528 131.592  20.937  1.00  0.00    -0.043 A 
ATOM      5  C   UNL     1      43.571 131.667  19.959  1.00  0.00    -0.027 A 
ATOM      6  C   UNL     1      43.846 131.274  18.647  1.00  0.00     0.014 A 
ATOM      7  C   UNL     1      42.284 132.204  20.481  1.00  0.00     0.081 C 
ATOM      8  C   UNL     1      42.527 132.322  22.003  1.00  0.00     0.028 C 
ATOM      9  C   UNL     1      44.024 132.056  22.250  1.00  0.00     0.038 C 
ENDROOT
BRANCH   1  10
ATOM     10  C   UNL     1      45.459 130.374  16.940  1.00  0.00    -0.018 A 
ATOM     11  C   UNL     1      46.574 130.791  14.800  1.00  0.00    -0.026 A 
ATOM     12  C   UNL     1      46.065 129.570  14.315  1.00  0.00     0.008 A 
ATOM     13  C   UNL     1      46.255 131.185  16.111  1.00  0.00     0.016 A 
ATOM     14  C   UNL     1      45.273 128.760  15.132  1.00  0.00     0.001 A 
ATOM     15  C   UNL     1      44.974 129.156  16.436  1.00  0.00     0.009 A 
BRANCH  11  16
ATOM     16  C   UNL     1      47.408 131.695  13.971  1.00  0.00     0.000 C 
ATOM     17  C   UNL     1      47.924 131.365  12.787  1.00  0.00     0.009 C 
ENDBRANCH  11  16
ENDBRANCH   1  10
BRANCH   7  18
ATOM     18  N   UNL     1      41.975 133.512  19.898  1.00  0.00    -0.324 NA
ATOM     19  H   UNL     1      42.792 133.847  19.335  1.00  0.00     0.119 HD
ATOM     20  H   UNL     1      41.168 133.403  19.243  1.00  0.00     0.119 HD
ENDBRANCH   7  18
TORSDOF 3
ENDMDL


