REMARK SMILES CC(=O)c1ccc(-c2cc3ccccc3[nH]2)cn1
REMARK SMILES IDX 4 1 5 2 6 3 7 4 17 5 18 6 2 7 1 8 3 9 8 10 9 11 16 12 10 13
REMARK SMILES IDX 15 14 11 15 14 16 12 17 13 18
REMARK H PARENT 16 19
ROOT
ATOM      1  C   UNL     1      -3.449   0.398  -0.190  1.00  0.00     0.106 A 
ATOM      2  C   UNL     1      -2.657   1.017  -1.167  1.00  0.00     0.033 A 
ATOM      3  C   UNL     1      -1.269   0.872  -1.123  1.00  0.00     0.014 A 
ATOM      4  C   UNL     1      -0.667   0.112  -0.109  1.00  0.00     0.016 A 
ATOM      5  C   UNL     1      -1.499  -0.493   0.849  1.00  0.00     0.122 A 
ATOM      6  N   UNL     1      -2.848  -0.335   0.786  1.00  0.00    -0.252 NA
ENDROOT
BRANCH   1   7
ATOM      7  C   UNL     1      -4.922   0.530  -0.204  1.00  0.00     0.178 C 
ATOM      8  C   UNL     1      -5.758  -0.137   0.844  1.00  0.00     0.095 C 
ATOM      9  O   UNL     1      -5.491   1.207  -1.103  1.00  0.00    -0.293 OA
ENDBRANCH   1   7
BRANCH   4  10
ATOM     10  C   UNL     1       0.808  -0.051  -0.051  1.00  0.00     0.048 A 
ATOM     11  C   UNL     1       1.485  -1.069   0.626  1.00  0.00     0.037 A 
ATOM     12  N   UNL     1       1.689   0.783  -0.659  1.00  0.00    -0.354 N 
ATOM     13  C   UNL     1       2.822  -0.822   0.406  1.00  0.00     0.000 A 
ATOM     14  C   UNL     1       2.910   0.302  -0.371  1.00  0.00     0.046 A 
ATOM     15  C   UNL     1       3.954  -1.510   0.837  1.00  0.00     0.010 A 
ATOM     16  C   UNL     1       4.141   0.823  -0.769  1.00  0.00     0.026 A 
ATOM     17  C   UNL     1       5.212  -1.010   0.450  1.00  0.00     0.001 A 
ATOM     18  C   UNL     1       5.304   0.152  -0.350  1.00  0.00     0.002 A 
ATOM     19  H   UNL     1       1.481   1.640  -1.217  1.00  0.00     0.167 HD
ENDBRANCH   4  10
TORSDOF 2


