MODEL 1
REMARK VINA RESULT:      -4.4      0.000      0.000
REMARK SMILES CC(=O)[N@@H+](C)[C@H](C)C(=O)N(c1cn2ccccc2n1)c1cc2ccccc2[n-]1
REMARK SMILES IDX 6 1 7 2 4 3 5 4 2 6 1 7 3 8 8 9 9 10 10 11 11 12 12 13 19 14
REMARK SMILES IDX 13 15 18 16 14 17 17 18 15 19 16 20 20 21 21 22 28 23 22 24
REMARK SMILES IDX 27 25 23 26 26 27 24 28 25 29
REMARK H PARENT 4 5
ROOT
ATOM      1  C   UNL     1      44.159 123.918  22.892  1.00  0.00     0.257 C 
ATOM      2  C   UNL     1      44.720 123.229  24.153  1.00  0.00     0.085 C 
ENDROOT
BRANCH   1   3
ATOM      3  N   UNL     1      42.748 123.516  22.619  1.00  0.00    -0.266 N 
ATOM      4  C   UNL     1      42.081 124.411  21.652  1.00  0.00     0.341 C 
ATOM      5  H   UNL     1      42.757 122.558  22.193  1.00  0.00     0.357 HD
BRANCH   3   6
ATOM      6  C   UNL     1      41.960 123.459  23.842  1.00  0.00     0.309 C 
ATOM      7  C   UNL     1      41.576 124.697  24.610  1.00  0.00     0.164 C 
ATOM      8  O   UNL     1      41.588 122.375  24.268  1.00  0.00    -0.231 OA
ENDBRANCH   3   6
ENDBRANCH   1   3
BRANCH   1   9
ATOM      9  C   UNL     1      44.267 125.424  23.066  1.00  0.00     0.210 C 
ATOM     10  O   UNL     1      43.323 126.049  23.622  1.00  0.00    -0.292 OA
BRANCH   9  11
ATOM     11  N   UNL     1      45.374 126.161  22.510  1.00  0.00    -0.366 N 
BRANCH  11  12
ATOM     12  C   UNL     1      46.638 125.496  22.322  1.00  0.00     0.077 A 
ATOM     13  C   UNL     1      47.793 125.716  23.063  1.00  0.00     0.117 A 
ATOM     14  N   UNL     1      46.855 124.557  21.366  1.00  0.00    -0.233 NA
ATOM     15  N   UNL     1      48.729 124.901  22.560  1.00  0.00    -0.307 N 
ATOM     16  C   UNL     1      48.148 124.224  21.556  1.00  0.00     0.136 A 
ATOM     17  C   UNL     1      50.026 124.733  22.927  1.00  0.00     0.093 A 
ATOM     18  C   UNL     1      48.864 123.284  20.819  1.00  0.00     0.048 A 
ATOM     19  C   UNL     1      50.796 123.799  22.219  1.00  0.00     0.018 A 
ATOM     20  C   UNL     1      50.210 123.074  21.163  1.00  0.00     0.005 A 
ENDBRANCH  11  12
BRANCH  11  21
ATOM     21  C   UNL     1      45.234 127.557  22.186  1.00  0.00    -0.049 A 
ATOM     22  C   UNL     1      44.571 128.491  22.977  1.00  0.00     0.008 A 
ATOM     23  N   UNL     1      45.756 128.112  21.065  1.00  0.00    -0.435 NA
ATOM     24  C   UNL     1      44.704 129.673  22.293  1.00  0.00    -0.023 A 
ATOM     25  C   UNL     1      45.419 129.410  21.153  1.00  0.00    -0.034 A 
ATOM     26  C   UNL     1      44.246 130.953  22.599  1.00  0.00     0.008 A 
ATOM     27  C   UNL     1      45.724 130.415  20.238  1.00  0.00     0.004 A 
ATOM     28  C   UNL     1      44.539 131.987  21.692  1.00  0.00     0.001 A 
ATOM     29  C   UNL     1      45.276 131.720  20.516  1.00  0.00     0.000 A 
ENDBRANCH  11  21
ENDBRANCH   9  11
ENDBRANCH   1   9
TORSDOF 6
ENDMDL
MODEL 2
REMARK VINA RESULT:      -4.1      4.708      6.888
REMARK SMILES CC(=O)[N@@H+](C)[C@H](C)C(=O)N(c1cn2ccccc2n1)c1cc2ccccc2[n-]1
REMARK SMILES IDX 6 1 7 2 4 3 5 4 2 6 1 7 3 8 8 9 9 10 10 11 11 12 12 13 19 14
REMARK SMILES IDX 13 15 18 16 14 17 17 18 15 19 16 20 20 21 21 22 28 23 22 24
REMARK SMILES IDX 27 25 23 26 26 27 24 28 25 29
REMARK H PARENT 4 5
ROOT
ATOM      1  C   UNL     1      43.247 130.814  22.906  1.00  0.00     0.257 C 
ATOM      2  C   UNL     1      42.558 131.924  23.724  1.00  0.00     0.085 C 
ENDROOT
BRANCH   1   3
ATOM      3  N   UNL     1      42.563 129.497  23.067  1.00  0.00    -0.266 N 
ATOM      4  C   UNL     1      41.650 129.471  24.227  1.00  0.00     0.341 C 
ATOM      5  H   UNL     1      41.979 129.325  22.213  1.00  0.00     0.357 HD
BRANCH   3   6
ATOM      6  C   UNL     1      43.521 128.407  23.187  1.00  0.00     0.309 C 
ATOM      7  C   UNL     1      45.002 128.647  23.320  1.00  0.00     0.164 C 
ATOM      8  O   UNL     1      43.120 127.251  23.184  1.00  0.00    -0.231 OA
ENDBRANCH   3   6
ENDBRANCH   1   3
BRANCH   1   9
ATOM      9  C   UNL     1      43.280 131.229  21.443  1.00  0.00     0.210 C 
ATOM     10  O   UNL     1      42.241 131.092  20.741  1.00  0.00    -0.292 OA
BRANCH   9  11
ATOM     11  N   UNL     1      44.503 131.671  20.822  1.00  0.00    -0.366 N 
BRANCH  11  12
ATOM     12  C   UNL     1      44.740 131.361  19.435  1.00  0.00     0.077 A 
ATOM     13  C   UNL     1      45.737 130.526  18.945  1.00  0.00     0.117 A 
ATOM     14  N   UNL     1      44.001 131.871  18.417  1.00  0.00    -0.233 NA
ATOM     15  N   UNL     1      45.606 130.518  17.613  1.00  0.00    -0.307 N 
ATOM     16  C   UNL     1      44.570 131.322  17.325  1.00  0.00     0.136 A 
ATOM     17  C   UNL     1      46.333 129.863  16.670  1.00  0.00     0.093 A 
ATOM     18  C   UNL     1      44.171 131.531  16.006  1.00  0.00     0.048 A 
ATOM     19  C   UNL     1      45.977 130.036  15.324  1.00  0.00     0.018 A 
ATOM     20  C   UNL     1      44.893 130.873  14.996  1.00  0.00     0.005 A 
ENDBRANCH  11  12
BRANCH  11  21
ATOM     21  C   UNL     1      45.498 132.377  21.587  1.00  0.00    -0.049 A 
ATOM     22  C   UNL     1      45.406 132.646  22.950  1.00  0.00     0.008 A 
ATOM     23  N   UNL     1      46.651 132.845  21.048  1.00  0.00    -0.435 NA
ATOM     24  C   UNL     1      46.569 133.311  23.246  1.00  0.00    -0.023 A 
ATOM     25  C   UNL     1      47.291 133.414  22.084  1.00  0.00    -0.034 A 
ATOM     26  C   UNL     1      47.035 133.829  24.453  1.00  0.00     0.008 A 
ATOM     27  C   UNL     1      48.533 134.044  22.053  1.00  0.00     0.004 A 
ATOM     28  C   UNL     1      48.286 134.471  24.450  1.00  0.00     0.001 A 
ATOM     29  C   UNL     1      49.032 134.578  23.256  1.00  0.00     0.000 A 
ENDBRANCH  11  21
ENDBRANCH   9  11
ENDBRANCH   1   9
TORSDOF 6
ENDMDL
MODEL 3
REMARK VINA RESULT:      -4.1      5.399      7.523
REMARK SMILES CC(=O)[N@@H+](C)[C@H](C)C(=O)N(c1cn2ccccc2n1)c1cc2ccccc2[n-]1
REMARK SMILES IDX 6 1 7 2 4 3 5 4 2 6 1 7 3 8 8 9 9 10 10 11 11 12 12 13 19 14
REMARK SMILES IDX 13 15 18 16 14 17 17 18 15 19 16 20 20 21 21 22 28 23 22 24
REMARK SMILES IDX 27 25 23 26 26 27 24 28 25 29
REMARK H PARENT 4 5
ROOT
ATOM      1  C   UNL     1      43.795 130.165  22.291  1.00  0.00     0.257 C 
ATOM      2  C   UNL     1      44.978 129.290  21.834  1.00  0.00     0.085 C 
ENDROOT
BRANCH   1   3
ATOM      3  N   UNL     1      43.862 130.477  23.748  1.00  0.00    -0.266 N 
ATOM      4  C   UNL     1      44.567 129.434  24.519  1.00  0.00     0.341 C 
ATOM      5  H   UNL     1      44.405 131.366  23.868  1.00  0.00     0.357 HD
BRANCH   3   6
ATOM      6  C   UNL     1      42.536 130.678  24.316  1.00  0.00     0.309 C 
ATOM      7  C   UNL     1      41.579 129.538  24.548  1.00  0.00     0.164 C 
ATOM      8  O   UNL     1      42.177 131.806  24.622  1.00  0.00    -0.231 OA
ENDBRANCH   3   6
ENDBRANCH   1   3
BRANCH   1   9
ATOM      9  C   UNL     1      43.780 131.442  21.466  1.00  0.00     0.210 C 
ATOM     10  O   UNL     1      42.718 132.119  21.398  1.00  0.00    -0.292 OA
BRANCH   9  11
ATOM     11  N   UNL     1      44.921 131.832  20.676  1.00  0.00    -0.366 N 
BRANCH  11  12
ATOM     12  C   UNL     1      45.958 132.629  21.282  1.00  0.00     0.077 A 
ATOM     13  C   UNL     1      46.363 132.564  22.610  1.00  0.00     0.117 A 
ATOM     14  N   UNL     1      46.671 133.566  20.610  1.00  0.00    -0.233 NA
ATOM     15  N   UNL     1      47.340 133.469  22.754  1.00  0.00    -0.307 N 
ATOM     16  C   UNL     1      47.504 134.049  21.554  1.00  0.00     0.136 A 
ATOM     17  C   UNL     1      48.066 133.800  23.853  1.00  0.00     0.093 A 
ATOM     18  C   UNL     1      48.457 135.048  21.366  1.00  0.00     0.048 A 
ATOM     19  C   UNL     1      49.040 134.801  23.724  1.00  0.00     0.018 A 
ATOM     20  C   UNL     1      49.234 135.423  22.475  1.00  0.00     0.005 A 
ENDBRANCH  11  12
BRANCH  11  21
ATOM     21  C   UNL     1      45.006 131.468  19.286  1.00  0.00    -0.049 A 
ATOM     22  C   UNL     1      45.928 130.568  18.757  1.00  0.00     0.008 A 
ATOM     23  N   UNL     1      44.172 131.964  18.339  1.00  0.00    -0.435 NA
ATOM     24  C   UNL     1      45.629 130.521  17.419  1.00  0.00    -0.023 A 
ATOM     25  C   UNL     1      44.573 131.369  17.203  1.00  0.00    -0.034 A 
ATOM     26  C   UNL     1      46.214 129.792  16.385  1.00  0.00     0.008 A 
ATOM     27  C   UNL     1      44.030 131.544  15.932  1.00  0.00     0.004 A 
ATOM     28  C   UNL     1      45.685 129.951  15.091  1.00  0.00     0.001 A 
ATOM     29  C   UNL     1      44.597 130.823  14.866  1.00  0.00     0.000 A 
ENDBRANCH  11  21
ENDBRANCH   9  11
ENDBRANCH   1   9
TORSDOF 6
ENDMDL
MODEL 4
REMARK VINA RESULT:      -4.1      4.872      7.509
REMARK SMILES CC(=O)[N@@H+](C)[C@H](C)C(=O)N(c1cn2ccccc2n1)c1cc2ccccc2[n-]1
REMARK SMILES IDX 6 1 7 2 4 3 5 4 2 6 1 7 3 8 8 9 9 10 10 11 11 12 12 13 19 14
REMARK SMILES IDX 13 15 18 16 14 17 17 18 15 19 16 20 20 21 21 22 28 23 22 24
REMARK SMILES IDX 27 25 23 26 26 27 24 28 25 29
REMARK H PARENT 4 5
ROOT
ATOM      1  C   UNL     1      44.315 130.210  22.307  1.00  0.00     0.257 C 
ATOM      2  C   UNL     1      45.323 129.259  21.633  1.00  0.00     0.085 C 
ENDROOT
BRANCH   1   3
ATOM      3  N   UNL     1      43.940 129.746  23.675  1.00  0.00    -0.266 N 
ATOM      4  C   UNL     1      44.495 128.416  23.995  1.00  0.00     0.341 C 
ATOM      5  H   UNL     1      44.342 130.421  24.371  1.00  0.00     0.357 HD
BRANCH   3   6
ATOM      6  C   UNL     1      42.496 129.718  23.855  1.00  0.00     0.309 C 
ATOM      7  C   UNL     1      41.698 128.443  23.766  1.00  0.00     0.164 C 
ATOM      8  O   UNL     1      41.898 130.759  24.091  1.00  0.00    -0.231 OA
ENDBRANCH   3   6
ENDBRANCH   1   3
BRANCH   1   9
ATOM      9  C   UNL     1      44.913 131.607  22.356  1.00  0.00     0.210 C 
ATOM     10  O   UNL     1      44.607 132.374  23.308  1.00  0.00    -0.292 OA
BRANCH   9  11
ATOM     11  N   UNL     1      45.733 132.104  21.280  1.00  0.00    -0.366 N 
BRANCH  11  12
ATOM     12  C   UNL     1      46.791 133.037  21.574  1.00  0.00     0.077 A 
ATOM     13  C   UNL     1      47.763 132.883  22.556  1.00  0.00     0.117 A 
ATOM     14  N   UNL     1      46.959 134.210  20.914  1.00  0.00    -0.233 NA
ATOM     15  N   UNL     1      48.540 133.972  22.495  1.00  0.00    -0.307 N 
ATOM     16  C   UNL     1      48.043 134.743  21.514  1.00  0.00     0.136 A 
ATOM     17  C   UNL     1      49.625 134.310  23.239  1.00  0.00     0.093 A 
ATOM     18  C   UNL     1      48.634 135.964  21.195  1.00  0.00     0.048 A 
ATOM     19  C   UNL     1      50.260 135.530  22.963  1.00  0.00     0.018 A 
ATOM     20  C   UNL     1      49.760 136.355  21.937  1.00  0.00     0.005 A 
ENDBRANCH  11  12
BRANCH  11  21
ATOM     21  C   UNL     1      45.472 131.709  19.920  1.00  0.00    -0.049 A 
ATOM     22  C   UNL     1      46.226 130.781  19.206  1.00  0.00     0.008 A 
ATOM     23  N   UNL     1      44.438 132.199  19.192  1.00  0.00    -0.435 NA
ATOM     24  C   UNL     1      45.610 130.711  17.982  1.00  0.00    -0.023 A 
ATOM     25  C   UNL     1      44.544 131.572  18.008  1.00  0.00    -0.034 A 
ATOM     26  C   UNL     1      45.917 129.949  16.856  1.00  0.00     0.008 A 
ATOM     27  C   UNL     1      43.709 131.730  16.903  1.00  0.00     0.004 A 
ATOM     28  C   UNL     1      45.091 130.089  15.726  1.00  0.00     0.001 A 
ATOM     29  C   UNL     1      43.992 130.976  15.749  1.00  0.00     0.000 A 
ENDBRANCH  11  21
ENDBRANCH   9  11
ENDBRANCH   1   9
TORSDOF 6
ENDMDL
MODEL 5
REMARK VINA RESULT:      -4.0      4.876      7.490
REMARK SMILES CC(=O)[N@@H+](C)[C@H](C)C(=O)N(c1cn2ccccc2n1)c1cc2ccccc2[n-]1
REMARK SMILES IDX 6 1 7 2 4 3 5 4 2 6 1 7 3 8 8 9 9 10 10 11 11 12 12 13 19 14
REMARK SMILES IDX 13 15 18 16 14 17 17 18 15 19 16 20 20 21 21 22 28 23 22 24
REMARK SMILES IDX 27 25 23 26 26 27 24 28 25 29
REMARK H PARENT 4 5
ROOT
ATOM      1  C   UNL     1      44.301 130.202  22.357  1.00  0.00     0.257 C 
ATOM      2  C   UNL     1      45.290 129.293  21.601  1.00  0.00     0.085 C 
ENDROOT
BRANCH   1   3
ATOM      3  N   UNL     1      44.048 129.718  23.746  1.00  0.00    -0.266 N 
ATOM      4  C   UNL     1      44.597 128.368  23.984  1.00  0.00     0.341 C 
ATOM      5  H   UNL     1      44.532 130.367  24.412  1.00  0.00     0.357 HD
BRANCH   3   6
ATOM      6  C   UNL     1      42.628 129.720  24.065  1.00  0.00     0.309 C 
ATOM      7  C   UNL     1      41.916 128.496  24.578  1.00  0.00     0.164 C 
ATOM      8  O   UNL     1      41.980 130.747  23.919  1.00  0.00    -0.231 OA
ENDBRANCH   3   6
ENDBRANCH   1   3
BRANCH   1   9
ATOM      9  C   UNL     1      44.848 131.620  22.372  1.00  0.00     0.210 C 
ATOM     10  O   UNL     1      44.513 132.400  23.304  1.00  0.00    -0.292 OA
BRANCH   9  11
ATOM     11  N   UNL     1      45.652 132.120  21.284  1.00  0.00    -0.366 N 
BRANCH  11  12
ATOM     12  C   UNL     1      46.716 133.050  21.565  1.00  0.00     0.077 A 
ATOM     13  C   UNL     1      46.937 134.257  20.912  1.00  0.00     0.117 A 
ATOM     14  N   UNL     1      47.657 132.843  22.520  1.00  0.00    -0.233 NA
ATOM     15  N   UNL     1      48.023 134.800  21.475  1.00  0.00    -0.307 N 
ATOM     16  C   UNL     1      48.431 133.944  22.427  1.00  0.00     0.136 A 
ATOM     17  C   UNL     1      48.653 135.972  21.200  1.00  0.00     0.093 A 
ATOM     18  C   UNL     1      49.553 134.221  23.205  1.00  0.00     0.048 A 
ATOM     19  C   UNL     1      49.790 136.303  21.953  1.00  0.00     0.018 A 
ATOM     20  C   UNL     1      50.237 135.423  22.958  1.00  0.00     0.005 A 
ENDBRANCH  11  12
BRANCH  11  21
ATOM     21  C   UNL     1      45.369 131.730  19.927  1.00  0.00    -0.049 A 
ATOM     22  C   UNL     1      44.273 132.169  19.189  1.00  0.00     0.008 A 
ATOM     23  N   UNL     1      46.164 130.892  19.217  1.00  0.00    -0.435 NA
ATOM     24  C   UNL     1      44.420 131.563  17.967  1.00  0.00    -0.023 A 
ATOM     25  C   UNL     1      45.562 130.805  18.019  1.00  0.00    -0.034 A 
ATOM     26  C   UNL     1      43.629 131.628  16.822  1.00  0.00     0.008 A 
ATOM     27  C   UNL     1      45.990 130.059  16.922  1.00  0.00     0.004 A 
ATOM     28  C   UNL     1      44.037 130.883  15.701  1.00  0.00     0.001 A 
ATOM     29  C   UNL     1      45.213 130.103  15.750  1.00  0.00     0.000 A 
ENDBRANCH  11  21
ENDBRANCH   9  11
ENDBRANCH   1   9
TORSDOF 6
ENDMDL
MODEL 6
REMARK VINA RESULT:      -3.8      3.444      6.110
REMARK SMILES CC(=O)[N@@H+](C)[C@H](C)C(=O)N(c1cn2ccccc2n1)c1cc2ccccc2[n-]1
REMARK SMILES IDX 6 1 7 2 4 3 5 4 2 6 1 7 3 8 8 9 9 10 10 11 11 12 12 13 19 14
REMARK SMILES IDX 13 15 18 16 14 17 17 18 15 19 16 20 20 21 21 22 28 23 22 24
REMARK SMILES IDX 27 25 23 26 26 27 24 28 25 29
REMARK H PARENT 4 5
ROOT
ATOM      1  C   UNL     1      42.814 131.442  22.323  1.00  0.00     0.257 C 
ATOM      2  C   UNL     1      42.579 131.665  23.831  1.00  0.00     0.085 C 
ENDROOT
BRANCH   1   3
ATOM      3  N   UNL     1      42.211 132.531  21.499  1.00  0.00    -0.266 N 
ATOM      4  C   UNL     1      40.964 133.061  22.085  1.00  0.00     0.341 C 
ATOM      5  H   UNL     1      42.894 133.326  21.458  1.00  0.00     0.357 HD
BRANCH   3   6
ATOM      6  C   UNL     1      41.950 132.089  20.136  1.00  0.00     0.309 C 
ATOM      7  C   UNL     1      41.694 133.058  19.011  1.00  0.00     0.164 C 
ATOM      8  O   UNL     1      41.938 130.893  19.883  1.00  0.00    -0.231 OA
ENDBRANCH   3   6
ENDBRANCH   1   3
BRANCH   1   9
ATOM      9  C   UNL     1      44.309 131.338  22.069  1.00  0.00     0.210 C 
ATOM     10  O   UNL     1      45.071 132.246  22.498  1.00  0.00    -0.292 OA
BRANCH   9  11
ATOM     11  N   UNL     1      44.854 130.280  21.256  1.00  0.00    -0.366 N 
BRANCH  11  12
ATOM     12  C   UNL     1      45.135 129.002  21.859  1.00  0.00     0.077 A 
ATOM     13  C   UNL     1      44.621 128.540  23.065  1.00  0.00     0.117 A 
ATOM     14  N   UNL     1      45.964 128.080  21.308  1.00  0.00    -0.233 NA
ATOM     15  N   UNL     1      45.136 127.318  23.255  1.00  0.00    -0.307 N 
ATOM     16  C   UNL     1      45.928 127.068  22.199  1.00  0.00     0.136 A 
ATOM     17  C   UNL     1      44.952 126.445  24.278  1.00  0.00     0.093 A 
ATOM     18  C   UNL     1      46.621 125.864  22.094  1.00  0.00     0.048 A 
ATOM     19  C   UNL     1      45.626 125.215  24.226  1.00  0.00     0.018 A 
ATOM     20  C   UNL     1      46.461 124.928  23.129  1.00  0.00     0.005 A 
ENDBRANCH  11  12
BRANCH  11  21
ATOM     21  C   UNL     1      45.156 130.508  19.867  1.00  0.00    -0.049 A 
ATOM     22  C   UNL     1      44.916 131.700  19.188  1.00  0.00     0.008 A 
ATOM     23  N   UNL     1      45.730 129.571  19.071  1.00  0.00    -0.435 NA
ATOM     24  C   UNL     1      45.371 131.466  17.915  1.00  0.00    -0.023 A 
ATOM     25  C   UNL     1      45.851 130.182  17.879  1.00  0.00    -0.034 A 
ATOM     26  C   UNL     1      45.394 132.294  16.795  1.00  0.00     0.008 A 
ATOM     27  C   UNL     1      46.388 129.638  16.714  1.00  0.00     0.004 A 
ATOM     28  C   UNL     1      45.930 131.770  15.604  1.00  0.00     0.001 A 
ATOM     29  C   UNL     1      46.426 130.448  15.564  1.00  0.00     0.000 A 
ENDBRANCH  11  21
ENDBRANCH   9  11
ENDBRANCH   1   9
TORSDOF 6
ENDMDL
MODEL 7
REMARK VINA RESULT:      -3.6      4.551      6.777
REMARK SMILES CC(=O)[N@@H+](C)[C@H](C)C(=O)N(c1cn2ccccc2n1)c1cc2ccccc2[n-]1
REMARK SMILES IDX 6 1 7 2 4 3 5 4 2 6 1 7 3 8 8 9 9 10 10 11 11 12 12 13 19 14
REMARK SMILES IDX 13 15 18 16 14 17 17 18 15 19 16 20 20 21 21 22 28 23 22 24
REMARK SMILES IDX 27 25 23 26 26 27 24 28 25 29
REMARK H PARENT 4 5
ROOT
ATOM      1  C   UNL     1      44.147 130.033  22.960  1.00  0.00     0.257 C 
ATOM      2  C   UNL     1      44.237 130.611  24.386  1.00  0.00     0.085 C 
ENDROOT
BRANCH   1   3
ATOM      3  N   UNL     1      43.109 128.967  22.855  1.00  0.00    -0.266 N 
ATOM      4  C   UNL     1      41.859 129.321  23.556  1.00  0.00     0.341 C 
ATOM      5  H   UNL     1      42.867 128.844  21.842  1.00  0.00     0.357 HD
BRANCH   3   6
ATOM      6  C   UNL     1      43.597 127.692  23.361  1.00  0.00     0.309 C 
ATOM      7  C   UNL     1      43.063 127.070  24.625  1.00  0.00     0.164 C 
ATOM      8  O   UNL     1      44.468 127.094  22.746  1.00  0.00    -0.231 OA
ENDBRANCH   3   6
ENDBRANCH   1   3
BRANCH   1   9
ATOM      9  C   UNL     1      43.857 131.166  21.988  1.00  0.00     0.210 C 
ATOM     10  O   UNL     1      42.668 131.563  21.843  1.00  0.00    -0.292 OA
BRANCH   9  11
ATOM     11  N   UNL     1      44.895 131.717  21.155  1.00  0.00    -0.366 N 
BRANCH  11  12
ATOM     12  C   UNL     1      44.917 131.393  19.751  1.00  0.00     0.077 A 
ATOM     13  C   UNL     1      44.029 131.866  18.791  1.00  0.00     0.117 A 
ATOM     14  N   UNL     1      45.826 130.557  19.189  1.00  0.00    -0.233 NA
ATOM     15  N   UNL     1      44.400 131.319  17.627  1.00  0.00    -0.307 N 
ATOM     16  C   UNL     1      45.468 130.548  17.889  1.00  0.00     0.136 A 
ATOM     17  C   UNL     1      43.861 131.458  16.388  1.00  0.00     0.093 A 
ATOM     18  C   UNL     1      46.099 129.831  16.875  1.00  0.00     0.048 A 
ATOM     19  C   UNL     1      44.455 130.758  15.327  1.00  0.00     0.018 A 
ATOM     20  C   UNL     1      45.577 129.944  15.576  1.00  0.00     0.005 A 
ENDBRANCH  11  12
BRANCH  11  21
ATOM     21  C   UNL     1      45.926 132.547  21.723  1.00  0.00    -0.049 A 
ATOM     22  C   UNL     1      46.199 132.651  23.084  1.00  0.00     0.008 A 
ATOM     23  N   UNL     1      46.757 133.312  20.972  1.00  0.00    -0.435 NA
ATOM     24  C   UNL     1      47.253 133.526  23.154  1.00  0.00    -0.023 A 
ATOM     25  C   UNL     1      47.562 133.903  21.872  1.00  0.00    -0.034 A 
ATOM     26  C   UNL     1      47.956 134.011  24.256  1.00  0.00     0.008 A 
ATOM     27  C   UNL     1      48.598 134.794  21.606  1.00  0.00     0.004 A 
ATOM     28  C   UNL     1      49.007 134.914  24.015  1.00  0.00     0.001 A 
ATOM     29  C   UNL     1      49.328 135.304  22.696  1.00  0.00     0.000 A 
ENDBRANCH  11  21
ENDBRANCH   9  11
ENDBRANCH   1   9
TORSDOF 6
ENDMDL
MODEL 8
REMARK VINA RESULT:      -3.6      4.923      7.615
REMARK SMILES CC(=O)[N@@H+](C)[C@H](C)C(=O)N(c1cn2ccccc2n1)c1cc2ccccc2[n-]1
REMARK SMILES IDX 6 1 7 2 4 3 5 4 2 6 1 7 3 8 8 9 9 10 10 11 11 12 12 13 19 14
REMARK SMILES IDX 13 15 18 16 14 17 17 18 15 19 16 20 20 21 21 22 28 23 22 24
REMARK SMILES IDX 27 25 23 26 26 27 24 28 25 29
REMARK H PARENT 4 5
ROOT
ATOM      1  C   UNL     1      44.630 131.320  23.125  1.00  0.00     0.257 C 
ATOM      2  C   UNL     1      43.857 132.329  23.996  1.00  0.00     0.085 C 
ENDROOT
BRANCH   1   3
ATOM      3  N   UNL     1      44.358 129.910  23.530  1.00  0.00    -0.266 N 
ATOM      4  C   UNL     1      44.830 128.931  22.530  1.00  0.00     0.341 C 
ATOM      5  H   UNL     1      44.881 129.717  24.418  1.00  0.00     0.357 HD
BRANCH   3   6
ATOM      6  C   UNL     1      42.941 129.689  23.783  1.00  0.00     0.309 C 
ATOM      7  C   UNL     1      42.227 128.442  23.330  1.00  0.00     0.164 C 
ATOM      8  O   UNL     1      42.298 130.536  24.386  1.00  0.00    -0.231 OA
ENDBRANCH   3   6
ENDBRANCH   1   3
BRANCH   1   9
ATOM      9  C   UNL     1      44.261 131.544  21.668  1.00  0.00     0.210 C 
ATOM     10  O   UNL     1      43.094 131.264  21.279  1.00  0.00    -0.292 OA
BRANCH   9  11
ATOM     11  N   UNL     1      45.248 131.964  20.705  1.00  0.00    -0.366 N 
BRANCH  11  12
ATOM     12  C   UNL     1      46.296 132.862  21.119  1.00  0.00     0.077 A 
ATOM     13  C   UNL     1      46.477 134.165  20.670  1.00  0.00     0.117 A 
ATOM     14  N   UNL     1      47.261 132.525  22.012  1.00  0.00    -0.233 NA
ATOM     15  N   UNL     1      47.562 134.636  21.298  1.00  0.00    -0.307 N 
ATOM     16  C   UNL     1      48.007 133.646  22.089  1.00  0.00     0.136 A 
ATOM     17  C   UNL     1      48.160 135.852  21.210  1.00  0.00     0.093 A 
ATOM     18  C   UNL     1      49.138 133.819  22.885  1.00  0.00     0.048 A 
ATOM     19  C   UNL     1      49.304 136.084  21.989  1.00  0.00     0.018 A 
ATOM     20  C   UNL     1      49.790 135.062  22.828  1.00  0.00     0.005 A 
ENDBRANCH  11  12
BRANCH  11  21
ATOM     21  C   UNL     1      45.164 131.529  19.335  1.00  0.00    -0.049 A 
ATOM     22  C   UNL     1      44.326 132.091  18.375  1.00  0.00     0.008 A 
ATOM     23  N   UNL     1      45.918 130.520  18.832  1.00  0.00    -0.435 NA
ATOM     24  C   UNL     1      44.593 131.380  17.232  1.00  0.00    -0.023 A 
ATOM     25  C   UNL     1      45.550 130.448  17.541  1.00  0.00    -0.034 A 
ATOM     26  C   UNL     1      44.060 131.493  15.950  1.00  0.00     0.008 A 
ATOM     27  C   UNL     1      46.039 129.562  16.583  1.00  0.00     0.004 A 
ATOM     28  C   UNL     1      44.535 130.610  14.963  1.00  0.00     0.001 A 
ATOM     29  C   UNL     1      45.521 129.649  15.278  1.00  0.00     0.000 A 
ENDBRANCH  11  21
ENDBRANCH   9  11
ENDBRANCH   1   9
TORSDOF 6
ENDMDL
MODEL 9
REMARK VINA RESULT:      -3.3      4.995      8.389
REMARK SMILES CC(=O)[N@@H+](C)[C@H](C)C(=O)N(c1cn2ccccc2n1)c1cc2ccccc2[n-]1
REMARK SMILES IDX 6 1 7 2 4 3 5 4 2 6 1 7 3 8 8 9 9 10 10 11 11 12 12 13 19 14
REMARK SMILES IDX 13 15 18 16 14 17 17 18 15 19 16 20 20 21 21 22 28 23 22 24
REMARK SMILES IDX 27 25 23 26 26 27 24 28 25 29
REMARK H PARENT 4 5
ROOT
ATOM      1  C   UNL     1      45.407 131.288  18.111  1.00  0.00     0.257 C 
ATOM      2  C   UNL     1      46.372 130.220  18.664  1.00  0.00     0.085 C 
ENDROOT
BRANCH   1   3
ATOM      3  N   UNL     1      44.617 130.779  16.952  1.00  0.00    -0.266 N 
ATOM      4  C   UNL     1      44.996 129.404  16.568  1.00  0.00     0.341 C 
ATOM      5  H   UNL     1      43.607 130.752  17.231  1.00  0.00     0.357 HD
BRANCH   3   6
ATOM      6  C   UNL     1      44.743 131.651  15.793  1.00  0.00     0.309 C 
ATOM      7  C   UNL     1      46.019 132.382  15.470  1.00  0.00     0.164 C 
ATOM      8  O   UNL     1      43.786 131.802  15.047  1.00  0.00    -0.231 OA
ENDBRANCH   3   6
ENDBRANCH   1   3
BRANCH   1   9
ATOM      9  C   UNL     1      44.487 131.746  19.231  1.00  0.00     0.210 C 
ATOM     10  O   UNL     1      43.351 132.210  18.943  1.00  0.00    -0.292 OA
BRANCH   9  11
ATOM     11  N   UNL     1      44.933 131.762  20.602  1.00  0.00    -0.366 N 
BRANCH  11  12
ATOM     12  C   UNL     1      45.978 132.674  20.992  1.00  0.00     0.077 A 
ATOM     13  C   UNL     1      46.163 133.961  20.499  1.00  0.00     0.117 A 
ATOM     14  N   UNL     1      46.935 132.371  21.904  1.00  0.00    -0.233 NA
ATOM     15  N   UNL     1      47.242 134.455  21.118  1.00  0.00    -0.307 N 
ATOM     16  C   UNL     1      47.681 133.493  21.947  1.00  0.00     0.136 A 
ATOM     17  C   UNL     1      47.840 135.667  20.991  1.00  0.00     0.093 A 
ATOM     18  C   UNL     1      48.805 133.696  22.746  1.00  0.00     0.048 A 
ATOM     19  C   UNL     1      48.977 135.927  21.771  1.00  0.00     0.018 A 
ATOM     20  C   UNL     1      49.457 134.936  22.650  1.00  0.00     0.005 A 
ENDBRANCH  11  12
BRANCH  11  21
ATOM     21  C   UNL     1      44.373 130.848  21.563  1.00  0.00    -0.049 A 
ATOM     22  C   UNL     1      43.190 131.063  22.265  1.00  0.00     0.008 A 
ATOM     23  N   UNL     1      44.947 129.659  21.875  1.00  0.00    -0.435 NA
ATOM     24  C   UNL     1      43.044 129.939  23.039  1.00  0.00    -0.023 A 
ATOM     25  C   UNL     1      44.113 129.120  22.782  1.00  0.00    -0.034 A 
ATOM     26  C   UNL     1      42.047 129.588  23.948  1.00  0.00     0.008 A 
ATOM     27  C   UNL     1      44.257 127.890  23.419  1.00  0.00     0.004 A 
ATOM     28  C   UNL     1      42.168 128.351  24.606  1.00  0.00     0.001 A 
ATOM     29  C   UNL     1      43.267 127.505  24.342  1.00  0.00     0.000 A 
ENDBRANCH  11  21
ENDBRANCH   9  11
ENDBRANCH   1   9
TORSDOF 6
ENDMDL


