REMARK SMILES Cc1cc(NN)c2cc3ccccc3cc2c1
REMARK SMILES IDX 5 1 4 3 2 4 3 5 17 6 16 7 7 8 15 9 8 10 14 11 9 12 13 13
REMARK SMILES IDX 10 14 12 15 11 16 1 17 6 18
REMARK H PARENT 5 2 6 19 6 20
ROOT
ATOM      1  N   UNL     1       2.604   0.668   0.132  1.00  0.00    -0.324 N 
ATOM      2  H   UNL     1       2.947   1.649   0.244  1.00  0.00     0.181 HD
ENDROOT
BRANCH   1   3
ATOM      3  C   UNL     1       1.303   0.499  -0.449  1.00  0.00     0.057 A 
ATOM      4  C   UNL     1      -0.257   1.055  -2.236  1.00  0.00    -0.048 A 
ATOM      5  C   UNL     1       0.983   1.221  -1.606  1.00  0.00     0.031 A 
ATOM      6  C   UNL     1      -1.204   0.187  -1.680  1.00  0.00     0.012 A 
ATOM      7  C   UNL     1      -0.915  -0.526  -0.507  1.00  0.00    -0.015 A 
ATOM      8  C   UNL     1       0.344  -0.368   0.125  1.00  0.00     0.007 A 
ATOM      9  C   UNL     1      -1.878  -1.384   0.046  1.00  0.00     0.017 A 
ATOM     10  C   UNL     1       0.598  -1.054   1.329  1.00  0.00     0.019 A 
ATOM     11  C   UNL     1      -1.611  -2.080   1.233  1.00  0.00    -0.018 A 
ATOM     12  C   UNL     1      -0.365  -1.910   1.881  1.00  0.00    -0.018 A 
ATOM     13  C   UNL     1      -2.572  -2.939   1.789  1.00  0.00     0.009 A 
ATOM     14  C   UNL     1      -0.106  -2.601   3.076  1.00  0.00     0.009 A 
ATOM     15  C   UNL     1      -2.300  -3.622   2.977  1.00  0.00     0.001 A 
ATOM     16  C   UNL     1      -1.071  -3.453   3.619  1.00  0.00     0.001 A 
ATOM     17  C   UNL     1      -0.592   1.853  -3.462  1.00  0.00     0.044 C 
ENDBRANCH   1   3
BRANCH   1  18
ATOM     18  N   UNL     1       3.576  -0.341   0.013  1.00  0.00    -0.250 NA
ATOM     19  H   UNL     1       4.200  -0.264   0.847  1.00  0.00     0.143 HD
ATOM     20  H   UNL     1       3.106  -1.272   0.077  1.00  0.00     0.143 HD
ENDBRANCH   1  18
TORSDOF 2


