REMARK SMILES NN(Cc1cc[nH+]cc1)c1cccc2cc3ccccc3cc12
REMARK SMILES IDX 2 1 1 2 3 5 4 6 5 7 9 8 6 9 8 10 7 11 10 13 11 14 23 15
REMARK SMILES IDX 12 16 22 17 14 18 13 19 21 20 15 21 20 22 16 23 19 24 17 25
REMARK SMILES IDX 18 26
REMARK H PARENT 1 3 1 4 7 12
ROOT
ATOM      1  N   UNL     1      -1.524   0.899   0.269  1.00  0.00    -0.306 N 
ENDROOT
BRANCH   1   2
ATOM      2  N   UNL     1      -2.560   1.805  -0.030  1.00  0.00    -0.247 NA
ATOM      3  H   UNL     1      -2.981   2.118   0.875  1.00  0.00     0.144 HD
ATOM      4  H   UNL     1      -2.130   2.662  -0.447  1.00  0.00     0.144 HD
ENDBRANCH   1   2
BRANCH   1   5
ATOM      5  C   UNL     1      -1.796  -0.208   1.192  1.00  0.00     0.172 C 
BRANCH   5   6
ATOM      6  C   UNL     1      -2.613  -1.268   0.504  1.00  0.00    -0.015 A 
ATOM      7  C   UNL     1      -1.982  -2.304  -0.198  1.00  0.00     0.076 A 
ATOM      8  C   UNL     1      -4.013  -1.194   0.501  1.00  0.00     0.076 A 
ATOM      9  C   UNL     1      -2.757  -3.253  -0.868  1.00  0.00     0.306 A 
ATOM     10  C   UNL     1      -4.751  -2.164  -0.181  1.00  0.00     0.306 A 
ATOM     11  N   UNL     1      -4.115  -3.167  -0.845  1.00  0.00    -0.218 N 
ATOM     12  H   UNL     1      -4.681  -3.884  -1.352  1.00  0.00     0.453 HD
ENDBRANCH   5   6
ENDBRANCH   1   5
BRANCH   1  13
ATOM     13  C   UNL     1      -0.429   0.762  -0.655  1.00  0.00     0.060 A 
ATOM     14  C   UNL     1      -0.704   0.439  -1.992  1.00  0.00     0.028 A 
ATOM     15  C   UNL     1       0.912   0.929  -0.236  1.00  0.00     0.007 A 
ATOM     16  C   UNL     1       0.334   0.254  -2.905  1.00  0.00     0.003 A 
ATOM     17  C   UNL     1       1.229   1.302   1.084  1.00  0.00     0.019 A 
ATOM     18  C   UNL     1       1.962   0.735  -1.171  1.00  0.00    -0.016 A 
ATOM     19  C   UNL     1       1.661   0.395  -2.499  1.00  0.00     0.009 A 
ATOM     20  C   UNL     1       2.565   1.456   1.481  1.00  0.00    -0.018 A 
ATOM     21  C   UNL     1       3.298   0.888  -0.772  1.00  0.00     0.017 A 
ATOM     22  C   UNL     1       2.880   1.820   2.800  1.00  0.00     0.009 A 
ATOM     23  C   UNL     1       3.607   1.244   0.548  1.00  0.00    -0.018 A 
ATOM     24  C   UNL     1       4.214   1.970   3.189  1.00  0.00     0.001 A 
ATOM     25  C   UNL     1       4.943   1.399   0.951  1.00  0.00     0.009 A 
ATOM     26  C   UNL     1       5.242   1.760   2.267  1.00  0.00     0.001 A 
ENDBRANCH   1  13
TORSDOF 4


