REMARK SMILES Nc1cc(F)c[nH]/c1=N\c1cnc2[nH]ccc2c1
REMARK SMILES IDX 8 1 2 2 3 3 4 4 5 5 6 6 7 7 9 9 10 10 11 11 12 12 13 13
REMARK SMILES IDX 18 14 17 15 14 16 16 17 15 18 1 20
REMARK H PARENT 7 8 14 19 1 21 1 22
ROOT
ATOM      1  C   UNL     1      -0.203   0.699  -0.762  1.00  0.00     0.154 A 
ATOM      2  C   UNL     1      -0.833   1.369  -1.834  1.00  0.00     0.078 A 
ATOM      3  C   UNL     1      -1.194   0.641  -2.974  1.00  0.00     0.070 A 
ATOM      4  C   UNL     1      -0.943  -0.728  -3.038  1.00  0.00     0.141 A 
ATOM      5  F   UNL     1      -1.294  -1.437  -4.139  1.00  0.00    -0.205 F 
ATOM      6  C   UNL     1      -0.343  -1.364  -1.954  1.00  0.00     0.123 A 
ATOM      7  N   UNL     1       0.006  -0.654  -0.847  1.00  0.00    -0.342 N 
ATOM      8  H   UNL     1       0.407  -1.192  -0.048  1.00  0.00     0.168 HD
ENDROOT
BRANCH   1   9
ATOM      9  N   UNL     1       0.131   1.379   0.302  1.00  0.00    -0.227 NA
BRANCH   9  10
ATOM     10  C   UNL     1       0.868   0.910   1.440  1.00  0.00     0.085 A 
ATOM     11  C   UNL     1       0.406   1.226   2.741  1.00  0.00     0.142 A 
ATOM     12  N   UNL     1       1.117   0.847   3.846  1.00  0.00    -0.236 NA
ATOM     13  C   UNL     1       2.284   0.178   3.680  1.00  0.00     0.137 A 
ATOM     14  C   UNL     1       2.104   0.243   1.289  1.00  0.00     0.042 A 
ATOM     15  C   UNL     1       2.783  -0.120   2.446  1.00  0.00     0.021 A 
ATOM     16  N   UNL     1       3.099  -0.250   4.655  1.00  0.00    -0.346 N 
ATOM     17  C   UNL     1       3.981  -0.772   2.638  1.00  0.00     0.030 A 
ATOM     18  C   UNL     1       4.142  -0.835   4.021  1.00  0.00     0.085 A 
ATOM     19  H   UNL     1       2.963  -0.148   5.686  1.00  0.00     0.167 HD
ENDBRANCH   9  10
ENDBRANCH   1   9
BRANCH   2  20
ATOM     20  N   UNL     1      -1.097   2.777  -1.783  1.00  0.00    -0.396 N 
ATOM     21  H   UNL     1      -1.560   3.260  -2.585  1.00  0.00     0.156 HD
ATOM     22  H   UNL     1      -0.838   3.354  -0.952  1.00  0.00     0.156 HD
ENDBRANCH   2  20
TORSDOF 3


