MODEL 1
REMARK VINA RESULT:      -4.9      0.000      0.000
REMARK SMILES N#Cc1c[nH+]c(N(c2cc3ccccc3[n-]2)c2cn3ccccc3[nH+]2)c[nH+]1
REMARK SMILES IDX 3 1 4 2 5 3 6 4 26 5 27 6 2 9 1 10 7 11 8 12 9 13 16 14
REMARK SMILES IDX 10 15 15 16 11 17 14 18 12 19 13 20 17 21 18 22 25 23 19 24
REMARK SMILES IDX 24 25 20 26 23 27 21 28 22 29
REMARK H PARENT 5 7 27 8 25 30
ROOT
ATOM      1  C   UNL     1      48.460 124.187  23.030  1.00  0.00     0.321 A 
ATOM      2  C   UNL     1      48.154 125.185  22.100  1.00  0.00     0.289 A 
ATOM      3  N   UNL     1      46.929 125.774  22.125  1.00  0.00    -0.241 N 
ATOM      4  C   UNL     1      45.988 125.408  23.042  1.00  0.00     0.324 A 
ATOM      5  C   UNL     1      46.299 124.406  23.974  1.00  0.00     0.398 A 
ATOM      6  N   UNL     1      47.524 123.819  23.948  1.00  0.00    -0.193 N 
ATOM      7  H   UNL     1      46.720 126.529  21.433  1.00  0.00     0.311 HD
ATOM      8  H   UNL     1      47.741 123.072  24.647  1.00  0.00     0.455 HD
ENDROOT
BRANCH   1   9
ATOM      9  C   UNL     1      49.754 123.555  23.015  1.00  0.00     0.174 C 
ATOM     10  N   UNL     1      50.793 123.047  23.004  1.00  0.00    -0.186 NA
ENDBRANCH   1   9
BRANCH   4  11
ATOM     11  N   UNL     1      44.692 126.038  23.049  1.00  0.00    -0.187 N 
BRANCH  11  12
ATOM     12  C   UNL     1      43.501 125.232  23.148  1.00  0.00     0.100 A 
ATOM     13  C   UNL     1      43.261 124.072  22.413  1.00  0.00     0.048 A 
ATOM     14  N   UNL     1      42.470 125.532  23.979  1.00  0.00    -0.403 NA
ATOM     15  C   UNL     1      42.021 123.654  22.826  1.00  0.00    -0.019 A 
ATOM     16  C   UNL     1      41.577 124.550  23.763  1.00  0.00    -0.032 A 
ATOM     17  C   UNL     1      41.263 122.550  22.441  1.00  0.00     0.008 A 
ATOM     18  C   UNL     1      40.336 124.400  24.381  1.00  0.00     0.004 A 
ATOM     19  C   UNL     1      40.006 122.375  23.048  1.00  0.00     0.001 A 
ATOM     20  C   UNL     1      39.544 123.297  24.014  1.00  0.00     0.000 A 
ENDBRANCH  11  12
BRANCH  11  21
ATOM     21  C   UNL     1      44.594 127.470  22.926  1.00  0.00     0.266 A 
ATOM     22  C   UNL     1      45.154 128.248  21.917  1.00  0.00     0.248 A 
ATOM     23  N   UNL     1      43.899 128.259  23.781  1.00  0.00    -0.243 N 
ATOM     24  N   UNL     1      44.799 129.520  22.165  1.00  0.00    -0.233 N 
ATOM     25  C   UNL     1      44.052 129.500  23.283  1.00  0.00     0.230 A 
ATOM     26  C   UNL     1      45.087 130.653  21.477  1.00  0.00     0.168 A 
ATOM     27  C   UNL     1      43.520 130.676  23.811  1.00  0.00     0.081 A 
ATOM     28  C   UNL     1      44.578 131.868  21.962  1.00  0.00     0.035 A 
ATOM     29  C   UNL     1      43.795 131.875  23.133  1.00  0.00     0.010 A 
ATOM     30  H   UNL     1      43.372 127.975  24.636  1.00  0.00     0.267 HD
ENDBRANCH  11  21
ENDBRANCH   4  11
TORSDOF 4
ENDMDL
MODEL 2
REMARK VINA RESULT:      -4.6      1.487      7.179
REMARK SMILES N#Cc1c[nH+]c(N(c2cc3ccccc3[n-]2)c2cn3ccccc3[nH+]2)c[nH+]1
REMARK SMILES IDX 3 1 4 2 5 3 6 4 26 5 27 6 2 9 1 10 7 11 8 12 9 13 16 14
REMARK SMILES IDX 10 15 15 16 11 17 14 18 12 19 13 20 17 21 18 22 25 23 19 24
REMARK SMILES IDX 24 25 20 26 23 27 21 28 22 29
REMARK H PARENT 5 7 27 8 25 30
ROOT
ATOM      1  C   UNL     1      41.385 124.061  22.761  1.00  0.00     0.321 A 
ATOM      2  C   UNL     1      41.596 125.118  23.651  1.00  0.00     0.289 A 
ATOM      3  N   UNL     1      42.763 125.815  23.602  1.00  0.00    -0.241 N 
ATOM      4  C   UNL     1      43.736 125.501  22.698  1.00  0.00     0.324 A 
ATOM      5  C   UNL     1      43.519 124.439  21.807  1.00  0.00     0.398 A 
ATOM      6  N   UNL     1      42.352 123.744  21.857  1.00  0.00    -0.193 N 
ATOM      7  H   UNL     1      42.901 126.611  24.263  1.00  0.00     0.311 HD
ATOM      8  H   UNL     1      42.205 122.954  21.187  1.00  0.00     0.455 HD
ENDROOT
BRANCH   1   9
ATOM      9  C   UNL     1      40.153 123.315  22.802  1.00  0.00     0.174 C 
ATOM     10  N   UNL     1      39.164 122.716  22.835  1.00  0.00    -0.186 NA
ENDBRANCH   1   9
BRANCH   4  11
ATOM     11  N   UNL     1      44.969 126.245  22.666  1.00  0.00    -0.187 N 
BRANCH  11  12
ATOM     12  C   UNL     1      44.954 127.647  22.326  1.00  0.00     0.100 A 
ATOM     13  C   UNL     1      44.270 128.631  23.038  1.00  0.00     0.048 A 
ATOM     14  N   UNL     1      45.612 128.157  21.254  1.00  0.00    -0.403 NA
ATOM     15  C   UNL     1      44.532 129.792  22.357  1.00  0.00    -0.019 A 
ATOM     16  C   UNL     1      45.338 129.472  21.296  1.00  0.00    -0.032 A 
ATOM     17  C   UNL     1      44.117 131.100  22.602  1.00  0.00     0.008 A 
ATOM     18  C   UNL     1      45.786 130.446  20.403  1.00  0.00     0.004 A 
ATOM     19  C   UNL     1      44.554 132.103  21.717  1.00  0.00     0.001 A 
ATOM     20  C   UNL     1      45.385 131.776  20.622  1.00  0.00     0.000 A 
ENDBRANCH  11  12
BRANCH  11  21
ATOM     21  C   UNL     1      46.214 125.577  22.945  1.00  0.00     0.266 A 
ATOM     22  C   UNL     1      46.748 124.507  22.235  1.00  0.00     0.248 A 
ATOM     23  N   UNL     1      47.060 125.936  23.940  1.00  0.00    -0.243 N 
ATOM     24  N   UNL     1      47.927 124.210  22.807  1.00  0.00    -0.233 N 
ATOM     25  C   UNL     1      48.090 125.077  23.823  1.00  0.00     0.230 A 
ATOM     26  C   UNL     1      48.834 123.254  22.487  1.00  0.00     0.168 A 
ATOM     27  C   UNL     1      49.230 125.035  24.625  1.00  0.00     0.081 A 
ATOM     28  C   UNL     1      50.001 123.165  23.260  1.00  0.00     0.035 A 
ATOM     29  C   UNL     1      50.196 124.058  24.332  1.00  0.00     0.010 A 
ATOM     30  H   UNL     1      46.942 126.697  24.644  1.00  0.00     0.267 HD
ENDBRANCH  11  21
ENDBRANCH   4  11
TORSDOF 4
ENDMDL
MODEL 3
REMARK VINA RESULT:      -4.2      1.962      5.795
REMARK SMILES N#Cc1c[nH+]c(N(c2cc3ccccc3[n-]2)c2cn3ccccc3[nH+]2)c[nH+]1
REMARK SMILES IDX 3 1 4 2 5 3 6 4 26 5 27 6 2 9 1 10 7 11 8 12 9 13 16 14
REMARK SMILES IDX 10 15 15 16 11 17 14 18 12 19 13 20 17 21 18 22 25 23 19 24
REMARK SMILES IDX 24 25 20 26 23 27 21 28 22 29
REMARK H PARENT 5 7 27 8 25 30
ROOT
ATOM      1  C   UNL     1      40.309 123.962  23.802  1.00  0.00     0.321 A 
ATOM      2  C   UNL     1      41.460 123.549  23.125  1.00  0.00     0.289 A 
ATOM      3  N   UNL     1      42.557 124.353  23.112  1.00  0.00    -0.241 N 
ATOM      4  C   UNL     1      42.555 125.560  23.749  1.00  0.00     0.324 A 
ATOM      5  C   UNL     1      41.398 125.970  24.428  1.00  0.00     0.398 A 
ATOM      6  N   UNL     1      40.303 125.165  24.440  1.00  0.00    -0.193 N 
ATOM      7  H   UNL     1      43.414 124.024  22.615  1.00  0.00     0.311 HD
ATOM      8  H   UNL     1      39.446 125.484  24.948  1.00  0.00     0.455 HD
ENDROOT
BRANCH   1   9
ATOM      9  C   UNL     1      39.140 123.120  23.825  1.00  0.00     0.174 C 
ATOM     10  N   UNL     1      38.201 122.444  23.842  1.00  0.00    -0.186 NA
ENDBRANCH   1   9
BRANCH   4  11
ATOM     11  N   UNL     1      43.724 126.401  23.718  1.00  0.00    -0.187 N 
BRANCH  11  12
ATOM     12  C   UNL     1      45.029 125.814  23.541  1.00  0.00     0.100 A 
ATOM     13  C   UNL     1      45.654 125.618  22.311  1.00  0.00     0.048 A 
ATOM     14  N   UNL     1      45.792 125.378  24.576  1.00  0.00    -0.403 NA
ATOM     15  C   UNL     1      46.855 125.033  22.624  1.00  0.00    -0.019 A 
ATOM     16  C   UNL     1      46.905 124.905  23.988  1.00  0.00    -0.032 A 
ATOM     17  C   UNL     1      47.899 124.611  21.803  1.00  0.00     0.008 A 
ATOM     18  C   UNL     1      48.010 124.342  24.625  1.00  0.00     0.004 A 
ATOM     19  C   UNL     1      49.027 124.039  22.420  1.00  0.00     0.001 A 
ATOM     20  C   UNL     1      49.082 123.905  23.825  1.00  0.00     0.000 A 
ENDBRANCH  11  12
BRANCH  11  21
ATOM     21  C   UNL     1      43.584 127.824  23.893  1.00  0.00     0.266 A 
ATOM     22  C   UNL     1      44.581 128.703  24.304  1.00  0.00     0.248 A 
ATOM     23  N   UNL     1      42.443 128.510  23.641  1.00  0.00    -0.243 N 
ATOM     24  N   UNL     1      44.039 129.932  24.306  1.00  0.00    -0.233 N 
ATOM     25  C   UNL     1      42.761 129.790  23.908  1.00  0.00     0.230 A 
ATOM     26  C   UNL     1      44.594 131.128  24.625  1.00  0.00     0.168 A 
ATOM     27  C   UNL     1      41.917 130.894  23.801  1.00  0.00     0.081 A 
ATOM     28  C   UNL     1      43.791 132.275  24.536  1.00  0.00     0.035 A 
ATOM     29  C   UNL     1      42.449 132.154  24.124  1.00  0.00     0.010 A 
ATOM     30  H   UNL     1      41.522 128.135  23.323  1.00  0.00     0.267 HD
ENDBRANCH  11  21
ENDBRANCH   4  11
TORSDOF 4
ENDMDL
MODEL 4
REMARK VINA RESULT:      -3.5      5.005      8.512
REMARK SMILES N#Cc1c[nH+]c(N(c2cc3ccccc3[n-]2)c2cn3ccccc3[nH+]2)c[nH+]1
REMARK SMILES IDX 3 1 4 2 5 3 6 4 26 5 27 6 2 9 1 10 7 11 8 12 9 13 16 14
REMARK SMILES IDX 10 15 15 16 11 17 14 18 12 19 13 20 17 21 18 22 25 23 19 24
REMARK SMILES IDX 24 25 20 26 23 27 21 28 22 29
REMARK H PARENT 5 7 27 8 25 30
ROOT
ATOM      1  C   UNL     1      42.770 129.921  23.001  1.00  0.00     0.321 A 
ATOM      2  C   UNL     1      44.054 129.406  22.800  1.00  0.00     0.289 A 
ATOM      3  N   UNL     1      44.905 130.036  21.947  1.00  0.00    -0.241 N 
ATOM      4  C   UNL     1      44.530 131.166  21.281  1.00  0.00     0.324 A 
ATOM      5  C   UNL     1      43.240 131.680  21.486  1.00  0.00     0.398 A 
ATOM      6  N   UNL     1      42.391 131.049  22.339  1.00  0.00    -0.193 N 
ATOM      7  H   UNL     1      45.866 129.647  21.818  1.00  0.00     0.311 HD
ATOM      8  H   UNL     1      41.432 131.442  22.480  1.00  0.00     0.455 HD
ENDROOT
BRANCH   1   9
ATOM      9  C   UNL     1      41.858 129.264  23.901  1.00  0.00     0.174 C 
ATOM     10  N   UNL     1      41.126 128.736  24.624  1.00  0.00    -0.186 NA
ENDBRANCH   1   9
BRANCH   4  11
ATOM     11  N   UNL     1      45.443 131.816  20.375  1.00  0.00    -0.187 N 
BRANCH  11  12
ATOM     12  C   UNL     1      45.415 131.492  18.971  1.00  0.00     0.100 A 
ATOM     13  C   UNL     1      44.599 132.113  18.027  1.00  0.00     0.048 A 
ATOM     14  N   UNL     1      46.192 130.526  18.418  1.00  0.00    -0.403 NA
ATOM     15  C   UNL     1      44.903 131.486  16.845  1.00  0.00    -0.019 A 
ATOM     16  C   UNL     1      45.860 130.543  17.115  1.00  0.00    -0.032 A 
ATOM     17  C   UNL     1      44.404 131.685  15.559  1.00  0.00     0.008 A 
ATOM     18  C   UNL     1      46.385 129.731  16.109  1.00  0.00     0.004 A 
ATOM     19  C   UNL     1      44.915 130.879  14.525  1.00  0.00     0.001 A 
ATOM     20  C   UNL     1      45.902 129.906  14.800  1.00  0.00     0.000 A 
ENDBRANCH  11  12
BRANCH  11  21
ATOM     21  C   UNL     1      46.398 132.765  20.886  1.00  0.00     0.266 A 
ATOM     22  C   UNL     1      47.381 132.511  21.837  1.00  0.00     0.248 A 
ATOM     23  N   UNL     1      46.486 134.052  20.468  1.00  0.00    -0.243 N 
ATOM     24  N   UNL     1      48.067 133.654  22.003  1.00  0.00    -0.233 N 
ATOM     25  C   UNL     1      47.513 134.559  21.175  1.00  0.00     0.230 A 
ATOM     26  C   UNL     1      49.121 133.927  22.812  1.00  0.00     0.168 A 
ATOM     27  C   UNL     1      48.004 135.861  21.106  1.00  0.00     0.081 A 
ATOM     28  C   UNL     1      49.657 135.224  22.784  1.00  0.00     0.035 A 
ATOM     29  C   UNL     1      49.094 136.191  21.929  1.00  0.00     0.010 A 
ATOM     30  H   UNL     1      45.890 134.544  19.767  1.00  0.00     0.267 HD
ENDBRANCH  11  21
ENDBRANCH   4  11
TORSDOF 4
ENDMDL
MODEL 5
REMARK VINA RESULT:      -3.2      5.068      9.484
REMARK SMILES N#Cc1c[nH+]c(N(c2cc3ccccc3[n-]2)c2cn3ccccc3[nH+]2)c[nH+]1
REMARK SMILES IDX 3 1 4 2 5 3 6 4 26 5 27 6 2 9 1 10 7 11 8 12 9 13 16 14
REMARK SMILES IDX 10 15 15 16 11 17 14 18 12 19 13 20 17 21 18 22 25 23 19 24
REMARK SMILES IDX 24 25 20 26 23 27 21 28 22 29
REMARK H PARENT 5 7 27 8 25 30
ROOT
ATOM      1  C   UNL     1      42.751 129.896  23.001  1.00  0.00     0.321 A 
ATOM      2  C   UNL     1      44.116 129.604  23.075  1.00  0.00     0.289 A 
ATOM      3  N   UNL     1      44.981 130.211  22.219  1.00  0.00    -0.241 N 
ATOM      4  C   UNL     1      44.541 131.103  21.285  1.00  0.00     0.324 A 
ATOM      5  C   UNL     1      43.170 131.393  21.215  1.00  0.00     0.398 A 
ATOM      6  N   UNL     1      42.307 130.786  22.071  1.00  0.00    -0.193 N 
ATOM      7  H   UNL     1      45.999 129.993  22.296  1.00  0.00     0.311 HD
ATOM      8  H   UNL     1      41.288 131.011  22.006  1.00  0.00     0.455 HD
ENDROOT
BRANCH   1   9
ATOM      9  C   UNL     1      41.824 129.261  23.902  1.00  0.00     0.174 C 
ATOM     10  N   UNL     1      41.079 128.751  24.625  1.00  0.00    -0.186 NA
ENDBRANCH   1   9
BRANCH   4  11
ATOM     11  N   UNL     1      45.471 131.731  20.382  1.00  0.00    -0.187 N 
BRANCH  11  12
ATOM     12  C   UNL     1      46.436 132.676  20.886  1.00  0.00     0.100 A 
ATOM     13  C   UNL     1      46.551 133.999  20.461  1.00  0.00     0.048 A 
ATOM     14  N   UNL     1      47.352 132.364  21.838  1.00  0.00    -0.403 NA
ATOM     15  C   UNL     1      47.590 134.507  21.198  1.00  0.00    -0.019 A 
ATOM     16  C   UNL     1      48.046 133.503  22.013  1.00  0.00    -0.032 A 
ATOM     17  C   UNL     1      48.158 135.779  21.207  1.00  0.00     0.008 A 
ATOM     18  C   UNL     1      49.107 133.706  22.894  1.00  0.00     0.004 A 
ATOM     19  C   UNL     1      49.231 136.012  22.086  1.00  0.00     0.001 A 
ATOM     20  C   UNL     1      49.704 134.979  22.926  1.00  0.00     0.000 A 
ENDBRANCH  11  12
BRANCH  11  21
ATOM     21  C   UNL     1      45.412 131.430  18.974  1.00  0.00     0.266 A 
ATOM     22  C   UNL     1      44.483 131.930  18.067  1.00  0.00     0.248 A 
ATOM     23  N   UNL     1      46.296 130.629  18.332  1.00  0.00    -0.243 N 
ATOM     24  N   UNL     1      44.803 131.423  16.864  1.00  0.00    -0.233 N 
ATOM     25  C   UNL     1      45.888 130.649  17.049  1.00  0.00     0.230 A 
ATOM     26  C   UNL     1      44.213 131.607  15.657  1.00  0.00     0.168 A 
ATOM     27  C   UNL     1      46.477 129.974  15.982  1.00  0.00     0.081 A 
ATOM     28  C   UNL     1      44.763 130.951  14.545  1.00  0.00     0.035 A 
ATOM     29  C   UNL     1      45.897 130.132  14.712  1.00  0.00     0.010 A 
ATOM     30  H   UNL     1      47.104 130.106  18.736  1.00  0.00     0.267 HD
ENDBRANCH  11  21
ENDBRANCH   4  11
TORSDOF 4
ENDMDL
MODEL 6
REMARK VINA RESULT:      -3.1      5.012      7.574
REMARK SMILES N#Cc1c[nH+]c(N(c2cc3ccccc3[n-]2)c2cn3ccccc3[nH+]2)c[nH+]1
REMARK SMILES IDX 3 1 4 2 5 3 6 4 26 5 27 6 2 9 1 10 7 11 8 12 9 13 16 14
REMARK SMILES IDX 10 15 15 16 11 17 14 18 12 19 13 20 17 21 18 22 25 23 19 24
REMARK SMILES IDX 24 25 20 26 23 27 21 28 22 29
REMARK H PARENT 5 7 27 8 25 30
ROOT
ATOM      1  C   UNL     1      48.362 134.372  21.874  1.00  0.00     0.321 A 
ATOM      2  C   UNL     1      47.080 134.804  21.522  1.00  0.00     0.289 A 
ATOM      3  N   UNL     1      46.154 133.897  21.110  1.00  0.00    -0.241 N 
ATOM      4  C   UNL     1      46.453 132.568  21.033  1.00  0.00     0.324 A 
ATOM      5  C   UNL     1      47.741 132.139  21.387  1.00  0.00     0.398 A 
ATOM      6  N   UNL     1      48.665 133.046  21.799  1.00  0.00    -0.193 N 
ATOM      7  H   UNL     1      45.196 134.233  20.865  1.00  0.00     0.311 HD
ATOM      8  H   UNL     1      49.622 132.712  22.058  1.00  0.00     0.455 HD
ENDROOT
BRANCH   1   9
ATOM      9  C   UNL     1      49.352 135.322  22.312  1.00  0.00     0.174 C 
ATOM     10  N   UNL     1      50.147 136.084  22.663  1.00  0.00    -0.186 NA
ENDBRANCH   1   9
BRANCH   4  11
ATOM     11  N   UNL     1      45.462 131.622  20.588  1.00  0.00    -0.187 N 
BRANCH  11  12
ATOM     12  C   UNL     1      44.670 130.901  21.554  1.00  0.00     0.100 A 
ATOM     13  C   UNL     1      44.869 129.569  21.910  1.00  0.00     0.048 A 
ATOM     14  N   UNL     1      43.627 131.458  22.221  1.00  0.00    -0.403 NA
ATOM     15  C   UNL     1      43.894 129.313  22.841  1.00  0.00    -0.019 A 
ATOM     16  C   UNL     1      43.169 130.465  23.003  1.00  0.00    -0.032 A 
ATOM     17  C   UNL     1      43.602 128.150  23.551  1.00  0.00     0.008 A 
ATOM     18  C   UNL     1      42.097 130.530  23.892  1.00  0.00     0.004 A 
ATOM     19  C   UNL     1      42.524 128.187  24.454  1.00  0.00     0.001 A 
ATOM     20  C   UNL     1      41.774 129.373  24.624  1.00  0.00     0.000 A 
ENDBRANCH  11  12
BRANCH  11  21
ATOM     21  C   UNL     1      45.288 131.381  19.178  1.00  0.00     0.266 A 
ATOM     22  C   UNL     1      46.010 130.479  18.404  1.00  0.00     0.248 A 
ATOM     23  N   UNL     1      44.352 131.995  18.414  1.00  0.00    -0.243 N 
ATOM     24  N   UNL     1      45.512 130.549  17.158  1.00  0.00    -0.233 N 
ATOM     25  C   UNL     1      44.523 131.462  17.190  1.00  0.00     0.230 A 
ATOM     26  C   UNL     1      45.867 129.871  16.039  1.00  0.00     0.168 A 
ATOM     27  C   UNL     1      43.794 131.769  16.043  1.00  0.00     0.081 A 
ATOM     28  C   UNL     1      45.167 130.139  14.853  1.00  0.00     0.035 A 
ATOM     29  C   UNL     1      44.130 131.092  14.858  1.00  0.00     0.010 A 
ATOM     30  H   UNL     1      43.660 132.721  18.702  1.00  0.00     0.267 HD
ENDBRANCH  11  21
ENDBRANCH   4  11
TORSDOF 4
ENDMDL
MODEL 7
REMARK VINA RESULT:      -2.9      1.508      7.291
REMARK SMILES N#Cc1c[nH+]c(N(c2cc3ccccc3[n-]2)c2cn3ccccc3[nH+]2)c[nH+]1
REMARK SMILES IDX 3 1 4 2 5 3 6 4 26 5 27 6 2 9 1 10 7 11 8 12 9 13 16 14
REMARK SMILES IDX 10 15 15 16 11 17 14 18 12 19 13 20 17 21 18 22 25 23 19 24
REMARK SMILES IDX 24 25 20 26 23 27 21 28 22 29
REMARK H PARENT 5 7 27 8 25 30
ROOT
ATOM      1  C   UNL     1      41.181 125.037  23.960  1.00  0.00     0.321 A 
ATOM      2  C   UNL     1      42.334 124.271  24.152  1.00  0.00     0.289 A 
ATOM      3  N   UNL     1      43.553 124.813  23.890  1.00  0.00    -0.241 N 
ATOM      4  C   UNL     1      43.673 126.096  23.441  1.00  0.00     0.324 A 
ATOM      5  C   UNL     1      42.514 126.862  23.250  1.00  0.00     0.398 A 
ATOM      6  N   UNL     1      41.296 126.318  23.512  1.00  0.00    -0.193 N 
ATOM      7  H   UNL     1      44.406 124.233  24.053  1.00  0.00     0.311 HD
ATOM      8  H   UNL     1      40.440 126.900  23.363  1.00  0.00     0.455 HD
ENDROOT
BRANCH   1   9
ATOM      9  C   UNL     1      39.883 124.475  24.233  1.00  0.00     0.174 C 
ATOM     10  N   UNL     1      38.841 124.024  24.452  1.00  0.00    -0.186 NA
ENDBRANCH   1   9
BRANCH   4  11
ATOM     11  N   UNL     1      44.974 126.651  23.162  1.00  0.00    -0.187 N 
BRANCH  11  12
ATOM     12  C   UNL     1      45.083 127.955  22.558  1.00  0.00     0.100 A 
ATOM     13  C   UNL     1      45.708 128.217  21.339  1.00  0.00     0.048 A 
ATOM     14  N   UNL     1      44.586 129.081  23.129  1.00  0.00    -0.403 NA
ATOM     15  C   UNL     1      45.578 129.573  21.171  1.00  0.00    -0.019 A 
ATOM     16  C   UNL     1      44.900 130.058  22.260  1.00  0.00    -0.032 A 
ATOM     17  C   UNL     1      46.006 130.403  20.137  1.00  0.00     0.008 A 
ATOM     18  C   UNL     1      44.606 131.415  22.387  1.00  0.00     0.004 A 
ATOM     19  C   UNL     1      45.722 131.777  20.240  1.00  0.00     0.001 A 
ATOM     20  C   UNL     1      45.025 132.281  21.361  1.00  0.00     0.000 A 
ENDBRANCH  11  12
BRANCH  11  21
ATOM     21  C   UNL     1      46.156 125.886  23.464  1.00  0.00     0.266 A 
ATOM     22  C   UNL     1      46.352 124.536  23.191  1.00  0.00     0.248 A 
ATOM     23  N   UNL     1      47.270 126.404  24.035  1.00  0.00    -0.243 N 
ATOM     24  N   UNL     1      47.593 124.231  23.606  1.00  0.00    -0.233 N 
ATOM     25  C   UNL     1      48.120 125.363  24.106  1.00  0.00     0.230 A 
ATOM     26  C   UNL     1      48.260 123.052  23.561  1.00  0.00     0.168 A 
ATOM     27  C   UNL     1      49.414 125.384  24.623  1.00  0.00     0.081 A 
ATOM     28  C   UNL     1      49.569 123.012  24.067  1.00  0.00     0.035 A 
ATOM     29  C   UNL     1      50.143 124.183  24.600  1.00  0.00     0.010 A 
ATOM     30  H   UNL     1      47.433 127.384  24.357  1.00  0.00     0.267 HD
ENDBRANCH  11  21
ENDBRANCH   4  11
TORSDOF 4
ENDMDL
MODEL 8
REMARK VINA RESULT:      -2.8      4.460      7.595
REMARK SMILES N#Cc1c[nH+]c(N(c2cc3ccccc3[n-]2)c2cn3ccccc3[nH+]2)c[nH+]1
REMARK SMILES IDX 3 1 4 2 5 3 6 4 26 5 27 6 2 9 1 10 7 11 8 12 9 13 16 14
REMARK SMILES IDX 10 15 15 16 11 17 14 18 12 19 13 20 17 21 18 22 25 23 19 24
REMARK SMILES IDX 24 25 20 26 23 27 21 28 22 29
REMARK H PARENT 5 7 27 8 25 30
ROOT
ATOM      1  C   UNL     1      48.408 134.306  21.960  1.00  0.00     0.321 A 
ATOM      2  C   UNL     1      48.757 132.972  21.727  1.00  0.00     0.289 A 
ATOM      3  N   UNL     1      47.813 132.097  21.291  1.00  0.00    -0.241 N 
ATOM      4  C   UNL     1      46.525 132.495  21.076  1.00  0.00     0.324 A 
ATOM      5  C   UNL     1      46.179 133.834  21.311  1.00  0.00     0.398 A 
ATOM      6  N   UNL     1      47.125 134.708  21.747  1.00  0.00    -0.193 N 
ATOM      7  H   UNL     1      48.092 131.107  21.107  1.00  0.00     0.311 HD
ATOM      8  H   UNL     1      46.852 135.703  21.919  1.00  0.00     0.455 HD
ENDROOT
BRANCH   1   9
ATOM      9  C   UNL     1      49.398 135.244  22.421  1.00  0.00     0.174 C 
ATOM     10  N   UNL     1      50.194 135.998  22.792  1.00  0.00    -0.186 NA
ENDBRANCH   1   9
BRANCH   4  11
ATOM     11  N   UNL     1      45.536 131.551  20.622  1.00  0.00    -0.187 N 
BRANCH  11  12
ATOM     12  C   UNL     1      44.729 130.838  21.580  1.00  0.00     0.100 A 
ATOM     13  C   UNL     1      43.609 131.361  22.223  1.00  0.00     0.048 A 
ATOM     14  N   UNL     1      44.989 129.562  21.964  1.00  0.00    -0.403 NA
ATOM     15  C   UNL     1      43.173 130.345  23.036  1.00  0.00    -0.019 A 
ATOM     16  C   UNL     1      44.022 129.283  22.856  1.00  0.00    -0.032 A 
ATOM     17  C   UNL     1      42.093 130.287  23.914  1.00  0.00     0.008 A 
ATOM     18  C   UNL     1      43.844 128.085  23.547  1.00  0.00     0.004 A 
ATOM     19  C   UNL     1      41.890 129.090  24.625  1.00  0.00     0.001 A 
ATOM     20  C   UNL     1      42.763 127.994  24.442  1.00  0.00     0.000 A 
ENDBRANCH  11  12
BRANCH  11  21
ATOM     21  C   UNL     1      45.381 131.305  19.211  1.00  0.00     0.266 A 
ATOM     22  C   UNL     1      46.087 130.373  18.458  1.00  0.00     0.248 A 
ATOM     23  N   UNL     1      44.480 131.942  18.425  1.00  0.00    -0.243 N 
ATOM     24  N   UNL     1      45.615 130.449  17.202  1.00  0.00    -0.233 N 
ATOM     25  C   UNL     1      44.657 131.394  17.208  1.00  0.00     0.230 A 
ATOM     26  C   UNL     1      45.968 129.750  16.095  1.00  0.00     0.168 A 
ATOM     27  C   UNL     1      43.959 131.715  16.045  1.00  0.00     0.081 A 
ATOM     28  C   UNL     1      45.300 130.032  14.894  1.00  0.00     0.035 A 
ATOM     29  C   UNL     1      44.295 131.018  14.872  1.00  0.00     0.010 A 
ATOM     30  H   UNL     1      43.807 132.693  18.694  1.00  0.00     0.267 HD
ENDBRANCH  11  21
ENDBRANCH   4  11
TORSDOF 4
ENDMDL
MODEL 9
REMARK VINA RESULT:      -2.8      4.637      8.517
REMARK SMILES N#Cc1c[nH+]c(N(c2cc3ccccc3[n-]2)c2cn3ccccc3[nH+]2)c[nH+]1
REMARK SMILES IDX 3 1 4 2 5 3 6 4 26 5 27 6 2 9 1 10 7 11 8 12 9 13 16 14
REMARK SMILES IDX 10 15 15 16 11 17 14 18 12 19 13 20 17 21 18 22 25 23 19 24
REMARK SMILES IDX 24 25 20 26 23 27 21 28 22 29
REMARK H PARENT 5 7 27 8 25 30
ROOT
ATOM      1  C   UNL     1      48.429 134.543  21.847  1.00  0.00     0.321 A 
ATOM      2  C   UNL     1      48.696 133.180  22.003  1.00  0.00     0.289 A 
ATOM      3  N   UNL     1      47.789 132.263  21.571  1.00  0.00    -0.241 N 
ATOM      4  C   UNL     1      46.619 132.649  20.986  1.00  0.00     0.324 A 
ATOM      5  C   UNL     1      46.355 134.018  20.831  1.00  0.00     0.398 A 
ATOM      6  N   UNL     1      47.262 134.933  21.264  1.00  0.00    -0.193 N 
ATOM      7  H   UNL     1      48.010 131.248  21.681  1.00  0.00     0.311 HD
ATOM      8  H   UNL     1      47.051 135.950  21.143  1.00  0.00     0.455 HD
ENDROOT
BRANCH   1   9
ATOM      9  C   UNL     1      49.380 135.525  22.300  1.00  0.00     0.174 C 
ATOM     10  N   UNL     1      50.144 136.313  22.664  1.00  0.00    -0.186 NA
ENDBRANCH   1   9
BRANCH   4  11
ATOM     11  N   UNL     1      45.667 131.664  20.541  1.00  0.00    -0.187 N 
BRANCH  11  12
ATOM     12  C   UNL     1      45.550 131.360  19.136  1.00  0.00     0.100 A 
ATOM     13  C   UNL     1      44.560 131.860  18.293  1.00  0.00     0.048 A 
ATOM     14  N   UNL     1      46.407 130.534  18.483  1.00  0.00    -0.403 NA
ATOM     15  C   UNL     1      44.837 131.305  17.069  1.00  0.00    -0.019 A 
ATOM     16  C   UNL     1      45.950 130.518  17.219  1.00  0.00    -0.032 A 
ATOM     17  C   UNL     1      44.190 131.443  15.843  1.00  0.00     0.008 A 
ATOM     18  C   UNL     1      46.490 129.811  16.145  1.00  0.00     0.004 A 
ATOM     19  C   UNL     1      44.713 130.741  14.742  1.00  0.00     0.001 A 
ATOM     20  C   UNL     1      45.859 129.928  14.893  1.00  0.00     0.000 A 
ENDBRANCH  11  12
BRANCH  11  21
ATOM     21  C   UNL     1      44.816 131.009  21.501  1.00  0.00     0.266 A 
ATOM     22  C   UNL     1      43.686 131.553  22.102  1.00  0.00     0.248 A 
ATOM     23  N   UNL     1      44.994 129.734  21.926  1.00  0.00    -0.243 N 
ATOM     24  N   UNL     1      43.176 130.602  22.903  1.00  0.00    -0.233 N 
ATOM     25  C   UNL     1      43.975 129.527  22.782  1.00  0.00     0.230 A 
ATOM     26  C   UNL     1      42.080 130.633  23.701  1.00  0.00     0.168 A 
ATOM     27  C   UNL     1      43.714 128.356  23.491  1.00  0.00     0.081 A 
ATOM     28  C   UNL     1      41.768 129.482  24.440  1.00  0.00     0.035 A 
ATOM     29  C   UNL     1      42.590 128.343  24.333  1.00  0.00     0.010 A 
ATOM     30  H   UNL     1      45.750 129.066  21.662  1.00  0.00     0.267 HD
ENDBRANCH  11  21
ENDBRANCH   4  11
TORSDOF 4
ENDMDL


