MODEL 1
REMARK VINA RESULT:      -5.0      0.000      0.000
REMARK SMILES C=C[C@H]1C[NH2+][C@H](c2ccc3ncnn3c2)N(C(=O)c2cccc(C)c2)C1
REMARK SMILES IDX 3 1 4 2 5 3 6 4 16 5 26 6 2 9 1 10 17 11 18 12 19 13 20 14
REMARK SMILES IDX 25 15 21 16 23 17 22 18 24 19 7 20 8 21 15 22 9 23 14 24
REMARK SMILES IDX 10 25 13 26 11 27 12 28
REMARK H PARENT 5 7 5 8
ROOT
ATOM      1  C   UNL     1      41.315 125.744  23.971  1.00  0.00     0.086 C 
ATOM      2  C   UNL     1      41.520 124.747  22.802  1.00  0.00     0.272 C 
ATOM      3  N   UNL     1      42.849 124.124  22.846  1.00  0.00    -0.322 N 
ATOM      4  C   UNL     1      43.900 125.145  22.672  1.00  0.00     0.320 C 
ATOM      5  N   UNL     1      43.729 126.263  23.630  1.00  0.00    -0.284 N 
ATOM      6  C   UNL     1      42.644 126.193  24.620  1.00  0.00     0.139 C 
ATOM      7  H   UNL     1      42.916 123.428  22.067  1.00  0.00     0.348 HD
ATOM      8  H   UNL     1      42.964 123.612  23.753  1.00  0.00     0.348 HD
ENDROOT
BRANCH   1   9
ATOM      9  C   UNL     1      40.474 126.928  23.545  1.00  0.00    -0.024 C 
ATOM     10  C   UNL     1      40.584 128.135  24.112  1.00  0.00     0.004 C 
ENDBRANCH   1   9
BRANCH   5  11
ATOM     11  C   UNL     1      44.722 127.312  23.734  1.00  0.00     0.258 C 
ATOM     12  O   UNL     1      45.709 127.169  24.505  1.00  0.00    -0.269 OA
BRANCH  11  13
ATOM     13  C   UNL     1      44.649 128.530  22.905  1.00  0.00     0.040 A 
ATOM     14  C   UNL     1      45.476 128.682  21.782  1.00  0.00     0.014 A 
ATOM     15  C   UNL     1      43.778 129.568  23.270  1.00  0.00     0.017 A 
ATOM     16  C   UNL     1      45.452 129.872  21.051  1.00  0.00     0.001 A 
ATOM     17  C   UNL     1      43.751 130.764  22.535  1.00  0.00    -0.050 A 
ATOM     18  C   UNL     1      44.603 130.914  21.431  1.00  0.00     0.003 A 
ATOM     19  C   UNL     1      42.887 131.903  22.986  1.00  0.00     0.044 C 
ENDBRANCH  11  13
ENDBRANCH   5  11
BRANCH   4  20
ATOM     20  C   UNL     1      45.271 124.510  22.820  1.00  0.00     0.050 A 
ATOM     21  C   UNL     1      45.736 124.067  24.083  1.00  0.00     0.017 A 
ATOM     22  C   UNL     1      46.127 124.396  21.705  1.00  0.00     0.127 A 
ATOM     23  C   UNL     1      47.033 123.547  24.225  1.00  0.00     0.050 A 
ATOM     24  N   UNL     1      47.369 123.892  21.899  1.00  0.00    -0.221 N 
ATOM     25  C   UNL     1      47.827 123.485  23.085  1.00  0.00     0.155 A 
ATOM     26  N   UNL     1      48.319 123.740  21.000  1.00  0.00    -0.155 NA
ATOM     27  N   UNL     1      49.096 123.045  23.011  1.00  0.00    -0.215 NA
ATOM     28  C   UNL     1      49.363 123.222  21.690  1.00  0.00     0.247 A 
ENDBRANCH   4  20
TORSDOF 4
ENDMDL
MODEL 2
REMARK VINA RESULT:      -4.8      2.095      5.825
REMARK SMILES C=C[C@H]1C[NH2+][C@H](c2ccc3ncnn3c2)N(C(=O)c2cccc(C)c2)C1
REMARK SMILES IDX 3 1 4 2 5 3 6 4 16 5 26 6 2 9 1 10 17 11 18 12 19 13 20 14
REMARK SMILES IDX 25 15 21 16 23 17 22 18 24 19 7 20 8 21 15 22 9 23 14 24
REMARK SMILES IDX 10 25 13 26 11 27 12 28
REMARK H PARENT 5 7 5 8
ROOT
ATOM      1  C   UNL     1      46.107 125.640  22.079  1.00  0.00     0.086 C 
ATOM      2  C   UNL     1      45.461 124.761  23.181  1.00  0.00     0.272 C 
ATOM      3  N   UNL     1      44.058 125.129  23.415  1.00  0.00    -0.322 N 
ATOM      4  C   UNL     1      43.968 126.512  23.921  1.00  0.00     0.320 C 
ATOM      5  N   UNL     1      44.697 127.456  23.041  1.00  0.00    -0.284 N 
ATOM      6  C   UNL     1      45.323 126.946  21.812  1.00  0.00     0.139 C 
ATOM      7  H   UNL     1      43.659 124.477  24.131  1.00  0.00     0.348 HD
ATOM      8  H   UNL     1      43.514 125.013  22.528  1.00  0.00     0.348 HD
ENDROOT
BRANCH   1   9
ATOM      9  C   UNL     1      47.565 125.914  22.376  1.00  0.00    -0.024 C 
ATOM     10  C   UNL     1      48.455 124.939  22.591  1.00  0.00     0.004 C 
ENDBRANCH   1   9
BRANCH   5  11
ATOM     11  C   UNL     1      44.630 128.885  23.265  1.00  0.00     0.258 C 
ATOM     12  O   UNL     1      44.762 129.346  24.430  1.00  0.00    -0.269 OA
BRANCH  11  13
ATOM     13  C   UNL     1      44.478 129.836  22.147  1.00  0.00     0.040 A 
ATOM     14  C   UNL     1      45.479 129.960  21.171  1.00  0.00     0.014 A 
ATOM     15  C   UNL     1      43.343 130.659  22.083  1.00  0.00     0.017 A 
ATOM     16  C   UNL     1      45.359 130.918  20.162  1.00  0.00     0.001 A 
ATOM     17  C   UNL     1      43.219 131.621  21.069  1.00  0.00    -0.050 A 
ATOM     18  C   UNL     1      44.241 131.754  20.116  1.00  0.00     0.003 A 
ATOM     19  C   UNL     1      42.050 132.559  21.062  1.00  0.00     0.044 C 
ENDBRANCH  11  13
ENDBRANCH   5  11
BRANCH   4  20
ATOM     20  C   UNL     1      42.513 126.919  24.065  1.00  0.00     0.050 A 
ATOM     21  C   UNL     1      42.158 128.244  24.420  1.00  0.00     0.017 A 
ATOM     22  C   UNL     1      41.487 125.966  23.893  1.00  0.00     0.127 A 
ATOM     23  C   UNL     1      40.814 128.595  24.621  1.00  0.00     0.050 A 
ATOM     24  N   UNL     1      40.208 126.357  24.106  1.00  0.00    -0.221 N 
ATOM     25  C   UNL     1      39.859 127.597  24.456  1.00  0.00     0.155 A 
ATOM     26  N   UNL     1      39.123 125.614  24.032  1.00  0.00    -0.155 NA
ATOM     27  N   UNL     1      38.530 127.719  24.623  1.00  0.00    -0.215 NA
ATOM     28  C   UNL     1      38.110 126.456  24.347  1.00  0.00     0.247 A 
ENDBRANCH   4  20
TORSDOF 4
ENDMDL
MODEL 3
REMARK VINA RESULT:      -3.5      5.170      7.524
REMARK SMILES C=C[C@H]1C[NH2+][C@H](c2ccc3ncnn3c2)N(C(=O)c2cccc(C)c2)C1
REMARK SMILES IDX 3 1 4 2 5 3 6 4 16 5 26 6 2 9 1 10 17 11 18 12 19 13 20 14
REMARK SMILES IDX 25 15 21 16 23 17 22 18 24 19 7 20 8 21 15 22 9 23 14 24
REMARK SMILES IDX 10 25 13 26 11 27 12 28
REMARK H PARENT 5 7 5 8
ROOT
ATOM      1  C   UNL     1      41.657 132.087  19.615  1.00  0.00     0.086 C 
ATOM      2  C   UNL     1      41.881 132.927  18.331  1.00  0.00     0.272 C 
ATOM      3  N   UNL     1      42.762 132.238  17.379  1.00  0.00    -0.322 N 
ATOM      4  C   UNL     1      44.105 132.056  17.962  1.00  0.00     0.320 C 
ATOM      5  N   UNL     1      44.032 131.405  19.291  1.00  0.00    -0.284 N 
ATOM      6  C   UNL     1      42.721 130.982  19.807  1.00  0.00     0.139 C 
ATOM      7  H   UNL     1      42.841 132.824  16.515  1.00  0.00     0.348 HD
ATOM      8  H   UNL     1      42.337 131.318  17.112  1.00  0.00     0.348 HD
ENDROOT
BRANCH   1   9
ATOM      9  C   UNL     1      41.542 132.970  20.839  1.00  0.00    -0.024 C 
ATOM     10  C   UNL     1      41.899 132.562  22.062  1.00  0.00     0.004 C 
ENDBRANCH   1   9
BRANCH   5  11
ATOM     11  C   UNL     1      45.235 131.003  19.990  1.00  0.00     0.258 C 
ATOM     12  O   UNL     1      46.339 131.540  19.703  1.00  0.00    -0.269 OA
BRANCH  11  13
ATOM     13  C   UNL     1      45.198 130.019  21.089  1.00  0.00     0.040 A 
ATOM     14  C   UNL     1      45.749 128.740  20.924  1.00  0.00     0.014 A 
ATOM     15  C   UNL     1      44.563 130.351  22.296  1.00  0.00     0.017 A 
ATOM     16  C   UNL     1      45.639 127.793  21.945  1.00  0.00     0.001 A 
ATOM     17  C   UNL     1      44.453 129.401  23.324  1.00  0.00    -0.050 A 
ATOM     18  C   UNL     1      44.983 128.116  23.135  1.00  0.00     0.003 A 
ATOM     19  C   UNL     1      43.692 129.731  24.573  1.00  0.00     0.044 C 
ENDBRANCH  11  13
ENDBRANCH   5  11
BRANCH   4  20
ATOM     20  C   UNL     1      44.979 131.256  17.014  1.00  0.00     0.050 A 
ATOM     21  C   UNL     1      45.279 129.895  17.272  1.00  0.00     0.017 A 
ATOM     22  C   UNL     1      45.550 131.872  15.880  1.00  0.00     0.127 A 
ATOM     23  C   UNL     1      46.146 129.181  16.429  1.00  0.00     0.050 A 
ATOM     24  N   UNL     1      46.384 131.139  15.105  1.00  0.00    -0.221 N 
ATOM     25  C   UNL     1      46.688 129.860  15.343  1.00  0.00     0.155 A 
ATOM     26  N   UNL     1      47.037 131.539  14.034  1.00  0.00    -0.155 NA
ATOM     27  N   UNL     1      47.551 129.370  14.436  1.00  0.00    -0.215 NA
ATOM     28  C   UNL     1      47.742 130.452  13.637  1.00  0.00     0.247 A 
ENDBRANCH   4  20
TORSDOF 4
ENDMDL
MODEL 4
REMARK VINA RESULT:      -2.9      5.219      7.696
REMARK SMILES C=C[C@H]1C[NH2+][C@H](c2ccc3ncnn3c2)N(C(=O)c2cccc(C)c2)C1
REMARK SMILES IDX 3 1 4 2 5 3 6 4 16 5 26 6 2 9 1 10 17 11 18 12 19 13 20 14
REMARK SMILES IDX 25 15 21 16 23 17 22 18 24 19 7 20 8 21 15 22 9 23 14 24
REMARK SMILES IDX 10 25 13 26 11 27 12 28
REMARK H PARENT 5 7 5 8
ROOT
ATOM      1  C   UNL     1      41.654 132.105  19.396  1.00  0.00     0.086 C 
ATOM      2  C   UNL     1      41.958 132.962  18.140  1.00  0.00     0.272 C 
ATOM      3  N   UNL     1      42.872 132.272  17.221  1.00  0.00    -0.322 N 
ATOM      4  C   UNL     1      44.181 132.055  17.867  1.00  0.00     0.320 C 
ATOM      5  N   UNL     1      44.029 131.383  19.179  1.00  0.00    -0.284 N 
ATOM      6  C   UNL     1      42.686 130.977  19.621  1.00  0.00     0.139 C 
ATOM      7  H   UNL     1      43.006 132.872  16.373  1.00  0.00     0.348 HD
ATOM      8  H   UNL     1      42.444 131.366  16.917  1.00  0.00     0.348 HD
ENDROOT
BRANCH   1   9
ATOM      9  C   UNL     1      41.494 132.970  20.628  1.00  0.00    -0.024 C 
ATOM     10  C   UNL     1      42.088 132.686  21.793  1.00  0.00     0.004 C 
ENDBRANCH   1   9
BRANCH   5  11
ATOM     11  C   UNL     1      45.188 130.945  19.930  1.00  0.00     0.258 C 
ATOM     12  O   UNL     1      46.329 131.402  19.649  1.00  0.00    -0.269 OA
BRANCH  11  13
ATOM     13  C   UNL     1      45.064 130.021  21.073  1.00  0.00     0.040 A 
ATOM     14  C   UNL     1      44.487 130.447  22.279  1.00  0.00     0.014 A 
ATOM     15  C   UNL     1      45.569 128.715  20.968  1.00  0.00     0.017 A 
ATOM     16  C   UNL     1      44.446 129.585  23.378  1.00  0.00     0.001 A 
ATOM     17  C   UNL     1      45.526 127.848  22.071  1.00  0.00    -0.050 A 
ATOM     18  C   UNL     1      44.973 128.296  23.280  1.00  0.00     0.003 A 
ATOM     19  C   UNL     1      46.152 126.488  21.981  1.00  0.00     0.044 C 
ENDBRANCH  11  13
ENDBRANCH   5  11
BRANCH   4  20
ATOM     20  C   UNL     1      45.087 131.253  16.949  1.00  0.00     0.050 A 
ATOM     21  C   UNL     1      45.453 129.922  17.268  1.00  0.00     0.017 A 
ATOM     22  C   UNL     1      45.620 131.842  15.784  1.00  0.00     0.127 A 
ATOM     23  C   UNL     1      46.347 129.212  16.452  1.00  0.00     0.050 A 
ATOM     24  N   UNL     1      46.484 131.114  15.036  1.00  0.00    -0.221 N 
ATOM     25  C   UNL     1      46.849 129.864  15.331  1.00  0.00     0.155 A 
ATOM     26  N   UNL     1      47.110 131.495  13.942  1.00  0.00    -0.155 NA
ATOM     27  N   UNL     1      47.730 129.374  14.440  1.00  0.00    -0.215 NA
ATOM     28  C   UNL     1      47.863 130.426  13.590  1.00  0.00     0.247 A 
ENDBRANCH   4  20
TORSDOF 4
ENDMDL
MODEL 5
REMARK VINA RESULT:      -2.5      2.006      3.326
REMARK SMILES C=C[C@H]1C[NH2+][C@H](c2ccc3ncnn3c2)N(C(=O)c2cccc(C)c2)C1
REMARK SMILES IDX 3 1 4 2 5 3 6 4 16 5 26 6 2 9 1 10 17 11 18 12 19 13 20 14
REMARK SMILES IDX 25 15 21 16 23 17 22 18 24 19 7 20 8 21 15 22 9 23 14 24
REMARK SMILES IDX 10 25 13 26 11 27 12 28
REMARK H PARENT 5 7 5 8
ROOT
ATOM      1  C   UNL     1      42.734 130.577  24.314  1.00  0.00     0.086 C 
ATOM      2  C   UNL     1      42.074 129.199  24.580  1.00  0.00     0.272 C 
ATOM      3  N   UNL     1      43.069 128.120  24.625  1.00  0.00    -0.322 N 
ATOM      4  C   UNL     1      43.737 127.983  23.316  1.00  0.00     0.320 C 
ATOM      5  N   UNL     1      44.280 129.281  22.850  1.00  0.00    -0.284 N 
ATOM      6  C   UNL     1      44.157 130.459  23.721  1.00  0.00     0.139 C 
ATOM      7  H   UNL     1      42.577 127.225  24.853  1.00  0.00     0.348 HD
ATOM      8  H   UNL     1      43.761 128.316  25.386  1.00  0.00     0.348 HD
ENDROOT
BRANCH   1   9
ATOM      9  C   UNL     1      41.846 131.460  23.464  1.00  0.00    -0.024 C 
ATOM     10  C   UNL     1      42.206 132.689  23.076  1.00  0.00     0.004 C 
ENDBRANCH   1   9
BRANCH   5  11
ATOM     11  C   UNL     1      45.095 129.361  21.656  1.00  0.00     0.258 C 
ATOM     12  O   UNL     1      46.121 128.636  21.545  1.00  0.00    -0.269 OA
BRANCH  11  13
ATOM     13  C   UNL     1      44.721 130.226  20.521  1.00  0.00     0.040 A 
ATOM     14  C   UNL     1      45.555 130.336  19.399  1.00  0.00     0.014 A 
ATOM     15  C   UNL     1      43.540 130.982  20.584  1.00  0.00     0.017 A 
ATOM     16  C   UNL     1      45.228 131.217  18.366  1.00  0.00     0.001 A 
ATOM     17  C   UNL     1      43.208 131.866  19.546  1.00  0.00    -0.050 A 
ATOM     18  C   UNL     1      44.066 131.988  18.443  1.00  0.00     0.003 A 
ATOM     19  C   UNL     1      41.995 132.740  19.663  1.00  0.00     0.044 C 
ENDBRANCH  11  13
ENDBRANCH   5  11
BRANCH   4  20
ATOM     20  C   UNL     1      44.832 126.936  23.399  1.00  0.00     0.050 A 
ATOM     21  C   UNL     1      45.793 126.968  24.440  1.00  0.00     0.017 A 
ATOM     22  C   UNL     1      44.940 125.939  22.408  1.00  0.00     0.127 A 
ATOM     23  C   UNL     1      46.845 126.039  24.470  1.00  0.00     0.050 A 
ATOM     24  N   UNL     1      45.979 125.072  22.482  1.00  0.00    -0.221 N 
ATOM     25  C   UNL     1      46.900 125.098  23.448  1.00  0.00     0.155 A 
ATOM     26  N   UNL     1      46.271 124.102  21.641  1.00  0.00    -0.155 NA
ATOM     27  N   UNL     1      47.833 124.143  23.280  1.00  0.00    -0.215 NA
ATOM     28  C   UNL     1      47.400 123.545  22.140  1.00  0.00     0.247 A 
ENDBRANCH   4  20
TORSDOF 4
ENDMDL
MODEL 6
REMARK VINA RESULT:      -2.2      3.716      7.237
REMARK SMILES C=C[C@H]1C[NH2+][C@H](c2ccc3ncnn3c2)N(C(=O)c2cccc(C)c2)C1
REMARK SMILES IDX 3 1 4 2 5 3 6 4 16 5 26 6 2 9 1 10 17 11 18 12 19 13 20 14
REMARK SMILES IDX 25 15 21 16 23 17 22 18 24 19 7 20 8 21 15 22 9 23 14 24
REMARK SMILES IDX 10 25 13 26 11 27 12 28
REMARK H PARENT 5 7 5 8
ROOT
ATOM      1  C   UNL     1      47.039 133.339  22.002  1.00  0.00     0.086 C 
ATOM      2  C   UNL     1      46.364 133.457  23.393  1.00  0.00     0.272 C 
ATOM      3  N   UNL     1      45.597 132.251  23.728  1.00  0.00    -0.322 N 
ATOM      4  C   UNL     1      44.487 132.068  22.774  1.00  0.00     0.320 C 
ATOM      5  N   UNL     1      44.969 132.102  21.373  1.00  0.00    -0.284 N 
ATOM      6  C   UNL     1      46.411 132.237  21.119  1.00  0.00     0.139 C 
ATOM      7  H   UNL     1      45.204 132.365  24.692  1.00  0.00     0.348 HD
ATOM      8  H   UNL     1      46.236 131.421  23.731  1.00  0.00     0.348 HD
ENDROOT
BRANCH   1   9
ATOM      9  C   UNL     1      47.072 134.674  21.290  1.00  0.00    -0.024 C 
ATOM     10  C   UNL     1      48.058 135.562  21.463  1.00  0.00     0.004 C 
ENDBRANCH   1   9
BRANCH   5  11
ATOM     11  C   UNL     1      44.076 131.807  20.271  1.00  0.00     0.258 C 
ATOM     12  O   UNL     1      42.844 132.048  20.378  1.00  0.00    -0.269 OA
BRANCH  11  13
ATOM     13  C   UNL     1      44.582 131.289  18.985  1.00  0.00     0.040 A 
ATOM     14  C   UNL     1      45.710 130.457  18.943  1.00  0.00     0.014 A 
ATOM     15  C   UNL     1      43.955 131.670  17.789  1.00  0.00     0.017 A 
ATOM     16  C   UNL     1      46.224 130.037  17.714  1.00  0.00     0.001 A 
ATOM     17  C   UNL     1      44.469 131.247  16.553  1.00  0.00    -0.050 A 
ATOM     18  C   UNL     1      45.615 130.439  16.523  1.00  0.00     0.003 A 
ATOM     19  C   UNL     1      43.851 131.735  15.277  1.00  0.00     0.044 C 
ENDBRANCH  11  13
ENDBRANCH   5  11
BRANCH   4  20
ATOM     20  C   UNL     1      43.761 130.767  23.065  1.00  0.00     0.050 A 
ATOM     21  C   UNL     1      42.467 130.768  23.643  1.00  0.00     0.017 A 
ATOM     22  C   UNL     1      44.387 129.529  22.809  1.00  0.00     0.127 A 
ATOM     23  C   UNL     1      41.831 129.561  23.976  1.00  0.00     0.050 A 
ATOM     24  N   UNL     1      43.732 128.395  23.155  1.00  0.00    -0.221 N 
ATOM     25  C   UNL     1      42.519 128.381  23.714  1.00  0.00     0.155 A 
ATOM     26  N   UNL     1      44.159 127.156  23.031  1.00  0.00    -0.155 NA
ATOM     27  N   UNL     1      42.100 127.130  23.976  1.00  0.00    -0.215 NA
ATOM     28  C   UNL     1      43.156 126.397  23.533  1.00  0.00     0.247 A 
ENDBRANCH   4  20
TORSDOF 4
ENDMDL
MODEL 7
REMARK VINA RESULT:      -2.2      4.711      7.449
REMARK SMILES C=C[C@H]1C[NH2+][C@H](c2ccc3ncnn3c2)N(C(=O)c2cccc(C)c2)C1
REMARK SMILES IDX 3 1 4 2 5 3 6 4 16 5 26 6 2 9 1 10 17 11 18 12 19 13 20 14
REMARK SMILES IDX 25 15 21 16 23 17 22 18 24 19 7 20 8 21 15 22 9 23 14 24
REMARK SMILES IDX 10 25 13 26 11 27 12 28
REMARK H PARENT 5 7 5 8
ROOT
ATOM      1  C   UNL     1      42.204 132.036  21.423  1.00  0.00     0.086 C 
ATOM      2  C   UNL     1      42.483 133.152  20.383  1.00  0.00     0.272 C 
ATOM      3  N   UNL     1      43.052 132.609  19.144  1.00  0.00    -0.322 N 
ATOM      4  C   UNL     1      44.366 131.992  19.410  1.00  0.00     0.320 C 
ATOM      5  N   UNL     1      44.285 131.008  20.514  1.00  0.00    -0.284 N 
ATOM      6  C   UNL     1      42.978 130.730  21.127  1.00  0.00     0.139 C 
ATOM      7  H   UNL     1      43.176 133.395  18.463  1.00  0.00     0.348 HD
ATOM      8  H   UNL     1      42.386 131.917  18.727  1.00  0.00     0.348 HD
ENDROOT
BRANCH   1   9
ATOM      9  C   UNL     1      42.450 132.523  22.835  1.00  0.00    -0.024 C 
ATOM     10  C   UNL     1      41.644 132.215  23.857  1.00  0.00     0.004 C 
ENDBRANCH   1   9
BRANCH   5  11
ATOM     11  C   UNL     1      45.423 130.180  20.858  1.00  0.00     0.258 C 
ATOM     12  O   UNL     1      46.566 130.464  20.411  1.00  0.00    -0.269 OA
BRANCH  11  13
ATOM     13  C   UNL     1      45.295 129.037  21.783  1.00  0.00     0.040 A 
ATOM     14  C   UNL     1      44.565 129.159  22.975  1.00  0.00     0.014 A 
ATOM     15  C   UNL     1      45.948 127.830  21.491  1.00  0.00     0.017 A 
ATOM     16  C   UNL     1      44.517 128.095  23.879  1.00  0.00     0.001 A 
ATOM     17  C   UNL     1      45.899 126.759  22.396  1.00  0.00    -0.050 A 
ATOM     18  C   UNL     1      45.190 126.904  23.598  1.00  0.00     0.003 A 
ATOM     19  C   UNL     1      46.676 125.507  22.122  1.00  0.00     0.044 C 
ENDBRANCH  11  13
ENDBRANCH   5  11
BRANCH   4  20
ATOM     20  C   UNL     1      44.903 131.345  18.146  1.00  0.00     0.050 A 
ATOM     21  C   UNL     1      45.723 130.192  18.209  1.00  0.00     0.017 A 
ATOM     22  C   UNL     1      44.631 131.915  16.884  1.00  0.00     0.127 A 
ATOM     23  C   UNL     1      46.274 129.642  17.041  1.00  0.00     0.050 A 
ATOM     24  N   UNL     1      45.193 131.347  15.790  1.00  0.00    -0.221 N 
ATOM     25  C   UNL     1      45.980 130.270  15.835  1.00  0.00     0.155 A 
ATOM     26  N   UNL     1      45.090 131.748  14.540  1.00  0.00    -0.155 NA
ATOM     27  N   UNL     1      46.423 129.918  14.615  1.00  0.00    -0.215 NA
ATOM     28  C   UNL     1      45.841 130.869  13.836  1.00  0.00     0.247 A 
ENDBRANCH   4  20
TORSDOF 4
ENDMDL


