REMARK SMILES Cc1cc(N)c(/N=C(\O)OC(C)(C)C)c(-n2[nH+]c3ccccc3[nH+]2)c1
REMARK SMILES IDX 8 1 9 2 7 4 6 5 4 6 15 7 3 8 25 9 2 10 1 11 5 12 16 15 17 16
REMARK SMILES IDX 24 17 18 18 23 19 19 20 22 21 20 22 21 23 10 26 11 27 12 28
REMARK SMILES IDX 13 29 14 30
REMARK H PARENT 9 3 5 13 5 14 17 24 24 25
ROOT
ATOM      1  C   UNL     1      -1.246  -0.179   0.996  1.00  0.00     0.386 C 
ENDROOT
BRANCH   1   2
ATOM      2  O   UNL     1      -0.401  -0.213   2.103  1.00  0.00    -0.466 OA
ATOM      3  H   UNL     1      -0.573   0.384   2.902  1.00  0.00     0.298 HD
ENDBRANCH   1   2
BRANCH   1   4
ATOM      4  N   UNL     1      -1.015  -0.946  -0.028  1.00  0.00    -0.174 NA
BRANCH   4   5
ATOM      5  C   UNL     1       0.130  -1.807  -0.150  1.00  0.00     0.129 A 
ATOM      6  C   UNL     1      -0.059  -3.186  -0.375  1.00  0.00     0.061 A 
ATOM      7  C   UNL     1       1.445  -1.290  -0.055  1.00  0.00     0.196 A 
ATOM      8  C   UNL     1       1.050  -4.039  -0.445  1.00  0.00     0.031 A 
ATOM      9  C   UNL     1       2.540  -2.164  -0.105  1.00  0.00     0.044 A 
ATOM     10  C   UNL     1       2.348  -3.539  -0.283  1.00  0.00    -0.046 A 
ATOM     11  C   UNL     1       3.530  -4.458  -0.389  1.00  0.00     0.044 C 
BRANCH   6  12
ATOM     12  N   UNL     1      -1.375  -3.738  -0.505  1.00  0.00    -0.397 N 
ATOM     13  H   UNL     1      -2.230  -3.146  -0.422  1.00  0.00     0.156 HD
ATOM     14  H   UNL     1      -1.509  -4.760  -0.674  1.00  0.00     0.156 HD
ENDBRANCH   6  12
BRANCH   7  15
ATOM     15  N   UNL     1       1.684   0.122   0.054  1.00  0.00     0.082 N 
ATOM     16  N   UNL     1       2.533   0.671   0.921  1.00  0.00    -0.062 N 
ATOM     17  N   UNL     1       1.099   1.044  -0.708  1.00  0.00    -0.062 N 
ATOM     18  C   UNL     1       2.470   1.997   0.712  1.00  0.00     0.306 A 
ATOM     19  C   UNL     1       1.582   2.227  -0.297  1.00  0.00     0.306 A 
ATOM     20  C   UNL     1       3.145   3.028   1.357  1.00  0.00     0.089 A 
ATOM     21  C   UNL     1       1.291   3.509  -0.754  1.00  0.00     0.089 A 
ATOM     22  C   UNL     1       2.877   4.343   0.924  1.00  0.00     0.007 A 
ATOM     23  C   UNL     1       1.955   4.582  -0.125  1.00  0.00     0.007 A 
ATOM     24  H   UNL     1       3.108   0.161   1.628  1.00  0.00     0.495 HD
ATOM     25  H   UNL     1       0.424   0.865  -1.483  1.00  0.00     0.495 HD
ENDBRANCH   7  15
ENDBRANCH   4   5
ENDBRANCH   1   4
BRANCH   1  26
ATOM     26  O   UNL     1      -2.351   0.687   1.025  1.00  0.00    -0.445 OA
BRANCH  26  27
ATOM     27  C   UNL     1      -3.299   0.922  -0.028  1.00  0.00     0.106 C 
ATOM     28  C   UNL     1      -4.278   1.992   0.480  1.00  0.00     0.056 C 
ATOM     29  C   UNL     1      -4.088  -0.361  -0.347  1.00  0.00     0.056 C 
ATOM     30  C   UNL     1      -2.594   1.455  -1.290  1.00  0.00     0.056 C 
ENDBRANCH  26  27
ENDBRANCH   1  26
TORSDOF 7


