MODEL 1
REMARK VINA RESULT:     -10.1      0.000      0.000
REMARK SMILES CC(=O)c1ccc(-c2cc3ccccc3[nH]2)c[nH+]1
REMARK SMILES IDX 4 1 5 2 6 3 7 4 17 5 18 6 2 8 1 9 3 10 8 11 9 12 16 13 10 14
REMARK SMILES IDX 15 15 11 16 14 17 12 18 13 19
REMARK H PARENT 18 7 16 20
ROOT
ATOM      1  C   UNL     1      43.865 131.415  20.878  1.00  0.00     0.246 A 
ATOM      2  C   UNL     1      43.202 131.815  19.706  1.00  0.00     0.084 A 
ATOM      3  C   UNL     1      43.821 131.652  18.467  1.00  0.00     0.023 A 
ATOM      4  C   UNL     1      45.102 131.088  18.386  1.00  0.00     0.062 A 
ATOM      5  C   UNL     1      45.735 130.701  19.578  1.00  0.00     0.317 A 
ATOM      6  N   UNL     1      45.115 130.870  20.778  1.00  0.00    -0.208 N 
ATOM      7  H   UNL     1      45.634 130.567  21.632  1.00  0.00     0.454 HD
ENDROOT
BRANCH   1   8
ATOM      8  C   UNL     1      43.206 131.588  22.200  1.00  0.00     0.223 C 
ATOM      9  C   UNL     1      43.699 130.879  23.425  1.00  0.00     0.100 C 
ATOM     10  O   UNL     1      42.205 132.349  22.308  1.00  0.00    -0.288 OA
ENDBRANCH   1   8
BRANCH   4  11
ATOM     11  C   UNL     1      45.773 130.907  17.073  1.00  0.00     0.052 A 
ATOM     12  C   UNL     1      45.780 131.839  16.031  1.00  0.00     0.037 A 
ATOM     13  N   UNL     1      46.470 129.797  16.721  1.00  0.00    -0.354 N 
ATOM     14  C   UNL     1      46.513 131.250  15.025  1.00  0.00     0.000 A 
ATOM     15  C   UNL     1      46.913 130.020  15.473  1.00  0.00     0.046 A 
ATOM     16  C   UNL     1      46.849 131.716  13.756  1.00  0.00     0.010 A 
ATOM     17  C   UNL     1      47.677 129.164  14.680  1.00  0.00     0.026 A 
ATOM     18  C   UNL     1      47.620 130.877  12.932  1.00  0.00     0.001 A 
ATOM     19  C   UNL     1      48.032 129.605  13.392  1.00  0.00     0.002 A 
ATOM     20  H   UNL     1      46.621 128.930  17.283  1.00  0.00     0.167 HD
ENDBRANCH   4  11
TORSDOF 2
ENDMDL
MODEL 2
REMARK VINA RESULT:     -10.0      2.783      7.307
REMARK SMILES CC(=O)c1ccc(-c2cc3ccccc3[nH]2)c[nH+]1
REMARK SMILES IDX 4 1 5 2 6 3 7 4 17 5 18 6 2 8 1 9 3 10 8 11 9 12 16 13 10 14
REMARK SMILES IDX 15 15 11 16 14 17 12 18 13 19
REMARK H PARENT 18 7 16 20
ROOT
ATOM      1  C   UNL     1      46.838 130.638  14.872  1.00  0.00     0.246 A 
ATOM      2  C   UNL     1      46.160 131.838  15.140  1.00  0.00     0.084 A 
ATOM      3  C   UNL     1      45.546 132.028  16.378  1.00  0.00     0.023 A 
ATOM      4  C   UNL     1      45.604 131.026  17.357  1.00  0.00     0.062 A 
ATOM      5  C   UNL     1      46.289 129.840  17.054  1.00  0.00     0.317 A 
ATOM      6  N   UNL     1      46.882 129.671  15.839  1.00  0.00    -0.208 N 
ATOM      7  H   UNL     1      47.374 128.768  15.668  1.00  0.00     0.454 HD
ENDROOT
BRANCH   1   8
ATOM      8  C   UNL     1      47.494 130.433  13.553  1.00  0.00     0.223 C 
ATOM      9  C   UNL     1      48.526 129.368  13.343  1.00  0.00     0.100 C 
ATOM     10  O   UNL     1      47.182 131.168  12.576  1.00  0.00    -0.288 OA
ENDBRANCH   1   8
BRANCH   4  11
ATOM     11  C   UNL     1      44.955 131.215  18.680  1.00  0.00     0.052 A 
ATOM     12  C   UNL     1      45.501 130.842  19.912  1.00  0.00     0.037 A 
ATOM     13  N   UNL     1      43.733 131.780  18.854  1.00  0.00    -0.354 N 
ATOM     14  C   UNL     1      44.559 131.204  20.849  1.00  0.00     0.000 A 
ATOM     15  C   UNL     1      43.506 131.766  20.177  1.00  0.00     0.046 A 
ATOM     16  C   UNL     1      44.563 131.076  22.235  1.00  0.00     0.010 A 
ATOM     17  C   UNL     1      42.377 132.237  20.848  1.00  0.00     0.026 A 
ATOM     18  C   UNL     1      43.439 131.543  22.941  1.00  0.00     0.001 A 
ATOM     19  C   UNL     1      42.350 132.121  22.250  1.00  0.00     0.002 A 
ATOM     20  H   UNL     1      43.082 132.136  18.120  1.00  0.00     0.167 HD
ENDBRANCH   4  11
TORSDOF 2
ENDMDL
MODEL 3
REMARK VINA RESULT:     -10.0      1.332      2.042
REMARK SMILES CC(=O)c1ccc(-c2cc3ccccc3[nH]2)c[nH+]1
REMARK SMILES IDX 4 1 5 2 6 3 7 4 17 5 18 6 2 8 1 9 3 10 8 11 9 12 16 13 10 14
REMARK SMILES IDX 15 15 11 16 14 17 12 18 13 19
REMARK H PARENT 18 7 16 20
ROOT
ATOM      1  C   UNL     1      43.125 132.135  19.933  1.00  0.00     0.246 A 
ATOM      2  C   UNL     1      44.451 131.728  20.153  1.00  0.00     0.084 A 
ATOM      3  C   UNL     1      45.259 131.380  19.072  1.00  0.00     0.023 A 
ATOM      4  C   UNL     1      44.755 131.436  17.764  1.00  0.00     0.062 A 
ATOM      5  C   UNL     1      43.425 131.846  17.583  1.00  0.00     0.317 A 
ATOM      6  N   UNL     1      42.650 132.181  18.652  1.00  0.00    -0.208 N 
ATOM      7  H   UNL     1      41.668 132.475  18.457  1.00  0.00     0.454 HD
ENDROOT
BRANCH   1   8
ATOM      8  C   UNL     1      42.261 132.507  21.085  1.00  0.00     0.223 C 
ATOM      9  C   UNL     1      42.519 131.986  22.466  1.00  0.00     0.100 C 
ATOM     10  O   UNL     1      41.282 133.284  20.910  1.00  0.00    -0.288 OA
ENDBRANCH   1   8
BRANCH   4  11
ATOM     11  C   UNL     1      45.605 131.069  16.603  1.00  0.00     0.052 A 
ATOM     12  C   UNL     1      46.195 129.819  16.393  1.00  0.00     0.037 A 
ATOM     13  N   UNL     1      45.918 131.917  15.591  1.00  0.00    -0.354 N 
ATOM     14  C   UNL     1      46.883 129.939  15.206  1.00  0.00     0.000 A 
ATOM     15  C   UNL     1      46.695 131.216  14.750  1.00  0.00     0.046 A 
ATOM     16  C   UNL     1      47.654 129.013  14.507  1.00  0.00     0.010 A 
ATOM     17  C   UNL     1      47.271 131.660  13.560  1.00  0.00     0.026 A 
ATOM     18  C   UNL     1      48.247 129.430  13.302  1.00  0.00     0.001 A 
ATOM     19  C   UNL     1      48.057 130.749  12.830  1.00  0.00     0.002 A 
ATOM     20  H   UNL     1      45.639 132.918  15.484  1.00  0.00     0.167 HD
ENDBRANCH   4  11
TORSDOF 2
ENDMDL
MODEL 4
REMARK VINA RESULT:      -9.9      0.672      1.172
REMARK SMILES CC(=O)c1ccc(-c2cc3ccccc3[nH]2)c[nH+]1
REMARK SMILES IDX 4 1 5 2 6 3 7 4 17 5 18 6 2 8 1 9 3 10 8 11 9 12 16 13 10 14
REMARK SMILES IDX 15 15 11 16 14 17 12 18 13 19
REMARK H PARENT 18 7 16 20
ROOT
ATOM      1  C   UNL     1      43.969 131.182  21.114  1.00  0.00     0.246 A 
ATOM      2  C   UNL     1      45.258 130.637  20.996  1.00  0.00     0.084 A 
ATOM      3  C   UNL     1      45.853 130.526  19.740  1.00  0.00     0.023 A 
ATOM      4  C   UNL     1      45.171 130.958  18.593  1.00  0.00     0.062 A 
ATOM      5  C   UNL     1      43.884 131.495  18.749  1.00  0.00     0.317 A 
ATOM      6  N   UNL     1      43.319 131.595  19.984  1.00  0.00    -0.208 N 
ATOM      7  H   UNL     1      42.358 131.999  20.039  1.00  0.00     0.454 HD
ENDROOT
BRANCH   1   8
ATOM      8  C   UNL     1      43.333 131.302  22.452  1.00  0.00     0.223 C 
ATOM      9  C   UNL     1      43.563 130.286  23.529  1.00  0.00     0.100 C 
ATOM     10  O   UNL     1      42.577 132.282  22.702  1.00  0.00    -0.288 OA
ENDBRANCH   1   8
BRANCH   4  11
ATOM     11  C   UNL     1      45.793 130.846  17.249  1.00  0.00     0.052 A 
ATOM     12  C   UNL     1      45.734 131.817  16.245  1.00  0.00     0.037 A 
ATOM     13  N   UNL     1      46.503 129.768  16.827  1.00  0.00    -0.354 N 
ATOM     14  C   UNL     1      46.441 131.287  15.188  1.00  0.00     0.000 A 
ATOM     15  C   UNL     1      46.890 130.052  15.572  1.00  0.00     0.046 A 
ATOM     16  C   UNL     1      46.714 131.810  13.926  1.00  0.00     0.010 A 
ATOM     17  C   UNL     1      47.642 129.247  14.716  1.00  0.00     0.026 A 
ATOM     18  C   UNL     1      47.472 131.023  13.041  1.00  0.00     0.001 A 
ATOM     19  C   UNL     1      47.934 129.746  13.434  1.00  0.00     0.002 A 
ATOM     20  H   UNL     1      46.697 128.885  17.348  1.00  0.00     0.167 HD
ENDBRANCH   4  11
TORSDOF 2
ENDMDL
MODEL 5
REMARK VINA RESULT:      -9.9      2.790      7.205
REMARK SMILES CC(=O)c1ccc(-c2cc3ccccc3[nH]2)c[nH+]1
REMARK SMILES IDX 4 1 5 2 6 3 7 4 17 5 18 6 2 8 1 9 3 10 8 11 9 12 16 13 10 14
REMARK SMILES IDX 15 15 11 16 14 17 12 18 13 19
REMARK H PARENT 18 7 16 20
ROOT
ATOM      1  C   UNL     1      46.973 130.632  14.706  1.00  0.00     0.246 A 
ATOM      2  C   UNL     1      46.284 131.834  14.939  1.00  0.00     0.084 A 
ATOM      3  C   UNL     1      45.626 132.033  16.152  1.00  0.00     0.023 A 
ATOM      4  C   UNL     1      45.650 131.039  17.141  1.00  0.00     0.062 A 
ATOM      5  C   UNL     1      46.347 129.851  16.872  1.00  0.00     0.317 A 
ATOM      6  N   UNL     1      46.983 129.674  15.681  1.00  0.00    -0.208 N 
ATOM      7  H   UNL     1      47.482 128.769  15.535  1.00  0.00     0.454 HD
ENDROOT
BRANCH   1   8
ATOM      8  C   UNL     1      47.677 130.419  13.413  1.00  0.00     0.223 C 
ATOM      9  C   UNL     1      48.693 129.331  13.239  1.00  0.00     0.100 C 
ATOM     10  O   UNL     1      47.420 131.164  12.428  1.00  0.00    -0.288 OA
ENDBRANCH   1   8
BRANCH   4  11
ATOM     11  C   UNL     1      44.954 131.237  18.438  1.00  0.00     0.052 A 
ATOM     12  C   UNL     1      43.713 131.860  18.606  1.00  0.00     0.037 A 
ATOM     13  N   UNL     1      45.448 130.833  19.637  1.00  0.00    -0.354 N 
ATOM     14  C   UNL     1      43.468 131.819  19.960  1.00  0.00     0.000 A 
ATOM     15  C   UNL     1      44.533 131.194  20.552  1.00  0.00     0.046 A 
ATOM     16  C   UNL     1      42.385 132.287  20.700  1.00  0.00     0.010 A 
ATOM     17  C   UNL     1      44.593 130.997  21.931  1.00  0.00     0.026 A 
ATOM     18  C   UNL     1      42.415 132.102  22.094  1.00  0.00     0.001 A 
ATOM     19  C   UNL     1      43.515 131.460  22.708  1.00  0.00     0.002 A 
ATOM     20  H   UNL     1      46.358 130.360  19.828  1.00  0.00     0.167 HD
ENDBRANCH   4  11
TORSDOF 2
ENDMDL
MODEL 6
REMARK VINA RESULT:      -9.9      0.900      1.016
REMARK SMILES CC(=O)c1ccc(-c2cc3ccccc3[nH]2)c[nH+]1
REMARK SMILES IDX 4 1 5 2 6 3 7 4 17 5 18 6 2 8 1 9 3 10 8 11 9 12 16 13 10 14
REMARK SMILES IDX 15 15 11 16 14 17 12 18 13 19
REMARK H PARENT 18 7 16 20
ROOT
ATOM      1  C   UNL     1      43.888 131.505  21.860  1.00  0.00     0.246 A 
ATOM      2  C   UNL     1      43.098 131.884  20.763  1.00  0.00     0.084 A 
ATOM      3  C   UNL     1      43.591 131.734  19.467  1.00  0.00     0.023 A 
ATOM      4  C   UNL     1      44.872 131.204  19.255  1.00  0.00     0.062 A 
ATOM      5  C   UNL     1      45.633 130.838  20.375  1.00  0.00     0.317 A 
ATOM      6  N   UNL     1      45.136 130.993  21.633  1.00  0.00    -0.208 N 
ATOM      7  H   UNL     1      45.748 130.707  22.429  1.00  0.00     0.454 HD
ENDROOT
BRANCH   1   8
ATOM      8  C   UNL     1      43.364 131.663  23.243  1.00  0.00     0.223 C 
ATOM      9  C   UNL     1      44.276 131.879  24.412  1.00  0.00     0.100 C 
ATOM     10  O   UNL     1      42.120 131.619  23.451  1.00  0.00    -0.288 OA
ENDBRANCH   1   8
BRANCH   4  11
ATOM     11  C   UNL     1      45.409 131.038  17.880  1.00  0.00     0.052 A 
ATOM     12  C   UNL     1      45.294 131.972  16.846  1.00  0.00     0.037 A 
ATOM     13  N   UNL     1      46.087 129.941  17.455  1.00  0.00    -0.354 N 
ATOM     14  C   UNL     1      45.931 131.398  15.769  1.00  0.00     0.000 A 
ATOM     15  C   UNL     1      46.397 130.175  16.170  1.00  0.00     0.046 A 
ATOM     16  C   UNL     1      46.129 131.873  14.474  1.00  0.00     0.010 A 
ATOM     17  C   UNL     1      47.091 129.334  15.300  1.00  0.00     0.026 A 
ATOM     18  C   UNL     1      46.827 131.048  13.573  1.00  0.00     0.001 A 
ATOM     19  C   UNL     1      47.306 129.784  13.984  1.00  0.00     0.002 A 
ATOM     20  H   UNL     1      46.308 129.076  17.996  1.00  0.00     0.167 HD
ENDBRANCH   4  11
TORSDOF 2
ENDMDL
MODEL 7
REMARK VINA RESULT:      -9.8      1.009      1.620
REMARK SMILES CC(=O)c1ccc(-c2cc3ccccc3[nH]2)c[nH+]1
REMARK SMILES IDX 4 1 5 2 6 3 7 4 17 5 18 6 2 8 1 9 3 10 8 11 9 12 16 13 10 14
REMARK SMILES IDX 15 15 11 16 14 17 12 18 13 19
REMARK H PARENT 18 7 16 20
ROOT
ATOM      1  C   UNL     1      43.132 132.035  20.208  1.00  0.00     0.246 A 
ATOM      2  C   UNL     1      42.547 132.044  18.932  1.00  0.00     0.084 A 
ATOM      3  C   UNL     1      43.319 131.738  17.811  1.00  0.00     0.023 A 
ATOM      4  C   UNL     1      44.677 131.419  17.953  1.00  0.00     0.062 A 
ATOM      5  C   UNL     1      45.228 131.422  19.244  1.00  0.00     0.317 A 
ATOM      6  N   UNL     1      44.459 131.724  20.326  1.00  0.00    -0.208 N 
ATOM      7  H   UNL     1      44.923 131.713  21.261  1.00  0.00     0.454 HD
ENDROOT
BRANCH   1   8
ATOM      8  C   UNL     1      42.311 132.359  21.405  1.00  0.00     0.223 C 
ATOM      9  C   UNL     1      42.645 131.818  22.761  1.00  0.00     0.100 C 
ATOM     10  O   UNL     1      41.304 133.111  21.289  1.00  0.00    -0.288 OA
ENDBRANCH   1   8
BRANCH   4  11
ATOM     11  C   UNL     1      45.510 131.091  16.769  1.00  0.00     0.052 A 
ATOM     12  C   UNL     1      46.138 129.864  16.533  1.00  0.00     0.037 A 
ATOM     13  N   UNL     1      45.770 131.959  15.757  1.00  0.00    -0.354 N 
ATOM     14  C   UNL     1      46.792 130.018  15.331  1.00  0.00     0.000 A 
ATOM     15  C   UNL     1      46.550 131.292  14.891  1.00  0.00     0.046 A 
ATOM     16  C   UNL     1      47.577 129.125  14.605  1.00  0.00     0.010 A 
ATOM     17  C   UNL     1      47.082 131.766  13.692  1.00  0.00     0.026 A 
ATOM     18  C   UNL     1      48.126 129.573  13.390  1.00  0.00     0.001 A 
ATOM     19  C   UNL     1      47.881 130.889  12.936  1.00  0.00     0.002 A 
ATOM     20  H   UNL     1      45.456 132.950  15.667  1.00  0.00     0.167 HD
ENDBRANCH   4  11
TORSDOF 2
ENDMDL
MODEL 8
REMARK VINA RESULT:      -9.6      1.241      1.661
REMARK SMILES CC(=O)c1ccc(-c2cc3ccccc3[nH]2)c[nH+]1
REMARK SMILES IDX 4 1 5 2 6 3 7 4 17 5 18 6 2 8 1 9 3 10 8 11 9 12 16 13 10 14
REMARK SMILES IDX 15 15 11 16 14 17 12 18 13 19
REMARK H PARENT 18 7 16 20
ROOT
ATOM      1  C   UNL     1      43.286 131.941  19.974  1.00  0.00     0.246 A 
ATOM      2  C   UNL     1      44.621 131.540  20.145  1.00  0.00     0.084 A 
ATOM      3  C   UNL     1      45.406 131.248  19.030  1.00  0.00     0.023 A 
ATOM      4  C   UNL     1      44.870 131.354  17.739  1.00  0.00     0.062 A 
ATOM      5  C   UNL     1      43.531 131.756  17.608  1.00  0.00     0.317 A 
ATOM      6  N   UNL     1      42.780 132.037  18.708  1.00  0.00    -0.208 N 
ATOM      7  H   UNL     1      41.790 132.327  18.549  1.00  0.00     0.454 HD
ENDROOT
BRANCH   1   8
ATOM      8  C   UNL     1      42.447 132.255  21.162  1.00  0.00     0.223 C 
ATOM      9  C   UNL     1      41.258 133.161  21.069  1.00  0.00     0.100 C 
ATOM     10  O   UNL     1      42.731 131.749  22.282  1.00  0.00    -0.288 OA
ENDBRANCH   1   8
BRANCH   4  11
ATOM     11  C   UNL     1      45.695 131.046  16.543  1.00  0.00     0.052 A 
ATOM     12  C   UNL     1      45.926 131.914  15.472  1.00  0.00     0.037 A 
ATOM     13  N   UNL     1      46.332 129.864  16.343  1.00  0.00    -0.354 N 
ATOM     14  C   UNL     1      46.734 131.212  14.606  1.00  0.00     0.000 A 
ATOM     15  C   UNL     1      46.959 129.981  15.160  1.00  0.00     0.046 A 
ATOM     16  C   UNL     1      47.280 131.577  13.378  1.00  0.00     0.010 A 
ATOM     17  C   UNL     1      47.745 129.022  14.521  1.00  0.00     0.026 A 
ATOM     18  C   UNL     1      48.079 130.632  12.709  1.00  0.00     0.001 A 
ATOM     19  C   UNL     1      48.310 129.359  13.278  1.00  0.00     0.002 A 
ATOM     20  H   UNL     1      46.327 129.021  16.958  1.00  0.00     0.167 HD
ENDBRANCH   4  11
TORSDOF 2
ENDMDL
MODEL 9
REMARK VINA RESULT:      -9.5      2.915      7.372
REMARK SMILES CC(=O)c1ccc(-c2cc3ccccc3[nH]2)c[nH+]1
REMARK SMILES IDX 4 1 5 2 6 3 7 4 17 5 18 6 2 8 1 9 3 10 8 11 9 12 16 13 10 14
REMARK SMILES IDX 15 15 11 16 14 17 12 18 13 19
REMARK H PARENT 18 7 16 20
ROOT
ATOM      1  C   UNL     1      46.882 130.704  14.674  1.00  0.00     0.246 A 
ATOM      2  C   UNL     1      46.725 129.652  15.590  1.00  0.00     0.084 A 
ATOM      3  C   UNL     1      46.044 129.868  16.788  1.00  0.00     0.023 A 
ATOM      4  C   UNL     1      45.513 131.133  17.081  1.00  0.00     0.062 A 
ATOM      5  C   UNL     1      45.690 132.161  16.142  1.00  0.00     0.317 A 
ATOM      6  N   UNL     1      46.359 131.931  14.979  1.00  0.00    -0.208 N 
ATOM      7  H   UNL     1      46.463 132.733  14.320  1.00  0.00     0.454 HD
ENDROOT
BRANCH   1   8
ATOM      8  C   UNL     1      47.606 130.475  13.396  1.00  0.00     0.223 C 
ATOM      9  C   UNL     1      48.667 129.425  13.268  1.00  0.00     0.100 C 
ATOM     10  O   UNL     1      47.329 131.176  12.383  1.00  0.00    -0.288 OA
ENDBRANCH   1   8
BRANCH   4  11
ATOM     11  C   UNL     1      44.786 131.378  18.352  1.00  0.00     0.052 A 
ATOM     12  C   UNL     1      45.233 131.013  19.626  1.00  0.00     0.037 A 
ATOM     13  N   UNL     1      43.578 131.993  18.432  1.00  0.00    -0.354 N 
ATOM     14  C   UNL     1      44.246 131.433  20.489  1.00  0.00     0.000 A 
ATOM     15  C   UNL     1      43.263 132.019  19.737  1.00  0.00     0.046 A 
ATOM     16  C   UNL     1      44.153 131.337  21.876  1.00  0.00     0.010 A 
ATOM     17  C   UNL     1      42.112 132.548  20.320  1.00  0.00     0.026 A 
ATOM     18  C   UNL     1      43.004 131.864  22.494  1.00  0.00     0.001 A 
ATOM     19  C   UNL     1      41.987 132.466  21.719  1.00  0.00     0.002 A 
ATOM     20  H   UNL     1      42.991 132.356  17.648  1.00  0.00     0.167 HD
ENDBRANCH   4  11
TORSDOF 2
ENDMDL


