REMARK SMILES Cc1cc2cc(F)c(C3CC3)cc2[nH]1
REMARK SMILES IDX 1 1 2 2 3 3 4 4 5 5 6 6 7 7 8 8 12 9 13 10 14 11 9 13 10 14
REMARK SMILES IDX 11 15
REMARK H PARENT 14 12
ROOT
ATOM      1  C   UNL     1      -3.507   1.482  -1.531  1.00  0.00     0.064 C 
ATOM      2  C   UNL     1      -2.178   0.819  -1.377  1.00  0.00     0.013 A 
ATOM      3  C   UNL     1      -1.314   0.508  -2.424  1.00  0.00     0.031 A 
ATOM      4  C   UNL     1      -0.259  -0.148  -1.827  1.00  0.00     0.003 A 
ATOM      5  C   UNL     1       0.903  -0.681  -2.377  1.00  0.00     0.049 A 
ATOM      6  C   UNL     1       1.817  -1.306  -1.509  1.00  0.00     0.127 A 
ATOM      7  F   UNL     1       2.970  -1.811  -2.017  1.00  0.00    -0.207 F 
ATOM      8  C   UNL     1       1.540  -1.404  -0.119  1.00  0.00    -0.007 A 
ATOM      9  C   UNL     1       0.359  -0.831   0.403  1.00  0.00     0.033 A 
ATOM     10  C   UNL     1      -0.521  -0.217  -0.485  1.00  0.00     0.046 A 
ATOM     11  N   UNL     1      -1.696   0.367  -0.196  1.00  0.00    -0.359 N 
ATOM     12  H   UNL     1      -2.148   0.446   0.743  1.00  0.00     0.166 HD
ENDROOT
BRANCH   8  13
ATOM     13  C   UNL     1       2.541  -2.036   0.811  1.00  0.00     0.022 C 
ATOM     14  C   UNL     1       2.849  -3.501   0.526  1.00  0.00     0.009 C 
ATOM     15  C   UNL     1       1.988  -3.128   1.719  1.00  0.00     0.009 C 
ENDBRANCH   8  13
TORSDOF 1


