MODEL 1
REMARK VINA RESULT:      -9.4      0.000      0.000
REMARK SMILES Cc1cc2cc3ccccc3cc2cc1NN
REMARK SMILES IDX 16 1 15 3 2 4 3 5 4 6 14 7 5 8 13 9 6 10 12 11 7 12 11 13
REMARK SMILES IDX 8 14 10 15 9 16 1 17 17 18
REMARK H PARENT 16 2 17 19 17 20
ROOT
ATOM      1  N   UNL     1      41.719 132.417  21.050  1.00  0.00    -0.324 N 
ATOM      2  H   UNL     1      41.405 131.888  21.894  1.00  0.00     0.181 HD
ENDROOT
BRANCH   1   3
ATOM      3  C   UNL     1      42.821 131.943  20.249  1.00  0.00     0.052 A 
ATOM      4  C   UNL     1      43.981 131.400  20.854  1.00  0.00    -0.026 A 
ATOM      5  C   UNL     1      45.039 130.947  20.047  1.00  0.00     0.014 A 
ATOM      6  C   UNL     1      44.960 131.024  18.651  1.00  0.00    -0.017 A 
ATOM      7  C   UNL     1      42.749 132.019  18.846  1.00  0.00     0.036 A 
ATOM      8  C   UNL     1      46.022 130.569  17.852  1.00  0.00     0.017 A 
ATOM      9  C   UNL     1      43.806 131.565  18.045  1.00  0.00    -0.016 A 
ATOM     10  C   UNL     1      45.941 130.648  16.455  1.00  0.00    -0.018 A 
ATOM     11  C   UNL     1      43.724 131.645  16.646  1.00  0.00     0.017 A 
ATOM     12  C   UNL     1      46.999 130.194  15.652  1.00  0.00     0.009 A 
ATOM     13  C   UNL     1      44.782 131.190  15.847  1.00  0.00    -0.018 A 
ATOM     14  C   UNL     1      46.909 130.278  14.259  1.00  0.00     0.001 A 
ATOM     15  C   UNL     1      44.706 131.267  14.447  1.00  0.00     0.009 A 
ATOM     16  C   UNL     1      45.766 130.812  13.659  1.00  0.00     0.001 A 
ATOM     17  C   UNL     1      44.110 131.296  22.350  1.00  0.00     0.046 C 
ENDBRANCH   1   3
BRANCH   1  18
ATOM     18  N   UNL     1      41.036 133.599  20.724  1.00  0.00    -0.250 NA
ATOM     19  H   UNL     1      40.339 133.771  21.484  1.00  0.00     0.143 HD
ATOM     20  H   UNL     1      41.732 134.378  20.764  1.00  0.00     0.143 HD
ENDBRANCH   1  18
TORSDOF 2
ENDMDL
MODEL 2
REMARK VINA RESULT:      -9.3      1.546      2.606
REMARK SMILES Cc1cc2cc3ccccc3cc2cc1NN
REMARK SMILES IDX 16 1 15 3 2 4 3 5 4 6 14 7 5 8 13 9 6 10 12 11 7 12 11 13
REMARK SMILES IDX 8 14 10 15 9 16 1 17 17 18
REMARK H PARENT 16 2 17 19 17 20
ROOT
ATOM      1  N   UNL     1      44.789 131.110  22.518  1.00  0.00    -0.324 N 
ATOM      2  H   UNL     1      45.146 131.914  23.080  1.00  0.00     0.181 HD
ENDROOT
BRANCH   1   3
ATOM      3  C   UNL     1      44.507 131.259  21.112  1.00  0.00     0.052 A 
ATOM      4  C   UNL     1      43.295 131.844  20.670  1.00  0.00    -0.026 A 
ATOM      5  C   UNL     1      43.048 131.976  19.292  1.00  0.00     0.014 A 
ATOM      6  C   UNL     1      43.986 131.537  18.349  1.00  0.00    -0.017 A 
ATOM      7  C   UNL     1      45.445 130.819  20.159  1.00  0.00     0.036 A 
ATOM      8  C   UNL     1      43.731 131.672  16.976  1.00  0.00     0.017 A 
ATOM      9  C   UNL     1      45.195 130.953  18.786  1.00  0.00    -0.016 A 
ATOM     10  C   UNL     1      44.671 131.230  16.034  1.00  0.00    -0.018 A 
ATOM     11  C   UNL     1      46.137 130.510  17.845  1.00  0.00     0.017 A 
ATOM     12  C   UNL     1      44.422 131.364  14.659  1.00  0.00     0.009 A 
ATOM     13  C   UNL     1      45.885 130.645  16.472  1.00  0.00    -0.018 A 
ATOM     14  C   UNL     1      45.366 130.920  13.728  1.00  0.00     0.001 A 
ATOM     15  C   UNL     1      46.824 130.204  15.526  1.00  0.00     0.009 A 
ATOM     16  C   UNL     1      46.563 130.343  14.160  1.00  0.00     0.001 A 
ATOM     17  C   UNL     1      42.257 132.332  21.645  1.00  0.00     0.046 C 
ENDBRANCH   1   3
BRANCH   1  18
ATOM     18  N   UNL     1      44.595 129.885  23.175  1.00  0.00    -0.250 NA
ATOM     19  H   UNL     1      43.594 129.852  23.475  1.00  0.00     0.143 HD
ATOM     20  H   UNL     1      44.726 129.130  22.463  1.00  0.00     0.143 HD
ENDBRANCH   1  18
TORSDOF 2
ENDMDL
MODEL 3
REMARK VINA RESULT:      -8.9      2.662      5.762
REMARK SMILES Cc1cc2cc3ccccc3cc2cc1NN
REMARK SMILES IDX 16 1 15 3 2 4 3 5 4 6 14 7 5 8 13 9 6 10 12 11 7 12 11 13
REMARK SMILES IDX 8 14 10 15 9 16 1 17 17 18
REMARK H PARENT 16 2 17 19 17 20
ROOT
ATOM      1  N   UNL     1      44.176 131.452  14.066  1.00  0.00    -0.324 N 
ATOM      2  H   UNL     1      44.904 131.426  13.317  1.00  0.00     0.181 HD
ENDROOT
BRANCH   1   3
ATOM      3  C   UNL     1      44.533 131.260  15.450  1.00  0.00     0.052 A 
ATOM      4  C   UNL     1      45.770 130.667  15.808  1.00  0.00    -0.026 A 
ATOM      5  C   UNL     1      46.089 130.492  17.165  1.00  0.00     0.014 A 
ATOM      6  C   UNL     1      45.201 130.897  18.170  1.00  0.00    -0.017 A 
ATOM      7  C   UNL     1      43.646 131.663  16.465  1.00  0.00     0.036 A 
ATOM      8  C   UNL     1      45.529 130.718  19.524  1.00  0.00     0.017 A 
ATOM      9  C   UNL     1      43.969 131.487  17.817  1.00  0.00    -0.016 A 
ATOM     10  C   UNL     1      44.639 131.123  20.527  1.00  0.00    -0.018 A 
ATOM     11  C   UNL     1      43.076 131.893  18.821  1.00  0.00     0.017 A 
ATOM     12  C   UNL     1      44.961 130.948  21.882  1.00  0.00     0.009 A 
ATOM     13  C   UNL     1      43.402 131.716  20.173  1.00  0.00    -0.018 A 
ATOM     14  C   UNL     1      44.066 131.355  22.876  1.00  0.00     0.001 A 
ATOM     15  C   UNL     1      42.513 132.121  21.182  1.00  0.00     0.009 A 
ATOM     16  C   UNL     1      42.847 131.940  22.527  1.00  0.00     0.001 A 
ATOM     17  C   UNL     1      46.756 130.217  14.763  1.00  0.00     0.046 C 
ENDBRANCH   1   3
BRANCH   1  18
ATOM     18  N   UNL     1      42.846 131.681  13.681  1.00  0.00    -0.250 NA
ATOM     19  H   UNL     1      42.873 132.228  12.791  1.00  0.00     0.143 HD
ATOM     20  H   UNL     1      42.427 130.750  13.456  1.00  0.00     0.143 HD
ENDBRANCH   1  18
TORSDOF 2
ENDMDL
MODEL 4
REMARK VINA RESULT:      -8.9      3.010      6.345
REMARK SMILES Cc1cc2cc3ccccc3cc2cc1NN
REMARK SMILES IDX 16 1 15 3 2 4 3 5 4 6 14 7 5 8 13 9 6 10 12 11 7 12 11 13
REMARK SMILES IDX 8 14 10 15 9 16 1 17 17 18
REMARK H PARENT 16 2 17 19 17 20
ROOT
ATOM      1  N   UNL     1      46.698 130.425  14.990  1.00  0.00    -0.324 N 
ATOM      2  H   UNL     1      47.203 131.152  14.436  1.00  0.00     0.181 HD
ENDROOT
BRANCH   1   3
ATOM      3  C   UNL     1      45.746 130.800  16.007  1.00  0.00     0.052 A 
ATOM      4  C   UNL     1      44.479 131.331  15.659  1.00  0.00    -0.026 A 
ATOM      5  C   UNL     1      43.573 131.687  16.673  1.00  0.00     0.014 A 
ATOM      6  C   UNL     1      43.905 131.523  18.024  1.00  0.00    -0.017 A 
ATOM      7  C   UNL     1      46.074 130.639  17.366  1.00  0.00     0.036 A 
ATOM      8  C   UNL     1      42.994 131.882  19.029  1.00  0.00     0.017 A 
ATOM      9  C   UNL     1      45.167 130.995  18.374  1.00  0.00    -0.016 A 
ATOM     10  C   UNL     1      43.330 131.719  20.380  1.00  0.00    -0.018 A 
ATOM     11  C   UNL     1      45.505 130.831  19.726  1.00  0.00     0.017 A 
ATOM     12  C   UNL     1      42.422 132.075  21.390  1.00  0.00     0.009 A 
ATOM     13  C   UNL     1      44.596 131.188  20.732  1.00  0.00    -0.018 A 
ATOM     14  C   UNL     1      42.767 131.908  22.735  1.00  0.00     0.001 A 
ATOM     15  C   UNL     1      44.928 131.025  22.086  1.00  0.00     0.009 A 
ATOM     16  C   UNL     1      44.014 131.385  23.082  1.00  0.00     0.001 A 
ATOM     17  C   UNL     1      44.077 131.523  14.222  1.00  0.00     0.046 C 
ENDBRANCH   1   3
BRANCH   1  18
ATOM     18  N   UNL     1      46.975 129.077  14.712  1.00  0.00    -0.250 NA
ATOM     19  H   UNL     1      46.332 128.503  15.303  1.00  0.00     0.143 HD
ATOM     20  H   UNL     1      46.708 128.908  13.715  1.00  0.00     0.143 HD
ENDBRANCH   1  18
TORSDOF 2
ENDMDL
MODEL 5
REMARK VINA RESULT:      -8.6      0.934      1.139
REMARK SMILES Cc1cc2cc3ccccc3cc2cc1NN
REMARK SMILES IDX 16 1 15 3 2 4 3 5 4 6 14 7 5 8 13 9 6 10 12 11 7 12 11 13
REMARK SMILES IDX 8 14 10 15 9 16 1 17 17 18
REMARK H PARENT 16 2 17 19 17 20
ROOT
ATOM      1  N   UNL     1      42.071 132.247  22.133  1.00  0.00    -0.324 N 
ATOM      2  H   UNL     1      41.456 133.067  21.937  1.00  0.00     0.181 HD
ENDROOT
BRANCH   1   3
ATOM      3  C   UNL     1      43.048 131.809  21.165  1.00  0.00     0.052 A 
ATOM      4  C   UNL     1      44.258 131.198  21.577  1.00  0.00    -0.026 A 
ATOM      5  C   UNL     1      45.191 130.782  20.611  1.00  0.00     0.014 A 
ATOM      6  C   UNL     1      44.939 130.964  19.245  1.00  0.00    -0.017 A 
ATOM      7  C   UNL     1      42.801 131.989  19.792  1.00  0.00     0.036 A 
ATOM      8  C   UNL     1      45.876 130.546  18.287  1.00  0.00     0.017 A 
ATOM      9  C   UNL     1      43.734 131.573  18.832  1.00  0.00    -0.016 A 
ATOM     10  C   UNL     1      45.622 130.729  16.921  1.00  0.00    -0.018 A 
ATOM     11  C   UNL     1      43.479 131.758  17.464  1.00  0.00     0.017 A 
ATOM     12  C   UNL     1      46.555 130.313  15.959  1.00  0.00     0.009 A 
ATOM     13  C   UNL     1      44.413 131.340  16.506  1.00  0.00    -0.018 A 
ATOM     14  C   UNL     1      46.293 130.501  14.598  1.00  0.00     0.001 A 
ATOM     15  C   UNL     1      44.163 131.521  15.136  1.00  0.00     0.009 A 
ATOM     16  C   UNL     1      45.101 131.102  14.189  1.00  0.00     0.001 A 
ATOM     17  C   UNL     1      44.572 130.981  23.033  1.00  0.00     0.046 C 
ENDBRANCH   1   3
BRANCH   1  18
ATOM     18  N   UNL     1      41.917 131.588  23.362  1.00  0.00    -0.250 NA
ATOM     19  H   UNL     1      41.797 132.325  24.094  1.00  0.00     0.143 HD
ATOM     20  H   UNL     1      41.018 131.055  23.314  1.00  0.00     0.143 HD
ENDBRANCH   1  18
TORSDOF 2
ENDMDL
MODEL 6
REMARK VINA RESULT:      -8.4      1.620      2.773
REMARK SMILES Cc1cc2cc3ccccc3cc2cc1NN
REMARK SMILES IDX 16 1 15 3 2 4 3 5 4 6 14 7 5 8 13 9 6 10 12 11 7 12 11 13
REMARK SMILES IDX 8 14 10 15 9 16 1 17 17 18
REMARK H PARENT 16 2 17 19 17 20
ROOT
ATOM      1  N   UNL     1      44.229 130.799  21.121  1.00  0.00    -0.324 N 
ATOM      2  H   UNL     1      43.515 130.139  21.500  1.00  0.00     0.181 HD
ENDROOT
BRANCH   1   3
ATOM      3  C   UNL     1      44.345 131.027  19.701  1.00  0.00     0.052 A 
ATOM      4  C   UNL     1      43.406 131.836  19.014  1.00  0.00    -0.026 A 
ATOM      5  C   UNL     1      43.545 132.039  17.630  1.00  0.00     0.014 A 
ATOM      6  C   UNL     1      44.601 131.452  16.920  1.00  0.00    -0.017 A 
ATOM      7  C   UNL     1      45.403 130.440  18.982  1.00  0.00     0.036 A 
ATOM      8  C   UNL     1      44.732 131.660  15.538  1.00  0.00     0.017 A 
ATOM      9  C   UNL     1      45.537 130.645  17.602  1.00  0.00    -0.016 A 
ATOM     10  C   UNL     1      45.788 131.072  14.831  1.00  0.00    -0.018 A 
ATOM     11  C   UNL     1      46.596 130.055  16.894  1.00  0.00     0.017 A 
ATOM     12  C   UNL     1      45.925 131.277  13.448  1.00  0.00     0.009 A 
ATOM     13  C   UNL     1      46.729 130.262  15.514  1.00  0.00    -0.018 A 
ATOM     14  C   UNL     1      46.982 130.685  12.751  1.00  0.00     0.001 A 
ATOM     15  C   UNL     1      47.786 129.675  14.801  1.00  0.00     0.009 A 
ATOM     16  C   UNL     1      47.910 129.887  13.425  1.00  0.00     0.001 A 
ATOM     17  C   UNL     1      42.256 132.487  19.734  1.00  0.00     0.046 C 
ENDBRANCH   1   3
BRANCH   1  18
ATOM     18  N   UNL     1      45.069 131.455  22.035  1.00  0.00    -0.250 NA
ATOM     19  H   UNL     1      44.470 131.766  22.833  1.00  0.00     0.143 HD
ATOM     20  H   UNL     1      45.732 130.739  22.410  1.00  0.00     0.143 HD
ENDBRANCH   1  18
TORSDOF 2
ENDMDL
MODEL 7
REMARK VINA RESULT:      -8.1      0.906      1.211
REMARK SMILES Cc1cc2cc3ccccc3cc2cc1NN
REMARK SMILES IDX 16 1 15 3 2 4 3 5 4 6 14 7 5 8 13 9 6 10 12 11 7 12 11 13
REMARK SMILES IDX 8 14 10 15 9 16 1 17 17 18
REMARK H PARENT 16 2 17 19 17 20
ROOT
ATOM      1  N   UNL     1      41.941 132.373  19.660  1.00  0.00    -0.324 N 
ATOM      2  H   UNL     1      41.105 131.778  19.854  1.00  0.00     0.181 HD
ENDROOT
BRANCH   1   3
ATOM      3  C   UNL     1      43.106 131.821  19.013  1.00  0.00     0.052 A 
ATOM      4  C   UNL     1      44.108 131.154  19.762  1.00  0.00    -0.026 A 
ATOM      5  C   UNL     1      45.232 130.626  19.105  1.00  0.00     0.014 A 
ATOM      6  C   UNL     1      45.375 130.750  17.717  1.00  0.00    -0.017 A 
ATOM      7  C   UNL     1      43.257 131.942  17.620  1.00  0.00     0.036 A 
ATOM      8  C   UNL     1      46.502 130.220  17.068  1.00  0.00     0.017 A 
ATOM      9  C   UNL     1      44.380 131.414  16.968  1.00  0.00    -0.016 A 
ATOM     10  C   UNL     1      46.644 130.346  15.680  1.00  0.00    -0.018 A 
ATOM     11  C   UNL     1      44.521 131.541  15.577  1.00  0.00     0.017 A 
ATOM     12  C   UNL     1      47.768 129.817  15.025  1.00  0.00     0.009 A 
ATOM     13  C   UNL     1      45.645 131.012  14.927  1.00  0.00    -0.018 A 
ATOM     14  C   UNL     1      47.900 129.948  13.639  1.00  0.00     0.001 A 
ATOM     15  C   UNL     1      45.791 131.135  13.536  1.00  0.00     0.009 A 
ATOM     16  C   UNL     1      46.915 130.604  12.898  1.00  0.00     0.001 A 
ATOM     17  C   UNL     1      43.996 130.996  21.255  1.00  0.00     0.046 C 
ENDBRANCH   1   3
BRANCH   1  18
ATOM     18  N   UNL     1      41.892 133.722  20.045  1.00  0.00    -0.250 NA
ATOM     19  H   UNL     1      41.717 134.283  19.181  1.00  0.00     0.143 HD
ATOM     20  H   UNL     1      41.053 133.835  20.660  1.00  0.00     0.143 HD
ENDBRANCH   1  18
TORSDOF 2
ENDMDL


