REMARK SMILES N#C[C@H]1c2ccccc2C[C@@H]1NC(=O)C1CCCC1
REMARK SMILES IDX 3 1 4 2 5 3 6 4 7 5 8 6 9 7 10 8 11 9 2 10 1 11 12 12 13 13
REMARK SMILES IDX 14 15 15 16 16 17 19 18 17 19 18 20
REMARK H PARENT 12 14
ROOT
ATOM      1  C   UNL     1       0.490   1.698   0.859  1.00  0.00     0.145 C 
ATOM      2  C   UNL     1       0.337   2.567  -0.336  1.00  0.00    -0.025 A 
ATOM      3  C   UNL     1      -0.681   3.495  -0.577  1.00  0.00     0.005 A 
ATOM      4  C   UNL     1      -0.649   4.240  -1.767  1.00  0.00     0.000 A 
ATOM      5  C   UNL     1       0.390   4.045  -2.695  1.00  0.00     0.000 A 
ATOM      6  C   UNL     1       1.399   3.105  -2.436  1.00  0.00     0.004 A 
ATOM      7  C   UNL     1       1.345   2.371  -1.248  1.00  0.00    -0.041 A 
ATOM      8  C   UNL     1       2.319   1.353  -0.791  1.00  0.00     0.062 C 
ATOM      9  C   UNL     1       1.655   0.745   0.471  1.00  0.00     0.108 C 
ENDROOT
BRANCH   1  10
ATOM     10  C   UNL     1       0.838   2.515   2.032  1.00  0.00     0.073 C 
ATOM     11  N   UNL     1       1.114   3.157   2.955  1.00  0.00    -0.198 NA
ENDBRANCH   1  10
BRANCH   9  12
ATOM     12  N   UNL     1       1.129  -0.597   0.192  1.00  0.00    -0.351 N 
ATOM     13  C   UNL     1       0.730  -1.488   1.247  1.00  0.00     0.223 C 
ATOM     14  H   UNL     1       1.027  -0.920  -0.796  1.00  0.00     0.163 HD
ATOM     15  O   UNL     1       0.876  -1.146   2.453  1.00  0.00    -0.275 OA
BRANCH  13  16
ATOM     16  C   UNL     1       0.143  -2.841   0.929  1.00  0.00     0.078 C 
ATOM     17  C   UNL     1       1.155  -3.750   0.223  1.00  0.00     0.013 C 
ATOM     18  C   UNL     1      -1.084  -2.744   0.012  1.00  0.00     0.013 C 
ATOM     19  C   UNL     1       0.387  -4.447  -0.887  1.00  0.00     0.001 C 
ATOM     20  C   UNL     1      -0.729  -3.491  -1.265  1.00  0.00     0.001 C 
ENDBRANCH  13  16
ENDBRANCH   9  12
TORSDOF 3


