REMARK SMILES CC1=N[C@@]2(F)C[C@@H]([C@H]3O[C@@H]3C(=O)c3ccc(F)cc3)CC[C@H]2C1
REMARK SMILES IDX 8 1 9 2 10 3 7 4 2 5 23 6 3 7 22 8 4 9 21 10 6 11 20 12 1 13
REMARK SMILES IDX 5 14 11 15 12 16 13 17 14 18 19 19 15 20 18 21 16 22 17 23
REMARK H PARENT
ROOT
ATOM      1  C   UNL     1       0.184  -1.665   0.977  1.00  0.00     0.159 C 
ATOM      2  O   UNL     1       0.666  -2.615   1.898  1.00  0.00    -0.361 OA
ATOM      3  C   UNL     1      -0.702  -2.282   1.996  1.00  0.00     0.219 C 
ENDROOT
BRANCH   1   4
ATOM      4  C   UNL     1       0.732  -0.261   1.283  1.00  0.00     0.026 C 
ATOM      5  C   UNL     1       0.531   3.928  -0.518  1.00  0.00     0.014 C 
ATOM      6  C   UNL     1       1.954   3.640  -0.197  1.00  0.00     0.059 C 
ATOM      7  N   UNL     1      -0.302   3.172   0.084  1.00  0.00    -0.255 NA
ATOM      8  C   UNL     1       1.857   2.387   0.689  1.00  0.00     0.055 C 
ATOM      9  C   UNL     1       0.335   2.218   0.949  1.00  0.00     0.203 C 
ATOM     10  C   UNL     1       2.483   1.157   0.002  1.00  0.00     0.010 C 
ATOM     11  C   UNL     1      -0.191   0.800   0.657  1.00  0.00     0.072 C 
ATOM     12  C   UNL     1       2.201  -0.132   0.790  1.00  0.00     0.007 C 
ATOM     13  C   UNL     1       0.088   5.013  -1.447  1.00  0.00     0.061 C 
ATOM     14  F   UNL     1       0.052   2.549   2.265  1.00  0.00    -0.218 F 
ENDBRANCH   1   4
BRANCH   3  15
ATOM     15  C   UNL     1      -1.573  -3.398   1.502  1.00  0.00     0.194 C 
ATOM     16  O   UNL     1      -1.241  -4.587   1.763  1.00  0.00    -0.291 OA
BRANCH  15  17
ATOM     17  C   UNL     1      -2.817  -3.130   0.738  1.00  0.00     0.021 A 
ATOM     18  C   UNL     1      -3.484  -4.181   0.080  1.00  0.00     0.015 A 
ATOM     19  C   UNL     1      -3.356  -1.831   0.658  1.00  0.00     0.015 A 
ATOM     20  C   UNL     1      -4.654  -3.935  -0.647  1.00  0.00     0.040 A 
ATOM     21  C   UNL     1      -4.525  -1.590  -0.069  1.00  0.00     0.040 A 
ATOM     22  C   UNL     1      -5.173  -2.641  -0.722  1.00  0.00     0.123 A 
ATOM     23  F   UNL     1      -6.309  -2.405  -1.424  1.00  0.00    -0.207 F 
ENDBRANCH  15  17
ENDBRANCH   3  15
TORSDOF 3


