REMARK SMILES Cc1ccc(NC(=O)[N-]c2c(F)cc(F)cc2F)c(-c2ccc3c(c2)[N-]C(=O)C3)c1
REMARK SMILES IDX 6 1 7 2 8 3 5 5 2 6 3 7 30 8 4 9 19 10 1 11 20 12 21 13
REMARK SMILES IDX 25 14 22 15 24 16 23 17 26 18 29 19 27 20 28 21 9 22 10 23
REMARK SMILES IDX 11 24 17 25 13 26 16 27 14 28 12 29 18 30 15 31
REMARK H PARENT 6 4
ROOT
ATOM      1  N   UNL     1       0.129   0.090  -1.920  1.00  0.00    -0.423 N 
ATOM      2  C   UNL     1       0.943  -0.586  -0.954  1.00  0.00     0.160 C 
ATOM      3  O   UNL     1       0.417  -1.372  -0.119  1.00  0.00    -0.298 OA
ATOM      4  H   UNL     1       0.599   0.490  -2.764  1.00  0.00     0.029 HD
ENDROOT
BRANCH   1   5
ATOM      5  C   UNL     1      -1.306   0.057  -1.889  1.00  0.00    -0.033 A 
ATOM      6  C   UNL     1      -4.117  -0.117  -1.891  1.00  0.00    -0.051 A 
ATOM      7  C   UNL     1      -3.383  -0.494  -3.023  1.00  0.00     0.004 A 
ATOM      8  C   UNL     1      -3.441   0.347  -0.754  1.00  0.00     0.012 A 
ATOM      9  C   UNL     1      -1.991  -0.396  -3.025  1.00  0.00     0.004 A 
ATOM     10  C   UNL     1      -2.039   0.462  -0.746  1.00  0.00    -0.015 A 
ATOM     11  C   UNL     1      -5.610  -0.263  -1.876  1.00  0.00     0.044 C 
BRANCH  10  12
ATOM     12  C   UNL     1      -1.375   1.055   0.440  1.00  0.00    -0.019 A 
ATOM     13  C   UNL     1      -0.475   2.138   0.290  1.00  0.00     0.009 A 
ATOM     14  C   UNL     1      -1.649   0.552   1.730  1.00  0.00    -0.007 A 
ATOM     15  C   UNL     1       0.160   2.700   1.409  1.00  0.00     0.003 A 
ATOM     16  C   UNL     1      -1.006   1.128   2.823  1.00  0.00    -0.130 A 
ATOM     17  C   UNL     1      -0.123   2.174   2.668  1.00  0.00    -0.057 A 
ATOM     18  N   UNL     1      -1.149   0.725   4.175  1.00  0.00    -0.626 NA
ATOM     19  C   UNL     1       0.438   2.585   3.984  1.00  0.00     0.089 C 
ATOM     20  C   UNL     1      -0.274   1.609   4.872  1.00  0.00     0.059 C 
ATOM     21  O   UNL     1      -0.121   1.563   6.120  1.00  0.00    -0.320 OA
ENDBRANCH  10  12
ENDBRANCH   1   5
BRANCH   2  22
ATOM     22  N   UNL     1       2.364  -0.417  -0.995  1.00  0.00    -0.396 NA
BRANCH  22  23
ATOM     23  C   UNL     1       3.288  -0.802   0.034  1.00  0.00     0.034 A 
ATOM     24  C   UNL     1       2.970  -0.691   1.404  1.00  0.00     0.132 A 
ATOM     25  C   UNL     1       4.568  -1.238  -0.339  1.00  0.00     0.132 A 
ATOM     26  C   UNL     1       3.910  -1.058   2.373  1.00  0.00     0.079 A 
ATOM     27  C   UNL     1       5.502  -1.604   0.635  1.00  0.00     0.079 A 
ATOM     28  C   UNL     1       5.172  -1.520   1.990  1.00  0.00     0.129 A 
ATOM     29  F   UNL     1       1.784  -0.177   1.810  1.00  0.00    -0.207 F 
ATOM     30  F   UNL     1       4.904  -1.321  -1.651  1.00  0.00    -0.207 F 
ATOM     31  F   UNL     1       6.080  -1.872   2.933  1.00  0.00    -0.207 F 
ENDBRANCH  22  23
ENDBRANCH   2  22
TORSDOF 4


