MODEL 1
REMARK VINA RESULT:      -8.8      0.000      0.000
REMARK SMILES C=C[C@@H]1CCC[C@@H](c2ccc(C(C)=O)cc2)C1=C
REMARK SMILES IDX 3 1 4 2 5 3 6 4 7 5 17 6 18 7 2 8 1 9 8 10 9 11 16 12 10 13
REMARK SMILES IDX 15 14 11 15 12 16 13 17 14 18
REMARK H PARENT
ROOT
ATOM      1  C   UNL     1      43.671 132.156  20.494  1.00  0.00     0.037 C 
ATOM      2  C   UNL     1      42.543 133.013  19.890  1.00  0.00     0.012 C 
ATOM      3  C   UNL     1      41.789 132.266  18.788  1.00  0.00     0.002 C 
ATOM      4  C   UNL     1      42.745 131.913  17.650  1.00  0.00     0.013 C 
ATOM      5  C   UNL     1      43.905 131.014  18.127  1.00  0.00     0.045 C 
ATOM      6  C   UNL     1      44.550 131.542  19.413  1.00  0.00    -0.063 C 
ATOM      7  C   UNL     1      45.819 131.223  19.737  1.00  0.00     0.009 C 
ENDROOT
BRANCH   1   8
ATOM      8  C   UNL     1      43.109 131.068  21.383  1.00  0.00    -0.027 C 
ATOM      9  C   UNL     1      43.170 131.152  22.715  1.00  0.00     0.004 C 
ENDBRANCH   1   8
BRANCH   5  10
ATOM     10  C   UNL     1      44.892 130.834  16.984  1.00  0.00    -0.041 A 
ATOM     11  C   UNL     1      45.388 131.944  16.279  1.00  0.00     0.005 A 
ATOM     12  C   UNL     1      45.301 129.548  16.600  1.00  0.00     0.005 A 
ATOM     13  C   UNL     1      46.284 131.773  15.221  1.00  0.00     0.012 A 
ATOM     14  C   UNL     1      46.197 129.375  15.541  1.00  0.00     0.012 A 
ATOM     15  C   UNL     1      46.703 130.484  14.838  1.00  0.00     0.017 A 
BRANCH  15  16
ATOM     16  C   UNL     1      47.657 130.281  13.714  1.00  0.00     0.159 C 
ATOM     17  C   UNL     1      47.759 131.252  12.576  1.00  0.00     0.093 C 
ATOM     18  O   UNL     1      48.409 129.269  13.707  1.00  0.00    -0.295 OA
ENDBRANCH  15  16
ENDBRANCH   5  10
TORSDOF 3
ENDMDL
MODEL 2
REMARK VINA RESULT:      -8.7      0.716      1.408
REMARK SMILES C=C[C@@H]1CCC[C@@H](c2ccc(C(C)=O)cc2)C1=C
REMARK SMILES IDX 3 1 4 2 5 3 6 4 7 5 17 6 18 7 2 8 1 9 8 10 9 11 16 12 10 13
REMARK SMILES IDX 15 14 11 15 12 16 13 17 14 18
REMARK H PARENT
ROOT
ATOM      1  C   UNL     1      43.745 132.084  20.417  1.00  0.00     0.037 C 
ATOM      2  C   UNL     1      42.583 132.935  19.871  1.00  0.00     0.012 C 
ATOM      3  C   UNL     1      41.798 132.196  18.785  1.00  0.00     0.002 C 
ATOM      4  C   UNL     1      42.715 131.876  17.605  1.00  0.00     0.013 C 
ATOM      5  C   UNL     1      43.905 130.985  18.023  1.00  0.00     0.045 C 
ATOM      6  C   UNL     1      44.590 131.501  19.293  1.00  0.00    -0.063 C 
ATOM      7  C   UNL     1      45.875 131.195  19.563  1.00  0.00     0.009 C 
ENDROOT
BRANCH   1   8
ATOM      8  C   UNL     1      43.232 130.973  21.307  1.00  0.00    -0.027 C 
ATOM      9  C   UNL     1      43.844 130.654  22.452  1.00  0.00     0.004 C 
ENDBRANCH   1   8
BRANCH   5  10
ATOM     10  C   UNL     1      44.850 130.839  16.840  1.00  0.00    -0.041 A 
ATOM     11  C   UNL     1      45.175 129.570  16.330  1.00  0.00     0.005 A 
ATOM     12  C   UNL     1      45.433 131.975  16.258  1.00  0.00     0.005 A 
ATOM     13  C   UNL     1      46.054 129.441  15.252  1.00  0.00     0.012 A 
ATOM     14  C   UNL     1      46.314 131.846  15.179  1.00  0.00     0.012 A 
ATOM     15  C   UNL     1      46.635 130.578  14.660  1.00  0.00     0.017 A 
BRANCH  15  16
ATOM     16  C   UNL     1      47.573 130.460  13.511  1.00  0.00     0.159 C 
ATOM     17  C   UNL     1      48.634 129.402  13.461  1.00  0.00     0.093 C 
ATOM     18  O   UNL     1      47.483 131.265  12.544  1.00  0.00    -0.295 OA
ENDBRANCH  15  16
ENDBRANCH   5  10
TORSDOF 3
ENDMDL
MODEL 3
REMARK VINA RESULT:      -8.4      0.846      2.064
REMARK SMILES C=C[C@@H]1CCC[C@@H](c2ccc(C(C)=O)cc2)C1=C
REMARK SMILES IDX 3 1 4 2 5 3 6 4 7 5 17 6 18 7 2 8 1 9 8 10 9 11 16 12 10 13
REMARK SMILES IDX 15 14 11 15 12 16 13 17 14 18
REMARK H PARENT
ROOT
ATOM      1  C   UNL     1      42.290 131.715  19.744  1.00  0.00     0.037 C 
ATOM      2  C   UNL     1      43.033 131.053  20.919  1.00  0.00     0.012 C 
ATOM      3  C   UNL     1      44.457 131.592  21.067  1.00  0.00     0.002 C 
ATOM      4  C   UNL     1      45.261 131.297  19.802  1.00  0.00     0.013 C 
ATOM      5  C   UNL     1      44.633 131.950  18.552  1.00  0.00     0.045 C 
ATOM      6  C   UNL     1      43.123 131.697  18.470  1.00  0.00    -0.063 C 
ATOM      7  C   UNL     1      42.474 131.743  17.289  1.00  0.00     0.009 C 
ENDROOT
BRANCH   1   8
ATOM      8  C   UNL     1      41.896 133.136  20.082  1.00  0.00    -0.027 C 
ATOM      9  C   UNL     1      41.099 133.413  21.118  1.00  0.00     0.004 C 
ENDBRANCH   1   8
BRANCH   5  10
ATOM     10  C   UNL     1      45.393 131.487  17.319  1.00  0.00    -0.041 A 
ATOM     11  C   UNL     1      45.582 132.349  16.224  1.00  0.00     0.005 A 
ATOM     12  C   UNL     1      45.896 130.179  17.248  1.00  0.00     0.005 A 
ATOM     13  C   UNL     1      46.270 131.915  15.088  1.00  0.00     0.012 A 
ATOM     14  C   UNL     1      46.584 129.744  16.112  1.00  0.00     0.012 A 
ATOM     15  C   UNL     1      46.783 130.606  15.017  1.00  0.00     0.017 A 
BRANCH  15  16
ATOM     16  C   UNL     1      47.519 130.125  13.816  1.00  0.00     0.159 C 
ATOM     17  C   UNL     1      47.844 131.036  12.670  1.00  0.00     0.093 C 
ATOM     18  O   UNL     1      47.888 128.921  13.748  1.00  0.00    -0.295 OA
ENDBRANCH  15  16
ENDBRANCH   5  10
TORSDOF 3
ENDMDL
MODEL 4
REMARK VINA RESULT:      -8.3      0.819      2.338
REMARK SMILES C=C[C@@H]1CCC[C@@H](c2ccc(C(C)=O)cc2)C1=C
REMARK SMILES IDX 3 1 4 2 5 3 6 4 7 5 17 6 18 7 2 8 1 9 8 10 9 11 16 12 10 13
REMARK SMILES IDX 15 14 11 15 12 16 13 17 14 18
REMARK H PARENT
ROOT
ATOM      1  C   UNL     1      42.325 131.734  19.613  1.00  0.00     0.037 C 
ATOM      2  C   UNL     1      43.069 131.105  20.806  1.00  0.00     0.012 C 
ATOM      3  C   UNL     1      44.490 131.655  20.945  1.00  0.00     0.002 C 
ATOM      4  C   UNL     1      45.299 131.334  19.688  1.00  0.00     0.013 C 
ATOM      5  C   UNL     1      44.670 131.952  18.422  1.00  0.00     0.045 C 
ATOM      6  C   UNL     1      43.162 131.690  18.342  1.00  0.00    -0.063 C 
ATOM      7  C   UNL     1      42.515 131.704  17.159  1.00  0.00     0.009 C 
ENDROOT
BRANCH   1   8
ATOM      8  C   UNL     1      41.924 133.161  19.917  1.00  0.00    -0.027 C 
ATOM      9  C   UNL     1      41.240 133.477  21.021  1.00  0.00     0.004 C 
ENDBRANCH   1   8
BRANCH   5  10
ATOM     10  C   UNL     1      45.436 131.464  17.202  1.00  0.00    -0.041 A 
ATOM     11  C   UNL     1      45.919 130.146  17.136  1.00  0.00     0.005 A 
ATOM     12  C   UNL     1      45.693 132.337  16.134  1.00  0.00     0.005 A 
ATOM     13  C   UNL     1      46.633 129.706  16.018  1.00  0.00     0.012 A 
ATOM     14  C   UNL     1      46.409 131.898  15.016  1.00  0.00     0.012 A 
ATOM     15  C   UNL     1      46.887 130.576  14.941  1.00  0.00     0.017 A 
BRANCH  15  16
ATOM     16  C   UNL     1      47.646 130.126  13.743  1.00  0.00     0.159 C 
ATOM     17  C   UNL     1      47.827 131.008  12.543  1.00  0.00     0.093 C 
ATOM     18  O   UNL     1      48.157 128.974  13.722  1.00  0.00    -0.295 OA
ENDBRANCH  15  16
ENDBRANCH   5  10
TORSDOF 3
ENDMDL
MODEL 5
REMARK VINA RESULT:      -8.2      2.954      6.689
REMARK SMILES C=C[C@@H]1CCC[C@@H](c2ccc(C(C)=O)cc2)C1=C
REMARK SMILES IDX 3 1 4 2 5 3 6 4 7 5 17 6 18 7 2 8 1 9 8 10 9 11 16 12 10 13
REMARK SMILES IDX 15 14 11 15 12 16 13 17 14 18
REMARK H PARENT
ROOT
ATOM      1  C   UNL     1      45.863 130.213  15.004  1.00  0.00     0.037 C 
ATOM      2  C   UNL     1      44.520 130.453  14.290  1.00  0.00     0.012 C 
ATOM      3  C   UNL     1      43.898 131.794  14.685  1.00  0.00     0.002 C 
ATOM      4  C   UNL     1      43.619 131.816  16.188  1.00  0.00     0.013 C 
ATOM      5  C   UNL     1      44.907 131.626  17.017  1.00  0.00     0.045 C 
ATOM      6  C   UNL     1      45.754 130.456  16.503  1.00  0.00    -0.063 C 
ATOM      7  C   UNL     1      46.625 129.820  17.312  1.00  0.00     0.009 C 
ENDROOT
BRANCH   1   8
ATOM      8  C   UNL     1      46.953 131.083  14.418  1.00  0.00    -0.027 C 
ATOM      9  C   UNL     1      47.312 130.986  13.134  1.00  0.00     0.004 C 
ENDBRANCH   1   8
BRANCH   5  10
ATOM     10  C   UNL     1      44.533 131.504  18.486  1.00  0.00    -0.041 A 
ATOM     11  C   UNL     1      43.232 131.805  18.926  1.00  0.00     0.005 A 
ATOM     12  C   UNL     1      45.496 131.114  19.430  1.00  0.00     0.005 A 
ATOM     13  C   UNL     1      42.898 131.703  20.279  1.00  0.00     0.012 A 
ATOM     14  C   UNL     1      45.162 131.013  20.784  1.00  0.00     0.012 A 
ATOM     15  C   UNL     1      43.859 131.304  21.227  1.00  0.00     0.017 A 
BRANCH  15  16
ATOM     16  C   UNL     1      43.521 131.191  22.672  1.00  0.00     0.159 C 
ATOM     17  C   UNL     1      44.056 130.080  23.525  1.00  0.00     0.093 C 
ATOM     18  O   UNL     1      42.767 132.047  23.208  1.00  0.00    -0.295 OA
ENDBRANCH  15  16
ENDBRANCH   5  10
TORSDOF 3
ENDMDL
MODEL 6
REMARK VINA RESULT:      -8.2      2.965      6.726
REMARK SMILES C=C[C@@H]1CCC[C@@H](c2ccc(C(C)=O)cc2)C1=C
REMARK SMILES IDX 3 1 4 2 5 3 6 4 7 5 17 6 18 7 2 8 1 9 8 10 9 11 16 12 10 13
REMARK SMILES IDX 15 14 11 15 12 16 13 17 14 18
REMARK H PARENT
ROOT
ATOM      1  C   UNL     1      45.837 130.225  15.061  1.00  0.00     0.037 C 
ATOM      2  C   UNL     1      44.492 130.451  14.345  1.00  0.00     0.012 C 
ATOM      3  C   UNL     1      43.856 131.787  14.735  1.00  0.00     0.002 C 
ATOM      4  C   UNL     1      43.577 131.812  16.238  1.00  0.00     0.013 C 
ATOM      5  C   UNL     1      44.866 131.636  17.069  1.00  0.00     0.045 C 
ATOM      6  C   UNL     1      45.724 130.473  16.559  1.00  0.00    -0.063 C 
ATOM      7  C   UNL     1      46.600 129.847  17.370  1.00  0.00     0.009 C 
ENDROOT
BRANCH   1   8
ATOM      8  C   UNL     1      46.919 131.104  14.472  1.00  0.00    -0.027 C 
ATOM      9  C   UNL     1      47.307 130.980  13.200  1.00  0.00     0.004 C 
ENDBRANCH   1   8
BRANCH   5  10
ATOM     10  C   UNL     1      44.493 131.515  18.538  1.00  0.00    -0.041 A 
ATOM     11  C   UNL     1      45.448 131.129  19.494  1.00  0.00     0.005 A 
ATOM     12  C   UNL     1      43.176 131.765  18.955  1.00  0.00     0.005 A 
ATOM     13  C   UNL     1      45.096 131.007  20.841  1.00  0.00     0.012 A 
ATOM     14  C   UNL     1      42.823 131.643  20.302  1.00  0.00     0.012 A 
ATOM     15  C   UNL     1      43.778 131.264  21.264  1.00  0.00     0.017 A 
BRANCH  15  16
ATOM     16  C   UNL     1      43.385 131.140  22.694  1.00  0.00     0.159 C 
ATOM     17  C   UNL     1      43.693 129.911  23.496  1.00  0.00     0.093 C 
ATOM     18  O   UNL     1      42.777 132.088  23.261  1.00  0.00    -0.295 OA
ENDBRANCH  15  16
ENDBRANCH   5  10
TORSDOF 3
ENDMDL
MODEL 7
REMARK VINA RESULT:      -7.9      1.134      2.568
REMARK SMILES C=C[C@@H]1CCC[C@@H](c2ccc(C(C)=O)cc2)C1=C
REMARK SMILES IDX 3 1 4 2 5 3 6 4 7 5 17 6 18 7 2 8 1 9 8 10 9 11 16 12 10 13
REMARK SMILES IDX 15 14 11 15 12 16 13 17 14 18
REMARK H PARENT
ROOT
ATOM      1  C   UNL     1      42.701 131.325  20.530  1.00  0.00     0.037 C 
ATOM      2  C   UNL     1      43.588 130.548  21.520  1.00  0.00     0.012 C 
ATOM      3  C   UNL     1      45.026 131.071  21.526  1.00  0.00     0.002 C 
ATOM      4  C   UNL     1      45.647 130.907  20.139  1.00  0.00     0.013 C 
ATOM      5  C   UNL     1      44.862 131.682  19.059  1.00  0.00     0.045 C 
ATOM      6  C   UNL     1      43.353 131.437  19.158  1.00  0.00    -0.063 C 
ATOM      7  C   UNL     1      42.550 131.602  18.088  1.00  0.00     0.009 C 
ENDROOT
BRANCH   1   8
ATOM      8  C   UNL     1      42.375 132.704  21.060  1.00  0.00    -0.027 C 
ATOM      9  C   UNL     1      41.441 133.471  20.489  1.00  0.00     0.004 C 
ENDBRANCH   1   8
BRANCH   5  10
ATOM     10  C   UNL     1      45.442 131.347  17.694  1.00  0.00    -0.041 A 
ATOM     11  C   UNL     1      45.934 130.060  17.416  1.00  0.00     0.005 A 
ATOM     12  C   UNL     1      45.519 132.333  16.698  1.00  0.00     0.005 A 
ATOM     13  C   UNL     1      46.477 129.761  16.163  1.00  0.00     0.012 A 
ATOM     14  C   UNL     1      46.063 132.035  15.445  1.00  0.00     0.012 A 
ATOM     15  C   UNL     1      46.548 130.746  15.159  1.00  0.00     0.017 A 
BRANCH  15  16
ATOM     16  C   UNL     1      47.123 130.447  13.820  1.00  0.00     0.159 C 
ATOM     17  C   UNL     1      48.193 129.413  13.631  1.00  0.00     0.093 C 
ATOM     18  O   UNL     1      46.708 131.071  12.806  1.00  0.00    -0.295 OA
ENDBRANCH  15  16
ENDBRANCH   5  10
TORSDOF 3
ENDMDL
MODEL 8
REMARK VINA RESULT:      -7.7      2.703      6.788
REMARK SMILES C=C[C@@H]1CCC[C@@H](c2ccc(C(C)=O)cc2)C1=C
REMARK SMILES IDX 3 1 4 2 5 3 6 4 7 5 17 6 18 7 2 8 1 9 8 10 9 11 16 12 10 13
REMARK SMILES IDX 15 14 11 15 12 16 13 17 14 18
REMARK H PARENT
ROOT
ATOM      1  C   UNL     1      46.154 129.682  14.304  1.00  0.00     0.037 C 
ATOM      2  C   UNL     1      46.144 131.020  13.542  1.00  0.00     0.012 C 
ATOM      3  C   UNL     1      46.816 132.136  14.343  1.00  0.00     0.002 C 
ATOM      4  C   UNL     1      46.067 132.359  15.656  1.00  0.00     0.013 C 
ATOM      5  C   UNL     1      46.046 131.089  16.533  1.00  0.00     0.045 C 
ATOM      6  C   UNL     1      45.651 129.844  15.731  1.00  0.00    -0.063 C 
ATOM      7  C   UNL     1      45.117 128.766  16.340  1.00  0.00     0.009 C 
ENDROOT
BRANCH   1   8
ATOM      8  C   UNL     1      47.539 129.072  14.311  1.00  0.00    -0.027 C 
ATOM      9  C   UNL     1      48.470 129.439  13.425  1.00  0.00     0.004 C 
ENDBRANCH   1   8
BRANCH   5  10
ATOM     10  C   UNL     1      45.158 131.339  17.742  1.00  0.00    -0.041 A 
ATOM     11  C   UNL     1      45.653 131.171  19.047  1.00  0.00     0.005 A 
ATOM     12  C   UNL     1      43.818 131.718  17.568  1.00  0.00     0.005 A 
ATOM     13  C   UNL     1      44.829 131.390  20.154  1.00  0.00     0.012 A 
ATOM     14  C   UNL     1      42.992 131.936  18.675  1.00  0.00     0.012 A 
ATOM     15  C   UNL     1      43.486 131.777  19.983  1.00  0.00     0.017 A 
BRANCH  15  16
ATOM     16  C   UNL     1      42.593 132.015  21.149  1.00  0.00     0.159 C 
ATOM     17  C   UNL     1      42.793 131.307  22.456  1.00  0.00     0.093 C 
ATOM     18  O   UNL     1      41.639 132.833  21.051  1.00  0.00    -0.295 OA
ENDBRANCH  15  16
ENDBRANCH   5  10
TORSDOF 3
ENDMDL
MODEL 9
REMARK VINA RESULT:      -7.6      2.727      6.761
REMARK SMILES C=C[C@@H]1CCC[C@@H](c2ccc(C(C)=O)cc2)C1=C
REMARK SMILES IDX 3 1 4 2 5 3 6 4 7 5 17 6 18 7 2 8 1 9 8 10 9 11 16 12 10 13
REMARK SMILES IDX 15 14 11 15 12 16 13 17 14 18
REMARK H PARENT
ROOT
ATOM      1  C   UNL     1      46.146 129.670  14.425  1.00  0.00     0.037 C 
ATOM      2  C   UNL     1      46.020 130.991  13.642  1.00  0.00     0.012 C 
ATOM      3  C   UNL     1      46.635 132.165  14.406  1.00  0.00     0.002 C 
ATOM      4  C   UNL     1      45.909 132.358  15.737  1.00  0.00     0.013 C 
ATOM      5  C   UNL     1      46.002 131.106  16.634  1.00  0.00     0.045 C 
ATOM      6  C   UNL     1      45.673 129.822  15.864  1.00  0.00    -0.063 C 
ATOM      7  C   UNL     1      45.233 128.720  16.504  1.00  0.00     0.009 C 
ENDROOT
BRANCH   1   8
ATOM      8  C   UNL     1      47.570 129.158  14.401  1.00  0.00    -0.027 C 
ATOM      9  C   UNL     1      48.414 129.483  13.417  1.00  0.00     0.004 C 
ENDBRANCH   1   8
BRANCH   5  10
ATOM     10  C   UNL     1      45.132 131.314  17.864  1.00  0.00    -0.041 A 
ATOM     11  C   UNL     1      43.800 131.745  17.739  1.00  0.00     0.005 A 
ATOM     12  C   UNL     1      45.660 131.104  19.146  1.00  0.00     0.005 A 
ATOM     13  C   UNL     1      43.009 131.947  18.873  1.00  0.00     0.012 A 
ATOM     14  C   UNL     1      44.870 131.307  20.282  1.00  0.00     0.012 A 
ATOM     15  C   UNL     1      43.533 131.729  20.161  1.00  0.00     0.017 A 
BRANCH  15  16
ATOM     16  C   UNL     1      42.707 131.940  21.381  1.00  0.00     0.159 C 
ATOM     17  C   UNL     1      42.997 131.225  22.667  1.00  0.00     0.093 C 
ATOM     18  O   UNL     1      41.733 132.740  21.347  1.00  0.00    -0.295 OA
ENDBRANCH  15  16
ENDBRANCH   5  10
TORSDOF 3
ENDMDL


