REMARK SMILES C=C[C@H]1C[NH2+][C@H](c2ccc3ncnn3c2)N(C(=O)c2cccc(C)c2)C1
REMARK SMILES IDX 3 1 4 2 5 3 6 4 16 5 26 6 2 9 1 10 17 11 18 12 19 13 20 14
REMARK SMILES IDX 25 15 21 16 23 17 22 18 24 19 7 20 8 21 15 22 9 23 14 24
REMARK SMILES IDX 10 25 13 26 11 27 12 28
REMARK H PARENT 5 7 5 8
ROOT
ATOM      1  C   UNL     1       2.453   0.556   2.204  1.00  0.00     0.086 C 
ATOM      2  C   UNL     1       1.921   1.965   2.496  1.00  0.00     0.272 C 
ATOM      3  N   UNL     1       0.537   2.097   2.025  1.00  0.00    -0.322 N 
ATOM      4  C   UNL     1       0.433   1.887   0.566  1.00  0.00     0.320 C 
ATOM      5  N   UNL     1       1.050   0.599   0.177  1.00  0.00    -0.284 N 
ATOM      6  C   UNL     1       2.387   0.289   0.698  1.00  0.00     0.139 C 
ATOM      7  H   UNL     1       0.201   3.062   2.256  1.00  0.00     0.348 HD
ATOM      8  H   UNL     1      -0.063   1.408   2.538  1.00  0.00     0.348 HD
ENDROOT
BRANCH   1   9
ATOM      9  C   UNL     1       3.874   0.422   2.694  1.00  0.00    -0.024 C 
ATOM     10  C   UNL     1       4.221  -0.470   3.626  1.00  0.00     0.004 C 
ENDBRANCH   1   9
BRANCH   5  11
ATOM     11  C   UNL     1       0.682  -0.032  -1.064  1.00  0.00     0.258 C 
ATOM     12  O   UNL     1       0.578   0.670  -2.107  1.00  0.00    -0.269 OA
BRANCH  11  13
ATOM     13  C   UNL     1       0.405  -1.488  -1.123  1.00  0.00     0.040 A 
ATOM     14  C   UNL     1       0.304  -2.143  -2.362  1.00  0.00     0.014 A 
ATOM     15  C   UNL     1       0.213  -2.229   0.058  1.00  0.00     0.017 A 
ATOM     16  C   UNL     1       0.025  -3.511  -2.420  1.00  0.00     0.001 A 
ATOM     17  C   UNL     1      -0.052  -3.607   0.003  1.00  0.00    -0.050 A 
ATOM     18  C   UNL     1      -0.157  -4.240  -1.243  1.00  0.00     0.003 A 
ATOM     19  C   UNL     1      -0.294  -4.386   1.262  1.00  0.00     0.044 C 
ENDBRANCH  11  13
ENDBRANCH   5  11
BRANCH   4  20
ATOM     20  C   UNL     1      -1.029   1.955   0.153  1.00  0.00     0.050 A 
ATOM     21  C   UNL     1      -1.515   3.057  -0.594  1.00  0.00     0.017 A 
ATOM     22  C   UNL     1      -1.934   0.937   0.524  1.00  0.00     0.127 A 
ATOM     23  C   UNL     1      -2.865   3.123  -0.977  1.00  0.00     0.050 A 
ATOM     24  N   UNL     1      -3.225   1.051   0.127  1.00  0.00    -0.221 N 
ATOM     25  C   UNL     1      -3.694   2.076  -0.588  1.00  0.00     0.155 A 
ATOM     26  N   UNL     1      -4.208   0.204   0.355  1.00  0.00    -0.155 NA
ATOM     27  N   UNL     1      -5.005   1.946  -0.855  1.00  0.00    -0.215 NA
ATOM     28  C   UNL     1      -5.286   0.762  -0.248  1.00  0.00     0.247 A 
ENDBRANCH   4  20
TORSDOF 4


