REMARK SMILES Cc1ccc(Nc2cccc(N)c2Oc2ncc(C=O)cc2C)cc1
REMARK SMILES IDX 7 1 8 2 9 3 10 4 11 5 13 6 6 7 5 9 2 10 3 11 25 12 4 13
REMARK SMILES IDX 24 14 1 15 14 16 15 17 16 18 22 19 17 20 21 21 18 22 23 23
REMARK SMILES IDX 19 24 20 25 12 26
REMARK H PARENT 6 8 12 27 12 28
ROOT
ATOM      1  C   UNL     1       1.038   1.285   1.912  1.00  0.00     0.084 A 
ATOM      2  C   UNL     1       1.904   2.024   2.729  1.00  0.00     0.030 A 
ATOM      3  C   UNL     1       1.817   1.932   4.118  1.00  0.00     0.005 A 
ATOM      4  C   UNL     1       0.862   1.104   4.707  1.00  0.00     0.029 A 
ATOM      5  C   UNL     1      -0.036   0.379   3.910  1.00  0.00     0.077 A 
ATOM      6  C   UNL     1       0.023   0.492   2.507  1.00  0.00     0.175 A 
ENDROOT
BRANCH   1   7
ATOM      7  N   UNL     1       1.210   1.358   0.486  1.00  0.00    -0.352 N 
ATOM      8  H   UNL     1       1.388   2.298   0.066  1.00  0.00     0.167 HD
BRANCH   7   9
ATOM      9  C   UNL     1       1.224   0.212  -0.383  1.00  0.00     0.038 A 
ATOM     10  C   UNL     1       1.199  -2.008  -2.112  1.00  0.00    -0.051 A 
ATOM     11  C   UNL     1       1.578  -2.162  -0.770  1.00  0.00     0.005 A 
ATOM     12  C   UNL     1       0.871  -0.733  -2.593  1.00  0.00     0.005 A 
ATOM     13  C   UNL     1       1.586  -1.061   0.091  1.00  0.00     0.026 A 
ATOM     14  C   UNL     1       0.886   0.370  -1.734  1.00  0.00     0.026 A 
ATOM     15  C   UNL     1       1.212  -3.186  -3.041  1.00  0.00     0.044 C 
ENDBRANCH   7   9
ENDBRANCH   1   7
BRANCH   6  16
ATOM     16  O   UNL     1      -0.922  -0.201   1.737  1.00  0.00    -0.434 OA
BRANCH  16  17
ATOM     17  C   UNL     1      -1.677   0.377   0.707  1.00  0.00     0.222 A 
ATOM     18  N   UNL     1      -1.734   1.731   0.569  1.00  0.00    -0.221 NA
ATOM     19  C   UNL     1      -2.381  -0.444  -0.189  1.00  0.00     0.012 A 
ATOM     20  C   UNL     1      -2.429   2.327  -0.433  1.00  0.00     0.126 A 
ATOM     21  C   UNL     1      -3.084   0.153  -1.245  1.00  0.00     0.022 A 
ATOM     22  C   UNL     1      -3.116   1.550  -1.373  1.00  0.00     0.033 A 
ATOM     23  C   UNL     1      -2.318  -1.941  -0.073  1.00  0.00     0.050 C 
BRANCH  22  24
ATOM     24  C   UNL     1      -3.851   2.204  -2.471  1.00  0.00     0.261 C 
ATOM     25  O   UNL     1      -4.476   1.527  -3.330  1.00  0.00    -0.298 OA
ENDBRANCH  22  24
ENDBRANCH  16  17
ENDBRANCH   6  16
BRANCH   5  26
ATOM     26  N   UNL     1      -1.023  -0.449   4.536  1.00  0.00    -0.396 N 
ATOM     27  H   UNL     1      -1.074  -0.524   5.576  1.00  0.00     0.156 HD
ATOM     28  H   UNL     1      -1.709  -0.999   3.973  1.00  0.00     0.156 HD
ENDBRANCH   5  26
TORSDOF 6


