REMARK SMILES CC(=O)c1ccc(C(=O)N[C@@H]2C=CCC2)c(F)c1[O-]
REMARK SMILES IDX 4 1 5 2 6 3 7 4 16 5 17 6 18 7 19 8 2 9 1 10 3 11 8 12 10 13
REMARK SMILES IDX 9 14 11 16 12 17 15 18 13 19 14 20
REMARK H PARENT 10 15
ROOT
ATOM      1  C   UNL     1      -2.359  -2.438  -0.820  1.00  0.00     0.012 A 
ATOM      2  C   UNL     1      -2.717  -1.285  -1.544  1.00  0.00     0.012 A 
ATOM      3  C   UNL     1      -2.135  -0.049  -1.256  1.00  0.00     0.017 A 
ATOM      4  C   UNL     1      -1.171   0.069  -0.245  1.00  0.00     0.074 A 
ATOM      5  C   UNL     1      -0.819  -1.072   0.498  1.00  0.00     0.128 A 
ATOM      6  F   UNL     1       0.051  -0.980   1.536  1.00  0.00    -0.207 F 
ATOM      7  C   UNL     1      -1.404  -2.313   0.215  1.00  0.00    -0.060 A 
ATOM      8  O   UNL     1      -1.038  -3.412   0.986  1.00  0.00    -0.870 OA
ENDROOT
BRANCH   1   9
ATOM      9  C   UNL     1      -2.981  -3.754  -1.144  1.00  0.00     0.159 C 
ATOM     10  C   UNL     1      -4.208  -3.857  -2.000  1.00  0.00     0.093 C 
ATOM     11  O   UNL     1      -2.461  -4.821  -0.721  1.00  0.00    -0.295 OA
ENDBRANCH   1   9
BRANCH   4  12
ATOM     12  C   UNL     1      -0.565   1.391   0.035  1.00  0.00     0.254 C 
ATOM     13  N   UNL     1       0.808   1.502   0.443  1.00  0.00    -0.346 N 
ATOM     14  O   UNL     1      -1.260   2.433  -0.112  1.00  0.00    -0.269 OA
ATOM     15  H   UNL     1       1.432   0.669   0.345  1.00  0.00     0.164 HD
BRANCH  13  16
ATOM     16  C   UNL     1       1.372   2.772   0.907  1.00  0.00     0.105 C 
ATOM     17  C   UNL     1       2.846   2.664   1.094  1.00  0.00    -0.007 C 
ATOM     18  C   UNL     1       0.841   3.143   2.303  1.00  0.00     0.033 C 
ATOM     19  C   UNL     1       3.221   2.962   2.326  1.00  0.00    -0.029 C 
ATOM     20  C   UNL     1       2.072   3.320   3.197  1.00  0.00     0.029 C 
ENDBRANCH  13  16
ENDBRANCH   4  12
TORSDOF 3


