MODEL 1
REMARK VINA RESULT:      -2.7      0.000      0.000
REMARK SMILES Cc1ccc(-c2ccc(N(C(=O)[C@@H](C)C(F)(F)F)c3cc4ccccc4[nH]3)c(C=O)c2)cc1
REMARK SMILES IDX 10 1 9 2 6 3 7 4 31 5 8 6 28 7 5 8 2 9 3 10 33 11 4 12 32 13
REMARK SMILES IDX 1 14 29 15 30 16 11 17 12 18 13 19 14 20 15 21 16 22 17 23
REMARK SMILES IDX 18 24 19 25 20 26 27 27 21 28 26 29 22 30 25 31 23 32 24 33
REMARK H PARENT 27 34
ROOT
ATOM      1  N   UNL     1      44.404 130.670  22.518  1.00  0.00    -0.265 N 
ENDROOT
BRANCH   1   2
ATOM      2  C   UNL     1      44.722 130.725  21.117  1.00  0.00     0.061 A 
ATOM      3  C   UNL     1      45.428 130.825  18.389  1.00  0.00    -0.018 A 
ATOM      4  C   UNL     1      46.159 130.032  19.288  1.00  0.00     0.011 A 
ATOM      5  C   UNL     1      44.332 131.564  18.867  1.00  0.00     0.022 A 
ATOM      6  C   UNL     1      45.809 129.984  20.637  1.00  0.00     0.028 A 
ATOM      7  C   UNL     1      43.965 131.519  20.225  1.00  0.00     0.039 A 
BRANCH   3   8
ATOM      8  C   UNL     1      45.805 130.878  16.953  1.00  0.00    -0.018 A 
ATOM      9  C   UNL     1      46.529 130.983  14.230  1.00  0.00    -0.051 A 
ATOM     10  C   UNL     1      46.975 129.930  15.040  1.00  0.00     0.004 A 
ATOM     11  C   UNL     1      45.698 131.971  14.780  1.00  0.00     0.004 A 
ATOM     12  C   UNL     1      46.623 129.881  16.392  1.00  0.00     0.009 A 
ATOM     13  C   UNL     1      45.344 131.922  16.131  1.00  0.00     0.009 A 
ATOM     14  C   UNL     1      46.875 131.015  12.770  1.00  0.00     0.044 C 
ENDBRANCH   3   8
BRANCH   7  15
ATOM     15  C   UNL     1      42.778 132.267  20.695  1.00  0.00     0.262 C 
ATOM     16  O   UNL     1      41.998 132.828  19.880  1.00  0.00    -0.298 OA
ENDBRANCH   7  15
ENDBRANCH   1   2
BRANCH   1  17
ATOM     17  C   UNL     1      44.923 131.681  23.406  1.00  0.00     0.244 C 
ATOM     18  O   UNL     1      45.230 131.373  24.590  1.00  0.00    -0.273 OA
BRANCH  17  19
ATOM     19  C   UNL     1      45.103 133.110  22.943  1.00  0.00     0.181 C 
ATOM     20  C   UNL     1      44.894 134.080  24.113  1.00  0.00     0.028 C 
BRANCH  19  21
ATOM     21  C   UNL     1      46.481 133.304  22.284  1.00  0.00     0.400 C 
ATOM     22  F   UNL     1      47.393 133.746  23.227  1.00  0.00    -0.170 F 
ATOM     23  F   UNL     1      46.931 132.100  21.770  1.00  0.00    -0.170 F 
ATOM     24  F   UNL     1      46.412 134.230  21.258  1.00  0.00    -0.170 F 
ENDBRANCH  19  21
ENDBRANCH  17  19
ENDBRANCH   1  17
BRANCH   1  25
ATOM     25  C   UNL     1      43.481 129.669  22.992  1.00  0.00     0.118 A 
ATOM     26  C   UNL     1      43.757 128.305  23.101  1.00  0.00     0.056 A 
ATOM     27  N   UNL     1      42.196 129.937  23.330  1.00  0.00    -0.341 N 
ATOM     28  C   UNL     1      42.576 127.742  23.534  1.00  0.00     0.002 A 
ATOM     29  C   UNL     1      41.658 128.752  23.663  1.00  0.00     0.047 A 
ATOM     30  C   UNL     1      42.254 126.415  23.809  1.00  0.00     0.010 A 
ATOM     31  C   UNL     1      40.350 128.503  24.078  1.00  0.00     0.027 A 
ATOM     32  C   UNL     1      40.941 126.134  24.232  1.00  0.00     0.001 A 
ATOM     33  C   UNL     1      39.994 127.173  24.366  1.00  0.00     0.002 A 
ATOM     34  H   UNL     1      41.716 130.865  23.331  1.00  0.00     0.168 HD
ENDBRANCH   1  25
TORSDOF 7
ENDMDL
MODEL 2
REMARK VINA RESULT:      -1.7      1.498      2.180
REMARK SMILES Cc1ccc(-c2ccc(N(C(=O)[C@@H](C)C(F)(F)F)c3cc4ccccc4[nH]3)c(C=O)c2)cc1
REMARK SMILES IDX 10 1 9 2 6 3 7 4 31 5 8 6 28 7 5 8 2 9 3 10 33 11 4 12 32 13
REMARK SMILES IDX 1 14 29 15 30 16 11 17 12 18 13 19 14 20 15 21 16 22 17 23
REMARK SMILES IDX 18 24 19 25 20 26 27 27 21 28 26 29 22 30 25 31 23 32 24 33
REMARK H PARENT 27 34
ROOT
ATOM      1  N   UNL     1      44.379 130.662  21.427  1.00  0.00    -0.265 N 
ENDROOT
BRANCH   1   2
ATOM      2  C   UNL     1      44.828 130.697  20.063  1.00  0.00     0.061 A 
ATOM      3  C   UNL     1      45.791 130.762  17.413  1.00  0.00    -0.018 A 
ATOM      4  C   UNL     1      46.480 130.048  18.406  1.00  0.00     0.011 A 
ATOM      5  C   UNL     1      44.607 131.439  17.757  1.00  0.00     0.022 A 
ATOM      6  C   UNL     1      46.003 130.017  19.716  1.00  0.00     0.028 A 
ATOM      7  C   UNL     1      44.112 131.410  19.074  1.00  0.00     0.039 A 
BRANCH   3   8
ATOM      8  C   UNL     1      46.302 130.797  16.018  1.00  0.00    -0.018 A 
ATOM      9  C   UNL     1      47.261 130.863  13.368  1.00  0.00    -0.051 A 
ATOM     10  C   UNL     1      46.625 131.985  13.917  1.00  0.00     0.004 A 
ATOM     11  C   UNL     1      47.438 129.717  14.156  1.00  0.00     0.004 A 
ATOM     12  C   UNL     1      46.143 131.951  15.229  1.00  0.00     0.009 A 
ATOM     13  C   UNL     1      46.958 129.682  15.469  1.00  0.00     0.009 A 
ATOM     14  C   UNL     1      47.813 130.913  11.973  1.00  0.00     0.044 C 
ENDBRANCH   3   8
BRANCH   7  15
ATOM     15  C   UNL     1      42.839 132.089  19.400  1.00  0.00     0.262 C 
ATOM     16  O   UNL     1      41.757 131.446  19.463  1.00  0.00    -0.298 OA
ENDBRANCH   7  15
ENDBRANCH   1   2
BRANCH   1  17
ATOM     17  C   UNL     1      43.978 131.886  22.077  1.00  0.00     0.244 C 
ATOM     18  O   UNL     1      42.759 132.212  22.095  1.00  0.00    -0.273 OA
BRANCH  17  19
ATOM     19  C   UNL     1      44.995 132.790  22.737  1.00  0.00     0.181 C 
ATOM     20  C   UNL     1      45.451 132.192  24.073  1.00  0.00     0.028 C 
BRANCH  19  21
ATOM     21  C   UNL     1      46.186 133.054  21.797  1.00  0.00     0.400 C 
ATOM     22  F   UNL     1      47.083 133.913  22.407  1.00  0.00    -0.170 F 
ATOM     23  F   UNL     1      46.839 131.865  21.517  1.00  0.00    -0.170 F 
ATOM     24  F   UNL     1      45.760 133.620  20.607  1.00  0.00    -0.170 F 
ENDBRANCH  19  21
ENDBRANCH  17  19
ENDBRANCH   1  17
BRANCH   1  25
ATOM     25  C   UNL     1      44.231 129.389  22.088  1.00  0.00     0.118 A 
ATOM     26  C   UNL     1      43.339 129.119  23.128  1.00  0.00     0.056 A 
ATOM     27  N   UNL     1      45.001 128.308  21.812  1.00  0.00    -0.341 N 
ATOM     28  C   UNL     1      43.591 127.810  23.475  1.00  0.00     0.002 A 
ATOM     29  C   UNL     1      44.597 127.352  22.663  1.00  0.00     0.047 A 
ATOM     30  C   UNL     1      43.011 127.006  24.454  1.00  0.00     0.010 A 
ATOM     31  C   UNL     1      45.092 126.053  22.774  1.00  0.00     0.027 A 
ATOM     32  C   UNL     1      43.490 125.689  24.588  1.00  0.00     0.001 A 
ATOM     33  C   UNL     1      44.525 125.215  23.752  1.00  0.00     0.002 A 
ATOM     34  H   UNL     1      45.756 128.229  21.093  1.00  0.00     0.168 HD
ENDBRANCH   1  25
TORSDOF 7
ENDMDL
MODEL 3
REMARK VINA RESULT:      -0.7      3.095      7.411
REMARK SMILES Cc1ccc(-c2ccc(N(C(=O)[C@@H](C)C(F)(F)F)c3cc4ccccc4[nH]3)c(C=O)c2)cc1
REMARK SMILES IDX 10 1 9 2 6 3 7 4 31 5 8 6 28 7 5 8 2 9 3 10 33 11 4 12 32 13
REMARK SMILES IDX 1 14 29 15 30 16 11 17 12 18 13 19 14 20 15 21 16 22 17 23
REMARK SMILES IDX 18 24 19 25 20 26 27 27 21 28 26 29 22 30 25 31 23 32 24 33
REMARK H PARENT 27 34
ROOT
ATOM      1  N   UNL     1      44.350 131.895  19.648  1.00  0.00    -0.265 N 
ENDROOT
BRANCH   1   2
ATOM      2  C   UNL     1      45.444 132.500  20.357  1.00  0.00     0.061 A 
ATOM      3  C   UNL     1      47.589 133.752  21.691  1.00  0.00    -0.018 A 
ATOM      4  C   UNL     1      46.598 134.518  21.058  1.00  0.00     0.011 A 
ATOM      5  C   UNL     1      47.494 132.349  21.657  1.00  0.00     0.022 A 
ATOM      6  C   UNL     1      45.538 133.897  20.398  1.00  0.00     0.028 A 
ATOM      7  C   UNL     1      46.425 131.711  21.000  1.00  0.00     0.039 A 
BRANCH   3   8
ATOM      8  C   UNL     1      48.721 134.414  22.391  1.00  0.00    -0.018 A 
ATOM      9  C   UNL     1      50.860 135.675  23.725  1.00  0.00    -0.051 A 
ATOM     10  C   UNL     1      50.229 134.561  24.296  1.00  0.00     0.004 A 
ATOM     11  C   UNL     1      50.434 136.141  22.473  1.00  0.00     0.004 A 
ATOM     12  C   UNL     1      49.163 133.940  23.639  1.00  0.00     0.009 A 
ATOM     13  C   UNL     1      49.370 135.519  21.813  1.00  0.00     0.009 A 
ATOM     14  C   UNL     1      52.029 136.318  24.413  1.00  0.00     0.044 C 
ENDBRANCH   3   8
BRANCH   7  15
ATOM     15  C   UNL     1      46.319 130.236  21.020  1.00  0.00     0.262 C 
ATOM     16  O   UNL     1      46.131 129.583  19.958  1.00  0.00    -0.298 OA
ENDBRANCH   7  15
ENDBRANCH   1   2
BRANCH   1  17
ATOM     17  C   UNL     1      43.104 131.651  20.332  1.00  0.00     0.244 C 
ATOM     18  O   UNL     1      42.108 131.228  19.684  1.00  0.00    -0.273 OA
BRANCH  17  19
ATOM     19  C   UNL     1      42.968 131.898  21.819  1.00  0.00     0.181 C 
ATOM     20  C   UNL     1      41.668 132.655  22.117  1.00  0.00     0.028 C 
BRANCH  19  21
ATOM     21  C   UNL     1      43.050 130.576  22.604  1.00  0.00     0.400 C 
ATOM     22  F   UNL     1      41.841 129.907  22.521  1.00  0.00    -0.170 F 
ATOM     23  F   UNL     1      44.036 129.768  22.067  1.00  0.00    -0.170 F 
ATOM     24  F   UNL     1      43.341 130.811  23.937  1.00  0.00    -0.170 F 
ENDBRANCH  19  21
ENDBRANCH  17  19
ENDBRANCH   1  17
BRANCH   1  25
ATOM     25  C   UNL     1      44.480 131.645  18.234  1.00  0.00     0.118 A 
ATOM     26  C   UNL     1      45.643 131.211  17.595  1.00  0.00     0.056 A 
ATOM     27  N   UNL     1      43.486 131.870  17.339  1.00  0.00    -0.341 N 
ATOM     28  C   UNL     1      45.314 131.170  16.258  1.00  0.00     0.002 A 
ATOM     29  C   UNL     1      44.009 131.572  16.139  1.00  0.00     0.047 A 
ATOM     30  C   UNL     1      46.080 130.818  15.148  1.00  0.00     0.010 A 
ATOM     31  C   UNL     1      43.376 131.649  14.898  1.00  0.00     0.027 A 
ATOM     32  C   UNL     1      45.467 130.884  13.882  1.00  0.00     0.001 A 
ATOM     33  C   UNL     1      44.122 131.298  13.758  1.00  0.00     0.002 A 
ATOM     34  H   UNL     1      42.517 132.209  17.534  1.00  0.00     0.168 HD
ENDBRANCH   1  25
TORSDOF 7
ENDMDL
MODEL 4
REMARK VINA RESULT:      -0.2      2.052      2.741
REMARK SMILES Cc1ccc(-c2ccc(N(C(=O)[C@@H](C)C(F)(F)F)c3cc4ccccc4[nH]3)c(C=O)c2)cc1
REMARK SMILES IDX 10 1 9 2 6 3 7 4 31 5 8 6 28 7 5 8 2 9 3 10 33 11 4 12 32 13
REMARK SMILES IDX 1 14 29 15 30 16 11 17 12 18 13 19 14 20 15 21 16 22 17 23
REMARK SMILES IDX 18 24 19 25 20 26 27 27 21 28 26 29 22 30 25 31 23 32 24 33
REMARK H PARENT 27 34
ROOT
ATOM      1  N   UNL     1      44.948 130.523  21.128  1.00  0.00    -0.265 N 
ENDROOT
BRANCH   1   2
ATOM      2  C   UNL     1      45.289 130.529  19.732  1.00  0.00     0.061 A 
ATOM      3  C   UNL     1      46.041 130.548  17.014  1.00  0.00    -0.018 A 
ATOM      4  C   UNL     1      46.859 129.938  17.977  1.00  0.00     0.011 A 
ATOM      5  C   UNL     1      44.834 131.145  17.422  1.00  0.00     0.022 A 
ATOM      6  C   UNL     1      46.486 129.930  19.321  1.00  0.00     0.028 A 
ATOM      7  C   UNL     1      44.444 131.137  18.774  1.00  0.00     0.039 A 
BRANCH   3   8
ATOM      8  C   UNL     1      46.441 130.560  15.583  1.00  0.00    -0.018 A 
ATOM      9  C   UNL     1      47.209 130.588  12.870  1.00  0.00    -0.051 A 
ATOM     10  C   UNL     1      47.823 129.705  13.770  1.00  0.00     0.004 A 
ATOM     11  C   UNL     1      46.192 131.439  13.327  1.00  0.00     0.004 A 
ATOM     12  C   UNL     1      47.448 129.695  15.117  1.00  0.00     0.009 A 
ATOM     13  C   UNL     1      45.815 131.429  14.673  1.00  0.00     0.009 A 
ATOM     14  C   UNL     1      47.584 130.570  11.417  1.00  0.00     0.044 C 
ENDBRANCH   3   8
BRANCH   7  15
ATOM     15  C   UNL     1      43.147 131.728  19.173  1.00  0.00     0.262 C 
ATOM     16  O   UNL     1      42.109 131.543  18.482  1.00  0.00    -0.298 OA
ENDBRANCH   7  15
ENDBRANCH   1   2
BRANCH   1  17
ATOM     17  C   UNL     1      44.645 131.766  21.793  1.00  0.00     0.244 C 
ATOM     18  O   UNL     1      45.527 132.665  21.868  1.00  0.00    -0.273 OA
BRANCH  17  19
ATOM     19  C   UNL     1      43.285 132.011  22.409  1.00  0.00     0.181 C 
ATOM     20  C   UNL     1      42.221 131.157  21.707  1.00  0.00     0.028 C 
BRANCH  19  21
ATOM     21  C   UNL     1      43.313 131.749  23.926  1.00  0.00     0.400 C 
ATOM     22  F   UNL     1      42.844 132.862  24.602  1.00  0.00    -0.170 F 
ATOM     23  F   UNL     1      42.500 130.673  24.234  1.00  0.00    -0.170 F 
ATOM     24  F   UNL     1      44.601 131.474  24.354  1.00  0.00    -0.170 F 
ENDBRANCH  19  21
ENDBRANCH  17  19
ENDBRANCH   1  17
BRANCH   1  25
ATOM     25  C   UNL     1      44.805 129.261  21.812  1.00  0.00     0.118 A 
ATOM     26  C   UNL     1      45.802 128.291  21.929  1.00  0.00     0.056 A 
ATOM     27  N   UNL     1      43.645 128.841  22.372  1.00  0.00    -0.341 N 
ATOM     28  C   UNL     1      45.200 127.250  22.602  1.00  0.00     0.002 A 
ATOM     29  C   UNL     1      43.902 127.615  22.853  1.00  0.00     0.047 A 
ATOM     30  C   UNL     1      45.706 126.012  22.992  1.00  0.00     0.010 A 
ATOM     31  C   UNL     1      43.019 126.763  23.517  1.00  0.00     0.027 A 
ATOM     32  C   UNL     1      44.837 125.132  23.666  1.00  0.00     0.001 A 
ATOM     33  C   UNL     1      43.500 125.506  23.928  1.00  0.00     0.002 A 
ATOM     34  H   UNL     1      42.736 129.355  22.420  1.00  0.00     0.168 HD
ENDBRANCH   1  25
TORSDOF 7
ENDMDL


