REMARK SMILES Cc1ccc(-c2cc(F)c3ncccc3c2O)c(F)[nH+]1
REMARK SMILES IDX 6 1 7 2 8 3 9 4 10 5 11 6 12 7 13 8 14 9 15 10 16 11 5 12
REMARK SMILES IDX 2 13 3 14 20 15 4 16 18 17 1 18 19 20 17 21
REMARK H PARENT 20 19 17 22
ROOT
ATOM      1  C   UNL     1       0.267   0.121   0.105  1.00  0.00     0.037 A 
ATOM      2  C   UNL     1       1.481  -0.165   0.749  1.00  0.00     0.054 A 
ATOM      3  C   UNL     1       1.838  -1.480   1.048  1.00  0.00     0.150 A 
ATOM      4  F   UNL     1       3.013  -1.728   1.680  1.00  0.00    -0.205 F 
ATOM      5  C   UNL     1       0.985  -2.532   0.706  1.00  0.00     0.110 A 
ATOM      6  N   UNL     1       1.333  -3.813   1.006  1.00  0.00    -0.253 NA
ATOM      7  C   UNL     1       0.536  -4.866   0.686  1.00  0.00     0.112 A 
ATOM      8  C   UNL     1      -0.678  -4.653   0.031  1.00  0.00     0.021 A 
ATOM      9  C   UNL     1      -1.065  -3.351  -0.291  1.00  0.00     0.016 A 
ATOM     10  C   UNL     1      -0.237  -2.267   0.045  1.00  0.00     0.046 A 
ATOM     11  C   UNL     1      -0.593  -0.939  -0.269  1.00  0.00     0.133 A 
ENDROOT
BRANCH   1  12
ATOM     12  C   UNL     1      -0.083   1.535  -0.153  1.00  0.00     0.089 A 
ATOM     13  C   UNL     1      -0.734   4.206  -0.605  1.00  0.00     0.179 A 
ATOM     14  C   UNL     1       0.412   3.661  -1.199  1.00  0.00     0.075 A 
ATOM     15  N   UNL     1      -1.503   3.432   0.215  1.00  0.00    -0.183 N 
ATOM     16  C   UNL     1       0.734   2.324  -0.972  1.00  0.00     0.025 A 
ATOM     17  C   UNL     1      -1.206   2.124   0.450  1.00  0.00     0.366 A 
ATOM     18  C   UNL     1      -1.071   5.653  -0.811  1.00  0.00     0.123 C 
ATOM     19  H   UNL     1      -2.341   3.846   0.683  1.00  0.00     0.456 HD
ATOM     20  F   UNL     1      -1.994   1.400   1.285  1.00  0.00    -0.136 F 
ENDBRANCH   1  12
BRANCH  11  21
ATOM     21  O   UNL     1      -1.782  -0.698  -0.966  1.00  0.00    -0.507 OA
ATOM     22  H   UNL     1      -2.056   0.221  -1.291  1.00  0.00     0.293 HD
ENDBRANCH  11  21
TORSDOF 2


