REMARK SMILES Cc1ccc([NH2+]c2cc(F)c(C)cc2N)c(F)n1
REMARK SMILES IDX 7 1 8 2 9 3 10 4 11 5 12 6 13 7 14 8 6 9 5 12 2 13 3 14
REMARK SMILES IDX 18 15 4 16 16 17 1 18 17 19 15 20
REMARK H PARENT 6 10 6 11 15 21 15 22
ROOT
ATOM      1  C   UNL     1      -0.348   0.156   1.540  1.00  0.00     0.160 A 
ATOM      2  C   UNL     1       0.436  -0.601   2.432  1.00  0.00     0.110 A 
ATOM      3  C   UNL     1       1.767  -0.267   2.684  1.00  0.00     0.132 A 
ATOM      4  F   UNL     1       2.495  -1.033   3.537  1.00  0.00    -0.206 F 
ATOM      5  C   UNL     1       2.346   0.844   2.058  1.00  0.00    -0.013 A 
ATOM      6  C   UNL     1       3.786   1.186   2.309  1.00  0.00     0.047 C 
ATOM      7  C   UNL     1       1.577   1.611   1.172  1.00  0.00     0.038 A 
ATOM      8  C   UNL     1       0.234   1.292   0.917  1.00  0.00     0.094 A 
ENDROOT
BRANCH   1   9
ATOM      9  N   UNL     1      -1.711  -0.255   1.272  1.00  0.00    -0.276 N 
ATOM     10  H   UNL     1      -2.349   0.567   1.377  1.00  0.00     0.358 HD
ATOM     11  H   UNL     1      -2.032  -0.956   1.980  1.00  0.00     0.358 HD
BRANCH   9  12
ATOM     12  C   UNL     1      -1.829  -0.856  -0.039  1.00  0.00     0.190 A 
ATOM     13  C   UNL     1      -2.080  -2.052  -2.551  1.00  0.00     0.041 A 
ATOM     14  C   UNL     1      -2.778  -0.872  -2.276  1.00  0.00     0.030 A 
ATOM     15  N   UNL     1      -1.317  -2.624  -1.582  1.00  0.00    -0.220 NA
ATOM     16  C   UNL     1      -2.657  -0.281  -1.019  1.00  0.00     0.075 A 
ATOM     17  C   UNL     1      -1.178  -2.068  -0.349  1.00  0.00     0.274 A 
ATOM     18  C   UNL     1      -2.214  -2.718  -3.884  1.00  0.00     0.067 C 
ATOM     19  F   UNL     1      -0.424  -2.708   0.577  1.00  0.00    -0.178 F 
ENDBRANCH   9  12
ENDBRANCH   1   9
BRANCH   8  20
ATOM     20  N   UNL     1      -0.514   2.141   0.036  1.00  0.00    -0.394 N 
ATOM     21  H   UNL     1      -1.548   2.077  -0.059  1.00  0.00     0.156 HD
ATOM     22  H   UNL     1      -0.041   2.917  -0.478  1.00  0.00     0.156 HD
ENDBRANCH   8  20
TORSDOF 3


