REMARK SMILES C=C1[C@H]2N=C(c3ncncc3F)C[C@H]2[C@H](Nc2cccc(N)c2[O-])C[C@@H]1F
REMARK SMILES IDX 16 1 15 3 2 4 26 5 3 6 25 7 4 8 14 9 5 10 13 11 1 12 27 13
REMARK SMILES IDX 6 14 7 15 11 16 8 17 10 18 9 19 12 20 17 21 18 22 23 23
REMARK SMILES IDX 19 24 21 25 20 26 24 27 22 28
REMARK H PARENT 16 2 22 29 22 30
ROOT
ATOM      1  N   UNL     1       1.324   0.591   1.233  1.00  0.00    -0.382 N 
ATOM      2  H   UNL     1       1.052  -0.069   1.998  1.00  0.00     0.160 HD
ENDROOT
BRANCH   1   3
ATOM      3  C   UNL     1       0.264   1.429   0.653  1.00  0.00     0.088 C 
ATOM      4  C   UNL     1      -1.947   3.237   0.245  1.00  0.00    -0.019 C 
ATOM      5  C   UNL     1      -0.550   3.801   0.420  1.00  0.00     0.196 C 
ATOM      6  C   UNL     1      -2.293   1.787   0.552  1.00  0.00     0.139 C 
ATOM      7  C   UNL     1       0.387   2.861   1.179  1.00  0.00     0.067 C 
ATOM      8  N   UNL     1      -2.821   1.126  -0.629  1.00  0.00    -0.279 NA
ATOM      9  C   UNL     1      -1.133   0.879   1.028  1.00  0.00     0.046 C 
ATOM     10  C   UNL     1      -2.370  -0.075  -0.748  1.00  0.00     0.065 C 
ATOM     11  C   UNL     1      -1.411  -0.459   0.321  1.00  0.00     0.066 C 
ATOM     12  C   UNL     1      -2.913   4.044  -0.223  1.00  0.00     0.013 C 
ATOM     13  F   UNL     1      -0.610   5.005   1.103  1.00  0.00    -0.243 F 
BRANCH  10  14
ATOM     14  C   UNL     1      -2.774  -0.980  -1.845  1.00  0.00     0.123 A 
ATOM     15  N   UNL     1      -2.268  -2.243  -1.876  1.00  0.00    -0.232 NA
ATOM     16  C   UNL     1      -3.663  -0.578  -2.858  1.00  0.00     0.168 A 
ATOM     17  C   UNL     1      -2.602  -3.118  -2.860  1.00  0.00     0.222 A 
ATOM     18  C   UNL     1      -3.993  -1.492  -3.859  1.00  0.00     0.154 A 
ATOM     19  N   UNL     1      -3.459  -2.741  -3.843  1.00  0.00    -0.242 NA
ATOM     20  F   UNL     1      -4.201   0.667  -2.887  1.00  0.00    -0.203 F 
ENDBRANCH  10  14
ENDBRANCH   1   3
BRANCH   1  21
ATOM     21  C   UNL     1       2.703   0.597   0.801  1.00  0.00     0.028 A 
ATOM     22  C   UNL     1       3.139   1.403  -0.270  1.00  0.00     0.025 A 
ATOM     23  C   UNL     1       3.644  -0.226   1.458  1.00  0.00    -0.061 A 
ATOM     24  C   UNL     1       4.476   1.389  -0.672  1.00  0.00     0.004 A 
ATOM     25  C   UNL     1       4.990  -0.238   1.049  1.00  0.00     0.025 A 
ATOM     26  C   UNL     1       5.398   0.573  -0.017  1.00  0.00     0.025 A 
ATOM     27  O   UNL     1       3.242  -1.032   2.519  1.00  0.00    -0.870 OA
BRANCH  25  28
ATOM     28  N   UNL     1       5.949  -1.070   1.712  1.00  0.00    -0.399 N 
ATOM     29  H   UNL     1       6.949  -1.078   1.407  1.00  0.00     0.156 HD
ATOM     30  H   UNL     1       5.677  -1.686   2.509  1.00  0.00     0.156 HD
ENDBRANCH  25  28
ENDBRANCH   1  21
TORSDOF 4


