REMARK SMILES Cc1ccc(-c2ccc(N)c(C=O)c2)c2c[nH][nH+]c12
REMARK SMILES IDX 6 1 7 2 8 3 9 4 11 5 14 6 5 7 2 8 3 9 19 10 4 11 18 12 15 13
REMARK SMILES IDX 17 14 16 15 1 16 12 19 13 20 10 21
REMARK H PARENT 18 17 17 18 10 22 10 23
ROOT
ATOM      1  C   UNL     1       0.886   0.026  -0.904  1.00  0.00    -0.017 A 
ATOM      2  C   UNL     1       0.471   0.117  -2.240  1.00  0.00     0.011 A 
ATOM      3  C   UNL     1       1.404   0.041  -3.274  1.00  0.00     0.027 A 
ATOM      4  C   UNL     1       2.770  -0.118  -2.999  1.00  0.00     0.042 A 
ATOM      5  C   UNL     1       3.208  -0.158  -1.650  1.00  0.00     0.038 A 
ATOM      6  C   UNL     1       2.254  -0.104  -0.620  1.00  0.00     0.022 A 
ENDROOT
BRANCH   1   7
ATOM      7  C   UNL     1      -0.103   0.104   0.196  1.00  0.00    -0.003 A 
ATOM      8  C   UNL     1      -2.014   0.269   2.318  1.00  0.00     0.024 A 
ATOM      9  C   UNL     1      -0.843   1.056   2.339  1.00  0.00     0.011 A 
ATOM     10  C   UNL     1      -2.187  -0.590   1.229  1.00  0.00     0.239 A 
ATOM     11  C   UNL     1       0.102   0.974   1.292  1.00  0.00     0.010 A 
ATOM     12  N   UNL     1      -3.187  -1.460   1.002  1.00  0.00    -0.126 N 
ATOM     13  C   UNL     1      -1.272  -0.669   0.210  1.00  0.00     0.078 A 
ATOM     14  N   UNL     1      -2.924  -2.095  -0.132  1.00  0.00    -0.174 N 
ATOM     15  C   UNL     1      -1.758  -1.642  -0.645  1.00  0.00     0.163 A 
ATOM     16  C   UNL     1      -3.018   0.332   3.431  1.00  0.00     0.052 C 
ATOM     17  H   UNL     1      -4.023  -1.637   1.603  1.00  0.00     0.488 HD
ATOM     18  H   UNL     1      -3.529  -2.838  -0.546  1.00  0.00     0.238 HD
ENDBRANCH   1   7
BRANCH   5  19
ATOM     19  C   UNL     1       4.633  -0.217  -1.259  1.00  0.00     0.262 C 
ATOM     20  O   UNL     1       5.545   0.216  -2.010  1.00  0.00    -0.298 OA
ENDBRANCH   5  19
BRANCH   4  21
ATOM     21  N   UNL     1       3.673  -0.289  -4.100  1.00  0.00    -0.398 N 
ATOM     22  H   UNL     1       4.605  -0.742  -3.986  1.00  0.00     0.156 HD
ATOM     23  H   UNL     1       3.352  -0.111  -5.078  1.00  0.00     0.156 HD
ENDBRANCH   4  21
TORSDOF 3


