REMARK SMILES [O-]c1cc(-c2cccc3[nH+]coc23)cc(F)c1F
REMARK SMILES IDX 5 1 6 2 7 3 8 4 9 5 10 6 11 7 12 8 13 9 4 11 2 12 3 13 17 14
REMARK SMILES IDX 15 15 14 16 1 17 18 18 16 19
REMARK H PARENT 10 10
ROOT
ATOM      1  C   UNL     1       0.307   0.886   0.623  1.00  0.00     0.032 A 
ATOM      2  C   UNL     1       1.540   0.982   1.312  1.00  0.00     0.013 A 
ATOM      3  C   UNL     1       2.752   0.616   0.682  1.00  0.00     0.008 A 
ATOM      4  C   UNL     1       2.756   0.147  -0.643  1.00  0.00     0.083 A 
ATOM      5  C   UNL     1       1.531   0.060  -1.296  1.00  0.00     0.249 A 
ATOM      6  N   UNL     1       1.278  -0.368  -2.541  1.00  0.00    -0.176 N 
ATOM      7  C   UNL     1      -0.068  -0.262  -2.648  1.00  0.00     0.521 A 
ATOM      8  O   UNL     1      -0.624   0.203  -1.540  1.00  0.00    -0.403 OA
ATOM      9  C   UNL     1       0.358   0.410  -0.695  1.00  0.00     0.212 A 
ATOM     10  H   UNL     1       1.955  -0.710  -3.259  1.00  0.00     0.457 HD
ENDROOT
BRANCH   1  11
ATOM     11  C   UNL     1      -0.973   1.267   1.270  1.00  0.00    -0.012 A 
ATOM     12  C   UNL     1      -2.428   1.281   3.223  1.00  0.00    -0.068 A 
ATOM     13  C   UNL     1      -1.222   0.921   2.611  1.00  0.00     0.003 A 
ATOM     14  C   UNL     1      -3.394   1.992   2.505  1.00  0.00     0.151 A 
ATOM     15  C   UNL     1      -3.154   2.345   1.173  1.00  0.00     0.158 A 
ATOM     16  C   UNL     1      -1.950   1.986   0.558  1.00  0.00     0.051 A 
ATOM     17  O   UNL     1      -2.664   0.928   4.546  1.00  0.00    -0.870 OA
ATOM     18  F   UNL     1      -4.562   2.343   3.098  1.00  0.00    -0.204 F 
ATOM     19  F   UNL     1      -4.086   3.041   0.477  1.00  0.00    -0.204 F 
ENDBRANCH   1  11
TORSDOF 1


