REMARK SMILES Cc1ccc(NCCC[Si](C)(C)C)c(-c2ccc3c(c2)[N-]C(=O)C3)c1
REMARK SMILES IDX 7 1 6 2 5 4 2 5 3 6 25 7 4 8 14 9 1 10 15 11 16 12 20 13
REMARK SMILES IDX 17 14 19 15 18 16 21 17 24 18 22 19 23 20 8 21 9 22 10 23
REMARK SMILES IDX 11 24 12 25 13 26
REMARK H PARENT 6 3
ROOT
ATOM      1  C   UNL     1      -0.696   0.611  -1.730  1.00  0.00     0.112 C 
ENDROOT
BRANCH   1   2
ATOM      2  N   UNL     1      -0.023  -0.475  -1.016  1.00  0.00    -0.385 N 
ATOM      3  H   UNL     1       0.494  -0.247  -0.136  1.00  0.00     0.160 HD
BRANCH   2   4
ATOM      4  C   UNL     1      -0.101  -1.852  -1.438  1.00  0.00     0.042 A 
ATOM      5  C   UNL     1      -0.097  -4.535  -2.314  1.00  0.00    -0.050 A 
ATOM      6  C   UNL     1      -0.329  -3.496  -3.222  1.00  0.00     0.005 A 
ATOM      7  C   UNL     1       0.097  -4.236  -0.960  1.00  0.00     0.014 A 
ATOM      8  C   UNL     1      -0.323  -2.168  -2.791  1.00  0.00     0.026 A 
ATOM      9  C   UNL     1       0.094  -2.904  -0.509  1.00  0.00     0.005 A 
ATOM     10  C   UNL     1      -0.138  -5.963  -2.773  1.00  0.00     0.044 C 
BRANCH   9  11
ATOM     11  C   UNL     1       0.244  -2.646   0.942  1.00  0.00    -0.018 A 
ATOM     12  C   UNL     1       1.354  -3.171   1.647  1.00  0.00     0.009 A 
ATOM     13  C   UNL     1      -0.732  -1.899   1.637  1.00  0.00    -0.007 A 
ATOM     14  C   UNL     1       1.501  -2.938   3.024  1.00  0.00     0.003 A 
ATOM     15  C   UNL     1      -0.560  -1.681   3.002  1.00  0.00    -0.130 A 
ATOM     16  C   UNL     1       0.528  -2.185   3.680  1.00  0.00    -0.057 A 
ATOM     17  N   UNL     1      -1.439  -0.949   3.840  1.00  0.00    -0.626 NA
ATOM     18  C   UNL     1       0.468  -1.810   5.119  1.00  0.00     0.089 C 
ATOM     19  C   UNL     1      -0.811  -1.030   5.118  1.00  0.00     0.059 C 
ATOM     20  O   UNL     1      -1.299  -0.490   6.145  1.00  0.00    -0.320 OA
ENDBRANCH   9  11
ENDBRANCH   2   4
ENDBRANCH   1   2
BRANCH   1  21
ATOM     21  C   UNL     1      -0.695   1.894  -0.893  1.00  0.00     0.018 C 
BRANCH  21  22
ATOM     22  C   UNL     1      -1.425   3.025  -1.620  1.00  0.00    -0.009 C 
BRANCH  22  23
ATOM     23  Si  UNL     1      -1.443   4.603  -0.602  1.00  0.00     0.044 Si
ATOM     24  C   UNL     1      -2.319   4.315   1.022  1.00  0.00    -0.010 C 
ATOM     25  C   UNL     1      -2.353   5.923  -1.558  1.00  0.00    -0.010 C 
ATOM     26  C   UNL     1       0.302   5.183  -0.274  1.00  0.00    -0.010 C 
ENDBRANCH  22  23
ENDBRANCH  21  22
ENDBRANCH   1  21
TORSDOF 6


