REMARK SMILES C/C=C/C(=O)N1Cc2[nH+]cc(-c3ccc4[nH]ccc4c3)cc2C1=O
REMARK SMILES IDX 4 1 5 2 3 3 2 4 1 5 6 6 23 7 7 8 22 9 8 10 21 11 9 12 11 13
REMARK SMILES IDX 10 14 24 15 12 17 13 18 20 19 14 20 19 21 15 22 18 23 16 24
REMARK SMILES IDX 17 25
REMARK H PARENT 9 16 16 26
ROOT
ATOM      1  C   UNL     1      -1.193  -0.018   4.361  1.00  0.00     0.253 C 
ATOM      2  O   UNL     1      -2.390  -0.160   4.732  1.00  0.00    -0.269 OA
ENDROOT
BRANCH   1   3
ATOM      3  C   UNL     1      -0.128   0.149   5.373  1.00  0.00     0.067 C 
BRANCH   3   4
ATOM      4  C   UNL     1      -0.346  -0.055   6.676  1.00  0.00    -0.025 C 
ATOM      5  C   UNL     1       0.748   0.139   7.677  1.00  0.00     0.036 C 
ENDBRANCH   3   4
ENDBRANCH   1   3
BRANCH   1   6
ATOM      6  N   UNL     1      -0.897   0.019   2.955  1.00  0.00    -0.264 N 
ATOM      7  C   UNL     1       0.349  -0.275   2.318  1.00  0.00     0.267 C 
ATOM      8  C   UNL     1      -1.897   0.286   1.912  1.00  0.00     0.238 C 
ATOM      9  C   UNL     1       0.199  -0.165   0.889  1.00  0.00     0.110 A 
ATOM     10  C   UNL     1      -1.109   0.163   0.642  1.00  0.00     0.212 A 
ATOM     11  C   UNL     1       1.106  -0.352  -0.146  1.00  0.00     0.035 A 
ATOM     12  N   UNL     1      -1.567   0.321  -0.625  1.00  0.00    -0.212 N 
ATOM     13  C   UNL     1       0.645  -0.188  -1.471  1.00  0.00     0.046 A 
ATOM     14  C   UNL     1      -0.716   0.154  -1.682  1.00  0.00     0.315 A 
ATOM     15  O   UNL     1       1.396  -0.643   2.913  1.00  0.00    -0.268 OA
ATOM     16  H   UNL     1      -2.567   0.571  -0.794  1.00  0.00     0.453 HD
BRANCH  13  17
ATOM     17  C   UNL     1       1.567  -0.374  -2.619  1.00  0.00    -0.012 A 
ATOM     18  C   UNL     1       2.908   0.095  -2.548  1.00  0.00     0.011 A 
ATOM     19  C   UNL     1       1.121  -1.020  -3.797  1.00  0.00     0.019 A 
ATOM     20  C   UNL     1       3.791  -0.077  -3.630  1.00  0.00     0.027 A 
ATOM     21  C   UNL     1       2.023  -1.171  -4.847  1.00  0.00    -0.000 A 
ATOM     22  C   UNL     1       3.310  -0.717  -4.768  1.00  0.00     0.045 A 
ATOM     23  C   UNL     1       1.867  -1.754  -6.086  1.00  0.00     0.028 A 
ATOM     24  N   UNL     1       3.981  -0.982  -5.901  1.00  0.00    -0.361 N 
ATOM     25  C   UNL     1       3.103  -1.616  -6.710  1.00  0.00     0.083 A 
ATOM     26  H   UNL     1       4.976  -0.750  -6.116  1.00  0.00     0.166 HD
ENDBRANCH  13  17
ENDBRANCH   1   6
TORSDOF 4


