MODEL 1
REMARK VINA RESULT:     -10.4      0.000      0.000
REMARK SMILES Cn1cnc2cc(-c3ccc4cc[nH]c4c3)cnc21
REMARK SMILES IDX 1 1 2 2 3 3 4 4 5 5 6 6 7 7 17 8 18 9 19 10 8 11 9 12 16 13
REMARK SMILES IDX 10 14 15 15 11 16 14 17 12 18 13 19
REMARK H PARENT 14 20
ROOT
ATOM      1  C   UNL     1      44.178 130.671  23.764  1.00  0.00     0.153 C 
ATOM      2  N   UNL     1      43.758 131.268  22.502  1.00  0.00    -0.318 N 
ATOM      3  C   UNL     1      42.616 131.955  22.251  1.00  0.00     0.201 A 
ATOM      4  N   UNL     1      42.468 132.291  20.940  1.00  0.00    -0.235 NA
ATOM      5  C   UNL     1      43.572 131.770  20.369  1.00  0.00     0.108 A 
ATOM      6  C   UNL     1      43.943 131.786  19.031  1.00  0.00     0.042 A 
ATOM      7  C   UNL     1      45.146 131.130  18.675  1.00  0.00     0.002 A 
ATOM      8  C   UNL     1      45.907 130.491  19.696  1.00  0.00     0.122 A 
ATOM      9  N   UNL     1      45.489 130.509  20.998  1.00  0.00    -0.236 NA
ATOM     10  C   UNL     1      44.335 131.151  21.301  1.00  0.00     0.159 A 
ENDROOT
BRANCH   7  11
ATOM     11  C   UNL     1      45.602 131.106  17.263  1.00  0.00    -0.015 A 
ATOM     12  C   UNL     1      45.164 132.103  16.349  1.00  0.00     0.009 A 
ATOM     13  C   UNL     1      46.479 130.089  16.813  1.00  0.00     0.035 A 
ATOM     14  C   UNL     1      45.589 132.089  15.008  1.00  0.00     0.011 A 
ATOM     15  C   UNL     1      46.880 130.106  15.478  1.00  0.00     0.046 A 
ATOM     16  C   UNL     1      46.449 131.071  14.609  1.00  0.00    -0.001 A 
ATOM     17  N   UNL     1      47.696 129.237  14.859  1.00  0.00    -0.361 N 
ATOM     18  C   UNL     1      47.018 130.806  13.383  1.00  0.00     0.028 A 
ATOM     19  C   UNL     1      47.784 129.661  13.579  1.00  0.00     0.083 A 
ATOM     20  H   UNL     1      48.167 128.405  15.279  1.00  0.00     0.166 HD
ENDBRANCH   7  11
TORSDOF 1
ENDMDL
MODEL 2
REMARK VINA RESULT:      -9.7      0.711      1.680
REMARK SMILES Cn1cnc2cc(-c3ccc4cc[nH]c4c3)cnc21
REMARK SMILES IDX 1 1 2 2 3 3 4 4 5 5 6 6 7 7 17 8 18 9 19 10 8 11 9 12 16 13
REMARK SMILES IDX 10 14 15 15 11 16 14 17 12 18 13 19
REMARK H PARENT 14 20
ROOT
ATOM      1  C   UNL     1      42.220 131.920  22.562  1.00  0.00     0.153 C 
ATOM      2  N   UNL     1      43.345 131.225  21.950  1.00  0.00    -0.318 N 
ATOM      3  C   UNL     1      44.281 130.461  22.566  1.00  0.00     0.201 A 
ATOM      4  N   UNL     1      45.266 130.036  21.727  1.00  0.00    -0.235 NA
ATOM      5  C   UNL     1      44.912 130.581  20.547  1.00  0.00     0.108 A 
ATOM      6  C   UNL     1      45.570 130.503  19.326  1.00  0.00     0.042 A 
ATOM      7  C   UNL     1      45.006 131.201  18.231  1.00  0.00     0.002 A 
ATOM      8  C   UNL     1      43.808 131.944  18.433  1.00  0.00     0.122 A 
ATOM      9  N   UNL     1      43.206 131.983  19.661  1.00  0.00    -0.236 NA
ATOM     10  C   UNL     1      43.771 131.298  20.684  1.00  0.00     0.159 A 
ENDROOT
BRANCH   7  11
ATOM     11  C   UNL     1      45.657 131.163  16.898  1.00  0.00    -0.015 A 
ATOM     12  C   UNL     1      45.581 132.285  16.027  1.00  0.00     0.009 A 
ATOM     13  C   UNL     1      46.361 130.007  16.479  1.00  0.00     0.035 A 
ATOM     14  C   UNL     1      46.192 132.259  14.762  1.00  0.00     0.011 A 
ATOM     15  C   UNL     1      46.954 130.017  15.218  1.00  0.00     0.046 A 
ATOM     16  C   UNL     1      46.872 131.103  14.391  1.00  0.00    -0.001 A 
ATOM     17  N   UNL     1      47.656 129.029  14.639  1.00  0.00    -0.361 N 
ATOM     18  C   UNL     1      47.553 130.794  13.234  1.00  0.00     0.028 A 
ATOM     19  C   UNL     1      48.025 129.499  13.426  1.00  0.00     0.083 A 
ATOM     20  H   UNL     1      47.874 128.089  15.040  1.00  0.00     0.166 HD
ENDBRANCH   7  11
TORSDOF 1
ENDMDL
MODEL 3
REMARK VINA RESULT:      -9.0      1.155      7.102
REMARK SMILES Cn1cnc2cc(-c3ccc4cc[nH]c4c3)cnc21
REMARK SMILES IDX 1 1 2 2 3 3 4 4 5 5 6 6 7 7 17 8 18 9 19 10 8 11 9 12 16 13
REMARK SMILES IDX 10 14 15 15 11 16 14 17 12 18 13 19
REMARK H PARENT 14 20
ROOT
ATOM      1  C   UNL     1      47.888 131.380  12.460  1.00  0.00     0.153 C 
ATOM      2  N   UNL     1      47.585 130.576  13.637  1.00  0.00    -0.318 N 
ATOM      3  C   UNL     1      47.842 129.258  13.828  1.00  0.00     0.201 A 
ATOM      4  N   UNL     1      47.336 128.776  14.997  1.00  0.00    -0.235 NA
ATOM      5  C   UNL     1      46.735 129.856  15.533  1.00  0.00     0.108 A 
ATOM      6  C   UNL     1      46.025 129.948  16.723  1.00  0.00     0.042 A 
ATOM      7  C   UNL     1      45.451 131.201  17.050  1.00  0.00     0.002 A 
ATOM      8  C   UNL     1      45.626 132.291  16.151  1.00  0.00     0.122 A 
ATOM      9  N   UNL     1      46.336 132.138  14.992  1.00  0.00    -0.236 NA
ATOM     10  C   UNL     1      46.875 130.927  14.715  1.00  0.00     0.159 A 
ENDROOT
BRANCH   7  11
ATOM     11  C   UNL     1      44.678 131.371  18.305  1.00  0.00    -0.015 A 
ATOM     12  C   UNL     1      43.305 131.740  18.260  1.00  0.00     0.009 A 
ATOM     13  C   UNL     1      45.301 131.168  19.561  1.00  0.00     0.035 A 
ATOM     14  C   UNL     1      42.564 131.906  19.443  1.00  0.00     0.011 A 
ATOM     15  C   UNL     1      44.535 131.341  20.713  1.00  0.00     0.046 A 
ATOM     16  C   UNL     1      43.215 131.697  20.654  1.00  0.00    -0.001 A 
ATOM     17  N   UNL     1      44.935 131.202  21.987  1.00  0.00    -0.361 N 
ATOM     18  C   UNL     1      42.754 131.786  21.949  1.00  0.00     0.028 A 
ATOM     19  C   UNL     1      43.850 131.472  22.747  1.00  0.00     0.083 A 
ATOM     20  H   UNL     1      45.888 130.939  22.325  1.00  0.00     0.166 HD
ENDBRANCH   7  11
TORSDOF 1
ENDMDL
MODEL 4
REMARK VINA RESULT:      -8.8      1.520      6.960
REMARK SMILES Cn1cnc2cc(-c3ccc4cc[nH]c4c3)cnc21
REMARK SMILES IDX 1 1 2 2 3 3 4 4 5 5 6 6 7 7 17 8 18 9 19 10 8 11 9 12 16 13
REMARK SMILES IDX 10 14 15 15 11 16 14 17 12 18 13 19
REMARK H PARENT 14 20
ROOT
ATOM      1  C   UNL     1      47.483 129.826  14.058  1.00  0.00     0.153 C 
ATOM      2  N   UNL     1      46.263 130.444  14.561  1.00  0.00    -0.318 N 
ATOM      3  C   UNL     1      45.334 131.137  13.857  1.00  0.00     0.201 A 
ATOM      4  N   UNL     1      44.361 131.681  14.639  1.00  0.00    -0.235 NA
ATOM      5  C   UNL     1      44.728 131.305  15.879  1.00  0.00     0.108 A 
ATOM      6  C   UNL     1      44.112 131.600  17.089  1.00  0.00     0.042 A 
ATOM      7  C   UNL     1      44.720 131.113  18.271  1.00  0.00     0.002 A 
ATOM      8  C   UNL     1      45.922 130.356  18.163  1.00  0.00     0.122 A 
ATOM      9  N   UNL     1      46.481 130.098  16.942  1.00  0.00    -0.236 NA
ATOM     10  C   UNL     1      45.868 130.576  15.832  1.00  0.00     0.159 A 
ENDROOT
BRANCH   7  11
ATOM     11  C   UNL     1      44.118 131.391  19.599  1.00  0.00    -0.015 A 
ATOM     12  C   UNL     1      42.890 132.102  19.697  1.00  0.00     0.009 A 
ATOM     13  C   UNL     1      44.760 130.950  20.781  1.00  0.00     0.035 A 
ATOM     14  C   UNL     1      42.311 132.373  20.949  1.00  0.00     0.011 A 
ATOM     15  C   UNL     1      44.158 131.236  22.005  1.00  0.00     0.046 A 
ATOM     16  C   UNL     1      42.977 131.922  22.084  1.00  0.00    -0.001 A 
ATOM     17  N   UNL     1      44.604 130.914  23.230  1.00  0.00    -0.361 N 
ATOM     18  C   UNL     1      42.656 132.040  23.419  1.00  0.00     0.028 A 
ATOM     19  C   UNL     1      43.690 131.402  24.098  1.00  0.00     0.083 A 
ATOM     20  H   UNL     1      45.478 130.393  23.467  1.00  0.00     0.166 HD
ENDBRANCH   7  11
TORSDOF 1
ENDMDL
MODEL 5
REMARK VINA RESULT:      -8.6      1.381      2.470
REMARK SMILES Cn1cnc2cc(-c3ccc4cc[nH]c4c3)cnc21
REMARK SMILES IDX 1 1 2 2 3 3 4 4 5 5 6 6 7 7 17 8 18 9 19 10 8 11 9 12 16 13
REMARK SMILES IDX 10 14 15 15 11 16 14 17 12 18 13 19
REMARK H PARENT 14 20
ROOT
ATOM      1  C   UNL     1      41.070 133.168  21.026  1.00  0.00     0.153 C 
ATOM      2  N   UNL     1      42.321 132.439  20.861  1.00  0.00    -0.318 N 
ATOM      3  C   UNL     1      43.206 132.082  21.824  1.00  0.00     0.201 A 
ATOM      4  N   UNL     1      44.334 131.501  21.331  1.00  0.00    -0.235 NA
ATOM      5  C   UNL     1      44.124 131.518  20.000  1.00  0.00     0.108 A 
ATOM      6  C   UNL     1      44.963 131.073  18.987  1.00  0.00     0.042 A 
ATOM      7  C   UNL     1      44.522 131.238  17.651  1.00  0.00     0.002 A 
ATOM      8  C   UNL     1      43.258 131.848  17.415  1.00  0.00     0.122 A 
ATOM      9  N   UNL     1      42.476 132.267  18.456  1.00  0.00    -0.236 NA
ATOM     10  C   UNL     1      42.927 132.088  19.721  1.00  0.00     0.159 A 
ENDROOT
BRANCH   7  11
ATOM     11  C   UNL     1      45.368 130.786  16.518  1.00  0.00    -0.015 A 
ATOM     12  C   UNL     1      45.593 129.400  16.296  1.00  0.00     0.009 A 
ATOM     13  C   UNL     1      45.960 131.733  15.646  1.00  0.00     0.035 A 
ATOM     14  C   UNL     1      46.394 128.961  15.227  1.00  0.00     0.011 A 
ATOM     15  C   UNL     1      46.748 131.262  14.597  1.00  0.00     0.046 A 
ATOM     16  C   UNL     1      46.956 129.925  14.396  1.00  0.00    -0.001 A 
ATOM     17  N   UNL     1      47.394 131.990  13.672  1.00  0.00    -0.361 N 
ATOM     18  C   UNL     1      47.770 129.796  13.293  1.00  0.00     0.028 A 
ATOM     19  C   UNL     1      48.020 131.098  12.872  1.00  0.00     0.083 A 
ATOM     20  H   UNL     1      47.412 133.030  13.586  1.00  0.00     0.166 HD
ENDBRANCH   7  11
TORSDOF 1
ENDMDL
MODEL 6
REMARK VINA RESULT:      -8.5      1.181      2.144
REMARK SMILES Cn1cnc2cc(-c3ccc4cc[nH]c4c3)cnc21
REMARK SMILES IDX 1 1 2 2 3 3 4 4 5 5 6 6 7 7 17 8 18 9 19 10 8 11 9 12 16 13
REMARK SMILES IDX 10 14 15 15 11 16 14 17 12 18 13 19
REMARK H PARENT 14 20
ROOT
ATOM      1  C   UNL     1      41.109 132.918  21.118  1.00  0.00     0.153 C 
ATOM      2  N   UNL     1      42.395 132.301  20.820  1.00  0.00    -0.318 N 
ATOM      3  C   UNL     1      43.373 131.960  21.695  1.00  0.00     0.201 A 
ATOM      4  N   UNL     1      44.502 131.500  21.089  1.00  0.00    -0.235 NA
ATOM      5  C   UNL     1      44.193 131.578  19.780  1.00  0.00     0.108 A 
ATOM      6  C   UNL     1      44.986 131.261  18.684  1.00  0.00     0.042 A 
ATOM      7  C   UNL     1      44.437 131.468  17.395  1.00  0.00     0.002 A 
ATOM      8  C   UNL     1      43.116 131.988  17.287  1.00  0.00     0.122 A 
ATOM      9  N   UNL     1      42.384 132.282  18.404  1.00  0.00    -0.236 NA
ATOM     10  C   UNL     1      42.939 132.066  19.621  1.00  0.00     0.159 A 
ENDROOT
BRANCH   7  11
ATOM     11  C   UNL     1      45.228 131.151  16.180  1.00  0.00    -0.015 A 
ATOM     12  C   UNL     1      44.850 131.683  14.917  1.00  0.00     0.009 A 
ATOM     13  C   UNL     1      46.368 130.316  16.267  1.00  0.00     0.035 A 
ATOM     14  C   UNL     1      45.591 131.389  13.759  1.00  0.00     0.011 A 
ATOM     15  C   UNL     1      47.079 130.046  15.099  1.00  0.00     0.046 A 
ATOM     16  C   UNL     1      46.703 130.564  13.890  1.00  0.00    -0.001 A 
ATOM     17  N   UNL     1      48.175 129.281  14.969  1.00  0.00    -0.361 N 
ATOM     18  C   UNL     1      47.601 130.110  12.949  1.00  0.00     0.028 A 
ATOM     19  C   UNL     1      48.499 129.317  13.657  1.00  0.00     0.083 A 
ATOM     20  H   UNL     1      48.677 128.762  15.725  1.00  0.00     0.166 HD
ENDBRANCH   7  11
TORSDOF 1
ENDMDL
MODEL 7
REMARK VINA RESULT:      -8.5      1.336      1.971
REMARK SMILES Cn1cnc2cc(-c3ccc4cc[nH]c4c3)cnc21
REMARK SMILES IDX 1 1 2 2 3 3 4 4 5 5 6 6 7 7 17 8 18 9 19 10 8 11 9 12 16 13
REMARK SMILES IDX 10 14 15 15 11 16 14 17 12 18 13 19
REMARK H PARENT 14 20
ROOT
ATOM      1  C   UNL     1      42.576 132.078  22.459  1.00  0.00     0.153 C 
ATOM      2  N   UNL     1      42.529 132.306  21.020  1.00  0.00    -0.318 N 
ATOM      3  C   UNL     1      41.544 132.910  20.309  1.00  0.00     0.201 A 
ATOM      4  N   UNL     1      41.751 132.872  18.964  1.00  0.00    -0.235 NA
ATOM      5  C   UNL     1      42.914 132.201  18.857  1.00  0.00     0.108 A 
ATOM      6  C   UNL     1      43.603 131.841  17.705  1.00  0.00     0.042 A 
ATOM      7  C   UNL     1      44.798 131.098  17.860  1.00  0.00     0.002 A 
ATOM      8  C   UNL     1      45.229 130.758  19.174  1.00  0.00     0.122 A 
ATOM      9  N   UNL     1      44.508 131.141  20.271  1.00  0.00    -0.236 NA
ATOM     10  C   UNL     1      43.372 131.855  20.085  1.00  0.00     0.159 A 
ENDROOT
BRANCH   7  11
ATOM     11  C   UNL     1      45.584 130.679  16.673  1.00  0.00    -0.015 A 
ATOM     12  C   UNL     1      45.894 129.307  16.464  1.00  0.00     0.009 A 
ATOM     13  C   UNL     1      46.032 131.642  15.737  1.00  0.00     0.035 A 
ATOM     14  C   UNL     1      46.639 128.899  15.343  1.00  0.00     0.011 A 
ATOM     15  C   UNL     1      46.768 131.202  14.638  1.00  0.00     0.046 A 
ATOM     16  C   UNL     1      47.060 129.878  14.450  1.00  0.00    -0.001 A 
ATOM     17  N   UNL     1      47.284 131.949  13.648  1.00  0.00    -0.361 N 
ATOM     18  C   UNL     1      47.792 129.779  13.287  1.00  0.00     0.028 A 
ATOM     19  C   UNL     1      47.910 131.083  12.820  1.00  0.00     0.083 A 
ATOM     20  H   UNL     1      47.216 132.985  13.539  1.00  0.00     0.166 HD
ENDBRANCH   7  11
TORSDOF 1
ENDMDL
MODEL 8
REMARK VINA RESULT:      -8.4      1.040      1.889
REMARK SMILES Cn1cnc2cc(-c3ccc4cc[nH]c4c3)cnc21
REMARK SMILES IDX 1 1 2 2 3 3 4 4 5 5 6 6 7 7 17 8 18 9 19 10 8 11 9 12 16 13
REMARK SMILES IDX 10 14 15 15 11 16 14 17 12 18 13 19
REMARK H PARENT 14 20
ROOT
ATOM      1  C   UNL     1      42.470 132.161  24.055  1.00  0.00     0.153 C 
ATOM      2  N   UNL     1      43.341 131.314  23.250  1.00  0.00    -0.318 N 
ATOM      3  C   UNL     1      44.211 130.369  23.685  1.00  0.00     0.201 A 
ATOM      4  N   UNL     1      44.959 129.825  22.686  1.00  0.00    -0.235 NA
ATOM      5  C   UNL     1      44.527 130.484  21.593  1.00  0.00     0.108 A 
ATOM      6  C   UNL     1      44.959 130.358  20.279  1.00  0.00     0.042 A 
ATOM      7  C   UNL     1      44.364 131.200  19.309  1.00  0.00     0.002 A 
ATOM      8  C   UNL     1      43.365 132.126  19.723  1.00  0.00     0.122 A 
ATOM      9  N   UNL     1      42.981 132.204  21.033  1.00  0.00    -0.236 NA
ATOM     10  C   UNL     1      43.568 131.380  21.933  1.00  0.00     0.159 A 
ENDROOT
BRANCH   7  11
ATOM     11  C   UNL     1      44.779 131.120  17.886  1.00  0.00    -0.015 A 
ATOM     12  C   UNL     1      44.042 131.806  16.882  1.00  0.00     0.009 A 
ATOM     13  C   UNL     1      45.913 130.357  17.514  1.00  0.00     0.035 A 
ATOM     14  C   UNL     1      44.425 131.736  15.531  1.00  0.00     0.011 A 
ATOM     15  C   UNL     1      46.264 130.310  16.166  1.00  0.00     0.046 A 
ATOM     16  C   UNL     1      45.545 130.976  15.211  1.00  0.00    -0.001 A 
ATOM     17  N   UNL     1      47.292 129.647  15.613  1.00  0.00    -0.361 N 
ATOM     18  C   UNL     1      46.144 130.726  13.996  1.00  0.00     0.028 A 
ATOM     19  C   UNL     1      47.224 129.899  14.286  1.00  0.00     0.083 A 
ATOM     20  H   UNL     1      48.001 129.057  16.104  1.00  0.00     0.166 HD
ENDBRANCH   7  11
TORSDOF 1
ENDMDL
MODEL 9
REMARK VINA RESULT:      -8.2      1.031      1.081
REMARK SMILES Cn1cnc2cc(-c3ccc4cc[nH]c4c3)cnc21
REMARK SMILES IDX 1 1 2 2 3 3 4 4 5 5 6 6 7 7 17 8 18 9 19 10 8 11 9 12 16 13
REMARK SMILES IDX 10 14 15 15 11 16 14 17 12 18 13 19
REMARK H PARENT 14 20
ROOT
ATOM      1  C   UNL     1      44.748 131.753  24.583  1.00  0.00     0.153 C 
ATOM      2  N   UNL     1      43.956 131.824  23.361  1.00  0.00    -0.318 N 
ATOM      3  C   UNL     1      42.608 131.927  23.252  1.00  0.00     0.201 A 
ATOM      4  N   UNL     1      42.166 131.861  21.966  1.00  0.00    -0.235 NA
ATOM      5  C   UNL     1      43.304 131.699  21.264  1.00  0.00     0.108 A 
ATOM      6  C   UNL     1      43.459 131.547  19.892  1.00  0.00     0.042 A 
ATOM      7  C   UNL     1      44.772 131.354  19.398  1.00  0.00     0.002 A 
ATOM      8  C   UNL     1      45.856 131.322  20.322  1.00  0.00     0.122 A 
ATOM      9  N   UNL     1      45.639 131.479  21.663  1.00  0.00    -0.236 NA
ATOM     10  C   UNL     1      44.371 131.667  22.099  1.00  0.00     0.159 A 
ENDROOT
BRANCH   7  11
ATOM     11  C   UNL     1      45.012 131.182  17.943  1.00  0.00    -0.015 A 
ATOM     12  C   UNL     1      44.141 131.785  16.995  1.00  0.00     0.009 A 
ATOM     13  C   UNL     1      46.111 130.415  17.486  1.00  0.00     0.035 A 
ATOM     14  C   UNL     1      44.358 131.628  15.615  1.00  0.00     0.011 A 
ATOM     15  C   UNL     1      46.295 130.280  16.111  1.00  0.00     0.046 A 
ATOM     16  C   UNL     1      45.449 130.866  15.210  1.00  0.00    -0.001 A 
ATOM     17  N   UNL     1      47.264 129.597  15.480  1.00  0.00    -0.361 N 
ATOM     18  C   UNL     1      45.900 130.543  13.949  1.00  0.00     0.028 A 
ATOM     19  C   UNL     1      47.028 129.755  14.159  1.00  0.00     0.083 A 
ATOM     20  H   UNL     1      48.042 129.054  15.918  1.00  0.00     0.166 HD
ENDBRANCH   7  11
TORSDOF 1
ENDMDL


