REMARK SMILES Cn1cc2cc(F)c(-c3ccc4[nH]ccc4c3)c(F)c2n1
REMARK SMILES IDX 1 1 2 2 3 3 4 4 5 5 6 6 7 7 8 8 18 9 19 10 20 11 21 12 9 13
REMARK SMILES IDX 10 14 17 15 11 16 16 17 12 18 15 19 13 20 14 21
REMARK H PARENT 13 22
ROOT
ATOM      1  C   UNL     1      -3.996   2.997   3.265  1.00  0.00     0.173 C 
ATOM      2  N   UNL     1      -3.326   1.901   2.580  1.00  0.00    -0.274 N 
ATOM      3  C   UNL     1      -3.592   0.585   2.756  1.00  0.00     0.117 A 
ATOM      4  C   UNL     1      -2.695  -0.112   1.982  1.00  0.00     0.026 A 
ATOM      5  C   UNL     1      -2.502  -1.473   1.780  1.00  0.00     0.052 A 
ATOM      6  C   UNL     1      -1.463  -1.865   0.915  1.00  0.00     0.134 A 
ATOM      7  F   UNL     1      -1.276  -3.188   0.677  1.00  0.00    -0.206 F 
ATOM      8  C   UNL     1      -0.642  -0.891   0.277  1.00  0.00     0.056 A 
ATOM      9  C   UNL     1      -0.878   0.486   0.517  1.00  0.00     0.162 A 
ATOM     10  F   UNL     1      -0.102   1.450  -0.042  1.00  0.00    -0.204 F 
ATOM     11  C   UNL     1      -1.916   0.833   1.377  1.00  0.00     0.129 A 
ATOM     12  N   UNL     1      -2.299   2.067   1.752  1.00  0.00    -0.170 NA
ENDROOT
BRANCH   8  13
ATOM     13  C   UNL     1       0.451  -1.313  -0.629  1.00  0.00    -0.012 A 
ATOM     14  C   UNL     1       1.399  -2.282  -0.206  1.00  0.00     0.011 A 
ATOM     15  C   UNL     1       0.558  -0.750  -1.922  1.00  0.00     0.019 A 
ATOM     16  C   UNL     1       2.441  -2.689  -1.058  1.00  0.00     0.027 A 
ATOM     17  C   UNL     1       1.602  -1.177  -2.739  1.00  0.00    -0.000 A 
ATOM     18  C   UNL     1       2.511  -2.112  -2.323  1.00  0.00     0.045 A 
ATOM     19  C   UNL     1       1.944  -0.812  -4.022  1.00  0.00     0.028 A 
ATOM     20  N   UNL     1       3.416  -2.358  -3.284  1.00  0.00    -0.361 N 
ATOM     21  C   UNL     1       3.074  -1.565  -4.325  1.00  0.00     0.083 A 
ATOM     22  H   UNL     1       4.220  -3.023  -3.241  1.00  0.00     0.166 HD
ENDBRANCH   8  13
TORSDOF 1


