REMARK SMILES Cc1cc(C#N)ccc1C(=O)N[C@H]1CC12CCC2
REMARK SMILES IDX 1 1 2 2 3 3 4 4 7 5 8 6 9 7 10 8 12 9 11 10 13 12 14 13
REMARK SMILES IDX 15 14 16 15 18 16 17 17 5 18 6 19
REMARK H PARENT 12 11
ROOT
ATOM      1  C   UNL     1       1.172  -1.819  -0.216  1.00  0.00     0.045 C 
ATOM      2  C   UNL     1      -0.034  -2.060  -1.086  1.00  0.00    -0.037 A 
ATOM      3  C   UNL     1      -0.307  -3.371  -1.516  1.00  0.00     0.023 A 
ATOM      4  C   UNL     1      -1.430  -3.643  -2.305  1.00  0.00     0.052 A 
ATOM      5  C   UNL     1      -2.287  -2.606  -2.678  1.00  0.00     0.020 A 
ATOM      6  C   UNL     1      -2.022  -1.298  -2.271  1.00  0.00     0.015 A 
ATOM      7  C   UNL     1      -0.896  -1.004  -1.481  1.00  0.00     0.042 A 
ENDROOT
BRANCH   7   8
ATOM      8  C   UNL     1      -0.640   0.406  -1.100  1.00  0.00     0.251 C 
ATOM      9  N   UNL     1      -1.721   1.259  -0.697  1.00  0.00    -0.349 N 
ATOM     10  O   UNL     1       0.535   0.862  -1.137  1.00  0.00    -0.269 OA
ATOM     11  H   UNL     1      -2.694   0.881  -0.659  1.00  0.00     0.164 HD
BRANCH   9  12
ATOM     12  C   UNL     1      -1.500   2.668  -0.389  1.00  0.00     0.089 C 
ATOM     13  C   UNL     1      -2.388   3.217   0.737  1.00  0.00     0.034 C 
ATOM     14  C   UNL     1      -0.922   2.887   0.990  1.00  0.00    -0.007 C 
ATOM     15  C   UNL     1      -0.618   1.938   2.115  1.00  0.00     0.009 C 
ATOM     16  C   UNL     1      -0.049   3.994   1.504  1.00  0.00     0.009 C 
ATOM     17  C   UNL     1       0.291   3.051   2.678  1.00  0.00     0.001 C 
ENDBRANCH   9  12
ENDBRANCH   7   8
BRANCH   4  18
ATOM     18  C   UNL     1      -1.702  -4.991  -2.733  1.00  0.00     0.099 C 
ATOM     19  N   UNL     1      -1.920  -6.074  -3.077  1.00  0.00    -0.192 NA
ENDBRANCH   4  18
TORSDOF 3


