MODEL 1
REMARK VINA RESULT:      -4.6      0.000      0.000
REMARK SMILES C=C[C@H]1CN[C@@H](c2c[nH+]c3ocnc3c2)N(/C(S)=N\c2cccc(SC(F)(F)F)c2)C1
REMARK SMILES IDX 19 1 17 2 18 3 16 5 31 6 6 7 3 8 5 9 4 10 7 12 15 13 8 14
REMARK SMILES IDX 14 15 9 16 13 17 10 18 12 19 11 20 2 22 1 23 20 24 21 25
REMARK SMILES IDX 30 26 22 27 24 28 23 29 25 30 26 31 27 32 28 33 29 34
REMARK H PARENT 18 4 5 11 9 21
ROOT
ATOM      1  N   UNL     1      45.717 130.351  19.403  1.00  0.00    -0.225 NA
ENDROOT
BRANCH   1   2
ATOM      2  C   UNL     1      45.683 131.297  20.299  1.00  0.00     0.162 C 
BRANCH   2   3
ATOM      3  S   UNL     1      47.235 131.857  20.994  1.00  0.00    -0.106 SA
ATOM      4  H   UNL     1      47.993 131.032  20.146  1.00  0.00     0.111 HD
ENDBRANCH   2   3
BRANCH   2   5
ATOM      5  N   UNL     1      44.454 131.915  20.741  1.00  0.00    -0.331 N 
ATOM      6  C   UNL     1      43.899 133.004  19.928  1.00  0.00     0.129 C 
ATOM      7  C   UNL     1      43.798 131.610  22.038  1.00  0.00     0.189 C 
ATOM      8  C   UNL     1      42.381 132.847  19.791  1.00  0.00     0.045 C 
ATOM      9  N   UNL     1      42.339 131.501  21.860  1.00  0.00    -0.293 NA
ATOM     10  C   UNL     1      41.778 132.681  21.192  1.00  0.00     0.092 C 
ATOM     11  H   UNL     1      41.896 131.439  22.809  1.00  0.00     0.125 HD
BRANCH   7  12
ATOM     12  C   UNL     1      44.291 130.314  22.648  1.00  0.00     0.055 A 
ATOM     13  C   UNL     1      44.658 129.228  21.821  1.00  0.00     0.053 A 
ATOM     14  C   UNL     1      44.451 130.193  24.057  1.00  0.00     0.317 A 
ATOM     15  C   UNL     1      45.107 128.072  22.443  1.00  0.00     0.179 A 
ATOM     16  N   UNL     1      44.903 129.027  24.611  1.00  0.00    -0.177 N 
ATOM     17  N   UNL     1      45.486 126.910  21.886  1.00  0.00    -0.209 NA
ATOM     18  C   UNL     1      45.214 127.995  23.789  1.00  0.00     0.399 A 
ATOM     19  C   UNL     1      45.814 126.166  22.978  1.00  0.00     0.316 A 
ATOM     20  O   UNL     1      45.654 126.813  24.122  1.00  0.00    -0.391 OA
ATOM     21  H   UNL     1      45.010 128.935  25.645  1.00  0.00     0.457 HD
ENDBRANCH   7  12
BRANCH   8  22
ATOM     22  C   UNL     1      42.026 131.676  18.899  1.00  0.00    -0.028 C 
ATOM     23  C   UNL     1      40.771 131.229  18.798  1.00  0.00     0.004 C 
ENDBRANCH   8  22
ENDBRANCH   2   5
ENDBRANCH   1   2
BRANCH   1  24
ATOM     24  C   UNL     1      45.484 130.476  17.993  1.00  0.00     0.067 A 
ATOM     25  C   UNL     1      44.386 131.226  17.553  1.00  0.00     0.028 A 
ATOM     26  C   UNL     1      46.388 129.959  17.050  1.00  0.00     0.043 A 
ATOM     27  C   UNL     1      44.145 131.389  16.186  1.00  0.00     0.003 A 
ATOM     28  C   UNL     1      46.149 130.123  15.680  1.00  0.00     0.018 A 
ATOM     29  C   UNL     1      45.021 130.833  15.250  1.00  0.00     0.015 A 
BRANCH  28  30
ATOM     30  S   UNL     1      47.320 129.488  14.475  1.00  0.00    -0.015 SA
BRANCH  30  31
ATOM     31  C   UNL     1      47.416 131.028  13.503  1.00  0.00     0.446 C 
ATOM     32  F   UNL     1      46.362 131.062  12.612  1.00  0.00    -0.160 F 
ATOM     33  F   UNL     1      47.327 132.120  14.345  1.00  0.00    -0.160 F 
ATOM     34  F   UNL     1      48.604 131.081  12.798  1.00  0.00    -0.160 F 
ENDBRANCH  30  31
ENDBRANCH  28  30
ENDBRANCH   1  24
TORSDOF 8
ENDMDL
MODEL 2
REMARK VINA RESULT:      -3.6      0.857      1.158
REMARK SMILES C=C[C@H]1CN[C@@H](c2c[nH+]c3ocnc3c2)N(/C(S)=N\c2cccc(SC(F)(F)F)c2)C1
REMARK SMILES IDX 19 1 17 2 18 3 16 5 31 6 6 7 3 8 5 9 4 10 7 12 15 13 8 14
REMARK SMILES IDX 14 15 9 16 13 17 10 18 12 19 11 20 2 22 1 23 20 24 21 25
REMARK SMILES IDX 30 26 22 27 24 28 23 29 25 30 26 31 27 32 28 33 29 34
REMARK H PARENT 18 4 5 11 9 21
ROOT
ATOM      1  N   UNL     1      45.424 130.477  19.236  1.00  0.00    -0.225 NA
ENDROOT
BRANCH   1   2
ATOM      2  C   UNL     1      45.449 131.299  20.247  1.00  0.00     0.162 C 
BRANCH   2   3
ATOM      3  S   UNL     1      47.030 131.655  21.007  1.00  0.00    -0.106 SA
ATOM      4  H   UNL     1      47.361 132.615  20.036  1.00  0.00     0.111 HD
ENDBRANCH   2   3
BRANCH   2   5
ATOM      5  N   UNL     1      44.262 131.938  20.767  1.00  0.00    -0.331 N 
ATOM      6  C   UNL     1      43.695 133.060  20.009  1.00  0.00     0.129 C 
ATOM      7  C   UNL     1      43.667 131.620  22.089  1.00  0.00     0.189 C 
ATOM      8  C   UNL     1      42.169 132.946  19.948  1.00  0.00     0.045 C 
ATOM      9  N   UNL     1      42.198 131.553  21.987  1.00  0.00    -0.293 NA
ATOM     10  C   UNL     1      41.635 132.763  21.376  1.00  0.00     0.092 C 
ATOM     11  H   UNL     1      41.804 131.481  22.956  1.00  0.00     0.125 HD
BRANCH   7  12
ATOM     12  C   UNL     1      44.155 130.297  22.644  1.00  0.00     0.055 A 
ATOM     13  C   UNL     1      44.753 129.342  21.791  1.00  0.00     0.053 A 
ATOM     14  C   UNL     1      44.075 130.024  24.038  1.00  0.00     0.317 A 
ATOM     15  C   UNL     1      45.185 128.153  22.364  1.00  0.00     0.179 A 
ATOM     16  N   UNL     1      44.522 128.834  24.543  1.00  0.00    -0.177 N 
ATOM     17  N   UNL     1      45.754 127.092  21.769  1.00  0.00    -0.209 NA
ATOM     18  C   UNL     1      45.061 127.928  23.691  1.00  0.00     0.399 A 
ATOM     19  C   UNL     1      45.949 126.250  22.821  1.00  0.00     0.316 A 
ATOM     20  O   UNL     1      45.535 126.747  23.977  1.00  0.00    -0.391 OA
ATOM     21  H   UNL     1      44.454 128.630  25.564  1.00  0.00     0.457 HD
ENDBRANCH   7  12
BRANCH   8  22
ATOM     22  C   UNL     1      41.736 131.807  19.051  1.00  0.00    -0.028 C 
ATOM     23  C   UNL     1      42.195 131.687  17.801  1.00  0.00     0.004 C 
ENDBRANCH   8  22
ENDBRANCH   2   5
ENDBRANCH   1   2
BRANCH   1  24
ATOM     24  C   UNL     1      45.527 130.804  17.843  1.00  0.00     0.067 A 
ATOM     25  C   UNL     1      45.371 132.139  17.449  1.00  0.00     0.028 A 
ATOM     26  C   UNL     1      45.886 129.840  16.885  1.00  0.00     0.043 A 
ATOM     27  C   UNL     1      45.489 132.496  16.103  1.00  0.00     0.003 A 
ATOM     28  C   UNL     1      46.007 130.197  15.537  1.00  0.00     0.018 A 
ATOM     29  C   UNL     1      45.800 131.526  15.147  1.00  0.00     0.015 A 
BRANCH  28  30
ATOM     30  S   UNL     1      46.495 128.972  14.318  1.00  0.00    -0.015 SA
BRANCH  30  31
ATOM     31  C   UNL     1      48.046 129.807  13.848  1.00  0.00     0.446 C 
ATOM     32  F   UNL     1      49.047 129.416  14.715  1.00  0.00    -0.160 F 
ATOM     33  F   UNL     1      48.400 129.448  12.561  1.00  0.00    -0.160 F 
ATOM     34  F   UNL     1      47.897 131.180  13.922  1.00  0.00    -0.160 F 
ENDBRANCH  30  31
ENDBRANCH  28  30
ENDBRANCH   1  24
TORSDOF 8
ENDMDL
MODEL 3
REMARK VINA RESULT:      -3.0      2.310      3.097
REMARK SMILES C=C[C@H]1CN[C@@H](c2c[nH+]c3ocnc3c2)N(/C(S)=N\c2cccc(SC(F)(F)F)c2)C1
REMARK SMILES IDX 19 1 17 2 18 3 16 5 31 6 6 7 3 8 5 9 4 10 7 12 15 13 8 14
REMARK SMILES IDX 14 15 9 16 13 17 10 18 12 19 11 20 2 22 1 23 20 24 21 25
REMARK SMILES IDX 30 26 22 27 24 28 23 29 25 30 26 31 27 32 28 33 29 34
REMARK H PARENT 18 4 5 11 9 21
ROOT
ATOM      1  N   UNL     1      45.825 130.016  20.755  1.00  0.00    -0.225 NA
ENDROOT
BRANCH   1   2
ATOM      2  C   UNL     1      45.245 129.487  21.795  1.00  0.00     0.162 C 
BRANCH   2   3
ATOM      3  S   UNL     1      45.140 127.702  21.885  1.00  0.00    -0.106 SA
ATOM      4  H   UNL     1      44.360 127.736  23.053  1.00  0.00     0.111 HD
ENDBRANCH   2   3
BRANCH   2   5
ATOM      5  N   UNL     1      44.699 130.276  22.875  1.00  0.00    -0.331 N 
ATOM      6  C   UNL     1      44.698 131.736  22.730  1.00  0.00     0.129 C 
ATOM      7  C   UNL     1      44.269 129.705  24.177  1.00  0.00     0.189 C 
ATOM      8  C   UNL     1      43.365 132.320  23.210  1.00  0.00     0.045 C 
ATOM      9  N   UNL     1      43.002 130.320  24.612  1.00  0.00    -0.293 NA
ATOM     10  C   UNL     1      43.077 131.785  24.620  1.00  0.00     0.092 C 
ATOM     11  H   UNL     1      42.808 130.012  25.595  1.00  0.00     0.125 HD
BRANCH   7  12
ATOM     12  C   UNL     1      44.062 128.206  24.115  1.00  0.00     0.055 A 
ATOM     13  C   UNL     1      42.912 127.668  23.493  1.00  0.00     0.053 A 
ATOM     14  C   UNL     1      45.050 127.317  24.624  1.00  0.00     0.317 A 
ATOM     15  C   UNL     1      42.786 126.286  23.464  1.00  0.00     0.179 A 
ATOM     16  N   UNL     1      44.869 125.963  24.563  1.00  0.00    -0.177 N 
ATOM     17  N   UNL     1      41.786 125.543  22.961  1.00  0.00    -0.209 NA
ATOM     18  C   UNL     1      43.739 125.483  23.989  1.00  0.00     0.399 A 
ATOM     19  C   UNL     1      42.215 124.278  23.223  1.00  0.00     0.316 A 
ATOM     20  O   UNL     1      43.387 124.236  23.839  1.00  0.00    -0.391 OA
ATOM     21  H   UNL     1      45.589 125.312  24.947  1.00  0.00     0.457 HD
ENDBRANCH   7  12
BRANCH   8  22
ATOM     22  C   UNL     1      42.240 131.982  22.255  1.00  0.00    -0.028 C 
ATOM     23  C   UNL     1      41.231 132.831  22.036  1.00  0.00     0.004 C 
ENDBRANCH   8  22
ENDBRANCH   2   5
ENDBRANCH   1   2
BRANCH   1  24
ATOM     24  C   UNL     1      45.195 130.587  19.601  1.00  0.00     0.067 A 
ATOM     25  C   UNL     1      43.899 131.104  19.725  1.00  0.00     0.028 A 
ATOM     26  C   UNL     1      45.883 130.737  18.385  1.00  0.00     0.043 A 
ATOM     27  C   UNL     1      43.265 131.690  18.626  1.00  0.00     0.003 A 
ATOM     28  C   UNL     1      45.250 131.325  17.283  1.00  0.00     0.018 A 
ATOM     29  C   UNL     1      43.937 131.795  17.404  1.00  0.00     0.015 A 
BRANCH  28  30
ATOM     30  S   UNL     1      46.140 131.545  15.739  1.00  0.00    -0.015 SA
BRANCH  30  31
ATOM     31  C   UNL     1      45.327 130.160  14.875  1.00  0.00     0.446 C 
ATOM     32  F   UNL     1      44.139 130.607  14.332  1.00  0.00    -0.160 F 
ATOM     33  F   UNL     1      46.141 129.700  13.858  1.00  0.00    -0.160 F 
ATOM     34  F   UNL     1      45.060 129.130  15.758  1.00  0.00    -0.160 F 
ENDBRANCH  30  31
ENDBRANCH  28  30
ENDBRANCH   1  24
TORSDOF 8
ENDMDL
MODEL 4
REMARK VINA RESULT:      -3.0      1.287      1.651
REMARK SMILES C=C[C@H]1CN[C@@H](c2c[nH+]c3ocnc3c2)N(/C(S)=N\c2cccc(SC(F)(F)F)c2)C1
REMARK SMILES IDX 19 1 17 2 18 3 16 5 31 6 6 7 3 8 5 9 4 10 7 12 15 13 8 14
REMARK SMILES IDX 14 15 9 16 13 17 10 18 12 19 11 20 2 22 1 23 20 24 21 25
REMARK SMILES IDX 30 26 22 27 24 28 23 29 25 30 26 31 27 32 28 33 29 34
REMARK H PARENT 18 4 5 11 9 21
ROOT
ATOM      1  N   UNL     1      45.678 130.343  19.020  1.00  0.00    -0.225 NA
ENDROOT
BRANCH   1   2
ATOM      2  C   UNL     1      45.797 131.098  20.075  1.00  0.00     0.162 C 
BRANCH   2   3
ATOM      3  S   UNL     1      47.446 131.568  20.593  1.00  0.00    -0.106 SA
ATOM      4  H   UNL     1      47.953 131.498  19.285  1.00  0.00     0.111 HD
ENDBRANCH   2   3
BRANCH   2   5
ATOM      5  N   UNL     1      44.663 131.575  20.831  1.00  0.00    -0.331 N 
ATOM      6  C   UNL     1      44.035 132.833  20.410  1.00  0.00     0.129 C 
ATOM      7  C   UNL     1      44.185 130.944  22.087  1.00  0.00     0.189 C 
ATOM      8  C   UNL     1      42.508 132.709  20.456  1.00  0.00     0.045 C 
ATOM      9  N   UNL     1      42.712 130.877  22.099  1.00  0.00    -0.293 NA
ATOM     10  C   UNL     1      42.102 132.186  21.840  1.00  0.00     0.092 C 
ATOM     11  H   UNL     1      42.405 130.572  23.054  1.00  0.00     0.125 HD
BRANCH   7  12
ATOM     12  C   UNL     1      44.716 129.538  22.271  1.00  0.00     0.055 A 
ATOM     13  C   UNL     1      44.309 128.759  23.378  1.00  0.00     0.053 A 
ATOM     14  C   UNL     1      45.582 128.960  21.301  1.00  0.00     0.317 A 
ATOM     15  C   UNL     1      44.829 127.476  23.484  1.00  0.00     0.179 A 
ATOM     16  N   UNL     1      46.058 127.687  21.460  1.00  0.00    -0.177 N 
ATOM     17  N   UNL     1      44.619 126.561  24.444  1.00  0.00    -0.209 NA
ATOM     18  C   UNL     1      45.673 126.980  22.550  1.00  0.00     0.399 A 
ATOM     19  C   UNL     1      45.383 125.519  24.014  1.00  0.00     0.316 A 
ATOM     20  O   UNL     1      46.017 125.766  22.878  1.00  0.00    -0.391 OA
ATOM     21  H   UNL     1      46.702 127.268  20.754  1.00  0.00     0.457 HD
ENDBRANCH   7  12
BRANCH   8  22
ATOM     22  C   UNL     1      41.995 131.804  19.356  1.00  0.00    -0.028 C 
ATOM     23  C   UNL     1      41.130 132.242  18.436  1.00  0.00     0.004 C 
ENDBRANCH   8  22
ENDBRANCH   2   5
ENDBRANCH   1   2
BRANCH   1  24
ATOM     24  C   UNL     1      45.371 130.757  17.681  1.00  0.00     0.067 A 
ATOM     25  C   UNL     1      44.071 131.189  17.389  1.00  0.00     0.028 A 
ATOM     26  C   UNL     1      46.365 130.844  16.692  1.00  0.00     0.043 A 
ATOM     27  C   UNL     1      43.745 131.623  16.101  1.00  0.00     0.003 A 
ATOM     28  C   UNL     1      46.041 131.281  15.402  1.00  0.00     0.018 A 
ATOM     29  C   UNL     1      44.727 131.663  15.106  1.00  0.00     0.015 A 
BRANCH  28  30
ATOM     30  S   UNL     1      47.318 131.420  14.147  1.00  0.00    -0.015 SA
BRANCH  30  31
ATOM     31  C   UNL     1      47.668 129.633  14.059  1.00  0.00     0.446 C 
ATOM     32  F   UNL     1      46.477 128.938  14.148  1.00  0.00    -0.160 F 
ATOM     33  F   UNL     1      48.274 129.333  12.855  1.00  0.00    -0.160 F 
ATOM     34  F   UNL     1      48.491 129.250  15.102  1.00  0.00    -0.160 F 
ENDBRANCH  30  31
ENDBRANCH  28  30
ENDBRANCH   1  24
TORSDOF 8
ENDMDL
MODEL 5
REMARK VINA RESULT:      -2.8      2.991      4.406
REMARK SMILES C=C[C@H]1CN[C@@H](c2c[nH+]c3ocnc3c2)N(/C(S)=N\c2cccc(SC(F)(F)F)c2)C1
REMARK SMILES IDX 19 1 17 2 18 3 16 5 31 6 6 7 3 8 5 9 4 10 7 12 15 13 8 14
REMARK SMILES IDX 14 15 9 16 13 17 10 18 12 19 11 20 2 22 1 23 20 24 21 25
REMARK SMILES IDX 30 26 22 27 24 28 23 29 25 30 26 31 27 32 28 33 29 34
REMARK H PARENT 18 4 5 11 9 21
ROOT
ATOM      1  N   UNL     1      45.682 131.117  20.163  1.00  0.00    -0.225 NA
ENDROOT
BRANCH   1   2
ATOM      2  C   UNL     1      45.241 130.456  21.195  1.00  0.00     0.162 C 
BRANCH   2   3
ATOM      3  S   UNL     1      45.948 128.846  21.532  1.00  0.00    -0.106 SA
ATOM      4  H   UNL     1      47.152 129.160  20.878  1.00  0.00     0.111 HD
ENDBRANCH   2   3
BRANCH   2   5
ATOM      5  N   UNL     1      44.221 130.971  22.079  1.00  0.00    -0.331 N 
ATOM      6  C   UNL     1      43.016 130.159  22.288  1.00  0.00     0.129 C 
ATOM      7  C   UNL     1      44.256 132.331  22.675  1.00  0.00     0.189 C 
ATOM      8  C   UNL     1      42.625 130.157  23.770  1.00  0.00     0.045 C 
ATOM      9  N   UNL     1      43.841 132.282  24.089  1.00  0.00    -0.293 NA
ATOM     10  C   UNL     1      42.547 131.610  24.257  1.00  0.00     0.092 C 
ATOM     11  H   UNL     1      43.729 133.266  24.432  1.00  0.00     0.125 HD
BRANCH   7  12
ATOM     12  C   UNL     1      45.635 132.956  22.616  1.00  0.00     0.055 A 
ATOM     13  C   UNL     1      46.413 133.083  23.789  1.00  0.00     0.053 A 
ATOM     14  C   UNL     1      46.190 133.367  21.372  1.00  0.00     0.317 A 
ATOM     15  C   UNL     1      47.670 133.659  23.664  1.00  0.00     0.179 A 
ATOM     16  N   UNL     1      47.437 133.925  21.314  1.00  0.00    -0.177 N 
ATOM     17  N   UNL     1      48.578 133.910  24.622  1.00  0.00    -0.209 NA
ATOM     18  C   UNL     1      48.143 134.061  22.463  1.00  0.00     0.399 A 
ATOM     19  C   UNL     1      49.591 134.475  23.910  1.00  0.00     0.316 A 
ATOM     20  O   UNL     1      49.336 134.566  22.613  1.00  0.00    -0.391 OA
ATOM     21  H   UNL     1      47.840 134.235  20.402  1.00  0.00     0.457 HD
ENDBRANCH   7  12
BRANCH   8  22
ATOM     22  C   UNL     1      43.604 129.352  24.598  1.00  0.00    -0.028 C 
ATOM     23  C   UNL     1      44.265 128.311  24.083  1.00  0.00     0.004 C 
ENDBRANCH   8  22
ENDBRANCH   2   5
ENDBRANCH   1   2
BRANCH   1  24
ATOM     24  C   UNL     1      45.195 131.057  18.815  1.00  0.00     0.067 A 
ATOM     25  C   UNL     1      44.015 131.739  18.493  1.00  0.00     0.028 A 
ATOM     26  C   UNL     1      45.928 130.427  17.795  1.00  0.00     0.043 A 
ATOM     27  C   UNL     1      43.526 131.722  17.184  1.00  0.00     0.003 A 
ATOM     28  C   UNL     1      45.440 130.411  16.483  1.00  0.00     0.018 A 
ATOM     29  C   UNL     1      44.234 131.054  16.181  1.00  0.00     0.015 A 
BRANCH  28  30
ATOM     30  S   UNL     1      46.392 129.632  15.174  1.00  0.00    -0.015 SA
BRANCH  30  31
ATOM     31  C   UNL     1      46.393 131.087  14.075  1.00  0.00     0.446 C 
ATOM     32  F   UNL     1      47.064 132.120  14.699  1.00  0.00    -0.160 F 
ATOM     33  F   UNL     1      47.041 130.780  12.893  1.00  0.00    -0.160 F 
ATOM     34  F   UNL     1      45.099 131.489  13.804  1.00  0.00    -0.160 F 
ENDBRANCH  30  31
ENDBRANCH  28  30
ENDBRANCH   1  24
TORSDOF 8
ENDMDL
MODEL 6
REMARK VINA RESULT:      -2.4      3.109      4.530
REMARK SMILES C=C[C@H]1CN[C@@H](c2c[nH+]c3ocnc3c2)N(/C(S)=N\c2cccc(SC(F)(F)F)c2)C1
REMARK SMILES IDX 19 1 17 2 18 3 16 5 31 6 6 7 3 8 5 9 4 10 7 12 15 13 8 14
REMARK SMILES IDX 14 15 9 16 13 17 10 18 12 19 11 20 2 22 1 23 20 24 21 25
REMARK SMILES IDX 30 26 22 27 24 28 23 29 25 30 26 31 27 32 28 33 29 34
REMARK H PARENT 18 4 5 11 9 21
ROOT
ATOM      1  N   UNL     1      44.423 132.209  19.759  1.00  0.00    -0.225 NA
ENDROOT
BRANCH   1   2
ATOM      2  C   UNL     1      44.773 131.379  20.701  1.00  0.00     0.162 C 
BRANCH   2   3
ATOM      3  S   UNL     1      46.123 130.250  20.372  1.00  0.00    -0.106 SA
ATOM      4  H   UNL     1      46.642 131.058  19.347  1.00  0.00     0.111 HD
ENDBRANCH   2   3
BRANCH   2   5
ATOM      5  N   UNL     1      44.128 131.342  21.993  1.00  0.00    -0.331 N 
ATOM      6  C   UNL     1      42.998 130.423  22.173  1.00  0.00     0.129 C 
ATOM      7  C   UNL     1      44.451 132.275  23.102  1.00  0.00     0.189 C 
ATOM      8  C   UNL     1      43.100 129.708  23.524  1.00  0.00     0.045 C 
ATOM      9  N   UNL     1      44.506 131.548  24.383  1.00  0.00    -0.293 NA
ATOM     10  C   UNL     1      43.288 130.764  24.622  1.00  0.00     0.092 C 
ATOM     11  H   UNL     1      44.581 132.251  25.157  1.00  0.00     0.125 HD
BRANCH   7  12
ATOM     12  C   UNL     1      45.780 132.974  22.906  1.00  0.00     0.055 A 
ATOM     13  C   UNL     1      46.642 133.192  24.005  1.00  0.00     0.053 A 
ATOM     14  C   UNL     1      46.207 133.365  21.606  1.00  0.00     0.317 A 
ATOM     15  C   UNL     1      47.848 133.833  23.755  1.00  0.00     0.179 A 
ATOM     16  N   UNL     1      47.410 133.990  21.424  1.00  0.00    -0.177 N 
ATOM     17  N   UNL     1      48.813 134.174  24.625  1.00  0.00    -0.209 NA
ATOM     18  C   UNL     1      48.196 134.212  22.505  1.00  0.00     0.399 A 
ATOM     19  C   UNL     1      49.730 134.766  23.810  1.00  0.00     0.316 A 
ATOM     20  O   UNL     1      49.365 134.790  22.537  1.00  0.00    -0.391 OA
ATOM     21  H   UNL     1      47.717 134.286  20.472  1.00  0.00     0.457 HD
ENDBRANCH   7  12
BRANCH   8  22
ATOM     22  C   UNL     1      44.231 128.702  23.532  1.00  0.00    -0.028 C 
ATOM     23  C   UNL     1      44.024 127.415  23.238  1.00  0.00     0.004 C 
ENDBRANCH   8  22
ENDBRANCH   2   5
ENDBRANCH   1   2
BRANCH   1  24
ATOM     24  C   UNL     1      44.343 131.947  18.351  1.00  0.00     0.067 A 
ATOM     25  C   UNL     1      43.080 131.813  17.760  1.00  0.00     0.028 A 
ATOM     26  C   UNL     1      45.489 131.931  17.539  1.00  0.00     0.043 A 
ATOM     27  C   UNL     1      42.965 131.583  16.386  1.00  0.00     0.003 A 
ATOM     28  C   UNL     1      45.375 131.703  16.162  1.00  0.00     0.018 A 
ATOM     29  C   UNL     1      44.111 131.522  15.589  1.00  0.00     0.015 A 
BRANCH  28  30
ATOM     30  S   UNL     1      46.838 131.714  15.120  1.00  0.00    -0.015 SA
BRANCH  30  31
ATOM     31  C   UNL     1      46.379 130.229  14.166  1.00  0.00     0.446 C 
ATOM     32  F   UNL     1      45.775 130.622  12.988  1.00  0.00    -0.160 F 
ATOM     33  F   UNL     1      47.511 129.496  13.867  1.00  0.00    -0.160 F 
ATOM     34  F   UNL     1      45.495 129.446  14.886  1.00  0.00    -0.160 F 
ENDBRANCH  30  31
ENDBRANCH  28  30
ENDBRANCH   1  24
TORSDOF 8
ENDMDL
MODEL 7
REMARK VINA RESULT:      -2.0      5.989      8.301
REMARK SMILES C=C[C@H]1CN[C@@H](c2c[nH+]c3ocnc3c2)N(/C(S)=N\c2cccc(SC(F)(F)F)c2)C1
REMARK SMILES IDX 19 1 17 2 18 3 16 5 31 6 6 7 3 8 5 9 4 10 7 12 15 13 8 14
REMARK SMILES IDX 14 15 9 16 13 17 10 18 12 19 11 20 2 22 1 23 20 24 21 25
REMARK SMILES IDX 30 26 22 27 24 28 23 29 25 30 26 31 27 32 28 33 29 34
REMARK H PARENT 18 4 5 11 9 21
ROOT
ATOM      1  N   UNL     1      47.695 133.094  21.673  1.00  0.00    -0.225 NA
ENDROOT
BRANCH   1   2
ATOM      2  C   UNL     1      47.898 134.327  22.041  1.00  0.00     0.162 C 
BRANCH   2   3
ATOM      3  S   UNL     1      46.793 135.588  21.413  1.00  0.00    -0.106 SA
ATOM      4  H   UNL     1      46.755 135.015  20.130  1.00  0.00     0.111 HD
ENDBRANCH   2   3
BRANCH   2   5
ATOM      5  N   UNL     1      48.963 134.713  22.939  1.00  0.00    -0.331 N 
ATOM      6  C   UNL     1      49.114 133.964  24.191  1.00  0.00     0.129 C 
ATOM      7  C   UNL     1      49.821 135.908  22.734  1.00  0.00     0.189 C 
ATOM      8  C   UNL     1      50.593 133.673  24.464  1.00  0.00     0.045 C 
ATOM      9  N   UNL     1      51.227 135.588  23.039  1.00  0.00    -0.293 NA
ATOM     10  C   UNL     1      51.376 134.990  24.371  1.00  0.00     0.092 C 
ATOM     11  H   UNL     1      51.775 136.481  23.035  1.00  0.00     0.125 HD
BRANCH   7  12
ATOM     12  C   UNL     1      49.760 136.431  21.313  1.00  0.00     0.055 A 
ATOM     13  C   UNL     1      48.960 137.552  20.998  1.00  0.00     0.053 A 
ATOM     14  C   UNL     1      50.555 135.841  20.291  1.00  0.00     0.317 A 
ATOM     15  C   UNL     1      48.954 137.984  19.679  1.00  0.00     0.179 A 
ATOM     16  N   UNL     1      50.509 136.315  19.009  1.00  0.00    -0.177 N 
ATOM     17  N   UNL     1      48.265 138.998  19.129  1.00  0.00    -0.209 NA
ATOM     18  C   UNL     1      49.705 137.372  18.736  1.00  0.00     0.399 A 
ATOM     19  C   UNL     1      48.658 138.934  17.828  1.00  0.00     0.316 A 
ATOM     20  O   UNL     1      49.524 137.961  17.586  1.00  0.00    -0.391 OA
ATOM     21  H   UNL     1      51.084 135.875  18.258  1.00  0.00     0.457 HD
ENDBRANCH   7  12
BRANCH   8  22
ATOM     22  C   UNL     1      51.140 132.642  23.499  1.00  0.00    -0.028 C 
ATOM     23  C   UNL     1      51.766 131.543  23.931  1.00  0.00     0.004 C 
ENDBRANCH   8  22
ENDBRANCH   2   5
ENDBRANCH   1   2
BRANCH   1  24
ATOM     24  C   UNL     1      46.450 132.488  21.302  1.00  0.00     0.067 A 
ATOM     25  C   UNL     1      45.588 132.041  22.312  1.00  0.00     0.028 A 
ATOM     26  C   UNL     1      46.029 132.432  19.963  1.00  0.00     0.043 A 
ATOM     27  C   UNL     1      44.356 131.469  21.986  1.00  0.00     0.003 A 
ATOM     28  C   UNL     1      44.793 131.861  19.634  1.00  0.00     0.018 A 
ATOM     29  C   UNL     1      43.961 131.373  20.649  1.00  0.00     0.015 A 
BRANCH  28  30
ATOM     30  S   UNL     1      44.242 131.818  17.926  1.00  0.00    -0.015 SA
BRANCH  30  31
ATOM     31  C   UNL     1      45.440 130.552  17.392  1.00  0.00     0.446 C 
ATOM     32  F   UNL     1      44.814 129.680  16.522  1.00  0.00    -0.160 F 
ATOM     33  F   UNL     1      46.498 131.154  16.738  1.00  0.00    -0.160 F 
ATOM     34  F   UNL     1      45.910 129.841  18.481  1.00  0.00    -0.160 F 
ENDBRANCH  30  31
ENDBRANCH  28  30
ENDBRANCH   1  24
TORSDOF 8
ENDMDL
MODEL 8
REMARK VINA RESULT:      -1.9      4.036      5.977
REMARK SMILES C=C[C@H]1CN[C@@H](c2c[nH+]c3ocnc3c2)N(/C(S)=N\c2cccc(SC(F)(F)F)c2)C1
REMARK SMILES IDX 19 1 17 2 18 3 16 5 31 6 6 7 3 8 5 9 4 10 7 12 15 13 8 14
REMARK SMILES IDX 14 15 9 16 13 17 10 18 12 19 11 20 2 22 1 23 20 24 21 25
REMARK SMILES IDX 30 26 22 27 24 28 23 29 25 30 26 31 27 32 28 33 29 34
REMARK H PARENT 18 4 5 11 9 21
ROOT
ATOM      1  N   UNL     1      46.034 133.713  21.082  1.00  0.00    -0.225 NA
ENDROOT
BRANCH   1   2
ATOM      2  C   UNL     1      45.903 132.620  20.385  1.00  0.00     0.162 C 
BRANCH   2   3
ATOM      3  S   UNL     1      46.968 131.236  20.779  1.00  0.00    -0.106 SA
ATOM      4  H   UNL     1      47.327 131.038  19.435  1.00  0.00     0.111 HD
ENDBRANCH   2   3
BRANCH   2   5
ATOM      5  N   UNL     1      44.934 132.478  19.323  1.00  0.00    -0.331 N 
ATOM      6  C   UNL     1      45.368 132.771  17.951  1.00  0.00     0.129 C 
ATOM      7  C   UNL     1      43.496 132.190  19.552  1.00  0.00     0.189 C 
ATOM      8  C   UNL     1      44.823 131.717  16.982  1.00  0.00     0.045 C 
ATOM      9  N   UNL     1      43.011 131.196  18.577  1.00  0.00    -0.293 NA
ATOM     10  C   UNL     1      43.308 131.593  17.196  1.00  0.00     0.092 C 
ATOM     11  H   UNL     1      41.968 131.131  18.666  1.00  0.00     0.125 HD
BRANCH   7  12
ATOM     12  C   UNL     1      43.226 131.649  20.941  1.00  0.00     0.055 A 
ATOM     13  C   UNL     1      43.872 130.475  21.390  1.00  0.00     0.053 A 
ATOM     14  C   UNL     1      42.367 132.349  21.835  1.00  0.00     0.317 A 
ATOM     15  C   UNL     1      43.585 130.037  22.675  1.00  0.00     0.179 A 
ATOM     16  N   UNL     1      42.127 131.868  23.093  1.00  0.00    -0.177 N 
ATOM     17  N   UNL     1      44.045 128.949  23.315  1.00  0.00    -0.209 NA
ATOM     18  C   UNL     1      42.738 130.721  23.478  1.00  0.00     0.399 A 
ATOM     19  C   UNL     1      43.420 129.045  24.521  1.00  0.00     0.316 A 
ATOM     20  O   UNL     1      42.636 130.107  24.624  1.00  0.00    -0.391 OA
ATOM     21  H   UNL     1      41.489 132.375  23.744  1.00  0.00     0.457 HD
ENDBRANCH   7  12
BRANCH   8  22
ATOM     22  C   UNL     1      45.514 130.383  17.173  1.00  0.00    -0.028 C 
ATOM     23  C   UNL     1      45.620 129.502  16.174  1.00  0.00     0.004 C 
ENDBRANCH   8  22
ENDBRANCH   2   5
ENDBRANCH   1   2
BRANCH   1  24
ATOM     24  C   UNL     1      47.206 134.177  21.766  1.00  0.00     0.067 A 
ATOM     25  C   UNL     1      47.518 133.633  23.018  1.00  0.00     0.028 A 
ATOM     26  C   UNL     1      48.100 135.079  21.164  1.00  0.00     0.043 A 
ATOM     27  C   UNL     1      48.666 134.045  23.700  1.00  0.00     0.003 A 
ATOM     28  C   UNL     1      49.252 135.491  21.845  1.00  0.00     0.018 A 
ATOM     29  C   UNL     1      49.529 134.977  23.117  1.00  0.00     0.015 A 
BRANCH  28  30
ATOM     30  S   UNL     1      50.410 136.619  21.063  1.00  0.00    -0.015 SA
BRANCH  30  31
ATOM     31  C   UNL     1      49.133 137.687  20.320  1.00  0.00     0.446 C 
ATOM     32  F   UNL     1      49.464 139.008  20.549  1.00  0.00    -0.160 F 
ATOM     33  F   UNL     1      49.075 137.469  18.957  1.00  0.00    -0.160 F 
ATOM     34  F   UNL     1      47.897 137.428  20.885  1.00  0.00    -0.160 F 
ENDBRANCH  30  31
ENDBRANCH  28  30
ENDBRANCH   1  24
TORSDOF 8
ENDMDL
MODEL 9
REMARK VINA RESULT:      -1.9      1.871      2.671
REMARK SMILES C=C[C@H]1CN[C@@H](c2c[nH+]c3ocnc3c2)N(/C(S)=N\c2cccc(SC(F)(F)F)c2)C1
REMARK SMILES IDX 19 1 17 2 18 3 16 5 31 6 6 7 3 8 5 9 4 10 7 12 15 13 8 14
REMARK SMILES IDX 14 15 9 16 13 17 10 18 12 19 11 20 2 22 1 23 20 24 21 25
REMARK SMILES IDX 30 26 22 27 24 28 23 29 25 30 26 31 27 32 28 33 29 34
REMARK H PARENT 18 4 5 11 9 21
ROOT
ATOM      1  N   UNL     1      45.896 130.405  20.240  1.00  0.00    -0.225 NA
ENDROOT
BRANCH   1   2
ATOM      2  C   UNL     1      45.418 129.739  21.253  1.00  0.00     0.162 C 
BRANCH   2   3
ATOM      3  S   UNL     1      45.284 127.960  21.106  1.00  0.00    -0.106 SA
ATOM      4  H   UNL     1      45.697 127.748  22.432  1.00  0.00     0.111 HD
ENDBRANCH   2   3
BRANCH   2   5
ATOM      5  N   UNL     1      45.007 130.373  22.485  1.00  0.00    -0.331 N 
ATOM      6  C   UNL     1      44.963 131.839  22.524  1.00  0.00     0.129 C 
ATOM      7  C   UNL     1      44.764 129.634  23.750  1.00  0.00     0.189 C 
ATOM      8  C   UNL     1      43.696 132.316  23.242  1.00  0.00     0.045 C 
ATOM      9  N   UNL     1      43.556 130.149  24.419  1.00  0.00    -0.293 NA
ATOM     10  C   UNL     1      43.607 131.605  24.600  1.00  0.00     0.092 C 
ATOM     11  H   UNL     1      43.499 129.718  25.373  1.00  0.00     0.125 HD
BRANCH   7  12
ATOM     12  C   UNL     1      44.575 128.148  23.529  1.00  0.00     0.055 A 
ATOM     13  C   UNL     1      45.679 127.268  23.603  1.00  0.00     0.053 A 
ATOM     14  C   UNL     1      43.277 127.608  23.306  1.00  0.00     0.317 A 
ATOM     15  C   UNL     1      45.437 125.917  23.397  1.00  0.00     0.179 A 
ATOM     16  N   UNL     1      43.103 126.266  23.114  1.00  0.00    -0.177 N 
ATOM     17  N   UNL     1      46.312 124.898  23.390  1.00  0.00    -0.209 NA
ATOM     18  C   UNL     1      44.188 125.456  23.159  1.00  0.00     0.399 A 
ATOM     19  C   UNL     1      45.503 123.833  23.137  1.00  0.00     0.316 A 
ATOM     20  O   UNL     1      44.227 124.162  22.999  1.00  0.00    -0.391 OA
ATOM     21  H   UNL     1      42.152 125.872  22.939  1.00  0.00     0.457 HD
ENDBRANCH   7  12
BRANCH   8  22
ATOM     22  C   UNL     1      42.459 132.060  22.408  1.00  0.00    -0.028 C 
ATOM     23  C   UNL     1      42.544 131.716  21.119  1.00  0.00     0.004 C 
ENDBRANCH   8  22
ENDBRANCH   2   5
ENDBRANCH   1   2
BRANCH   1  24
ATOM     24  C   UNL     1      45.240 130.692  18.997  1.00  0.00     0.067 A 
ATOM     25  C   UNL     1      44.357 131.777  18.934  1.00  0.00     0.028 A 
ATOM     26  C   UNL     1      45.545 129.982  17.824  1.00  0.00     0.043 A 
ATOM     27  C   UNL     1      43.721 132.099  17.732  1.00  0.00     0.003 A 
ATOM     28  C   UNL     1      44.910 130.305  16.618  1.00  0.00     0.018 A 
ATOM     29  C   UNL     1      43.992 131.361  16.577  1.00  0.00     0.015 A 
BRANCH  28  30
ATOM     30  S   UNL     1      45.323 129.418  15.112  1.00  0.00    -0.015 SA
BRANCH  30  31
ATOM     31  C   UNL     1      47.026 130.060  14.997  1.00  0.00     0.446 C 
ATOM     32  F   UNL     1      47.704 129.360  14.019  1.00  0.00    -0.160 F 
ATOM     33  F   UNL     1      47.000 131.398  14.655  1.00  0.00    -0.160 F 
ATOM     34  F   UNL     1      47.685 129.902  16.203  1.00  0.00    -0.160 F 
ENDBRANCH  30  31
ENDBRANCH  28  30
ENDBRANCH   1  24
TORSDOF 8
ENDMDL


