REMARK SMILES Cc1ccc2ccc([C@H]3CCCN(c4ccc(F)c(F)n4)[C@H]3F)nc2c1F
REMARK SMILES IDX 9 1 10 2 11 3 12 4 13 5 22 6 23 7 8 8 2 9 3 10 26 11 4 12
REMARK SMILES IDX 25 13 5 14 24 15 6 16 7 17 1 18 27 19 14 20 15 21 21 22
REMARK SMILES IDX 16 23 19 24 17 25 20 26 18 27
REMARK H PARENT
ROOT
ATOM      1  C   UNL     1      -2.156   1.299   1.623  1.00  0.00     0.093 C 
ATOM      2  C   UNL     1      -1.682   1.137   3.080  1.00  0.00     0.017 C 
ATOM      3  C   UNL     1      -0.195   0.775   3.160  1.00  0.00     0.022 C 
ATOM      4  C   UNL     1       0.655   1.807   2.417  1.00  0.00     0.121 C 
ATOM      5  N   UNL     1       0.161   1.988   1.045  1.00  0.00    -0.326 N 
ATOM      6  C   UNL     1      -1.265   2.312   0.869  1.00  0.00     0.273 C 
ATOM      7  F   UNL     1      -1.614   2.319  -0.474  1.00  0.00    -0.223 F 
ENDROOT
BRANCH   1   8
ATOM      8  C   UNL     1      -2.235  -0.046   0.927  1.00  0.00     0.049 A 
ATOM      9  C   UNL     1      -0.100  -3.443  -1.738  1.00  0.00    -0.013 A 
ATOM     10  C   UNL     1      -1.243  -4.252  -1.628  1.00  0.00     0.007 A 
ATOM     11  C   UNL     1      -0.074  -2.189  -1.103  1.00  0.00     0.152 A 
ATOM     12  C   UNL     1      -2.359  -3.809  -0.912  1.00  0.00     0.011 A 
ATOM     13  C   UNL     1      -1.190  -1.742  -0.384  1.00  0.00     0.106 A 
ATOM     14  C   UNL     1      -2.340  -2.554  -0.289  1.00  0.00     0.003 A 
ATOM     15  N   UNL     1      -1.169  -0.526   0.226  1.00  0.00    -0.249 NA
ATOM     16  C   UNL     1      -3.441  -2.087   0.437  1.00  0.00     0.012 A 
ATOM     17  C   UNL     1      -3.390  -0.834   1.050  1.00  0.00     0.025 A 
ATOM     18  C   UNL     1       1.105  -3.932  -2.489  1.00  0.00     0.047 C 
ATOM     19  F   UNL     1       1.032  -1.406  -1.187  1.00  0.00    -0.204 F 
ENDBRANCH   1   8
BRANCH   5  20
ATOM     20  C   UNL     1       1.100   2.260  -0.012  1.00  0.00     0.134 A 
ATOM     21  C   UNL     1       2.188   1.402  -0.240  1.00  0.00     0.050 A 
ATOM     22  N   UNL     1       0.929   3.349  -0.814  1.00  0.00    -0.200 NA
ATOM     23  C   UNL     1       3.077   1.681  -1.280  1.00  0.00     0.048 A 
ATOM     24  C   UNL     1       1.785   3.638  -1.830  1.00  0.00     0.250 A 
ATOM     25  C   UNL     1       2.879   2.806  -2.081  1.00  0.00     0.178 A 
ATOM     26  F   UNL     1       1.572   4.734  -2.599  1.00  0.00    -0.182 F 
ATOM     27  F   UNL     1       3.737   3.084  -3.093  1.00  0.00    -0.202 F 
ENDBRANCH   5  20
TORSDOF 2


