REMARK SMILES Cc1ccc(-c2cc(N)c(Nc3ccc(C)[nH+]c3F)cc2F)cc1
REMARK SMILES IDX 6 1 7 2 8 3 10 4 20 5 21 6 22 7 5 8 2 9 3 10 24 11 4 12
REMARK SMILES IDX 23 13 1 14 9 15 11 18 12 20 13 21 18 22 14 23 17 24 15 25
REMARK SMILES IDX 19 26 16 28
REMARK H PARENT 9 16 9 17 11 19 17 27
ROOT
ATOM      1  C   UNL     1      -0.041   1.695   1.233  1.00  0.00     0.020 A 
ATOM      2  C   UNL     1       0.790   0.597   1.512  1.00  0.00     0.039 A 
ATOM      3  C   UNL     1       0.445  -0.695   1.086  1.00  0.00     0.056 A 
ATOM      4  C   UNL     1      -0.741  -0.887   0.345  1.00  0.00     0.065 A 
ATOM      5  C   UNL     1      -1.585   0.202   0.097  1.00  0.00     0.068 A 
ATOM      6  C   UNL     1      -1.240   1.484   0.530  1.00  0.00     0.133 A 
ATOM      7  F   UNL     1      -2.094   2.511   0.288  1.00  0.00    -0.206 F 
ENDROOT
BRANCH   1   8
ATOM      8  C   UNL     1       0.346   3.052   1.692  1.00  0.00    -0.015 A 
ATOM      9  C   UNL     1       1.086   5.628   2.565  1.00  0.00    -0.051 A 
ATOM     10  C   UNL     1       0.657   5.424   1.246  1.00  0.00     0.004 A 
ATOM     11  C   UNL     1       1.171   4.533   3.438  1.00  0.00     0.004 A 
ATOM     12  C   UNL     1       0.285   4.148   0.813  1.00  0.00     0.009 A 
ATOM     13  C   UNL     1       0.800   3.256   3.006  1.00  0.00     0.009 A 
ATOM     14  C   UNL     1       1.523   6.990   3.016  1.00  0.00     0.044 C 
ENDBRANCH   1   8
BRANCH   3  15
ATOM     15  N   UNL     1       1.287  -1.798   1.445  1.00  0.00    -0.397 N 
ATOM     16  H   UNL     1       1.000  -2.786   1.276  1.00  0.00     0.156 HD
ATOM     17  H   UNL     1       2.188  -1.636   1.948  1.00  0.00     0.156 HD
ENDBRANCH   3  15
BRANCH   4  18
ATOM     18  N   UNL     1      -1.122  -2.182  -0.145  1.00  0.00    -0.346 N 
ATOM     19  H   UNL     1      -2.091  -2.509   0.069  1.00  0.00     0.167 HD
BRANCH  18  20
ATOM     20  C   UNL     1      -0.325  -2.954  -1.064  1.00  0.00     0.144 A 
ATOM     21  C   UNL     1       0.755  -2.386  -1.759  1.00  0.00     0.042 A 
ATOM     22  C   UNL     1      -0.639  -4.302  -1.303  1.00  0.00     0.381 A 
ATOM     23  C   UNL     1       1.502  -3.159  -2.647  1.00  0.00     0.076 A 
ATOM     24  N   UNL     1       0.103  -5.038  -2.175  1.00  0.00    -0.182 N 
ATOM     25  C   UNL     1       1.172  -4.506  -2.836  1.00  0.00     0.179 A 
ATOM     26  F   UNL     1      -1.683  -4.884  -0.660  1.00  0.00    -0.134 F 
ATOM     27  H   UNL     1      -0.159  -6.037  -2.334  1.00  0.00     0.456 HD
ATOM     28  C   UNL     1       1.943  -5.339  -3.817  1.00  0.00     0.123 C 
ENDBRANCH  18  20
ENDBRANCH   4  18
TORSDOF 4


