MODEL 1
REMARK VINA RESULT:      -4.3      0.000      0.000
REMARK SMILES C=C[C@H]1CN[C@H](c2ccc3[nH+]c[nH+]n3c2)N(C(=O)OCCCCCC)C1
REMARK SMILES IDX 20 1 19 2 17 3 18 4 16 5 3 6 4 7 26 8 5 9 6 10 2 12 1 13
REMARK SMILES IDX 7 14 8 15 15 16 9 17 14 18 10 19 13 20 11 21 12 22 21 25
REMARK SMILES IDX 22 26 23 27 24 28 25 29
REMARK H PARENT 5 11 13 23 11 24
ROOT
ATOM      1  C   UNL     1      44.820 131.058  17.953  1.00  0.00     0.235 C 
ENDROOT
BRANCH   1   2
ATOM      2  O   UNL     1      45.092 130.877  19.342  1.00  0.00    -0.449 OA
BRANCH   2   3
ATOM      3  C   UNL     1      44.455 131.592  20.364  1.00  0.00     0.411 C 
ATOM      4  O   UNL     1      43.206 131.770  20.325  1.00  0.00    -0.224 OA
BRANCH   3   5
ATOM      5  N   UNL     1      45.219 132.086  21.487  1.00  0.00    -0.288 N 
ATOM      6  C   UNL     1      47.244 133.279  22.350  1.00  0.00     0.045 C 
ATOM      7  C   UNL     1      46.368 133.631  23.552  1.00  0.00     0.092 C 
ATOM      8  C   UNL     1      46.348 132.971  21.146  1.00  0.00     0.134 C 
ATOM      9  N   UNL     1      45.519 132.493  23.895  1.00  0.00    -0.293 NA
ATOM     10  C   UNL     1      44.565 132.175  22.816  1.00  0.00     0.192 C 
ATOM     11  H   UNL     1      46.138 131.670  24.093  1.00  0.00     0.125 HD
BRANCH   6  12
ATOM     12  C   UNL     1      48.199 134.408  22.037  1.00  0.00    -0.028 C 
ATOM     13  C   UNL     1      47.768 135.565  21.523  1.00  0.00     0.004 C 
ENDBRANCH   6  12
BRANCH  10  14
ATOM     14  C   UNL     1      43.854 130.879  23.168  1.00  0.00     0.042 A 
ATOM     15  C   UNL     1      42.553 130.894  23.734  1.00  0.00     0.022 A 
ATOM     16  C   UNL     1      44.471 129.634  22.921  1.00  0.00     0.308 A 
ATOM     17  C   UNL     1      41.888 129.695  24.040  1.00  0.00     0.124 A 
ATOM     18  N   UNL     1      43.790 128.507  23.249  1.00  0.00     0.004 N 
ATOM     19  C   UNL     1      42.560 128.507  23.777  1.00  0.00     0.386 A 
ATOM     20  N   UNL     1      44.188 127.253  23.133  1.00  0.00    -0.039 N 
ATOM     21  N   UNL     1      42.131 127.253  24.014  1.00  0.00    -0.167 N 
ATOM     22  C   UNL     1      43.174 126.490  23.601  1.00  0.00     0.528 A 
ATOM     23  H   UNL     1      45.109 126.933  22.759  1.00  0.00     0.426 HD
ATOM     24  H   UNL     1      41.225 126.942  24.428  1.00  0.00     0.366 HD
ENDBRANCH  10  14
ENDBRANCH   3   5
ENDBRANCH   2   3
ENDBRANCH   1   2
BRANCH   1  25
ATOM     25  C   UNL     1      45.849 130.341  17.068  1.00  0.00     0.042 C 
BRANCH  25  26
ATOM     26  C   UNL     1      45.287 130.022  15.677  1.00  0.00     0.003 C 
BRANCH  26  27
ATOM     27  C   UNL     1      46.418 129.793  14.670  1.00  0.00    -0.000 C 
BRANCH  27  28
ATOM     28  C   UNL     1      46.425 130.881  13.588  1.00  0.00    -0.003 C 
ATOM     29  C   UNL     1      47.826 131.083  13.019  1.00  0.00     0.004 C 
ENDBRANCH  27  28
ENDBRANCH  26  27
ENDBRANCH  25  26
ENDBRANCH   1  25
TORSDOF 9
ENDMDL
MODEL 2
REMARK VINA RESULT:      -4.0      1.048      1.633
REMARK SMILES C=C[C@H]1CN[C@H](c2ccc3[nH+]c[nH+]n3c2)N(C(=O)OCCCCCC)C1
REMARK SMILES IDX 20 1 19 2 17 3 18 4 16 5 3 6 4 7 26 8 5 9 6 10 2 12 1 13
REMARK SMILES IDX 7 14 8 15 15 16 9 17 14 18 10 19 13 20 11 21 12 22 21 25
REMARK SMILES IDX 22 26 23 27 24 28 25 29
REMARK H PARENT 5 11 13 23 11 24
ROOT
ATOM      1  C   UNL     1      44.197 131.535  18.039  1.00  0.00     0.235 C 
ENDROOT
BRANCH   1   2
ATOM      2  O   UNL     1      44.078 131.489  19.460  1.00  0.00    -0.449 OA
BRANCH   2   3
ATOM      3  C   UNL     1      45.049 130.946  20.311  1.00  0.00     0.411 C 
ATOM      4  O   UNL     1      45.638 129.877  19.993  1.00  0.00    -0.224 OA
BRANCH   3   5
ATOM      5  N   UNL     1      45.410 131.635  21.529  1.00  0.00    -0.288 N 
ATOM      6  C   UNL     1      46.911 133.242  22.726  1.00  0.00     0.045 C 
ATOM      7  C   UNL     1      45.715 133.476  23.649  1.00  0.00     0.092 C 
ATOM      8  C   UNL     1      46.412 132.706  21.379  1.00  0.00     0.134 C 
ATOM      9  N   UNL     1      45.023 132.211  23.890  1.00  0.00    -0.293 NA
ATOM     10  C   UNL     1      44.440 131.660  22.652  1.00  0.00     0.192 C 
ATOM     11  H   UNL     1      45.709 131.537  24.306  1.00  0.00     0.125 HD
BRANCH   6  12
ATOM     12  C   UNL     1      47.698 134.519  22.539  1.00  0.00    -0.028 C 
ATOM     13  C   UNL     1      49.035 134.529  22.582  1.00  0.00     0.004 C 
ENDBRANCH   6  12
BRANCH  10  14
ATOM     14  C   UNL     1      43.906 130.269  22.950  1.00  0.00     0.042 A 
ATOM     15  C   UNL     1      44.784 129.159  23.049  1.00  0.00     0.022 A 
ATOM     16  C   UNL     1      42.524 130.060  23.150  1.00  0.00     0.308 A 
ATOM     17  C   UNL     1      44.292 127.877  23.344  1.00  0.00     0.124 A 
ATOM     18  N   UNL     1      42.101 128.799  23.418  1.00  0.00     0.004 N 
ATOM     19  C   UNL     1      42.919 127.745  23.521  1.00  0.00     0.386 A 
ATOM     20  N   UNL     1      40.864 128.379  23.606  1.00  0.00    -0.039 N 
ATOM     21  N   UNL     1      42.232 126.617  23.779  1.00  0.00    -0.167 N 
ATOM     22  C   UNL     1      40.946 127.047  23.826  1.00  0.00     0.528 A 
ATOM     23  H   UNL     1      40.003 128.971  23.579  1.00  0.00     0.426 HD
ATOM     24  H   UNL     1      42.595 125.646  23.901  1.00  0.00     0.366 HD
ENDBRANCH  10  14
ENDBRANCH   3   5
ENDBRANCH   2   3
ENDBRANCH   1   2
BRANCH   1  25
ATOM     25  C   UNL     1      45.544 130.981  17.556  1.00  0.00     0.042 C 
BRANCH  25  26
ATOM     26  C   UNL     1      45.823 131.344  16.093  1.00  0.00     0.003 C 
BRANCH  26  27
ATOM     27  C   UNL     1      45.666 130.120  15.186  1.00  0.00    -0.000 C 
BRANCH  27  28
ATOM     28  C   UNL     1      46.942 129.865  14.374  1.00  0.00    -0.003 C 
ATOM     29  C   UNL     1      47.190 130.985  13.369  1.00  0.00     0.004 C 
ENDBRANCH  27  28
ENDBRANCH  26  27
ENDBRANCH  25  26
ENDBRANCH   1  25
TORSDOF 9
ENDMDL
MODEL 3
REMARK VINA RESULT:      -3.6      2.852      7.361
REMARK SMILES C=C[C@H]1CN[C@H](c2ccc3[nH+]c[nH+]n3c2)N(C(=O)OCCCCCC)C1
REMARK SMILES IDX 20 1 19 2 17 3 18 4 16 5 3 6 4 7 26 8 5 9 6 10 2 12 1 13
REMARK SMILES IDX 7 14 8 15 15 16 9 17 14 18 10 19 13 20 11 21 12 22 21 25
REMARK SMILES IDX 22 26 23 27 24 28 25 29
REMARK H PARENT 5 11 13 23 11 24
ROOT
ATOM      1  C   UNL     1      48.052 133.769  21.996  1.00  0.00     0.235 C 
ENDROOT
BRANCH   1   2
ATOM      2  O   UNL     1      46.909 133.452  21.202  1.00  0.00    -0.449 OA
BRANCH   2   3
ATOM      3  C   UNL     1      46.536 132.148  20.850  1.00  0.00     0.411 C 
ATOM      4  O   UNL     1      47.401 131.345  20.405  1.00  0.00    -0.224 OA
BRANCH   3   5
ATOM      5  N   UNL     1      45.172 131.710  21.040  1.00  0.00    -0.288 N 
ATOM      6  C   UNL     1      43.351 130.957  22.583  1.00  0.00     0.045 C 
ATOM      7  C   UNL     1      42.398 131.523  21.531  1.00  0.00     0.092 C 
ATOM      8  C   UNL     1      44.719 131.633  22.440  1.00  0.00     0.134 C 
ATOM      9  N   UNL     1      42.911 131.234  20.194  1.00  0.00    -0.293 NA
ATOM     10  C   UNL     1      44.195 131.913  19.940  1.00  0.00     0.192 C 
ATOM     11  H   UNL     1      43.019 130.195  20.102  1.00  0.00     0.125 HD
BRANCH   6  12
ATOM     12  C   UNL     1      42.792 131.161  23.973  1.00  0.00    -0.028 C 
ATOM     13  C   UNL     1      41.811 130.387  24.452  1.00  0.00     0.004 C 
ENDBRANCH   6  12
BRANCH  10  14
ATOM     14  C   UNL     1      44.748 131.418  18.614  1.00  0.00     0.042 A 
ATOM     15  C   UNL     1      45.667 130.338  18.568  1.00  0.00     0.022 A 
ATOM     16  C   UNL     1      44.343 132.016  17.401  1.00  0.00     0.308 A 
ATOM     17  C   UNL     1      46.162 129.867  17.341  1.00  0.00     0.124 A 
ATOM     18  N   UNL     1      44.863 131.532  16.246  1.00  0.00     0.004 N 
ATOM     19  C   UNL     1      45.725 130.509  16.187  1.00  0.00     0.386 A 
ATOM     20  N   UNL     1      44.647 131.958  15.015  1.00  0.00    -0.039 N 
ATOM     21  N   UNL     1      46.087 130.247  14.918  1.00  0.00    -0.167 N 
ATOM     22  C   UNL     1      45.396 131.173  14.206  1.00  0.00     0.528 A 
ATOM     23  H   UNL     1      44.025 132.750  14.739  1.00  0.00     0.426 HD
ATOM     24  H   UNL     1      46.748 129.521  14.564  1.00  0.00     0.366 HD
ENDBRANCH  10  14
ENDBRANCH   3   5
ENDBRANCH   2   3
ENDBRANCH   1   2
BRANCH   1  25
ATOM     25  C   UNL     1      48.303 135.281  22.066  1.00  0.00     0.042 C 
BRANCH  25  26
ATOM     26  C   UNL     1      49.730 135.606  22.524  1.00  0.00     0.003 C 
BRANCH  26  27
ATOM     27  C   UNL     1      50.276 136.831  21.784  1.00  0.00    -0.000 C 
BRANCH  27  28
ATOM     28  C   UNL     1      51.806 136.892  21.869  1.00  0.00    -0.003 C 
ATOM     29  C   UNL     1      52.342 135.891  22.888  1.00  0.00     0.004 C 
ENDBRANCH  27  28
ENDBRANCH  26  27
ENDBRANCH  25  26
ENDBRANCH   1  25
TORSDOF 9
ENDMDL
MODEL 4
REMARK VINA RESULT:      -3.3      1.023      1.366
REMARK SMILES C=C[C@H]1CN[C@H](c2ccc3[nH+]c[nH+]n3c2)N(C(=O)OCCCCCC)C1
REMARK SMILES IDX 20 1 19 2 17 3 18 4 16 5 3 6 4 7 26 8 5 9 6 10 2 12 1 13
REMARK SMILES IDX 7 14 8 15 15 16 9 17 14 18 10 19 13 20 11 21 12 22 21 25
REMARK SMILES IDX 22 26 23 27 24 28 25 29
REMARK H PARENT 5 11 13 23 11 24
ROOT
ATOM      1  C   UNL     1      43.860 131.567  18.256  1.00  0.00     0.235 C 
ENDROOT
BRANCH   1   2
ATOM      2  O   UNL     1      43.851 131.431  19.676  1.00  0.00    -0.449 OA
BRANCH   2   3
ATOM      3  C   UNL     1      44.941 130.973  20.427  1.00  0.00     0.411 C 
ATOM      4  O   UNL     1      45.627 129.999  20.011  1.00  0.00    -0.224 OA
BRANCH   3   5
ATOM      5  N   UNL     1      45.307 131.643  21.654  1.00  0.00    -0.288 N 
ATOM      6  C   UNL     1      46.797 133.250  22.863  1.00  0.00     0.045 C 
ATOM      7  C   UNL     1      45.611 133.445  23.806  1.00  0.00     0.092 C 
ATOM      8  C   UNL     1      46.289 132.733  21.512  1.00  0.00     0.134 C 
ATOM      9  N   UNL     1      44.943 132.165  24.031  1.00  0.00    -0.293 NA
ATOM     10  C   UNL     1      44.352 131.629  22.790  1.00  0.00     0.192 C 
ATOM     11  H   UNL     1      45.646 131.494  24.424  1.00  0.00     0.125 HD
BRANCH   6  12
ATOM     12  C   UNL     1      47.560 134.544  22.691  1.00  0.00    -0.028 C 
ATOM     13  C   UNL     1      48.776 134.570  22.135  1.00  0.00     0.004 C 
ENDBRANCH   6  12
BRANCH  10  14
ATOM     14  C   UNL     1      43.845 130.224  23.067  1.00  0.00     0.042 A 
ATOM     15  C   UNL     1      42.474 129.987  23.344  1.00  0.00     0.022 A 
ATOM     16  C   UNL     1      44.730 129.124  23.036  1.00  0.00     0.308 A 
ATOM     17  C   UNL     1      42.002 128.685  23.578  1.00  0.00     0.124 A 
ATOM     18  N   UNL     1      44.224 127.890  23.284  1.00  0.00     0.004 N 
ATOM     19  C   UNL     1      42.932 127.652  23.540  1.00  0.00     0.386 A 
ATOM     20  N   UNL     1      44.871 126.740  23.335  1.00  0.00    -0.039 N 
ATOM     21  N   UNL     1      42.711 126.343  23.761  1.00  0.00    -0.167 N 
ATOM     22  C   UNL     1      43.946 125.798  23.627  1.00  0.00     0.528 A 
ATOM     23  H   UNL     1      45.897 126.605  23.185  1.00  0.00     0.426 HD
ATOM     24  H   UNL     1      41.814 125.863  23.993  1.00  0.00     0.366 HD
ENDBRANCH  10  14
ENDBRANCH   3   5
ENDBRANCH   2   3
ENDBRANCH   1   2
BRANCH   1  25
ATOM     25  C   UNL     1      45.225 132.036  17.732  1.00  0.00     0.042 C 
BRANCH  25  26
ATOM     26  C   UNL     1      45.391 131.758  16.233  1.00  0.00     0.003 C 
BRANCH  26  27
ATOM     27  C   UNL     1      44.653 130.478  15.829  1.00  0.00    -0.000 C 
BRANCH  27  28
ATOM     28  C   UNL     1      45.616 129.457  15.208  1.00  0.00    -0.003 C 
ATOM     29  C   UNL     1      46.950 130.104  14.850  1.00  0.00     0.004 C 
ENDBRANCH  27  28
ENDBRANCH  26  27
ENDBRANCH  25  26
ENDBRANCH   1  25
TORSDOF 9
ENDMDL
MODEL 5
REMARK VINA RESULT:      -3.2      2.544      4.877
REMARK SMILES C=C[C@H]1CN[C@H](c2ccc3[nH+]c[nH+]n3c2)N(C(=O)OCCCCCC)C1
REMARK SMILES IDX 20 1 19 2 17 3 18 4 16 5 3 6 4 7 26 8 5 9 6 10 2 12 1 13
REMARK SMILES IDX 7 14 8 15 15 16 9 17 14 18 10 19 13 20 11 21 12 22 21 25
REMARK SMILES IDX 22 26 23 27 24 28 25 29
REMARK H PARENT 5 11 13 23 11 24
ROOT
ATOM      1  C   UNL     1      45.246 130.389  18.318  1.00  0.00     0.235 C 
ENDROOT
BRANCH   1   2
ATOM      2  O   UNL     1      46.160 129.915  19.307  1.00  0.00    -0.449 OA
BRANCH   2   3
ATOM      3  C   UNL     1      46.022 130.154  20.680  1.00  0.00     0.411 C 
ATOM      4  O   UNL     1      46.419 131.245  21.173  1.00  0.00    -0.224 OA
BRANCH   3   5
ATOM      5  N   UNL     1      45.383 129.170  21.525  1.00  0.00    -0.288 N 
ATOM      6  C   UNL     1      45.187 126.793  22.287  1.00  0.00     0.045 C 
ATOM      7  C   UNL     1      44.661 127.388  23.593  1.00  0.00     0.092 C 
ATOM      8  C   UNL     1      46.029 127.845  21.556  1.00  0.00     0.134 C 
ATOM      9  N   UNL     1      43.805 128.536  23.303  1.00  0.00    -0.293 NA
ATOM     10  C   UNL     1      44.556 129.634  22.667  1.00  0.00     0.192 C 
ATOM     11  H   UNL     1      43.025 128.214  22.681  1.00  0.00     0.125 HD
BRANCH   6  12
ATOM     12  C   UNL     1      45.999 125.547  22.557  1.00  0.00    -0.028 C 
ATOM     13  C   UNL     1      45.481 124.325  22.386  1.00  0.00     0.004 C 
ENDBRANCH   6  12
BRANCH  10  14
ATOM     14  C   UNL     1      43.568 130.704  22.232  1.00  0.00     0.042 A 
ATOM     15  C   UNL     1      42.861 131.473  23.192  1.00  0.00     0.022 A 
ATOM     16  C   UNL     1      43.349 130.963  20.862  1.00  0.00     0.308 A 
ATOM     17  C   UNL     1      41.964 132.477  22.790  1.00  0.00     0.124 A 
ATOM     18  N   UNL     1      42.461 131.933  20.529  1.00  0.00     0.004 N 
ATOM     19  C   UNL     1      41.793 132.670  21.424  1.00  0.00     0.386 A 
ATOM     20  N   UNL     1      42.088 132.314  19.321  1.00  0.00    -0.039 N 
ATOM     21  N   UNL     1      40.971 133.547  20.818  1.00  0.00    -0.167 N 
ATOM     22  C   UNL     1      41.178 133.298  19.500  1.00  0.00     0.528 A 
ATOM     23  H   UNL     1      42.431 131.917  18.418  1.00  0.00     0.426 HD
ATOM     24  H   UNL     1      40.322 134.240  21.252  1.00  0.00     0.366 HD
ENDBRANCH  10  14
ENDBRANCH   3   5
ENDBRANCH   2   3
ENDBRANCH   1   2
BRANCH   1  25
ATOM     25  C   UNL     1      45.878 130.425  16.921  1.00  0.00     0.042 C 
BRANCH  25  26
ATOM     26  C   UNL     1      45.738 131.802  16.261  1.00  0.00     0.003 C 
BRANCH  26  27
ATOM     27  C   UNL     1      46.251 131.773  14.819  1.00  0.00    -0.000 C 
BRANCH  27  28
ATOM     28  C   UNL     1      46.483 130.333  14.343  1.00  0.00    -0.003 C 
ATOM     29  C   UNL     1      47.748 130.228  13.497  1.00  0.00     0.004 C 
ENDBRANCH  27  28
ENDBRANCH  26  27
ENDBRANCH  25  26
ENDBRANCH   1  25
TORSDOF 9
ENDMDL
MODEL 6
REMARK VINA RESULT:      -3.2      0.830      1.086
REMARK SMILES C=C[C@H]1CN[C@H](c2ccc3[nH+]c[nH+]n3c2)N(C(=O)OCCCCCC)C1
REMARK SMILES IDX 20 1 19 2 17 3 18 4 16 5 3 6 4 7 26 8 5 9 6 10 2 12 1 13
REMARK SMILES IDX 7 14 8 15 15 16 9 17 14 18 10 19 13 20 11 21 12 22 21 25
REMARK SMILES IDX 22 26 23 27 24 28 25 29
REMARK H PARENT 5 11 13 23 11 24
ROOT
ATOM      1  C   UNL     1      46.129 130.655  18.176  1.00  0.00     0.235 C 
ENDROOT
BRANCH   1   2
ATOM      2  O   UNL     1      45.422 130.302  19.365  1.00  0.00    -0.449 OA
BRANCH   2   3
ATOM      3  C   UNL     1      44.725 131.218  20.163  1.00  0.00     0.411 C 
ATOM      4  O   UNL     1      43.523 131.497  19.898  1.00  0.00    -0.224 OA
BRANCH   3   5
ATOM      5  N   UNL     1      45.367 131.807  21.316  1.00  0.00    -0.288 N 
ATOM      6  C   UNL     1      47.241 133.162  22.274  1.00  0.00     0.045 C 
ATOM      7  C   UNL     1      46.252 133.511  23.386  1.00  0.00     0.092 C 
ATOM      8  C   UNL     1      46.464 132.746  21.020  1.00  0.00     0.134 C 
ATOM      9  N   UNL     1      45.448 132.337  23.717  1.00  0.00    -0.293 NA
ATOM     10  C   UNL     1      44.603 131.913  22.585  1.00  0.00     0.192 C 
ATOM     11  H   UNL     1      46.096 131.565  24.002  1.00  0.00     0.125 HD
BRANCH   6  12
ATOM     12  C   UNL     1      48.149 134.334  21.981  1.00  0.00    -0.028 C 
ATOM     13  C   UNL     1      47.671 135.484  21.494  1.00  0.00     0.004 C 
ENDBRANCH   6  12
BRANCH  10  14
ATOM     14  C   UNL     1      43.945 130.591  22.943  1.00  0.00     0.042 A 
ATOM     15  C   UNL     1      42.645 130.557  23.509  1.00  0.00     0.022 A 
ATOM     16  C   UNL     1      44.611 129.370  22.703  1.00  0.00     0.308 A 
ATOM     17  C   UNL     1      42.028 129.334  23.821  1.00  0.00     0.124 A 
ATOM     18  N   UNL     1      43.976 128.219  23.036  1.00  0.00     0.004 N 
ATOM     19  C   UNL     1      42.747 128.172  23.564  1.00  0.00     0.386 A 
ATOM     20  N   UNL     1      44.424 126.982  22.926  1.00  0.00    -0.039 N 
ATOM     21  N   UNL     1      42.368 126.904  23.808  1.00  0.00    -0.167 N 
ATOM     22  C   UNL     1      43.441 126.181  23.399  1.00  0.00     0.528 A 
ATOM     23  H   UNL     1      45.357 126.697  22.554  1.00  0.00     0.426 HD
ATOM     24  H   UNL     1      41.475 126.559  24.223  1.00  0.00     0.366 HD
ENDBRANCH  10  14
ENDBRANCH   3   5
ENDBRANCH   2   3
ENDBRANCH   1   2
BRANCH   1  25
ATOM     25  C   UNL     1      45.914 129.632  17.053  1.00  0.00     0.042 C 
BRANCH  25  26
ATOM     26  C   UNL     1      46.788 129.930  15.829  1.00  0.00     0.003 C 
BRANCH  26  27
ATOM     27  C   UNL     1      46.410 131.275  15.201  1.00  0.00    -0.000 C 
BRANCH  27  28
ATOM     28  C   UNL     1      45.273 131.111  14.185  1.00  0.00    -0.003 C 
ATOM     29  C   UNL     1      43.924 131.458  14.806  1.00  0.00     0.004 C 
ENDBRANCH  27  28
ENDBRANCH  26  27
ENDBRANCH  25  26
ENDBRANCH   1  25
TORSDOF 9
ENDMDL
MODEL 7
REMARK VINA RESULT:      -3.1      0.918      1.104
REMARK SMILES C=C[C@H]1CN[C@H](c2ccc3[nH+]c[nH+]n3c2)N(C(=O)OCCCCCC)C1
REMARK SMILES IDX 20 1 19 2 17 3 18 4 16 5 3 6 4 7 26 8 5 9 6 10 2 12 1 13
REMARK SMILES IDX 7 14 8 15 15 16 9 17 14 18 10 19 13 20 11 21 12 22 21 25
REMARK SMILES IDX 22 26 23 27 24 28 25 29
REMARK H PARENT 5 11 13 23 11 24
ROOT
ATOM      1  C   UNL     1      43.612 131.880  18.484  1.00  0.00     0.235 C 
ENDROOT
BRANCH   1   2
ATOM      2  O   UNL     1      44.370 131.579  19.656  1.00  0.00    -0.449 OA
BRANCH   2   3
ATOM      3  C   UNL     1      43.832 131.543  20.949  1.00  0.00     0.411 C 
ATOM      4  O   UNL     1      42.643 131.160  21.126  1.00  0.00    -0.224 OA
BRANCH   3   5
ATOM      5  N   UNL     1      44.653 131.899  22.084  1.00  0.00    -0.288 N 
ATOM      6  C   UNL     1      46.645 133.104  23.001  1.00  0.00     0.045 C 
ATOM      7  C   UNL     1      45.855 133.155  24.308  1.00  0.00     0.092 C 
ATOM      8  C   UNL     1      45.672 132.933  21.830  1.00  0.00     0.134 C 
ATOM      9  N   UNL     1      45.133 131.899  24.497  1.00  0.00    -0.293 NA
ATOM     10  C   UNL     1      44.114 131.690  23.451  1.00  0.00     0.192 C 
ATOM     11  H   UNL     1      45.830 131.116  24.494  1.00  0.00     0.125 HD
BRANCH   6  12
ATOM     12  C   UNL     1      47.476 134.356  22.832  1.00  0.00    -0.028 C 
ATOM     13  C   UNL     1      47.914 134.747  21.630  1.00  0.00     0.004 C 
ENDBRANCH   6  12
BRANCH  10  14
ATOM     14  C   UNL     1      43.542 130.290  23.609  1.00  0.00     0.042 A 
ATOM     15  C   UNL     1      42.226 130.095  24.100  1.00  0.00     0.022 A 
ATOM     16  C   UNL     1      44.308 129.159  23.253  1.00  0.00     0.308 A 
ATOM     17  C   UNL     1      41.690 128.803  24.226  1.00  0.00     0.124 A 
ATOM     18  N   UNL     1      43.747 127.934  23.409  1.00  0.00     0.004 N 
ATOM     19  C   UNL     1      42.504 127.735  23.864  1.00  0.00     0.386 A 
ATOM     20  N   UNL     1      44.290 126.754  23.169  1.00  0.00    -0.039 N 
ATOM     21  N   UNL     1      42.212 126.423  23.929  1.00  0.00    -0.167 N 
ATOM     22  C   UNL     1      43.351 125.834  23.489  1.00  0.00     0.528 A 
ATOM     23  H   UNL     1      45.257 126.584  22.812  1.00  0.00     0.426 HD
ATOM     24  H   UNL     1      41.330 125.967  24.253  1.00  0.00     0.366 HD
ENDBRANCH  10  14
ENDBRANCH   3   5
ENDBRANCH   2   3
ENDBRANCH   1   2
BRANCH   1  25
ATOM     25  C   UNL     1      44.179 131.186  17.239  1.00  0.00     0.042 C 
BRANCH  25  26
ATOM     26  C   UNL     1      45.692 130.959  17.346  1.00  0.00     0.003 C 
BRANCH  26  27
ATOM     27  C   UNL     1      46.252 130.380  16.043  1.00  0.00    -0.000 C 
BRANCH  27  28
ATOM     28  C   UNL     1      46.600 131.493  15.047  1.00  0.00    -0.003 C 
ATOM     29  C   UNL     1      46.656 130.957  13.619  1.00  0.00     0.004 C 
ENDBRANCH  27  28
ENDBRANCH  26  27
ENDBRANCH  25  26
ENDBRANCH   1  25
TORSDOF 9
ENDMDL
MODEL 8
REMARK VINA RESULT:      -3.0      3.335      7.468
REMARK SMILES C=C[C@H]1CN[C@H](c2ccc3[nH+]c[nH+]n3c2)N(C(=O)OCCCCCC)C1
REMARK SMILES IDX 20 1 19 2 17 3 18 4 16 5 3 6 4 7 26 8 5 9 6 10 2 12 1 13
REMARK SMILES IDX 7 14 8 15 15 16 9 17 14 18 10 19 13 20 11 21 12 22 21 25
REMARK SMILES IDX 22 26 23 27 24 28 25 29
REMARK H PARENT 5 11 13 23 11 24
ROOT
ATOM      1  C   UNL     1      45.347 128.702  21.120  1.00  0.00     0.235 C 
ENDROOT
BRANCH   1   2
ATOM      2  O   UNL     1      46.098 129.916  21.121  1.00  0.00    -0.449 OA
BRANCH   2   3
ATOM      3  C   UNL     1      45.950 130.929  20.165  1.00  0.00     0.411 C 
ATOM      4  O   UNL     1      46.969 131.440  19.625  1.00  0.00    -0.224 OA
BRANCH   3   5
ATOM      5  N   UNL     1      44.629 131.358  19.764  1.00  0.00    -0.288 N 
ATOM      6  C   UNL     1      42.248 131.836  20.371  1.00  0.00     0.045 C 
ATOM      7  C   UNL     1      42.275 132.809  19.193  1.00  0.00     0.092 C 
ATOM      8  C   UNL     1      43.680 131.602  20.866  1.00  0.00     0.134 C 
ATOM      9  N   UNL     1      43.047 132.232  18.094  1.00  0.00    -0.293 NA
ATOM     10  C   UNL     1      44.464 132.045  18.459  1.00  0.00     0.192 C 
ATOM     11  H   UNL     1      42.610 131.316  17.832  1.00  0.00     0.125 HD
BRANCH   6  12
ATOM     12  C   UNL     1      41.375 132.371  21.483  1.00  0.00    -0.028 C 
ATOM     13  C   UNL     1      40.810 133.581  21.408  1.00  0.00     0.004 C 
ENDBRANCH   6  12
BRANCH  10  14
ATOM     14  C   UNL     1      45.151 131.277  17.342  1.00  0.00     0.042 A 
ATOM     15  C   UNL     1      45.184 129.859  17.349  1.00  0.00     0.022 A 
ATOM     16  C   UNL     1      45.756 131.963  16.267  1.00  0.00     0.308 A 
ATOM     17  C   UNL     1      45.801 129.148  16.305  1.00  0.00     0.124 A 
ATOM     18  N   UNL     1      46.351 131.229  15.294  1.00  0.00     0.004 N 
ATOM     19  C   UNL     1      46.383 129.891  15.284  1.00  0.00     0.386 A 
ATOM     20  N   UNL     1      46.995 131.663  14.226  1.00  0.00    -0.039 N 
ATOM     21  N   UNL     1      47.047 129.426  14.210  1.00  0.00    -0.167 N 
ATOM     22  C   UNL     1      47.420 130.561  13.567  1.00  0.00     0.528 A 
ATOM     23  H   UNL     1      47.145 132.663  13.963  1.00  0.00     0.426 HD
ATOM     24  H   UNL     1      47.242 128.437  13.942  1.00  0.00     0.366 HD
ENDBRANCH  10  14
ENDBRANCH   3   5
ENDBRANCH   2   3
ENDBRANCH   1   2
BRANCH   1  25
ATOM     25  C   UNL     1      44.803 128.361  22.514  1.00  0.00     0.042 C 
BRANCH  25  26
ATOM     26  C   UNL     1      44.847 126.854  22.795  1.00  0.00     0.003 C 
BRANCH  26  27
ATOM     27  C   UNL     1      46.267 126.406  23.153  1.00  0.00    -0.000 C 
BRANCH  27  28
ATOM     28  C   UNL     1      46.754 125.301  22.207  1.00  0.00    -0.003 C 
ATOM     29  C   UNL     1      45.905 124.041  22.349  1.00  0.00     0.004 C 
ENDBRANCH  27  28
ENDBRANCH  26  27
ENDBRANCH  25  26
ENDBRANCH   1  25
TORSDOF 9
ENDMDL
MODEL 9
REMARK VINA RESULT:      -2.8      3.249      7.720
REMARK SMILES C=C[C@H]1CN[C@H](c2ccc3[nH+]c[nH+]n3c2)N(C(=O)OCCCCCC)C1
REMARK SMILES IDX 20 1 19 2 17 3 18 4 16 5 3 6 4 7 26 8 5 9 6 10 2 12 1 13
REMARK SMILES IDX 7 14 8 15 15 16 9 17 14 18 10 19 13 20 11 21 12 22 21 25
REMARK SMILES IDX 22 26 23 27 24 28 25 29
REMARK H PARENT 5 11 13 23 11 24
ROOT
ATOM      1  C   UNL     1      47.888 133.267  21.370  1.00  0.00     0.235 C 
ENDROOT
BRANCH   1   2
ATOM      2  O   UNL     1      46.548 133.177  20.888  1.00  0.00    -0.449 OA
BRANCH   2   3
ATOM      3  C   UNL     1      45.949 131.987  20.456  1.00  0.00     0.411 C 
ATOM      4  O   UNL     1      46.617 130.917  20.433  1.00  0.00    -0.224 OA
BRANCH   3   5
ATOM      5  N   UNL     1      44.553 131.975  20.081  1.00  0.00    -0.288 N 
ATOM      6  C   UNL     1      42.144 131.949  20.762  1.00  0.00     0.045 C 
ATOM      7  C   UNL     1      41.888 132.632  19.419  1.00  0.00     0.092 C 
ATOM      8  C   UNL     1      43.598 132.192  21.182  1.00  0.00     0.134 C 
ATOM      9  N   UNL     1      42.760 132.056  18.397  1.00  0.00    -0.293 NA
ATOM     10  C   UNL     1      44.184 132.313  18.683  1.00  0.00     0.192 C 
ATOM     11  H   UNL     1      42.574 131.026  18.351  1.00  0.00     0.125 HD
BRANCH   6  12
ATOM     12  C   UNL     1      41.187 132.463  21.812  1.00  0.00    -0.028 C 
ATOM     13  C   UNL     1      40.572 133.643  21.680  1.00  0.00     0.004 C 
ENDBRANCH   6  12
BRANCH  10  14
ATOM     14  C   UNL     1      45.024 131.531  17.687  1.00  0.00     0.042 A 
ATOM     15  C   UNL     1      45.382 130.182  17.940  1.00  0.00     0.022 A 
ATOM     16  C   UNL     1      45.449 132.130  16.482  1.00  0.00     0.308 A 
ATOM     17  C   UNL     1      46.140 129.452  17.009  1.00  0.00     0.124 A 
ATOM     18  N   UNL     1      46.192 131.386  15.626  1.00  0.00     0.004 N 
ATOM     19  C   UNL     1      46.531 130.110  15.848  1.00  0.00     0.386 A 
ATOM     20  N   UNL     1      46.714 131.754  14.470  1.00  0.00    -0.039 N 
ATOM     21  N   UNL     1      47.279 129.621  14.842  1.00  0.00    -0.167 N 
ATOM     22  C   UNL     1      47.377 130.675  13.994  1.00  0.00     0.528 A 
ATOM     23  H   UNL     1      46.628 132.697  14.029  1.00  0.00     0.426 HD
ATOM     24  H   UNL     1      47.695 128.669  14.742  1.00  0.00     0.366 HD
ENDBRANCH  10  14
ENDBRANCH   3   5
ENDBRANCH   2   3
ENDBRANCH   1   2
BRANCH   1  25
ATOM     25  C   UNL     1      48.171 134.620  22.035  1.00  0.00     0.042 C 
BRANCH  25  26
ATOM     26  C   UNL     1      49.251 134.514  23.119  1.00  0.00     0.003 C 
BRANCH  26  27
ATOM     27  C   UNL     1      50.420 135.456  22.820  1.00  0.00    -0.000 C 
BRANCH  27  28
ATOM     28  C   UNL     1      51.742 134.881  23.343  1.00  0.00    -0.003 C 
ATOM     29  C   UNL     1      52.192 135.598  24.613  1.00  0.00     0.004 C 
ENDBRANCH  27  28
ENDBRANCH  26  27
ENDBRANCH  25  26
ENDBRANCH   1  25
TORSDOF 9
ENDMDL


