MODEL 1
REMARK VINA RESULT:      -9.0      0.000      0.000
REMARK SMILES CC(=O)c1ccc(-c2nccc(C)c2F)c(NN)c1
REMARK SMILES IDX 4 1 5 2 6 3 7 4 16 5 19 6 2 7 1 8 3 9 17 10 18 12 8 15 9 16
REMARK SMILES IDX 14 17 10 18 12 19 11 20 15 21 13 22
REMARK H PARENT 17 11 18 13 18 14
ROOT
ATOM      1  C   UNL     1      46.746 130.436  14.644  1.00  0.00     0.019 A 
ATOM      2  C   UNL     1      47.004 130.018  15.962  1.00  0.00     0.012 A 
ATOM      3  C   UNL     1      46.126 130.344  16.995  1.00  0.00     0.013 A 
ATOM      4  C   UNL     1      44.973 131.101  16.744  1.00  0.00     0.028 A 
ATOM      5  C   UNL     1      44.679 131.505  15.419  1.00  0.00     0.059 A 
ATOM      6  C   UNL     1      45.578 131.176  14.387  1.00  0.00     0.039 A 
ENDROOT
BRANCH   1   7
ATOM      7  C   UNL     1      47.676 130.099  13.532  1.00  0.00     0.159 C 
ATOM      8  C   UNL     1      47.835 130.986  12.334  1.00  0.00     0.093 C 
ATOM      9  O   UNL     1      48.356 129.037  13.584  1.00  0.00    -0.295 OA
ENDBRANCH   1   7
BRANCH   5  10
ATOM     10  N   UNL     1      43.454 132.197  15.112  1.00  0.00    -0.323 N 
ATOM     11  H   UNL     1      43.064 132.893  15.789  1.00  0.00     0.181 HD
BRANCH  10  12
ATOM     12  N   UNL     1      42.729 131.915  13.942  1.00  0.00    -0.250 NA
ATOM     13  H   UNL     1      41.832 131.456  14.225  1.00  0.00     0.143 HD
ATOM     14  H   UNL     1      42.470 132.832  13.512  1.00  0.00     0.143 HD
ENDBRANCH  10  12
ENDBRANCH   5  10
BRANCH   4  15
ATOM     15  C   UNL     1      44.107 131.458  17.887  1.00  0.00     0.108 A 
ATOM     16  N   UNL     1      42.819 131.832  17.653  1.00  0.00    -0.253 NA
ATOM     17  C   UNL     1      44.571 131.363  19.211  1.00  0.00     0.152 A 
ATOM     18  C   UNL     1      41.966 132.147  18.662  1.00  0.00     0.112 A 
ATOM     19  C   UNL     1      43.713 131.699  20.270  1.00  0.00    -0.012 A 
ATOM     20  C   UNL     1      42.396 132.086  19.988  1.00  0.00     0.026 A 
ATOM     21  F   UNL     1      45.833 130.927  19.467  1.00  0.00    -0.204 F 
ATOM     22  C   UNL     1      44.183 131.584  21.691  1.00  0.00     0.047 C 
ENDBRANCH   4  15
TORSDOF 4
ENDMDL
MODEL 2
REMARK VINA RESULT:      -9.0      2.851      6.140
REMARK SMILES CC(=O)c1ccc(-c2nccc(C)c2F)c(NN)c1
REMARK SMILES IDX 4 1 5 2 6 3 7 4 16 5 19 6 2 7 1 8 3 9 17 10 18 12 8 15 9 16
REMARK SMILES IDX 14 17 10 18 12 19 11 20 15 21 13 22
REMARK H PARENT 17 11 18 13 18 14
ROOT
ATOM      1  C   UNL     1      44.452 131.063  21.135  1.00  0.00     0.019 A 
ATOM      2  C   UNL     1      45.641 130.596  20.550  1.00  0.00     0.012 A 
ATOM      3  C   UNL     1      45.803 130.607  19.165  1.00  0.00     0.013 A 
ATOM      4  C   UNL     1      44.782 131.078  18.327  1.00  0.00     0.028 A 
ATOM      5  C   UNL     1      43.589 131.581  18.898  1.00  0.00     0.059 A 
ATOM      6  C   UNL     1      43.435 131.556  20.297  1.00  0.00     0.039 A 
ENDROOT
BRANCH   1   7
ATOM      7  C   UNL     1      44.262 131.053  22.611  1.00  0.00     0.159 C 
ATOM      8  C   UNL     1      44.333 129.787  23.412  1.00  0.00     0.093 C 
ATOM      9  O   UNL     1      44.032 132.133  23.221  1.00  0.00    -0.295 OA
ENDBRANCH   1   7
BRANCH   5  10
ATOM     10  N   UNL     1      42.561 132.163  18.072  1.00  0.00    -0.323 N 
ATOM     11  H   UNL     1      42.604 132.052  17.033  1.00  0.00     0.181 HD
BRANCH  10  12
ATOM     12  N   UNL     1      41.527 132.935  18.627  1.00  0.00    -0.250 NA
ATOM     13  H   UNL     1      41.841 133.259  19.571  1.00  0.00     0.143 HD
ATOM     14  H   UNL     1      41.431 133.791  18.035  1.00  0.00     0.143 HD
ENDBRANCH  10  12
ENDBRANCH   5  10
BRANCH   4  15
ATOM     15  C   UNL     1      44.993 131.019  16.865  1.00  0.00     0.108 A 
ATOM     16  N   UNL     1      44.138 131.689  16.043  1.00  0.00    -0.253 NA
ATOM     17  C   UNL     1      46.089 130.333  16.314  1.00  0.00     0.152 A 
ATOM     18  C   UNL     1      44.292 131.694  14.694  1.00  0.00     0.112 A 
ATOM     19  C   UNL     1      46.261 130.311  14.921  1.00  0.00    -0.012 A 
ATOM     20  C   UNL     1      45.356 131.007  14.107  1.00  0.00     0.026 A 
ATOM     21  F   UNL     1      46.990 129.715  17.122  1.00  0.00    -0.204 F 
ATOM     22  C   UNL     1      47.437 129.602  14.313  1.00  0.00     0.047 C 
ENDBRANCH   4  15
TORSDOF 4
ENDMDL
MODEL 3
REMARK VINA RESULT:      -8.7      2.986      6.255
REMARK SMILES CC(=O)c1ccc(-c2nccc(C)c2F)c(NN)c1
REMARK SMILES IDX 4 1 5 2 6 3 7 4 16 5 19 6 2 7 1 8 3 9 17 10 18 12 8 15 9 16
REMARK SMILES IDX 14 17 10 18 12 19 11 20 15 21 13 22
REMARK H PARENT 17 11 18 13 18 14
ROOT
ATOM      1  C   UNL     1      44.198 130.979  21.345  1.00  0.00     0.019 A 
ATOM      2  C   UNL     1      45.507 130.639  20.964  1.00  0.00     0.012 A 
ATOM      3  C   UNL     1      45.912 130.755  19.635  1.00  0.00     0.013 A 
ATOM      4  C   UNL     1      45.023 131.208  18.651  1.00  0.00     0.028 A 
ATOM      5  C   UNL     1      43.709 131.585  19.019  1.00  0.00     0.059 A 
ATOM      6  C   UNL     1      43.310 131.455  20.363  1.00  0.00     0.039 A 
ENDROOT
BRANCH   1   7
ATOM      7  C   UNL     1      43.749 130.856  22.759  1.00  0.00     0.159 C 
ATOM      8  C   UNL     1      42.793 131.832  23.376  1.00  0.00     0.093 C 
ATOM      9  O   UNL     1      44.179 129.908  23.473  1.00  0.00    -0.295 OA
ENDBRANCH   1   7
BRANCH   5  10
ATOM     10  N   UNL     1      42.802 132.147  18.051  1.00  0.00    -0.323 N 
ATOM     11  H   UNL     1      43.067 132.169  17.040  1.00  0.00     0.181 HD
BRANCH  10  12
ATOM     12  N   UNL     1      41.584 132.727  18.441  1.00  0.00    -0.250 NA
ATOM     13  H   UNL     1      40.876 132.513  17.701  1.00  0.00     0.143 HD
ATOM     14  H   UNL     1      41.269 132.232  19.306  1.00  0.00     0.143 HD
ENDBRANCH  10  12
ENDBRANCH   5  10
BRANCH   4  15
ATOM     15  C   UNL     1      45.495 131.263  17.251  1.00  0.00     0.108 A 
ATOM     16  N   UNL     1      45.464 132.451  16.586  1.00  0.00    -0.253 NA
ATOM     17  C   UNL     1      46.028 130.127  16.616  1.00  0.00     0.152 A 
ATOM     18  C   UNL     1      45.907 132.572  15.308  1.00  0.00     0.112 A 
ATOM     19  C   UNL     1      46.477 130.224  15.290  1.00  0.00    -0.012 A 
ATOM     20  C   UNL     1      46.422 131.463  14.636  1.00  0.00     0.026 A 
ATOM     21  F   UNL     1      46.129 128.949  17.287  1.00  0.00    -0.204 F 
ATOM     22  C   UNL     1      47.069 129.029  14.601  1.00  0.00     0.047 C 
ENDBRANCH   4  15
TORSDOF 4
ENDMDL
MODEL 4
REMARK VINA RESULT:      -7.9      2.299      3.494
REMARK SMILES CC(=O)c1ccc(-c2nccc(C)c2F)c(NN)c1
REMARK SMILES IDX 4 1 5 2 6 3 7 4 16 5 19 6 2 7 1 8 3 9 17 10 18 12 8 15 9 16
REMARK SMILES IDX 14 17 10 18 12 19 11 20 15 21 13 22
REMARK H PARENT 17 11 18 13 18 14
ROOT
ATOM      1  C   UNL     1      44.950 131.326  16.674  1.00  0.00     0.019 A 
ATOM      2  C   UNL     1      45.891 130.838  17.597  1.00  0.00     0.012 A 
ATOM      3  C   UNL     1      45.578 130.753  18.953  1.00  0.00     0.013 A 
ATOM      4  C   UNL     1      44.323 131.160  19.426  1.00  0.00     0.028 A 
ATOM      5  C   UNL     1      43.350 131.626  18.509  1.00  0.00     0.059 A 
ATOM      6  C   UNL     1      43.682 131.713  17.144  1.00  0.00     0.039 A 
ENDROOT
BRANCH   1   7
ATOM      7  C   UNL     1      45.271 131.427  15.224  1.00  0.00     0.159 C 
ATOM      8  C   UNL     1      46.684 131.456  14.724  1.00  0.00     0.093 C 
ATOM      9  O   UNL     1      44.336 131.492  14.379  1.00  0.00    -0.295 OA
ENDBRANCH   1   7
BRANCH   5  10
ATOM     10  N   UNL     1      42.018 131.957  18.948  1.00  0.00    -0.323 N 
ATOM     11  H   UNL     1      41.266 131.231  18.921  1.00  0.00     0.181 HD
BRANCH  10  12
ATOM     12  N   UNL     1      41.686 133.258  19.359  1.00  0.00    -0.250 NA
ATOM     13  H   UNL     1      40.807 133.200  19.924  1.00  0.00     0.143 HD
ATOM     14  H   UNL     1      42.438 133.577  20.010  1.00  0.00     0.143 HD
ENDBRANCH  10  12
ENDBRANCH   5  10
BRANCH   4  15
ATOM     15  C   UNL     1      44.067 131.093  20.880  1.00  0.00     0.108 A 
ATOM     16  N   UNL     1      43.279 132.040  21.460  1.00  0.00    -0.253 NA
ATOM     17  C   UNL     1      44.576 130.041  21.662  1.00  0.00     0.152 A 
ATOM     18  C   UNL     1      42.986 132.019  22.786  1.00  0.00     0.112 A 
ATOM     19  C   UNL     1      44.300 130.007  23.038  1.00  0.00    -0.012 A 
ATOM     20  C   UNL     1      43.490 131.004  23.600  1.00  0.00     0.026 A 
ATOM     21  F   UNL     1      45.309 129.051  21.089  1.00  0.00    -0.204 F 
ATOM     22  C   UNL     1      44.816 128.882  23.887  1.00  0.00     0.047 C 
ENDBRANCH   4  15
TORSDOF 4
ENDMDL
MODEL 5
REMARK VINA RESULT:      -7.5      3.149      6.328
REMARK SMILES CC(=O)c1ccc(-c2nccc(C)c2F)c(NN)c1
REMARK SMILES IDX 4 1 5 2 6 3 7 4 16 5 19 6 2 7 1 8 3 9 17 10 18 12 8 15 9 16
REMARK SMILES IDX 14 17 10 18 12 19 11 20 15 21 13 22
REMARK H PARENT 17 11 18 13 18 14
ROOT
ATOM      1  C   UNL     1      44.026 131.487  21.283  1.00  0.00     0.019 A 
ATOM      2  C   UNL     1      45.250 130.842  21.032  1.00  0.00     0.012 A 
ATOM      3  C   UNL     1      45.646 130.556  19.727  1.00  0.00     0.013 A 
ATOM      4  C   UNL     1      44.832 130.897  18.638  1.00  0.00     0.028 A 
ATOM      5  C   UNL     1      43.610 131.574  18.867  1.00  0.00     0.059 A 
ATOM      6  C   UNL     1      43.218 131.850  20.191  1.00  0.00     0.039 A 
ENDROOT
BRANCH   1   7
ATOM      7  C   UNL     1      43.587 131.795  22.671  1.00  0.00     0.159 C 
ATOM      8  C   UNL     1      44.568 132.023  23.782  1.00  0.00     0.093 C 
ATOM      9  O   UNL     1      42.355 131.868  22.937  1.00  0.00    -0.295 OA
ENDBRANCH   1   7
BRANCH   5  10
ATOM     10  N   UNL     1      42.797 132.027  17.767  1.00  0.00    -0.323 N 
ATOM     11  H   UNL     1      43.092 131.825  16.784  1.00  0.00     0.181 HD
BRANCH  10  12
ATOM     12  N   UNL     1      41.640 132.794  17.980  1.00  0.00    -0.250 NA
ATOM     13  H   UNL     1      41.642 133.577  17.285  1.00  0.00     0.143 HD
ATOM     14  H   UNL     1      40.822 132.188  17.743  1.00  0.00     0.143 HD
ENDBRANCH  10  12
ENDBRANCH   5  10
BRANCH   4  15
ATOM     15  C   UNL     1      45.283 130.523  17.281  1.00  0.00     0.108 A 
ATOM     16  N   UNL     1      45.112 129.241  16.854  1.00  0.00    -0.253 NA
ATOM     17  C   UNL     1      45.831 131.478  16.407  1.00  0.00     0.152 A 
ATOM     18  C   UNL     1      45.482 128.841  15.610  1.00  0.00     0.112 A 
ATOM     19  C   UNL     1      46.236 131.085  15.121  1.00  0.00    -0.012 A 
ATOM     20  C   UNL     1      46.050 129.754  14.720  1.00  0.00     0.026 A 
ATOM     21  F   UNL     1      45.948 132.776  16.792  1.00  0.00    -0.204 F 
ATOM     22  C   UNL     1      46.805 132.092  14.164  1.00  0.00     0.047 C 
ENDBRANCH   4  15
TORSDOF 4
ENDMDL
MODEL 6
REMARK VINA RESULT:      -7.4      3.337      6.619
REMARK SMILES CC(=O)c1ccc(-c2nccc(C)c2F)c(NN)c1
REMARK SMILES IDX 4 1 5 2 6 3 7 4 16 5 19 6 2 7 1 8 3 9 17 10 18 12 8 15 9 16
REMARK SMILES IDX 14 17 10 18 12 19 11 20 15 21 13 22
REMARK H PARENT 17 11 18 13 18 14
ROOT
ATOM      1  C   UNL     1      42.844 132.134  19.831  1.00  0.00     0.019 A 
ATOM      2  C   UNL     1      42.341 132.062  18.519  1.00  0.00     0.012 A 
ATOM      3  C   UNL     1      43.123 131.545  17.487  1.00  0.00     0.013 A 
ATOM      4  C   UNL     1      44.427 131.093  17.732  1.00  0.00     0.028 A 
ATOM      5  C   UNL     1      44.940 131.127  19.050  1.00  0.00     0.059 A 
ATOM      6  C   UNL     1      44.144 131.659  20.082  1.00  0.00     0.039 A 
ENDROOT
BRANCH   1   7
ATOM      7  C   UNL     1      42.023 132.687  20.942  1.00  0.00     0.159 C 
ATOM      8  C   UNL     1      42.212 132.246  22.363  1.00  0.00     0.093 C 
ATOM      9  O   UNL     1      41.138 133.552  20.697  1.00  0.00    -0.295 OA
ENDBRANCH   1   7
BRANCH   5  10
ATOM     10  N   UNL     1      46.238 130.579  19.354  1.00  0.00    -0.323 N 
ATOM     11  H   UNL     1      46.644 129.834  18.742  1.00  0.00     0.181 HD
BRANCH  10  12
ATOM     12  N   UNL     1      46.952 130.978  20.495  1.00  0.00    -0.250 NA
ATOM     13  H   UNL     1      47.023 130.152  21.134  1.00  0.00     0.143 HD
ATOM     14  H   UNL     1      47.926 131.200  20.187  1.00  0.00     0.143 HD
ENDBRANCH  10  12
ENDBRANCH   5  10
BRANCH   4  15
ATOM     15  C   UNL     1      45.224 130.601  16.588  1.00  0.00     0.108 A 
ATOM     16  N   UNL     1      45.201 129.274  16.283  1.00  0.00    -0.253 NA
ATOM     17  C   UNL     1      45.958 131.485  15.778  1.00  0.00     0.152 A 
ATOM     18  C   UNL     1      45.891 128.765  15.230  1.00  0.00     0.112 A 
ATOM     19  C   UNL     1      46.693 130.980  14.694  1.00  0.00    -0.012 A 
ATOM     20  C   UNL     1      46.649 129.607  14.416  1.00  0.00     0.026 A 
ATOM     21  F   UNL     1      45.940 132.821  16.027  1.00  0.00    -0.204 F 
ATOM     22  C   UNL     1      47.467 131.910  13.804  1.00  0.00     0.047 C 
ENDBRANCH   4  15
TORSDOF 4
ENDMDL
MODEL 7
REMARK VINA RESULT:      -7.0      2.920      6.121
REMARK SMILES CC(=O)c1ccc(-c2nccc(C)c2F)c(NN)c1
REMARK SMILES IDX 4 1 5 2 6 3 7 4 16 5 19 6 2 7 1 8 3 9 17 10 18 12 8 15 9 16
REMARK SMILES IDX 14 17 10 18 12 19 11 20 15 21 13 22
REMARK H PARENT 17 11 18 13 18 14
ROOT
ATOM      1  C   UNL     1      43.471 131.873  19.579  1.00  0.00     0.019 A 
ATOM      2  C   UNL     1      44.709 131.230  19.752  1.00  0.00     0.012 A 
ATOM      3  C   UNL     1      45.449 130.806  18.649  1.00  0.00     0.013 A 
ATOM      4  C   UNL     1      44.973 131.006  17.346  1.00  0.00     0.028 A 
ATOM      5  C   UNL     1      43.744 131.679  17.149  1.00  0.00     0.059 A 
ATOM      6  C   UNL     1      43.003 132.095  18.271  1.00  0.00     0.039 A 
ENDROOT
BRANCH   1   7
ATOM      7  C   UNL     1      42.667 132.327  20.746  1.00  0.00     0.159 C 
ATOM      8  C   UNL     1      42.912 131.804  22.130  1.00  0.00     0.093 C 
ATOM      9  O   UNL     1      41.746 133.174  20.582  1.00  0.00    -0.295 OA
ENDBRANCH   1   7
BRANCH   5  10
ATOM     10  N   UNL     1      43.275 131.989  15.822  1.00  0.00    -0.323 N 
ATOM     11  H   UNL     1      42.653 132.817  15.670  1.00  0.00     0.181 HD
BRANCH  10  12
ATOM     12  N   UNL     1      43.584 131.167  14.726  1.00  0.00    -0.250 NA
ATOM     13  H   UNL     1      44.087 130.325  15.090  1.00  0.00     0.143 HD
ATOM     14  H   UNL     1      42.678 130.825  14.333  1.00  0.00     0.143 HD
ENDBRANCH  10  12
ENDBRANCH   5  10
BRANCH   4  15
ATOM     15  C   UNL     1      45.780 130.491  16.219  1.00  0.00     0.108 A 
ATOM     16  N   UNL     1      45.832 129.148  15.999  1.00  0.00    -0.253 NA
ATOM     17  C   UNL     1      46.445 131.364  15.341  1.00  0.00     0.152 A 
ATOM     18  C   UNL     1      46.533 128.614  14.966  1.00  0.00     0.112 A 
ATOM     19  C   UNL     1      47.190 130.835  14.275  1.00  0.00    -0.012 A 
ATOM     20  C   UNL     1      47.225 129.446  14.085  1.00  0.00     0.026 A 
ATOM     21  F   UNL     1      46.350 132.709  15.506  1.00  0.00    -0.204 F 
ATOM     22  C   UNL     1      47.892 131.750  13.313  1.00  0.00     0.047 C 
ENDBRANCH   4  15
TORSDOF 4
ENDMDL
MODEL 8
REMARK VINA RESULT:      -6.9      2.518      3.810
REMARK SMILES CC(=O)c1ccc(-c2nccc(C)c2F)c(NN)c1
REMARK SMILES IDX 4 1 5 2 6 3 7 4 16 5 19 6 2 7 1 8 3 9 17 10 18 12 8 15 9 16
REMARK SMILES IDX 14 17 10 18 12 19 11 20 15 21 13 22
REMARK H PARENT 17 11 18 13 18 14
ROOT
ATOM      1  C   UNL     1      44.939 131.296  17.162  1.00  0.00     0.019 A 
ATOM      2  C   UNL     1      45.801 130.781  18.146  1.00  0.00     0.012 A 
ATOM      3  C   UNL     1      45.420 130.766  19.487  1.00  0.00     0.013 A 
ATOM      4  C   UNL     1      44.173 131.268  19.884  1.00  0.00     0.028 A 
ATOM      5  C   UNL     1      43.277 131.763  18.906  1.00  0.00     0.059 A 
ATOM      6  C   UNL     1      43.678 131.779  17.556  1.00  0.00     0.039 A 
ENDROOT
BRANCH   1   7
ATOM      7  C   UNL     1      45.333 131.323  15.728  1.00  0.00     0.159 C 
ATOM      8  C   UNL     1      44.317 131.365  14.626  1.00  0.00     0.093 C 
ATOM      9  O   UNL     1      46.555 131.307  15.413  1.00  0.00    -0.295 OA
ENDBRANCH   1   7
BRANCH   5  10
ATOM     10  N   UNL     1      41.951 132.194  19.267  1.00  0.00    -0.323 N 
ATOM     11  H   UNL     1      41.117 131.703  18.868  1.00  0.00     0.181 HD
BRANCH  10  12
ATOM     12  N   UNL     1      41.744 133.304  20.102  1.00  0.00    -0.250 NA
ATOM     13  H   UNL     1      42.190 133.097  21.026  1.00  0.00     0.143 HD
ATOM     14  H   UNL     1      42.276 134.103  19.688  1.00  0.00     0.143 HD
ENDBRANCH  10  12
ENDBRANCH   5  10
BRANCH   4  15
ATOM     15  C   UNL     1      43.845 131.271  21.326  1.00  0.00     0.108 A 
ATOM     16  N   UNL     1      42.782 130.544  21.766  1.00  0.00    -0.253 NA
ATOM     17  C   UNL     1      44.644 131.963  22.253  1.00  0.00     0.152 A 
ATOM     18  C   UNL     1      42.444 130.485  23.080  1.00  0.00     0.112 A 
ATOM     19  C   UNL     1      44.306 131.930  23.615  1.00  0.00    -0.012 A 
ATOM     20  C   UNL     1      43.199 131.175  24.029  1.00  0.00     0.026 A 
ATOM     21  F   UNL     1      45.748 132.639  21.840  1.00  0.00    -0.204 F 
ATOM     22  C   UNL     1      45.157 132.645  24.625  1.00  0.00     0.047 C 
ENDBRANCH   4  15
TORSDOF 4
ENDMDL
MODEL 9
REMARK VINA RESULT:      -6.8      3.278      4.471
REMARK SMILES CC(=O)c1ccc(-c2nccc(C)c2F)c(NN)c1
REMARK SMILES IDX 4 1 5 2 6 3 7 4 16 5 19 6 2 7 1 8 3 9 17 10 18 12 8 15 9 16
REMARK SMILES IDX 14 17 10 18 12 19 11 20 15 21 13 22
REMARK H PARENT 17 11 18 13 18 14
ROOT
ATOM      1  C   UNL     1      44.567 131.592  17.293  1.00  0.00     0.019 A 
ATOM      2  C   UNL     1      43.240 131.687  17.749  1.00  0.00     0.012 A 
ATOM      3  C   UNL     1      42.949 131.599  19.110  1.00  0.00     0.013 A 
ATOM      4  C   UNL     1      43.970 131.408  20.051  1.00  0.00     0.028 A 
ATOM      5  C   UNL     1      45.315 131.341  19.616  1.00  0.00     0.059 A 
ATOM      6  C   UNL     1      45.595 131.423  18.238  1.00  0.00     0.039 A 
ENDROOT
BRANCH   1   7
ATOM      7  C   UNL     1      44.893 131.680  15.844  1.00  0.00     0.159 C 
ATOM      8  C   UNL     1      43.841 131.541  14.784  1.00  0.00     0.093 C 
ATOM      9  O   UNL     1      46.085 131.873  15.480  1.00  0.00    -0.295 OA
ENDBRANCH   1   7
BRANCH   5  10
ATOM     10  N   UNL     1      46.396 131.246  20.564  1.00  0.00    -0.323 N 
ATOM     11  H   UNL     1      46.842 130.319  20.753  1.00  0.00     0.181 HD
BRANCH  10  12
ATOM     12  N   UNL     1      46.831 132.365  21.292  1.00  0.00    -0.250 NA
ATOM     13  H   UNL     1      46.351 133.208  20.900  1.00  0.00     0.143 HD
ATOM     14  H   UNL     1      46.481 132.251  22.270  1.00  0.00     0.143 HD
ENDBRANCH  10  12
ENDBRANCH   5  10
BRANCH   4  15
ATOM     15  C   UNL     1      43.595 131.273  21.474  1.00  0.00     0.108 A 
ATOM     16  N   UNL     1      42.748 132.184  22.027  1.00  0.00    -0.253 NA
ATOM     17  C   UNL     1      44.050 130.191  22.248  1.00  0.00     0.152 A 
ATOM     18  C   UNL     1      42.345 132.101  23.322  1.00  0.00     0.112 A 
ATOM     19  C   UNL     1      43.661 130.092  23.593  1.00  0.00    -0.012 A 
ATOM     20  C   UNL     1      42.793 131.054  24.129  1.00  0.00     0.026 A 
ATOM     21  F   UNL     1      44.842 129.235  21.695  1.00  0.00    -0.204 F 
ATOM     22  C   UNL     1      44.119 128.934  24.432  1.00  0.00     0.047 C 
ENDBRANCH   4  15
TORSDOF 4
ENDMDL


