REMARK SMILES C[C@H]1NN(/C(O)=C/c2ccn[nH+]c2)[C@@H](c2cc3ccc(F)cc3[nH]2)O1
REMARK SMILES IDX 5 1 6 2 7 4 8 5 9 6 13 7 10 8 12 9 11 10 4 12 3 13 14 14
REMARK SMILES IDX 2 15 25 16 1 18 15 19 16 20 24 21 17 22 23 23 18 24 22 25
REMARK SMILES IDX 19 26 20 27 21 29
REMARK H PARENT 6 3 12 11 3 17 24 28
ROOT
ATOM      1  C   UNL     1      -1.204  -1.277   1.427  1.00  0.00     0.205 C 
ENDROOT
BRANCH   1   2
ATOM      2  O   UNL     1      -2.539  -0.889   1.550  1.00  0.00    -0.494 OA
ATOM      3  H   UNL     1      -2.849  -0.260   2.280  1.00  0.00     0.295 HD
ENDBRANCH   1   2
BRANCH   1   4
ATOM      4  C   UNL     1      -0.834  -2.082   0.415  1.00  0.00     0.082 C 
BRANCH   4   5
ATOM      5  C   UNL     1      -1.766  -2.610  -0.606  1.00  0.00     0.048 A 
ATOM      6  C   UNL     1      -1.341  -2.704  -1.935  1.00  0.00     0.041 A 
ATOM      7  C   UNL     1      -3.044  -3.090  -0.280  1.00  0.00     0.343 A 
ATOM      8  C   UNL     1      -2.204  -3.225  -2.896  1.00  0.00     0.185 A 
ATOM      9  N   UNL     1      -3.846  -3.591  -1.257  1.00  0.00    -0.106 N 
ATOM     10  N   UNL     1      -3.438  -3.654  -2.526  1.00  0.00    -0.011 NA
ATOM     11  H   UNL     1      -4.797  -3.944  -1.010  1.00  0.00     0.490 HD
ENDBRANCH   4   5
ENDBRANCH   1   4
BRANCH   1  12
ATOM     12  N   UNL     1      -0.237  -0.782   2.380  1.00  0.00    -0.242 N 
ATOM     13  N   UNL     1      -0.622  -0.171   3.567  1.00  0.00    -0.201 NA
ATOM     14  C   UNL     1       1.201  -0.807   2.232  1.00  0.00     0.283 C 
ATOM     15  C   UNL     1       0.651   0.146   4.217  1.00  0.00     0.204 C 
ATOM     16  O   UNL     1       1.739  -0.192   3.373  1.00  0.00    -0.332 OA
ATOM     17  H   UNL     1      -1.119  -0.894   4.140  1.00  0.00     0.151 HD
ATOM     18  C   UNL     1       0.704   1.635   4.541  1.00  0.00     0.058 C 
BRANCH  14  19
ATOM     19  C   UNL     1       1.629  -0.043   1.011  1.00  0.00     0.068 A 
ATOM     20  C   UNL     1       2.607  -0.461   0.112  1.00  0.00     0.036 A 
ATOM     21  N   UNL     1       1.125   1.164   0.658  1.00  0.00    -0.355 N 
ATOM     22  C   UNL     1       2.676   0.544  -0.828  1.00  0.00     0.000 A 
ATOM     23  C   UNL     1       1.770   1.508  -0.469  1.00  0.00     0.049 A 
ATOM     24  C   UNL     1       3.470   0.668  -1.965  1.00  0.00     0.013 A 
ATOM     25  C   UNL     1       1.594   2.666  -1.225  1.00  0.00     0.065 A 
ATOM     26  C   UNL     1       3.316   1.827  -2.749  1.00  0.00     0.040 A 
ATOM     27  C   UNL     1       2.381   2.822  -2.381  1.00  0.00     0.125 A 
ATOM     28  H   UNL     1       0.384   1.710   1.151  1.00  0.00     0.166 HD
ATOM     29  F   UNL     1       2.243   3.932  -3.146  1.00  0.00    -0.207 F 
ENDBRANCH  14  19
ENDBRANCH   1  12
TORSDOF 5


