REMARK SMILES Cc1ccc(Nc2cccc(N=[N+]=[N-])c2O)cc1
REMARK SMILES IDX 15 1 11 2 10 3 9 4 8 5 7 6 16 7 12 9 13 10 14 11 6 12 5 14
REMARK SMILES IDX 4 15 17 16 3 17 18 18 2 19 1 20
REMARK H PARENT 16 8 6 13
ROOT
ATOM      1  C   UNL     1       0.405   2.701  -1.391  1.00  0.00     0.148 A 
ATOM      2  C   UNL     1       1.537   3.550  -1.317  1.00  0.00     0.081 A 
ATOM      3  C   UNL     1       2.820   2.990  -1.353  1.00  0.00     0.014 A 
ATOM      4  C   UNL     1       2.992   1.610  -1.458  1.00  0.00     0.003 A 
ATOM      5  C   UNL     1       1.882   0.769  -1.512  1.00  0.00     0.030 A 
ATOM      6  C   UNL     1       0.588   1.299  -1.453  1.00  0.00     0.081 A 
ENDROOT
BRANCH   1   7
ATOM      7  O   UNL     1      -0.878   3.252  -1.430  1.00  0.00    -0.505 OA
ATOM      8  H   UNL     1      -1.712   2.697  -1.575  1.00  0.00     0.293 HD
ENDBRANCH   1   7
BRANCH   2   9
ATOM      9  N   UNL     1       1.439   4.981  -1.220  1.00  0.00    -0.057 NA
BRANCH   9  10
ATOM     10  N   UNL     1       0.369   5.585  -1.129  1.00  0.00     0.005 N 
ATOM     11  N   UNL     1      -0.695   6.195  -1.037  1.00  0.00    -0.003 NA
ENDBRANCH   9  10
ENDBRANCH   2   9
BRANCH   6  12
ATOM     12  N   UNL     1      -0.528   0.397  -1.483  1.00  0.00    -0.352 N 
ATOM     13  H   UNL     1      -0.552  -0.312  -2.251  1.00  0.00     0.167 HD
BRANCH  12  14
ATOM     14  C   UNL     1      -1.499   0.290  -0.425  1.00  0.00     0.038 A 
ATOM     15  C   UNL     1      -2.659  -0.471  -0.631  1.00  0.00     0.026 A 
ATOM     16  C   UNL     1      -1.301   0.908   0.825  1.00  0.00     0.026 A 
ATOM     17  C   UNL     1      -3.616  -0.597   0.380  1.00  0.00     0.005 A 
ATOM     18  C   UNL     1      -2.259   0.782   1.835  1.00  0.00     0.005 A 
ATOM     19  C   UNL     1      -3.430   0.044   1.613  1.00  0.00    -0.051 A 
ATOM     20  C   UNL     1      -4.438  -0.123   2.712  1.00  0.00     0.044 C 
ENDBRANCH  12  14
ENDBRANCH   6  12
TORSDOF 5


