REMARK SMILES Cc1ccc(CCC(C#N)=C2CCC2)c(C)c1
REMARK SMILES IDX 7 1 6 2 5 3 2 4 3 5 17 6 4 7 15 8 1 9 16 10 8 11 9 12 10 13
REMARK SMILES IDX 11 14 12 15 14 16 13 17
REMARK H PARENT
ROOT
ATOM      1  C   UNL     1       1.528  -0.385  -1.111  1.00  0.00     0.052 C 
ENDROOT
BRANCH   1   2
ATOM      2  C   UNL     1       1.714  -1.772  -0.474  1.00  0.00     0.041 C 
BRANCH   2   3
ATOM      3  C   UNL     1       0.428  -2.301   0.128  1.00  0.00    -0.045 A 
ATOM      4  C   UNL     1      -1.964  -3.187   1.334  1.00  0.00    -0.051 A 
ATOM      5  C   UNL     1      -1.043  -2.428   2.065  1.00  0.00     0.004 A 
ATOM      6  C   UNL     1      -1.700  -3.484  -0.010  1.00  0.00     0.007 A 
ATOM      7  C   UNL     1       0.143  -1.997   1.471  1.00  0.00     0.004 A 
ATOM      8  C   UNL     1      -0.513  -3.048  -0.626  1.00  0.00    -0.048 A 
ATOM      9  C   UNL     1      -3.255  -3.619   1.963  1.00  0.00     0.044 C 
ATOM     10  C   UNL     1      -0.256  -3.429  -2.062  1.00  0.00     0.044 C 
ENDBRANCH   2   3
ENDBRANCH   1   2
BRANCH   1  11
ATOM     11  C   UNL     1       1.141   0.665  -0.103  1.00  0.00     0.029 C 
BRANCH  11  12
ATOM     12  C   UNL     1      -0.214   1.155  -0.070  1.00  0.00     0.095 C 
ATOM     13  N   UNL     1      -1.303   1.546  -0.044  1.00  0.00    -0.193 NA
ENDBRANCH  11  12
BRANCH  11  14
ATOM     14  C   UNL     1       2.036   1.170   0.747  1.00  0.00    -0.057 C 
ATOM     15  C   UNL     1       3.512   1.002   1.055  1.00  0.00     0.032 C 
ATOM     16  C   UNL     1       2.053   2.204   1.857  1.00  0.00     0.032 C 
ATOM     17  C   UNL     1       3.509   2.028   2.142  1.00  0.00     0.009 C 
ENDBRANCH  11  14
ENDBRANCH   1  11
TORSDOF 5


