REMARK SMILES Cc1cc([NH2+]N)c([O-])c([O-])c1F
REMARK SMILES IDX 5 1 4 4 2 5 3 6 11 7 9 8 7 9 1 10 12 11 10 12 8 13 6 14
REMARK H PARENT 5 2 5 3 6 15 6 16
ROOT
ATOM      1  N   UNL     1      -2.060  -1.244   0.336  1.00  0.00    -0.240 N 
ATOM      2  H   UNL     1      -2.372  -1.194  -0.661  1.00  0.00     0.376 HD
ATOM      3  H   UNL     1      -2.773  -0.748   0.919  1.00  0.00     0.376 HD
ENDROOT
BRANCH   1   4
ATOM      4  C   UNL     1      -0.754  -0.643   0.493  1.00  0.00     0.140 A 
ATOM      5  C   UNL     1       1.441  -0.107  -0.433  1.00  0.00    -0.010 A 
ATOM      6  C   UNL     1       0.162  -0.668  -0.573  1.00  0.00     0.075 A 
ATOM      7  C   UNL     1       1.817   0.456   0.797  1.00  0.00     0.118 A 
ATOM      8  C   UNL     1       0.917   0.473   1.868  1.00  0.00    -0.074 A 
ATOM      9  C   UNL     1      -0.363  -0.075   1.722  1.00  0.00    -0.049 A 
ATOM     10  C   UNL     1       2.420  -0.158  -1.570  1.00  0.00     0.048 C 
ATOM     11  F   UNL     1       3.058   0.982   0.960  1.00  0.00    -0.207 F 
ATOM     12  O   UNL     1       1.298   1.033   3.082  1.00  0.00    -0.871 OA
ATOM     13  O   UNL     1      -1.241  -0.059   2.801  1.00  0.00    -0.869 OA
ENDBRANCH   1   4
BRANCH   1  14
ATOM     14  N   UNL     1      -2.022  -2.601   0.724  1.00  0.00    -0.178 NA
ATOM     15  H   UNL     1      -1.721  -2.665   1.726  1.00  0.00     0.183 HD
ATOM     16  H   UNL     1      -1.318  -3.107   0.137  1.00  0.00     0.183 HD
ENDBRANCH   1  14
TORSDOF 2


