REMARK SMILES CC(=O)c1ccc(-c2cc(N)c(OC(=O)/C(C=O)=C(\C)[NH3+])c([NH2+]c3ccc(C)c(F)c3)c2)cn1
REMARK SMILES IDX 14 1 15 2 16 3 17 4 18 5 19 6 20 7 21 8 13 12 12 13 10 14
REMARK SMILES IDX 22 15 9 16 32 17 8 18 11 19 23 22 24 25 25 26 31 27 26 28
REMARK SMILES IDX 29 29 27 30 30 31 28 32 7 33 33 34 6 35 34 36 5 37 4 38 2 39
REMARK SMILES IDX 3 40 1 41
REMARK H PARENT 21 9 21 10 21 11 11 20 11 21 23 23 23 24
ROOT
ATOM      1  C   UNL     1      -0.277  -3.365  -0.846  1.00  0.00     0.352 C 
ATOM      2  O   UNL     1       0.753  -3.254  -1.566  1.00  0.00    -0.245 OA
ENDROOT
BRANCH   1   3
ATOM      3  C   UNL     1      -0.869  -4.712  -0.616  1.00  0.00     0.155 C 
BRANCH   3   4
ATOM      4  C   UNL     1      -0.815  -5.682  -1.742  1.00  0.00     0.273 C 
ATOM      5  O   UNL     1      -0.459  -5.316  -2.894  1.00  0.00    -0.297 OA
ENDBRANCH   3   4
BRANCH   3   6
ATOM      6  C   UNL     1      -1.434  -5.062   0.575  1.00  0.00     0.119 C 
ATOM      7  C   UNL     1      -1.422  -4.121   1.758  1.00  0.00     0.112 C 
BRANCH   6   8
ATOM      8  N   UNL     1      -2.030  -6.364   0.750  1.00  0.00    -0.328 N 
ATOM      9  H   UNL     1      -1.295  -7.103   0.667  1.00  0.00     0.350 HD
ATOM     10  H   UNL     1      -2.475  -6.459   1.690  1.00  0.00     0.350 HD
ATOM     11  H   UNL     1      -2.779  -6.509   0.034  1.00  0.00     0.350 HD
ENDBRANCH   6   8
ENDBRANCH   3   6
ENDBRANCH   1   3
BRANCH   1  12
ATOM     12  O   UNL     1      -0.882  -2.219  -0.316  1.00  0.00    -0.414 OA
BRANCH  12  13
ATOM     13  C   UNL     1      -0.455  -0.927  -0.645  1.00  0.00     0.214 A 
ATOM     14  C   UNL     1      -1.182  -0.189  -1.597  1.00  0.00     0.082 A 
ATOM     15  C   UNL     1       0.689  -0.361  -0.036  1.00  0.00     0.180 A 
ATOM     16  C   UNL     1      -0.755   1.095  -1.960  1.00  0.00     0.038 A 
ATOM     17  C   UNL     1       1.106   0.925  -0.424  1.00  0.00     0.081 A 
ATOM     18  C   UNL     1       0.392   1.661  -1.382  1.00  0.00    -0.009 A 
BRANCH  14  19
ATOM     19  N   UNL     1      -2.354  -0.741  -2.208  1.00  0.00    -0.395 N 
ATOM     20  H   UNL     1      -2.701  -1.694  -1.959  1.00  0.00     0.156 HD
ATOM     21  H   UNL     1      -2.891  -0.197  -2.919  1.00  0.00     0.156 HD
ENDBRANCH  14  19
BRANCH  15  22
ATOM     22  N   UNL     1       1.413  -1.054   1.005  1.00  0.00    -0.278 N 
ATOM     23  H   UNL     1       2.437  -1.016   0.791  1.00  0.00     0.358 HD
ATOM     24  H   UNL     1       1.158  -2.066   1.051  1.00  0.00     0.358 HD
BRANCH  22  25
ATOM     25  C   UNL     1       1.136  -0.444   2.282  1.00  0.00     0.137 A 
ATOM     26  C   UNL     1      -0.098  -0.658   2.919  1.00  0.00     0.068 A 
ATOM     27  C   UNL     1       2.082   0.399   2.893  1.00  0.00     0.107 A 
ATOM     28  C   UNL     1      -0.378  -0.051   4.146  1.00  0.00     0.012 A 
ATOM     29  C   UNL     1       1.802   1.008   4.120  1.00  0.00     0.132 A 
ATOM     30  C   UNL     1       0.566   0.793   4.751  1.00  0.00    -0.015 A 
ATOM     31  F   UNL     1       2.737   1.808   4.692  1.00  0.00    -0.206 F 
ATOM     32  C   UNL     1       0.276   1.429   6.080  1.00  0.00     0.047 C 
ENDBRANCH  22  25
ENDBRANCH  15  22
BRANCH  18  33
ATOM     33  C   UNL     1       0.836   3.025  -1.768  1.00  0.00     0.000 A 
ATOM     34  C   UNL     1       0.791   3.445  -3.108  1.00  0.00     0.120 A 
ATOM     35  C   UNL     1       1.310   3.928  -0.804  1.00  0.00     0.013 A 
ATOM     36  N   UNL     1       1.201   4.695  -3.449  1.00  0.00    -0.253 NA
ATOM     37  C   UNL     1       1.724   5.207  -1.179  1.00  0.00     0.033 A 
ATOM     38  C   UNL     1       1.664   5.585  -2.529  1.00  0.00     0.106 A 
BRANCH  38  39
ATOM     39  C   UNL     1       2.093   6.932  -2.965  1.00  0.00     0.178 C 
ATOM     40  O   UNL     1       2.523   7.765  -2.122  1.00  0.00    -0.293 OA
ATOM     41  C   UNL     1       2.024   7.325  -4.408  1.00  0.00     0.095 C 
ENDBRANCH  38  39
ENDBRANCH  18  33
ENDBRANCH  12  13
ENDBRANCH   1  12
TORSDOF 11


