REMARK SMILES N/N=c1\cc(-c2ccc3[nH]ccc3c2)[nH][nH]c1=O
REMARK SMILES IDX 5 1 4 2 3 3 17 4 18 5 16 6 15 8 6 10 7 11 8 12 14 13 9 14
REMARK SMILES IDX 13 15 10 16 12 17 11 18 2 20 1 21
REMARK H PARENT 16 7 15 9 10 19 1 22 1 23
ROOT
ATOM      1  C   UNL     1      -1.101   0.973   1.366  1.00  0.00     0.064 A 
ATOM      2  C   UNL     1       0.036   1.678   1.786  1.00  0.00     0.064 A 
ATOM      3  C   UNL     1       0.059   2.271   3.061  1.00  0.00     0.151 A 
ATOM      4  C   UNL     1      -1.081   2.143   3.868  1.00  0.00     0.290 A 
ATOM      5  O   UNL     1      -1.112   2.665   5.017  1.00  0.00    -0.266 OA
ATOM      6  N   UNL     1      -2.159   1.450   3.415  1.00  0.00    -0.264 N 
ATOM      7  H   UNL     1      -3.001   1.355   4.029  1.00  0.00     0.191 HD
ATOM      8  N   UNL     1      -2.170   0.882   2.208  1.00  0.00    -0.298 N 
ATOM      9  H   UNL     1      -3.017   0.342   1.919  1.00  0.00     0.188 HD
ENDROOT
BRANCH   1  10
ATOM     10  C   UNL     1      -1.148   0.344   0.022  1.00  0.00     0.000 A 
ATOM     11  C   UNL     1      -2.339   0.399  -0.751  1.00  0.00     0.012 A 
ATOM     12  C   UNL     1      -2.399  -0.194  -2.025  1.00  0.00     0.027 A 
ATOM     13  C   UNL     1      -0.011  -0.319  -0.499  1.00  0.00     0.020 A 
ATOM     14  C   UNL     1      -1.259  -0.836  -2.500  1.00  0.00     0.045 A 
ATOM     15  C   UNL     1      -0.108  -0.895  -1.764  1.00  0.00     0.000 A 
ATOM     16  N   UNL     1      -1.106  -1.463  -3.678  1.00  0.00    -0.361 N 
ATOM     17  C   UNL     1       0.820  -1.593  -2.505  1.00  0.00     0.028 A 
ATOM     18  C   UNL     1       0.165  -1.928  -3.686  1.00  0.00     0.083 A 
ATOM     19  H   UNL     1      -1.818  -1.572  -4.434  1.00  0.00     0.166 HD
ENDBRANCH   1  10
BRANCH   3  20
ATOM     20  N   UNL     1       1.082   2.943   3.517  1.00  0.00    -0.177 NA
BRANCH  20  21
ATOM     21  N   UNL     1       2.310   3.128   2.858  1.00  0.00    -0.323 N 
ATOM     22  H   UNL     1       2.594   2.583   2.017  1.00  0.00     0.179 HD
ATOM     23  H   UNL     1       3.023   3.756   3.289  1.00  0.00     0.179 HD
ENDBRANCH  20  21
ENDBRANCH   3  20
TORSDOF 3


