MODEL 1
REMARK VINA RESULT:      -9.5      0.000      0.000
REMARK SMILES NN(Cc1cc[nH+]cc1)c1cccc2cc3ccccc3cc12
REMARK SMILES IDX 2 1 1 2 3 5 4 6 5 7 9 8 6 9 8 10 7 11 10 13 11 14 23 15
REMARK SMILES IDX 12 16 22 17 14 18 13 19 21 20 15 21 20 22 16 23 19 24 17 25
REMARK SMILES IDX 18 26
REMARK H PARENT 1 3 1 4 7 12
ROOT
ATOM      1  N   UNL     1      44.828 131.134  21.113  1.00  0.00    -0.306 N 
ENDROOT
BRANCH   1   2
ATOM      2  N   UNL     1      46.201 131.149  20.800  1.00  0.00    -0.247 NA
ATOM      3  H   UNL     1      46.714 130.697  21.592  1.00  0.00     0.144 HD
ATOM      4  H   UNL     1      46.353 130.522  19.977  1.00  0.00     0.144 HD
ENDBRANCH   1   2
BRANCH   1   5
ATOM      5  C   UNL     1      44.423 131.134  22.523  1.00  0.00     0.172 C 
BRANCH   5   6
ATOM      6  C   UNL     1      43.984 129.755  22.936  1.00  0.00    -0.015 A 
ATOM      7  C   UNL     1      44.829 128.654  22.741  1.00  0.00     0.076 A 
ATOM      8  C   UNL     1      42.699 129.547  23.458  1.00  0.00     0.076 A 
ATOM      9  C   UNL     1      44.386 127.376  23.089  1.00  0.00     0.306 A 
ATOM     10  C   UNL     1      42.295 128.253  23.794  1.00  0.00     0.306 A 
ATOM     11  N   UNL     1      43.139 127.202  23.606  1.00  0.00    -0.218 N 
ATOM     12  H   UNL     1      42.822 126.239  23.861  1.00  0.00     0.453 HD
ENDBRANCH   5   6
ENDBRANCH   1   5
BRANCH   1  13
ATOM     13  C   UNL     1      43.884 131.604  20.133  1.00  0.00     0.060 A 
ATOM     14  C   UNL     1      42.700 132.217  20.569  1.00  0.00     0.028 A 
ATOM     15  C   UNL     1      44.121 131.442  18.748  1.00  0.00     0.007 A 
ATOM     16  C   UNL     1      41.743 132.644  19.650  1.00  0.00     0.003 A 
ATOM     17  C   UNL     1      45.317 130.877  18.267  1.00  0.00     0.019 A 
ATOM     18  C   UNL     1      43.139 131.876  17.819  1.00  0.00    -0.016 A 
ATOM     19  C   UNL     1      41.955 132.471  18.282  1.00  0.00     0.009 A 
ATOM     20  C   UNL     1      45.529 130.720  16.890  1.00  0.00    -0.018 A 
ATOM     21  C   UNL     1      43.352 131.717  16.442  1.00  0.00     0.017 A 
ATOM     22  C   UNL     1      46.720 130.149  16.412  1.00  0.00     0.009 A 
ATOM     23  C   UNL     1      44.539 131.139  15.971  1.00  0.00    -0.018 A 
ATOM     24  C   UNL     1      46.924 129.994  15.038  1.00  0.00     0.001 A 
ATOM     25  C   UNL     1      44.756 130.979  14.593  1.00  0.00     0.009 A 
ATOM     26  C   UNL     1      45.944 130.408  14.132  1.00  0.00     0.001 A 
ENDBRANCH   1  13
TORSDOF 4
ENDMDL
MODEL 2
REMARK VINA RESULT:      -9.4      0.362      1.055
REMARK SMILES NN(Cc1cc[nH+]cc1)c1cccc2cc3ccccc3cc12
REMARK SMILES IDX 2 1 1 2 3 5 4 6 5 7 9 8 6 9 8 10 7 11 10 13 11 14 23 15
REMARK SMILES IDX 12 16 22 17 14 18 13 19 21 20 15 21 20 22 16 23 19 24 17 25
REMARK SMILES IDX 18 26
REMARK H PARENT 1 3 1 4 7 12
ROOT
ATOM      1  N   UNL     1      44.834 131.308  21.347  1.00  0.00    -0.306 N 
ENDROOT
BRANCH   1   2
ATOM      2  N   UNL     1      46.192 131.613  21.129  1.00  0.00    -0.247 NA
ATOM      3  H   UNL     1      46.262 132.120  20.217  1.00  0.00     0.144 HD
ATOM      4  H   UNL     1      46.488 132.305  21.855  1.00  0.00     0.144 HD
ENDBRANCH   1   2
BRANCH   1   5
ATOM      5  C   UNL     1      44.379 131.042  22.716  1.00  0.00     0.172 C 
BRANCH   5   6
ATOM      6  C   UNL     1      44.106 129.574  22.897  1.00  0.00    -0.015 A 
ATOM      7  C   UNL     1      42.910 129.142  23.485  1.00  0.00     0.076 A 
ATOM      8  C   UNL     1      45.074 128.624  22.540  1.00  0.00     0.076 A 
ATOM      9  C   UNL     1      42.694 127.777  23.686  1.00  0.00     0.306 A 
ATOM     10  C   UNL     1      44.818 127.268  22.757  1.00  0.00     0.306 A 
ATOM     11  N   UNL     1      43.644 126.874  23.319  1.00  0.00    -0.218 N 
ATOM     12  H   UNL     1      43.468 125.856  23.476  1.00  0.00     0.453 HD
ENDBRANCH   5   6
ENDBRANCH   1   5
BRANCH   1  13
ATOM     13  C   UNL     1      43.860 131.728  20.375  1.00  0.00     0.060 A 
ATOM     14  C   UNL     1      42.679 132.343  20.817  1.00  0.00     0.028 A 
ATOM     15  C   UNL     1      44.063 131.516  18.991  1.00  0.00     0.007 A 
ATOM     16  C   UNL     1      41.693 132.723  19.907  1.00  0.00     0.003 A 
ATOM     17  C   UNL     1      45.255 130.948  18.501  1.00  0.00     0.019 A 
ATOM     18  C   UNL     1      43.053 131.902  18.072  1.00  0.00    -0.016 A 
ATOM     19  C   UNL     1      41.873 132.500  18.542  1.00  0.00     0.009 A 
ATOM     20  C   UNL     1      45.434 130.741  17.126  1.00  0.00    -0.018 A 
ATOM     21  C   UNL     1      43.233 131.693  16.697  1.00  0.00     0.017 A 
ATOM     22  C   UNL     1      46.620 130.166  16.640  1.00  0.00     0.009 A 
ATOM     23  C   UNL     1      44.415 131.112  16.218  1.00  0.00    -0.018 A 
ATOM     24  C   UNL     1      46.791 129.961  15.268  1.00  0.00     0.001 A 
ATOM     25  C   UNL     1      44.600 130.902  14.842  1.00  0.00     0.009 A 
ATOM     26  C   UNL     1      45.784 130.328  14.372  1.00  0.00     0.001 A 
ENDBRANCH   1  13
TORSDOF 4
ENDMDL
MODEL 3
REMARK VINA RESULT:      -8.9      1.054      1.406
REMARK SMILES NN(Cc1cc[nH+]cc1)c1cccc2cc3ccccc3cc12
REMARK SMILES IDX 2 1 1 2 3 5 4 6 5 7 9 8 6 9 8 10 7 11 10 13 11 14 23 15
REMARK SMILES IDX 12 16 22 17 14 18 13 19 21 20 15 21 20 22 16 23 19 24 17 25
REMARK SMILES IDX 18 26
REMARK H PARENT 1 3 1 4 7 12
ROOT
ATOM      1  N   UNL     1      45.384 131.328  20.855  1.00  0.00    -0.306 N 
ENDROOT
BRANCH   1   2
ATOM      2  N   UNL     1      46.229 132.339  21.352  1.00  0.00    -0.247 NA
ATOM      3  H   UNL     1      46.731 131.955  22.185  1.00  0.00     0.144 HD
ATOM      4  H   UNL     1      46.972 132.519  20.639  1.00  0.00     0.144 HD
ENDBRANCH   1   2
BRANCH   1   5
ATOM      5  C   UNL     1      45.300 130.056  21.582  1.00  0.00     0.172 C 
BRANCH   5   6
ATOM      6  C   UNL     1      44.270 130.151  22.675  1.00  0.00    -0.015 A 
ATOM      7  C   UNL     1      43.378 129.094  22.902  1.00  0.00     0.076 A 
ATOM      8  C   UNL     1      44.149 131.323  23.435  1.00  0.00     0.076 A 
ATOM      9  C   UNL     1      42.401 129.219  23.891  1.00  0.00     0.306 A 
ATOM     10  C   UNL     1      43.158 131.407  24.416  1.00  0.00     0.306 A 
ATOM     11  N   UNL     1      42.311 130.362  24.625  1.00  0.00    -0.218 N 
ATOM     12  H   UNL     1      41.574 130.441  25.361  1.00  0.00     0.453 HD
ENDBRANCH   5   6
ENDBRANCH   1   5
BRANCH   1  13
ATOM     13  C   UNL     1      44.293 131.692  19.991  1.00  0.00     0.060 A 
ATOM     14  C   UNL     1      43.116 132.202  20.560  1.00  0.00     0.028 A 
ATOM     15  C   UNL     1      44.380 131.530  18.588  1.00  0.00     0.007 A 
ATOM     16  C   UNL     1      42.022 132.523  19.757  1.00  0.00     0.003 A 
ATOM     17  C   UNL     1      45.559 131.069  17.973  1.00  0.00     0.019 A 
ATOM     18  C   UNL     1      43.260 131.856  17.780  1.00  0.00    -0.016 A 
ATOM     19  C   UNL     1      42.088 132.347  18.375  1.00  0.00     0.009 A 
ATOM     20  C   UNL     1      45.622 130.908  16.581  1.00  0.00    -0.018 A 
ATOM     21  C   UNL     1      43.324 131.693  16.388  1.00  0.00     0.017 A 
ATOM     22  C   UNL     1      46.797 130.441  15.970  1.00  0.00     0.009 A 
ATOM     23  C   UNL     1      44.496 131.219  15.783  1.00  0.00    -0.018 A 
ATOM     24  C   UNL     1      46.852 130.282  14.582  1.00  0.00     0.001 A 
ATOM     25  C   UNL     1      44.565 131.056  14.391  1.00  0.00     0.009 A 
ATOM     26  C   UNL     1      45.739 130.588  13.796  1.00  0.00     0.001 A 
ENDBRANCH   1  13
TORSDOF 4
ENDMDL
MODEL 4
REMARK VINA RESULT:      -8.4      1.084      1.482
REMARK SMILES NN(Cc1cc[nH+]cc1)c1cccc2cc3ccccc3cc12
REMARK SMILES IDX 2 1 1 2 3 5 4 6 5 7 9 8 6 9 8 10 7 11 10 13 11 14 23 15
REMARK SMILES IDX 12 16 22 17 14 18 13 19 21 20 15 21 20 22 16 23 19 24 17 25
REMARK SMILES IDX 18 26
REMARK H PARENT 1 3 1 4 7 12
ROOT
ATOM      1  N   UNL     1      45.604 130.823  20.744  1.00  0.00    -0.306 N 
ENDROOT
BRANCH   1   2
ATOM      2  N   UNL     1      46.660 131.691  21.083  1.00  0.00    -0.247 NA
ATOM      3  H   UNL     1      46.848 131.581  22.106  1.00  0.00     0.144 HD
ATOM      4  H   UNL     1      47.525 131.351  20.603  1.00  0.00     0.144 HD
ENDBRANCH   1   2
BRANCH   1   5
ATOM      5  C   UNL     1      45.352 129.651  21.589  1.00  0.00     0.172 C 
BRANCH   5   6
ATOM      6  C   UNL     1      44.319 129.977  22.633  1.00  0.00    -0.015 A 
ATOM      7  C   UNL     1      44.400 131.172  23.362  1.00  0.00     0.076 A 
ATOM      8  C   UNL     1      43.302 129.060  22.936  1.00  0.00     0.076 A 
ATOM      9  C   UNL     1      43.457 131.436  24.358  1.00  0.00     0.306 A 
ATOM     10  C   UNL     1      42.379 129.363  23.939  1.00  0.00     0.306 A 
ATOM     11  N   UNL     1      42.472 130.536  24.623  1.00  0.00    -0.218 N 
ATOM     12  H   UNL     1      41.775 130.747  25.372  1.00  0.00     0.453 HD
ENDBRANCH   5   6
ENDBRANCH   1   5
BRANCH   1  13
ATOM     13  C   UNL     1      44.526 131.321  19.931  1.00  0.00     0.060 A 
ATOM     14  C   UNL     1      43.389 131.850  20.559  1.00  0.00     0.028 A 
ATOM     15  C   UNL     1      44.586 131.268  18.518  1.00  0.00     0.007 A 
ATOM     16  C   UNL     1      42.306 132.300  19.803  1.00  0.00     0.003 A 
ATOM     17  C   UNL     1      45.728 130.791  17.848  1.00  0.00     0.019 A 
ATOM     18  C   UNL     1      43.477 131.725  17.758  1.00  0.00    -0.016 A 
ATOM     19  C   UNL     1      42.344 132.234  18.411  1.00  0.00     0.009 A 
ATOM     20  C   UNL     1      45.765 130.742  16.447  1.00  0.00    -0.018 A 
ATOM     21  C   UNL     1      43.515 131.673  16.356  1.00  0.00     0.017 A 
ATOM     22  C   UNL     1      46.902 130.258  15.780  1.00  0.00     0.009 A 
ATOM     23  C   UNL     1      44.650 131.182  15.696  1.00  0.00    -0.018 A 
ATOM     24  C   UNL     1      46.930 130.210  14.383  1.00  0.00     0.001 A 
ATOM     25  C   UNL     1      44.692 131.130  14.293  1.00  0.00     0.009 A 
ATOM     26  C   UNL     1      45.829 130.644  13.643  1.00  0.00     0.001 A 
ENDBRANCH   1  13
TORSDOF 4
ENDMDL
MODEL 5
REMARK VINA RESULT:      -7.5      1.015      1.323
REMARK SMILES NN(Cc1cc[nH+]cc1)c1cccc2cc3ccccc3cc12
REMARK SMILES IDX 2 1 1 2 3 5 4 6 5 7 9 8 6 9 8 10 7 11 10 13 11 14 23 15
REMARK SMILES IDX 12 16 22 17 14 18 13 19 21 20 15 21 20 22 16 23 19 24 17 25
REMARK SMILES IDX 18 26
REMARK H PARENT 1 3 1 4 7 12
ROOT
ATOM      1  N   UNL     1      44.591 130.932  22.169  1.00  0.00    -0.306 N 
ENDROOT
BRANCH   1   2
ATOM      2  N   UNL     1      44.720 131.439  23.477  1.00  0.00    -0.247 NA
ATOM      3  H   UNL     1      45.470 130.891  23.959  1.00  0.00     0.144 HD
ATOM      4  H   UNL     1      45.088 132.415  23.412  1.00  0.00     0.144 HD
ENDBRANCH   1   2
BRANCH   1   5
ATOM      5  C   UNL     1      44.978 129.542  21.907  1.00  0.00     0.172 C 
BRANCH   5   6
ATOM      6  C   UNL     1      44.305 128.622  22.889  1.00  0.00    -0.015 A 
ATOM      7  C   UNL     1      44.818 127.340  23.126  1.00  0.00     0.076 A 
ATOM      8  C   UNL     1      43.119 129.012  23.528  1.00  0.00     0.076 A 
ATOM      9  C   UNL     1      44.154 126.484  24.007  1.00  0.00     0.306 A 
ATOM     10  C   UNL     1      42.486 128.126  24.402  1.00  0.00     0.306 A 
ATOM     11  N   UNL     1      43.011 126.890  24.624  1.00  0.00    -0.218 N 
ATOM     12  H   UNL     1      42.525 126.238  25.280  1.00  0.00     0.453 HD
ENDBRANCH   5   6
ENDBRANCH   1   5
BRANCH   1  13
ATOM     13  C   UNL     1      43.668 131.564  21.264  1.00  0.00     0.060 A 
ATOM     14  C   UNL     1      42.556 132.239  21.789  1.00  0.00     0.028 A 
ATOM     15  C   UNL     1      43.852 131.501  19.863  1.00  0.00     0.007 A 
ATOM     16  C   UNL     1      41.616 132.825  20.941  1.00  0.00     0.003 A 
ATOM     17  C   UNL     1      44.980 130.877  19.297  1.00  0.00     0.019 A 
ATOM     18  C   UNL     1      42.889 132.097  19.007  1.00  0.00    -0.016 A 
ATOM     19  C   UNL     1      41.776 132.751  19.557  1.00  0.00     0.009 A 
ATOM     20  C   UNL     1      45.141 130.820  17.905  1.00  0.00    -0.018 A 
ATOM     21  C   UNL     1      43.051 132.037  17.615  1.00  0.00     0.017 A 
ATOM     22  C   UNL     1      46.262 130.190  17.342  1.00  0.00     0.009 A 
ATOM     23  C   UNL     1      44.168 131.400  17.058  1.00  0.00    -0.018 A 
ATOM     24  C   UNL     1      46.415 130.135  15.954  1.00  0.00     0.001 A 
ATOM     25  C   UNL     1      44.334 131.339  15.665  1.00  0.00     0.009 A 
ATOM     26  C   UNL     1      45.453 130.708  15.118  1.00  0.00     0.001 A 
ENDBRANCH   1  13
TORSDOF 4
ENDMDL
MODEL 6
REMARK VINA RESULT:      -7.3      1.033      1.569
REMARK SMILES NN(Cc1cc[nH+]cc1)c1cccc2cc3ccccc3cc12
REMARK SMILES IDX 2 1 1 2 3 5 4 6 5 7 9 8 6 9 8 10 7 11 10 13 11 14 23 15
REMARK SMILES IDX 12 16 22 17 14 18 13 19 21 20 15 21 20 22 16 23 19 24 17 25
REMARK SMILES IDX 18 26
REMARK H PARENT 1 3 1 4 7 12
ROOT
ATOM      1  N   UNL     1      44.700 130.948  22.120  1.00  0.00    -0.306 N 
ENDROOT
BRANCH   1   2
ATOM      2  N   UNL     1      44.979 131.569  23.353  1.00  0.00    -0.247 NA
ATOM      3  H   UNL     1      45.349 130.837  24.002  1.00  0.00     0.144 HD
ATOM      4  H   UNL     1      45.771 132.236  23.207  1.00  0.00     0.144 HD
ENDBRANCH   1   2
BRANCH   1   5
ATOM      5  C   UNL     1      44.963 129.512  21.975  1.00  0.00     0.172 C 
BRANCH   5   6
ATOM      6  C   UNL     1      44.049 128.725  22.874  1.00  0.00    -0.015 A 
ATOM      7  C   UNL     1      42.675 128.999  22.903  1.00  0.00     0.076 A 
ATOM      8  C   UNL     1      44.571 127.754  23.741  1.00  0.00     0.076 A 
ATOM      9  C   UNL     1      41.849 128.288  23.777  1.00  0.00     0.306 A 
ATOM     10  C   UNL     1      43.710 127.065  24.599  1.00  0.00     0.306 A 
ATOM     11  N   UNL     1      42.378 127.341  24.600  1.00  0.00    -0.218 N 
ATOM     12  H   UNL     1      41.748 126.819  25.249  1.00  0.00     0.453 HD
ENDBRANCH   5   6
ENDBRANCH   1   5
BRANCH   1  13
ATOM     13  C   UNL     1      43.748 131.560  21.231  1.00  0.00     0.060 A 
ATOM     14  C   UNL     1      42.630 132.210  21.775  1.00  0.00     0.028 A 
ATOM     15  C   UNL     1      43.910 131.502  19.827  1.00  0.00     0.007 A 
ATOM     16  C   UNL     1      41.663 132.775  20.944  1.00  0.00     0.003 A 
ATOM     17  C   UNL     1      45.041 130.903  19.241  1.00  0.00     0.019 A 
ATOM     18  C   UNL     1      42.919 132.076  18.988  1.00  0.00    -0.016 A 
ATOM     19  C   UNL     1      41.801 132.705  19.557  1.00  0.00     0.009 A 
ATOM     20  C   UNL     1      45.180 130.850  17.847  1.00  0.00    -0.018 A 
ATOM     21  C   UNL     1      43.058 132.021  17.594  1.00  0.00     0.017 A 
ATOM     22  C   UNL     1      46.305 130.246  17.264  1.00  0.00     0.009 A 
ATOM     23  C   UNL     1      44.180 131.409  17.017  1.00  0.00    -0.018 A 
ATOM     24  C   UNL     1      46.436 130.195  15.874  1.00  0.00     0.001 A 
ATOM     25  C   UNL     1      44.323 131.353  15.622  1.00  0.00     0.009 A 
ATOM     26  C   UNL     1      45.447 130.747  15.055  1.00  0.00     0.001 A 
ENDBRANCH   1  13
TORSDOF 4
ENDMDL
MODEL 7
REMARK VINA RESULT:      -6.8      2.157      6.675
REMARK SMILES NN(Cc1cc[nH+]cc1)c1cccc2cc3ccccc3cc12
REMARK SMILES IDX 2 1 1 2 3 5 4 6 5 7 9 8 6 9 8 10 7 11 10 13 11 14 23 15
REMARK SMILES IDX 12 16 22 17 14 18 13 19 21 20 15 21 20 22 16 23 19 24 17 25
REMARK SMILES IDX 18 26
REMARK H PARENT 1 3 1 4 7 12
ROOT
ATOM      1  N   UNL     1      44.206 130.720  22.691  1.00  0.00    -0.306 N 
ENDROOT
BRANCH   1   2
ATOM      2  N   UNL     1      44.604 131.761  23.553  1.00  0.00    -0.247 NA
ATOM      3  H   UNL     1      44.554 132.657  23.014  1.00  0.00     0.144 HD
ATOM      4  H   UNL     1      43.884 131.851  24.306  1.00  0.00     0.144 HD
ENDBRANCH   1   2
BRANCH   1   5
ATOM      5  C   UNL     1      45.007 130.449  21.493  1.00  0.00     0.172 C 
BRANCH   5   6
ATOM      6  C   UNL     1      44.348 131.053  20.282  1.00  0.00    -0.015 A 
ATOM      7  C   UNL     1      42.998 131.428  20.323  1.00  0.00     0.076 A 
ATOM      8  C   UNL     1      45.058 131.185  19.080  1.00  0.00     0.076 A 
ATOM      9  C   UNL     1      42.393 131.945  19.175  1.00  0.00     0.306 A 
ATOM     10  C   UNL     1      44.415 131.708  17.956  1.00  0.00     0.306 A 
ATOM     11  N   UNL     1      43.107 132.076  18.025  1.00  0.00    -0.218 N 
ATOM     12  H   UNL     1      42.640 132.463  17.174  1.00  0.00     0.453 HD
ENDBRANCH   5   6
ENDBRANCH   1   5
BRANCH   1  13
ATOM     13  C   UNL     1      43.376 129.665  23.210  1.00  0.00     0.060 A 
ATOM     14  C   UNL     1      42.127 129.990  23.759  1.00  0.00     0.028 A 
ATOM     15  C   UNL     1      43.804 128.316  23.191  1.00  0.00     0.007 A 
ATOM     16  C   UNL     1      41.315 128.999  24.311  1.00  0.00     0.003 A 
ATOM     17  C   UNL     1      45.028 127.941  22.605  1.00  0.00     0.019 A 
ATOM     18  C   UNL     1      42.974 127.315  23.759  1.00  0.00    -0.016 A 
ATOM     19  C   UNL     1      41.736 127.669  24.318  1.00  0.00     0.009 A 
ATOM     20  C   UNL     1      45.437 126.600  22.603  1.00  0.00    -0.018 A 
ATOM     21  C   UNL     1      43.385 125.974  23.758  1.00  0.00     0.017 A 
ATOM     22  C   UNL     1      46.662 126.228  22.026  1.00  0.00     0.009 A 
ATOM     23  C   UNL     1      44.612 125.610  23.186  1.00  0.00    -0.018 A 
ATOM     24  C   UNL     1      47.064 124.890  22.029  1.00  0.00     0.001 A 
ATOM     25  C   UNL     1      45.026 124.269  23.182  1.00  0.00     0.009 A 
ATOM     26  C   UNL     1      46.248 123.913  22.605  1.00  0.00     0.001 A 
ENDBRANCH   1  13
TORSDOF 4
ENDMDL
MODEL 8
REMARK VINA RESULT:      -6.5      1.955      6.720
REMARK SMILES NN(Cc1cc[nH+]cc1)c1cccc2cc3ccccc3cc12
REMARK SMILES IDX 2 1 1 2 3 5 4 6 5 7 9 8 6 9 8 10 7 11 10 13 11 14 23 15
REMARK SMILES IDX 12 16 22 17 14 18 13 19 21 20 15 21 20 22 16 23 19 24 17 25
REMARK SMILES IDX 18 26
REMARK H PARENT 1 3 1 4 7 12
ROOT
ATOM      1  N   UNL     1      45.035 131.277  18.913  1.00  0.00    -0.306 N 
ENDROOT
BRANCH   1   2
ATOM      2  N   UNL     1      45.989 130.241  18.886  1.00  0.00    -0.247 NA
ATOM      3  H   UNL     1      46.784 130.556  18.284  1.00  0.00     0.144 HD
ATOM      4  H   UNL     1      46.389 130.145  19.847  1.00  0.00     0.144 HD
ENDBRANCH   1   2
BRANCH   1   5
ATOM      5  C   UNL     1      44.588 131.862  17.645  1.00  0.00     0.172 C 
BRANCH   5   6
ATOM      6  C   UNL     1      45.305 131.212  16.493  1.00  0.00    -0.015 A 
ATOM      7  C   UNL     1      46.087 131.981  15.621  1.00  0.00     0.076 A 
ATOM      8  C   UNL     1      45.146 129.842  16.240  1.00  0.00     0.076 A 
ATOM      9  C   UNL     1      46.709 131.368  14.531  1.00  0.00     0.306 A 
ATOM     10  C   UNL     1      45.785 129.268  15.139  1.00  0.00     0.306 A 
ATOM     11  N   UNL     1      46.550 130.034  14.314  1.00  0.00    -0.218 N 
ATOM     12  H   UNL     1      47.020 129.590  13.494  1.00  0.00     0.453 HD
ENDBRANCH   5   6
ENDBRANCH   1   5
BRANCH   1  13
ATOM     13  C   UNL     1      44.177 131.404  20.062  1.00  0.00     0.060 A 
ATOM     14  C   UNL     1      43.270 132.473  20.118  1.00  0.00     0.028 A 
ATOM     15  C   UNL     1      44.246 130.487  21.137  1.00  0.00     0.007 A 
ATOM     16  C   UNL     1      42.455 132.654  21.235  1.00  0.00     0.003 A 
ATOM     17  C   UNL     1      45.106 129.373  21.099  1.00  0.00     0.019 A 
ATOM     18  C   UNL     1      43.415 130.681  22.271  1.00  0.00    -0.016 A 
ATOM     19  C   UNL     1      42.528 131.768  22.310  1.00  0.00     0.009 A 
ATOM     20  C   UNL     1      45.164 128.479  22.177  1.00  0.00    -0.018 A 
ATOM     21  C   UNL     1      43.475 129.786  23.350  1.00  0.00     0.017 A 
ATOM     22  C   UNL     1      46.029 127.373  22.142  1.00  0.00     0.009 A 
ATOM     23  C   UNL     1      44.346 128.688  23.312  1.00  0.00    -0.018 A 
ATOM     24  C   UNL     1      46.083 126.487  23.221  1.00  0.00     0.001 A 
ATOM     25  C   UNL     1      44.408 127.790  24.390  1.00  0.00     0.009 A 
ATOM     26  C   UNL     1      45.275 126.695  24.341  1.00  0.00     0.001 A 
ENDBRANCH   1  13
TORSDOF 4
ENDMDL


