MODEL 1
REMARK VINA RESULT:      -9.0      0.000      0.000
REMARK SMILES C[C@H]1CC[C@H](c2ccc3[nH+]cccc3c2)[C@@H](F)N1C(=O)Oc1ccc([N+](=O)[O-])cc1
REMARK SMILES IDX 19 1 20 2 18 3 2 4 3 5 4 6 16 7 5 8 1 9 17 10 6 11 7 12
REMARK SMILES IDX 15 13 8 14 14 15 9 16 13 17 10 18 12 19 11 20 21 22 22 23
REMARK SMILES IDX 23 24 30 25 24 26 29 27 25 28 26 29 27 30 28 31
REMARK H PARENT 10 21
ROOT
ATOM      1  C   UNL     1      45.290 130.282  21.027  1.00  0.00     0.417 C 
ATOM      2  O   UNL     1      46.173 129.790  20.271  1.00  0.00    -0.224 OA
ENDROOT
BRANCH   1   3
ATOM      3  N   UNL     1      44.436 131.341  20.545  1.00  0.00    -0.274 N 
ATOM      4  C   UNL     1      42.977 131.274  20.766  1.00  0.00     0.088 C 
ATOM      5  C   UNL     1      42.208 132.075  19.692  1.00  0.00     0.026 C 
ATOM      6  C   UNL     1      42.842 131.862  18.312  1.00  0.00     0.015 C 
ATOM      7  C   UNL     1      44.979 132.395  19.675  1.00  0.00     0.275 C 
ATOM      8  C   UNL     1      44.324 132.331  18.272  1.00  0.00     0.075 C 
ATOM      9  C   UNL     1      42.627 131.776  22.170  1.00  0.00     0.031 C 
ATOM     10  F   UNL     1      44.726 133.629  20.253  1.00  0.00    -0.223 F 
BRANCH   8  11
ATOM     11  C   UNL     1      45.159 131.480  17.328  1.00  0.00    -0.039 A 
ATOM     12  C   UNL     1      45.298 130.100  17.564  1.00  0.00     0.011 A 
ATOM     13  C   UNL     1      45.737 132.034  16.169  1.00  0.00     0.019 A 
ATOM     14  C   UNL     1      45.995 129.288  16.665  1.00  0.00     0.080 A 
ATOM     15  C   UNL     1      46.435 131.223  15.263  1.00  0.00     0.047 A 
ATOM     16  C   UNL     1      46.562 129.839  15.509  1.00  0.00     0.210 A 
ATOM     17  C   UNL     1      47.008 131.763  14.105  1.00  0.00     0.021 A 
ATOM     18  N   UNL     1      47.229 129.049  14.617  1.00  0.00    -0.211 N 
ATOM     19  C   UNL     1      47.678 130.931  13.209  1.00  0.00     0.071 A 
ATOM     20  C   UNL     1      47.780 129.565  13.484  1.00  0.00     0.306 A 
ATOM     21  H   UNL     1      47.325 128.022  14.793  1.00  0.00     0.453 HD
ENDBRANCH   8  11
ENDBRANCH   1   3
BRANCH   1  22
ATOM     22  O   UNL     1      45.130 129.794  22.330  1.00  0.00    -0.410 OA
BRANCH  22  23
ATOM     23  C   UNL     1      44.641 128.524  22.671  1.00  0.00     0.133 A 
ATOM     24  C   UNL     1      43.478 128.343  23.441  1.00  0.00     0.054 A 
ATOM     25  C   UNL     1      45.312 127.400  22.177  1.00  0.00     0.054 A 
ATOM     26  C   UNL     1      43.007 127.057  23.717  1.00  0.00     0.089 A 
ATOM     27  C   UNL     1      44.844 126.113  22.454  1.00  0.00     0.089 A 
ATOM     28  C   UNL     1      43.685 125.927  23.230  1.00  0.00     0.269 A 
BRANCH  28  29
ATOM     29  N   UNL     1      43.196 124.604  23.515  1.00  0.00     0.062 N 
ATOM     30  O   UNL     1      41.977 124.397  23.682  1.00  0.00    -0.258 OA
ATOM     31  O   UNL     1      44.068 123.542  23.605  1.00  0.00    -0.258 OA
ENDBRANCH  28  29
ENDBRANCH  22  23
ENDBRANCH   1  22
TORSDOF 5
ENDMDL


