REMARK SMILES CCOC(=O)n1cc(F)cc(N)/c1=N\c1c[nH]c2[nH+]ccc-2c1
REMARK SMILES IDX 13 1 11 2 10 3 8 4 9 5 7 6 6 7 14 8 15 9 23 10 22 11 16 12
REMARK SMILES IDX 21 13 18 14 17 15 20 16 19 17 12 20 4 23 5 24 3 25 2 26 1 27
REMARK H PARENT 17 18 19 19 12 21 12 22
ROOT
ATOM      1  C   UNL     1      -0.655   0.780   0.492  1.00  0.00     0.166 A 
ATOM      2  C   UNL     1      -0.197   2.122   0.329  1.00  0.00     0.079 A 
ATOM      3  C   UNL     1      -1.123   3.119   0.010  1.00  0.00     0.070 A 
ATOM      4  C   UNL     1      -2.475   2.823  -0.060  1.00  0.00     0.142 A 
ATOM      5  F   UNL     1      -3.373   3.798  -0.346  1.00  0.00    -0.205 F 
ATOM      6  C   UNL     1      -2.908   1.532   0.221  1.00  0.00     0.139 A 
ATOM      7  N   UNL     1      -2.016   0.536   0.512  1.00  0.00    -0.232 N 
ENDROOT
BRANCH   1   8
ATOM      8  N   UNL     1       0.164  -0.240   0.580  1.00  0.00    -0.225 NA
BRANCH   8   9
ATOM      9  C   UNL     1       1.571  -0.316   0.314  1.00  0.00     0.105 A 
ATOM     10  C   UNL     1       2.105   0.197  -0.892  1.00  0.00     0.049 A 
ATOM     11  C   UNL     1       3.464   0.033  -1.105  1.00  0.00     0.070 A 
ATOM     12  C   UNL     1       2.407  -1.022   1.220  1.00  0.00     0.226 A 
ATOM     13  C   UNL     1       4.308   0.389  -2.132  1.00  0.00     0.060 A 
ATOM     14  C   UNL     1       4.269  -0.651  -0.150  1.00  0.00     0.284 A 
ATOM     15  N   UNL     1       3.747  -1.174   0.983  1.00  0.00    -0.245 N 
ATOM     16  C   UNL     1       5.571  -0.085  -1.763  1.00  0.00     0.198 A 
ATOM     17  N   UNL     1       5.543  -0.716  -0.563  1.00  0.00    -0.247 N 
ATOM     18  H   UNL     1       4.351  -1.688   1.662  1.00  0.00     0.312 HD
ATOM     19  H   UNL     1       6.345  -1.166  -0.069  1.00  0.00     0.311 HD
ENDBRANCH   8   9
ENDBRANCH   1   8
BRANCH   2  20
ATOM     20  N   UNL     1       1.146   2.526   0.625  1.00  0.00    -0.396 N 
ATOM     21  H   UNL     1       1.724   2.012   1.326  1.00  0.00     0.156 HD
ATOM     22  H   UNL     1       1.498   3.458   0.313  1.00  0.00     0.156 HD
ENDBRANCH   2  20
BRANCH   7  23
ATOM     23  C   UNL     1      -2.550  -0.779   0.792  1.00  0.00     0.419 C 
ATOM     24  O   UNL     1      -1.923  -1.578   1.543  1.00  0.00    -0.223 OA
BRANCH  23  25
ATOM     25  O   UNL     1      -3.784  -1.161   0.250  1.00  0.00    -0.449 OA
BRANCH  25  26
ATOM     26  C   UNL     1      -4.372  -2.433   0.496  1.00  0.00     0.231 C 
ATOM     27  C   UNL     1      -5.703  -2.528  -0.234  1.00  0.00     0.049 C 
ENDBRANCH  25  26
ENDBRANCH  23  25
ENDBRANCH   7  23
TORSDOF 6


