MODEL 1
REMARK VINA RESULT:      -8.7      0.000      0.000
REMARK SMILES Nc1cccc(Nc2cc(F)cc3cc[nH]c23)c1O
REMARK SMILES IDX 2 1 3 2 4 3 5 4 6 5 18 6 1 7 19 10 7 12 8 14 9 15 17 16
REMARK SMILES IDX 10 17 16 18 13 19 12 20 15 21 14 22 11 23
REMARK H PARENT 1 8 1 9 19 11 7 13 16 24
ROOT
ATOM      1  C   UNL     1      47.124 129.660  14.293  1.00  0.00     0.076 A 
ATOM      2  C   UNL     1      47.608 130.878  13.793  1.00  0.00     0.029 A 
ATOM      3  C   UNL     1      47.017 132.084  14.164  1.00  0.00     0.005 A 
ATOM      4  C   UNL     1      45.933 132.093  15.037  1.00  0.00     0.030 A 
ATOM      5  C   UNL     1      45.410 130.887  15.536  1.00  0.00     0.083 A 
ATOM      6  C   UNL     1      46.006 129.663  15.167  1.00  0.00     0.162 A 
ENDROOT
BRANCH   1   7
ATOM      7  N   UNL     1      47.790 128.449  13.908  1.00  0.00    -0.396 N 
ATOM      8  H   UNL     1      48.327 128.407  13.014  1.00  0.00     0.156 HD
ATOM      9  H   UNL     1      47.829 127.604  14.515  1.00  0.00     0.156 HD
ENDBRANCH   1   7
BRANCH   6  10
ATOM     10  O   UNL     1      45.450 128.482  15.666  1.00  0.00    -0.504 OA
ATOM     11  H   UNL     1      45.526 128.178  16.625  1.00  0.00     0.293 HD
ENDBRANCH   6  10
BRANCH   5  12
ATOM     12  N   UNL     1      44.294 130.891  16.446  1.00  0.00    -0.351 N 
ATOM     13  H   UNL     1      43.361 130.582  16.088  1.00  0.00     0.167 HD
BRANCH  12  14
ATOM     14  C   UNL     1      44.409 131.148  17.854  1.00  0.00     0.066 A 
ATOM     15  C   UNL     1      45.562 130.741  18.555  1.00  0.00     0.067 A 
ATOM     16  C   UNL     1      43.386 131.768  18.591  1.00  0.00     0.069 A 
ATOM     17  C   UNL     1      45.689 130.990  19.939  1.00  0.00     0.126 A 
ATOM     18  N   UNL     1      42.176 132.168  18.162  1.00  0.00    -0.359 N 
ATOM     19  C   UNL     1      43.519 132.004  19.936  1.00  0.00     0.004 A 
ATOM     20  C   UNL     1      44.659 131.634  20.644  1.00  0.00     0.049 A 
ATOM     21  C   UNL     1      41.545 132.678  19.245  1.00  0.00     0.083 A 
ATOM     22  C   UNL     1      42.353 132.594  20.372  1.00  0.00     0.028 A 
ATOM     23  F   UNL     1      46.812 130.601  20.593  1.00  0.00    -0.207 F 
ATOM     24  H   UNL     1      41.776 132.085  17.201  1.00  0.00     0.166 HD
ENDBRANCH  12  14
ENDBRANCH   5  12
TORSDOF 4
ENDMDL
MODEL 2
REMARK VINA RESULT:      -8.4      1.432      1.840
REMARK SMILES Nc1cccc(Nc2cc(F)cc3cc[nH]c23)c1O
REMARK SMILES IDX 2 1 3 2 4 3 5 4 6 5 18 6 1 7 19 10 7 12 8 14 9 15 17 16
REMARK SMILES IDX 10 17 16 18 13 19 12 20 15 21 14 22 11 23
REMARK H PARENT 1 8 1 9 19 11 7 13 16 24
ROOT
ATOM      1  C   UNL     1      46.944 130.925  14.240  1.00  0.00     0.076 A 
ATOM      2  C   UNL     1      46.901 129.523  14.196  1.00  0.00     0.029 A 
ATOM      3  C   UNL     1      46.015 128.813  15.004  1.00  0.00     0.005 A 
ATOM      4  C   UNL     1      45.162 129.490  15.872  1.00  0.00     0.030 A 
ATOM      5  C   UNL     1      45.199 130.893  15.955  1.00  0.00     0.083 A 
ATOM      6  C   UNL     1      46.090 131.617  15.137  1.00  0.00     0.162 A 
ENDROOT
BRANCH   1   7
ATOM      7  N   UNL     1      47.847 131.609  13.362  1.00  0.00    -0.396 N 
ATOM      8  H   UNL     1      48.828 131.269  13.248  1.00  0.00     0.156 HD
ATOM      9  H   UNL     1      47.559 132.409  12.760  1.00  0.00     0.156 HD
ENDBRANCH   1   7
BRANCH   6  10
ATOM     10  O   UNL     1      46.114 133.010  15.259  1.00  0.00    -0.504 OA
ATOM     11  H   UNL     1      46.136 133.504  16.139  1.00  0.00     0.293 HD
ENDBRANCH   6  10
BRANCH   5  12
ATOM     12  N   UNL     1      44.313 131.599  16.845  1.00  0.00    -0.351 N 
ATOM     13  H   UNL     1      43.518 132.137  16.431  1.00  0.00     0.167 HD
BRANCH  12  14
ATOM     14  C   UNL     1      44.360 131.488  18.276  1.00  0.00     0.066 A 
ATOM     15  C   UNL     1      45.426 130.806  18.898  1.00  0.00     0.067 A 
ATOM     16  C   UNL     1      43.351 132.006  19.104  1.00  0.00     0.069 A 
ATOM     17  C   UNL     1      45.486 130.693  20.304  1.00  0.00     0.126 A 
ATOM     18  N   UNL     1      42.209 132.619  18.741  1.00  0.00    -0.359 N 
ATOM     19  C   UNL     1      43.417 131.889  20.469  1.00  0.00     0.004 A 
ATOM     20  C   UNL     1      44.473 131.243  21.107  1.00  0.00     0.049 A 
ATOM     21  C   UNL     1      41.558 132.908  19.891  1.00  0.00     0.083 A 
ATOM     22  C   UNL     1      42.282 132.468  20.993  1.00  0.00     0.028 A 
ATOM     23  F   UNL     1      46.526 130.043  20.883  1.00  0.00    -0.207 F 
ATOM     24  H   UNL     1      41.867 132.817  17.775  1.00  0.00     0.166 HD
ENDBRANCH  12  14
ENDBRANCH   5  12
TORSDOF 4
ENDMDL
MODEL 3
REMARK VINA RESULT:      -8.1      2.737      6.364
REMARK SMILES Nc1cccc(Nc2cc(F)cc3cc[nH]c23)c1O
REMARK SMILES IDX 2 1 3 2 4 3 5 4 6 5 18 6 1 7 19 10 7 12 8 14 9 15 17 16
REMARK SMILES IDX 10 17 16 18 13 19 12 20 15 21 14 22 11 23
REMARK H PARENT 1 8 1 9 19 11 7 13 16 24
ROOT
ATOM      1  C   UNL     1      44.275 131.211  21.468  1.00  0.00     0.076 A 
ATOM      2  C   UNL     1      43.101 131.903  21.133  1.00  0.00     0.029 A 
ATOM      3  C   UNL     1      42.792 132.178  19.802  1.00  0.00     0.005 A 
ATOM      4  C   UNL     1      43.652 131.770  18.786  1.00  0.00     0.030 A 
ATOM      5  C   UNL     1      44.848 131.097  19.092  1.00  0.00     0.083 A 
ATOM      6  C   UNL     1      45.164 130.812  20.436  1.00  0.00     0.162 A 
ENDROOT
BRANCH   1   7
ATOM      7  N   UNL     1      44.527 130.921  22.849  1.00  0.00    -0.396 N 
ATOM      8  H   UNL     1      43.970 131.394  23.596  1.00  0.00     0.156 HD
ATOM      9  H   UNL     1      45.206 130.197  23.164  1.00  0.00     0.156 HD
ENDBRANCH   1   7
BRANCH   6  10
ATOM     10  O   UNL     1      46.369 130.158  20.707  1.00  0.00    -0.504 OA
ATOM     11  H   UNL     1      47.140 130.095  20.058  1.00  0.00     0.293 HD
ENDBRANCH   6  10
BRANCH   5  12
ATOM     12  N   UNL     1      45.737 130.666  18.044  1.00  0.00    -0.351 N 
ATOM     13  H   UNL     1      46.581 130.108  18.306  1.00  0.00     0.167 HD
BRANCH  12  14
ATOM     14  C   UNL     1      45.460 130.825  16.643  1.00  0.00     0.066 A 
ATOM     15  C   UNL     1      44.241 131.397  16.224  1.00  0.00     0.067 A 
ATOM     16  C   UNL     1      46.350 130.391  15.647  1.00  0.00     0.069 A 
ATOM     17  C   UNL     1      43.958 131.561  14.850  1.00  0.00     0.126 A 
ATOM     18  N   UNL     1      47.524 129.752  15.800  1.00  0.00    -0.359 N 
ATOM     19  C   UNL     1      46.065 130.554  14.315  1.00  0.00     0.004 A 
ATOM     20  C   UNL     1      44.880 131.140  13.878  1.00  0.00     0.049 A 
ATOM     21  C   UNL     1      47.992 129.526  14.551  1.00  0.00     0.083 A 
ATOM     22  C   UNL     1      47.108 130.013  13.596  1.00  0.00     0.028 A 
ATOM     23  F   UNL     1      42.786 132.125  14.468  1.00  0.00    -0.207 F 
ATOM     24  H   UNL     1      47.983 129.459  16.691  1.00  0.00     0.166 HD
ENDBRANCH  12  14
ENDBRANCH   5  12
TORSDOF 4
ENDMDL
MODEL 4
REMARK VINA RESULT:      -7.8      1.710      2.611
REMARK SMILES Nc1cccc(Nc2cc(F)cc3cc[nH]c23)c1O
REMARK SMILES IDX 2 1 3 2 4 3 5 4 6 5 18 6 1 7 19 10 7 12 8 14 9 15 17 16
REMARK SMILES IDX 10 17 16 18 13 19 12 20 15 21 14 22 11 23
REMARK H PARENT 1 8 1 9 19 11 7 13 16 24
ROOT
ATOM      1  C   UNL     1      46.914 129.877  14.515  1.00  0.00     0.076 A 
ATOM      2  C   UNL     1      47.330 131.183  14.214  1.00  0.00     0.029 A 
ATOM      3  C   UNL     1      46.613 132.284  14.680  1.00  0.00     0.005 A 
ATOM      4  C   UNL     1      45.467 132.097  15.449  1.00  0.00     0.030 A 
ATOM      5  C   UNL     1      45.012 130.801  15.747  1.00  0.00     0.083 A 
ATOM      6  C   UNL     1      45.735 129.684  15.281  1.00  0.00     0.162 A 
ENDROOT
BRANCH   1   7
ATOM      7  N   UNL     1      47.707 128.781  14.042  1.00  0.00    -0.396 N 
ATOM      8  H   UNL     1      47.753 128.567  13.021  1.00  0.00     0.156 HD
ATOM      9  H   UNL     1      48.314 128.207  14.665  1.00  0.00     0.156 HD
ENDBRANCH   1   7
BRANCH   6  10
ATOM     10  O   UNL     1      45.245 128.409  15.579  1.00  0.00    -0.504 OA
ATOM     11  H   UNL     1      45.247 127.633  14.934  1.00  0.00     0.293 HD
ENDBRANCH   6  10
BRANCH   5  12
ATOM     12  N   UNL     1      43.832 130.603  16.549  1.00  0.00    -0.351 N 
ATOM     13  H   UNL     1      43.120 129.912  16.222  1.00  0.00     0.167 HD
BRANCH  12  14
ATOM     14  C   UNL     1      43.641 131.185  17.848  1.00  0.00     0.066 A 
ATOM     15  C   UNL     1      42.473 131.923  18.127  1.00  0.00     0.067 A 
ATOM     16  C   UNL     1      44.602 131.083  18.867  1.00  0.00     0.069 A 
ATOM     17  C   UNL     1      42.270 132.497  19.402  1.00  0.00     0.126 A 
ATOM     18  N   UNL     1      45.816 130.503  18.812  1.00  0.00    -0.359 N 
ATOM     19  C   UNL     1      44.397 131.645  20.101  1.00  0.00     0.004 A 
ATOM     20  C   UNL     1      43.240 132.357  20.408  1.00  0.00     0.049 A 
ATOM     21  C   UNL     1      46.374 130.688  20.030  1.00  0.00     0.083 A 
ATOM     22  C   UNL     1      45.517 131.397  20.864  1.00  0.00     0.028 A 
ATOM     23  F   UNL     1      41.134 133.193  19.653  1.00  0.00    -0.207 F 
ATOM     24  H   UNL     1      46.263 130.028  17.997  1.00  0.00     0.166 HD
ENDBRANCH  12  14
ENDBRANCH   5  12
TORSDOF 4
ENDMDL
MODEL 5
REMARK VINA RESULT:      -7.2      2.389      3.143
REMARK SMILES Nc1cccc(Nc2cc(F)cc3cc[nH]c23)c1O
REMARK SMILES IDX 2 1 3 2 4 3 5 4 6 5 18 6 1 7 19 10 7 12 8 14 9 15 17 16
REMARK SMILES IDX 10 17 16 18 13 19 12 20 15 21 14 22 11 23
REMARK H PARENT 1 8 1 9 19 11 7 13 16 24
ROOT
ATOM      1  C   UNL     1      45.997 130.445  14.728  1.00  0.00     0.076 A 
ATOM      2  C   UNL     1      44.847 131.089  14.249  1.00  0.00     0.029 A 
ATOM      3  C   UNL     1      43.925 131.651  15.130  1.00  0.00     0.005 A 
ATOM      4  C   UNL     1      44.136 131.574  16.505  1.00  0.00     0.030 A 
ATOM      5  C   UNL     1      45.266 130.913  17.017  1.00  0.00     0.083 A 
ATOM      6  C   UNL     1      46.204 130.347  16.129  1.00  0.00     0.162 A 
ENDROOT
BRANCH   1   7
ATOM      7  N   UNL     1      46.931 129.916  13.778  1.00  0.00    -0.396 N 
ATOM      8  H   UNL     1      47.856 130.381  13.637  1.00  0.00     0.156 HD
ATOM      9  H   UNL     1      46.770 129.032  13.252  1.00  0.00     0.156 HD
ENDBRANCH   1   7
BRANCH   6  10
ATOM     10  O   UNL     1      47.307 129.681  16.671  1.00  0.00    -0.504 OA
ATOM     11  H   UNL     1      47.662 129.833  17.604  1.00  0.00     0.293 HD
ENDBRANCH   6  10
BRANCH   5  12
ATOM     12  N   UNL     1      45.492 130.838  18.437  1.00  0.00    -0.351 N 
ATOM     13  H   UNL     1      46.456 130.617  18.775  1.00  0.00     0.167 HD
BRANCH  12  14
ATOM     14  C   UNL     1      44.512 131.197  19.424  1.00  0.00     0.066 A 
ATOM     15  C   UNL     1      43.544 132.180  19.134  1.00  0.00     0.067 A 
ATOM     16  C   UNL     1      44.496 130.629  20.708  1.00  0.00     0.069 A 
ATOM     17  C   UNL     1      42.573 132.539  20.095  1.00  0.00     0.126 A 
ATOM     18  N   UNL     1      45.357 129.740  21.236  1.00  0.00    -0.359 N 
ATOM     19  C   UNL     1      43.549 130.986  21.635  1.00  0.00     0.004 A 
ATOM     20  C   UNL     1      42.568 131.935  21.362  1.00  0.00     0.049 A 
ATOM     21  C   UNL     1      44.938 129.522  22.504  1.00  0.00     0.083 A 
ATOM     22  C   UNL     1      43.810 130.282  22.790  1.00  0.00     0.028 A 
ATOM     23  F   UNL     1      41.643 133.478  19.792  1.00  0.00    -0.207 F 
ATOM     24  H   UNL     1      46.197 129.315  20.786  1.00  0.00     0.166 HD
ENDBRANCH  12  14
ENDBRANCH   5  12
TORSDOF 4
ENDMDL
MODEL 6
REMARK VINA RESULT:      -7.1      2.175      3.188
REMARK SMILES Nc1cccc(Nc2cc(F)cc3cc[nH]c23)c1O
REMARK SMILES IDX 2 1 3 2 4 3 5 4 6 5 18 6 1 7 19 10 7 12 8 14 9 15 17 16
REMARK SMILES IDX 10 17 16 18 13 19 12 20 15 21 14 22 11 23
REMARK H PARENT 1 8 1 9 19 11 7 13 16 24
ROOT
ATOM      1  C   UNL     1      46.622 130.765  14.619  1.00  0.00     0.076 A 
ATOM      2  C   UNL     1      46.437 129.377  14.684  1.00  0.00     0.029 A 
ATOM      3  C   UNL     1      45.379 128.833  15.411  1.00  0.00     0.005 A 
ATOM      4  C   UNL     1      44.494 129.667  16.089  1.00  0.00     0.030 A 
ATOM      5  C   UNL     1      44.668 131.062  16.062  1.00  0.00     0.083 A 
ATOM      6  C   UNL     1      45.734 131.618  15.325  1.00  0.00     0.162 A 
ENDROOT
BRANCH   1   7
ATOM      7  N   UNL     1      47.703 131.275  13.827  1.00  0.00    -0.396 N 
ATOM      8  H   UNL     1      48.374 130.618  13.369  1.00  0.00     0.156 HD
ATOM      9  H   UNL     1      47.828 132.287  13.617  1.00  0.00     0.156 HD
ENDBRANCH   1   7
BRANCH   6  10
ATOM     10  O   UNL     1      45.890 133.007  15.335  1.00  0.00    -0.504 OA
ATOM     11  H   UNL     1      46.622 133.494  15.831  1.00  0.00     0.293 HD
ENDBRANCH   6  10
BRANCH   5  12
ATOM     12  N   UNL     1      43.751 131.930  16.755  1.00  0.00    -0.351 N 
ATOM     13  H   UNL     1      43.110 132.530  16.187  1.00  0.00     0.167 HD
BRANCH  12  14
ATOM     14  C   UNL     1      43.553 131.914  18.177  1.00  0.00     0.066 A 
ATOM     15  C   UNL     1      42.405 132.510  18.738  1.00  0.00     0.067 A 
ATOM     16  C   UNL     1      44.491 131.355  19.061  1.00  0.00     0.069 A 
ATOM     17  C   UNL     1      42.196 132.499  20.134  1.00  0.00     0.126 A 
ATOM     18  N   UNL     1      45.685 130.807  18.771  1.00  0.00    -0.359 N 
ATOM     19  C   UNL     1      44.280 131.351  20.416  1.00  0.00     0.004 A 
ATOM     20  C   UNL     1      43.141 131.909  20.990  1.00  0.00     0.049 A 
ATOM     21  C   UNL     1      46.225 130.438  19.955  1.00  0.00     0.083 A 
ATOM     22  C   UNL     1      45.376 130.760  21.007  1.00  0.00     0.028 A 
ATOM     23  F   UNL     1      41.079 133.066  20.652  1.00  0.00    -0.207 F 
ATOM     24  H   UNL     1      46.132 130.704  17.833  1.00  0.00     0.166 HD
ENDBRANCH  12  14
ENDBRANCH   5  12
TORSDOF 4
ENDMDL
MODEL 7
REMARK VINA RESULT:      -6.7      1.788      2.124
REMARK SMILES Nc1cccc(Nc2cc(F)cc3cc[nH]c23)c1O
REMARK SMILES IDX 2 1 3 2 4 3 5 4 6 5 18 6 1 7 19 10 7 12 8 14 9 15 17 16
REMARK SMILES IDX 10 17 16 18 13 19 12 20 15 21 14 22 11 23
REMARK H PARENT 1 8 1 9 19 11 7 13 16 24
ROOT
ATOM      1  C   UNL     1      45.680 129.844  15.283  1.00  0.00     0.076 A 
ATOM      2  C   UNL     1      44.573 130.349  14.584  1.00  0.00     0.029 A 
ATOM      3  C   UNL     1      43.779 131.351  15.138  1.00  0.00     0.005 A 
ATOM      4  C   UNL     1      44.074 131.861  16.400  1.00  0.00     0.030 A 
ATOM      5  C   UNL     1      45.162 131.359  17.134  1.00  0.00     0.083 A 
ATOM      6  C   UNL     1      45.972 130.347  16.577  1.00  0.00     0.162 A 
ENDROOT
BRANCH   1   7
ATOM      7  N   UNL     1      46.487 128.840  14.653  1.00  0.00    -0.396 N 
ATOM      8  H   UNL     1      46.437 128.699  13.619  1.00  0.00     0.156 HD
ATOM      9  H   UNL     1      47.190 128.270  15.167  1.00  0.00     0.156 HD
ENDBRANCH   1   7
BRANCH   6  10
ATOM     10  O   UNL     1      47.034 129.857  17.342  1.00  0.00    -0.504 OA
ATOM     11  H   UNL     1      47.821 130.412  17.646  1.00  0.00     0.293 HD
ENDBRANCH   6  10
BRANCH   5  12
ATOM     12  N   UNL     1      45.477 131.888  18.436  1.00  0.00    -0.351 N 
ATOM     13  H   UNL     1      46.130 132.702  18.497  1.00  0.00     0.167 HD
BRANCH  12  14
ATOM     14  C   UNL     1      44.832 131.468  19.649  1.00  0.00     0.066 A 
ATOM     15  C   UNL     1      45.390 130.430  20.423  1.00  0.00     0.067 A 
ATOM     16  C   UNL     1      43.623 132.028  20.091  1.00  0.00     0.069 A 
ATOM     17  C   UNL     1      44.769 130.009  21.619  1.00  0.00     0.126 A 
ATOM     18  N   UNL     1      42.869 132.964  19.486  1.00  0.00    -0.359 N 
ATOM     19  C   UNL     1      43.026 131.611  21.254  1.00  0.00     0.004 A 
ATOM     20  C   UNL     1      43.572 130.606  22.048  1.00  0.00     0.049 A 
ATOM     21  C   UNL     1      41.794 133.152  20.286  1.00  0.00     0.083 A 
ATOM     22  C   UNL     1      41.856 132.325  21.401  1.00  0.00     0.028 A 
ATOM     23  F   UNL     1      45.328 129.018  22.355  1.00  0.00    -0.207 F 
ATOM     24  H   UNL     1      43.046 133.440  18.575  1.00  0.00     0.166 HD
ENDBRANCH  12  14
ENDBRANCH   5  12
TORSDOF 4
ENDMDL
MODEL 8
REMARK VINA RESULT:      -6.6      4.886      6.809
REMARK SMILES Nc1cccc(Nc2cc(F)cc3cc[nH]c23)c1O
REMARK SMILES IDX 2 1 3 2 4 3 5 4 6 5 18 6 1 7 19 10 7 12 8 14 9 15 17 16
REMARK SMILES IDX 10 17 16 18 13 19 12 20 15 21 14 22 11 23
REMARK H PARENT 1 8 1 9 19 11 7 13 16 24
ROOT
ATOM      1  C   UNL     1      42.935 132.184  20.457  1.00  0.00     0.076 A 
ATOM      2  C   UNL     1      43.940 132.140  19.479  1.00  0.00     0.029 A 
ATOM      3  C   UNL     1      45.104 131.402  19.687  1.00  0.00     0.005 A 
ATOM      4  C   UNL     1      45.283 130.699  20.877  1.00  0.00     0.030 A 
ATOM      5  C   UNL     1      44.304 130.743  21.885  1.00  0.00     0.083 A 
ATOM      6  C   UNL     1      43.123 131.486  21.678  1.00  0.00     0.162 A 
ENDROOT
BRANCH   1   7
ATOM      7  N   UNL     1      41.741 132.928  20.178  1.00  0.00    -0.396 N 
ATOM      8  H   UNL     1      41.721 133.962  20.324  1.00  0.00     0.156 HD
ATOM      9  H   UNL     1      40.887 132.500  19.764  1.00  0.00     0.156 HD
ENDBRANCH   1   7
BRANCH   6  10
ATOM     10  O   UNL     1      42.179 131.524  22.708  1.00  0.00    -0.504 OA
ATOM     11  H   UNL     1      41.681 130.717  23.054  1.00  0.00     0.293 HD
ENDBRANCH   6  10
BRANCH   5  12
ATOM     12  N   UNL     1      44.482 130.012  23.113  1.00  0.00    -0.351 N 
ATOM     13  H   UNL     1      44.762 130.542  23.969  1.00  0.00     0.167 HD
BRANCH  12  14
ATOM     14  C   UNL     1      44.152 128.624  23.273  1.00  0.00     0.066 A 
ATOM     15  C   UNL     1      45.130 127.634  23.048  1.00  0.00     0.067 A 
ATOM     16  C   UNL     1      42.859 128.193  23.613  1.00  0.00     0.069 A 
ATOM     17  C   UNL     1      44.820 126.265  23.206  1.00  0.00     0.126 A 
ATOM     18  N   UNL     1      41.754 128.938  23.796  1.00  0.00    -0.359 N 
ATOM     19  C   UNL     1      42.567 126.860  23.762  1.00  0.00     0.004 A 
ATOM     20  C   UNL     1      43.524 125.867  23.571  1.00  0.00     0.049 A 
ATOM     21  C   UNL     1      40.759 128.067  24.081  1.00  0.00     0.083 A 
ATOM     22  C   UNL     1      41.228 126.759  24.069  1.00  0.00     0.028 A 
ATOM     23  F   UNL     1      45.779 125.330  22.997  1.00  0.00    -0.207 F 
ATOM     24  H   UNL     1      41.658 129.974  23.713  1.00  0.00     0.166 HD
ENDBRANCH  12  14
ENDBRANCH   5  12
TORSDOF 4
ENDMDL
MODEL 9
REMARK VINA RESULT:      -6.3      3.812      6.426
REMARK SMILES Nc1cccc(Nc2cc(F)cc3cc[nH]c23)c1O
REMARK SMILES IDX 2 1 3 2 4 3 5 4 6 5 18 6 1 7 19 10 7 12 8 14 9 15 17 16
REMARK SMILES IDX 10 17 16 18 13 19 12 20 15 21 14 22 11 23
REMARK H PARENT 1 8 1 9 19 11 7 13 16 24
ROOT
ATOM      1  C   UNL     1      43.370 128.242  23.668  1.00  0.00     0.076 A 
ATOM      2  C   UNL     1      44.063 127.050  23.410  1.00  0.00     0.029 A 
ATOM      3  C   UNL     1      45.131 127.027  22.515  1.00  0.00     0.005 A 
ATOM      4  C   UNL     1      45.522 128.194  21.862  1.00  0.00     0.030 A 
ATOM      5  C   UNL     1      44.832 129.399  22.083  1.00  0.00     0.083 A 
ATOM      6  C   UNL     1      43.752 129.428  22.989  1.00  0.00     0.162 A 
ENDROOT
BRANCH   1   7
ATOM      7  N   UNL     1      42.302 128.219  24.624  1.00  0.00    -0.396 N 
ATOM      8  H   UNL     1      42.120 127.358  25.188  1.00  0.00     0.156 HD
ATOM      9  H   UNL     1      41.719 129.052  24.848  1.00  0.00     0.156 HD
ENDBRANCH   1   7
BRANCH   6  10
ATOM     10  O   UNL     1      43.076 130.638  23.171  1.00  0.00    -0.504 OA
ATOM     11  H   UNL     1      42.403 131.018  22.520  1.00  0.00     0.293 HD
ENDBRANCH   6  10
BRANCH   5  12
ATOM     12  N   UNL     1      45.236 130.609  21.416  1.00  0.00    -0.351 N 
ATOM     13  H   UNL     1      45.930 131.230  21.892  1.00  0.00     0.167 HD
BRANCH  12  14
ATOM     14  C   UNL     1      44.864 130.945  20.070  1.00  0.00     0.066 A 
ATOM     15  C   UNL     1      45.745 130.673  19.004  1.00  0.00     0.067 A 
ATOM     16  C   UNL     1      43.651 131.583  19.763  1.00  0.00     0.069 A 
ATOM     17  C   UNL     1      45.389 130.996  17.675  1.00  0.00     0.126 A 
ATOM     18  N   UNL     1      42.696 132.010  20.610  1.00  0.00    -0.359 N 
ATOM     19  C   UNL     1      43.315 131.894  18.469  1.00  0.00     0.004 A 
ATOM     20  C   UNL     1      44.157 131.611  17.398  1.00  0.00     0.049 A 
ATOM     21  C   UNL     1      41.741 132.580  19.840  1.00  0.00     0.083 A 
ATOM     22  C   UNL     1      42.091 132.526  18.497  1.00  0.00     0.028 A 
ATOM     23  F   UNL     1      46.246 130.714  16.663  1.00  0.00    -0.207 F 
ATOM     24  H   UNL     1      42.689 131.947  21.652  1.00  0.00     0.166 HD
ENDBRANCH  12  14
ENDBRANCH   5  12
TORSDOF 4
ENDMDL


