REMARK SMILES c1cc2c(c([NH2+]c3ccc4[nH]ccc4c3)c1)CCC2
REMARK SMILES IDX 7 1 8 2 9 3 10 4 11 5 12 6 13 7 14 8 15 9 6 11 5 14 1 15
REMARK SMILES IDX 2 16 16 17 3 18 4 19 19 20 17 21 18 22
REMARK H PARENT 11 10 6 12 6 13
ROOT
ATOM      1  C   UNL     1      -1.669   1.062  -0.479  1.00  0.00     0.135 A 
ATOM      2  C   UNL     1      -1.248   2.364  -0.867  1.00  0.00     0.070 A 
ATOM      3  C   UNL     1      -0.765   2.609  -2.164  1.00  0.00     0.033 A 
ATOM      4  C   UNL     1      -0.721   1.540  -3.055  1.00  0.00     0.046 A 
ATOM      5  N   UNL     1      -0.300   1.557  -4.331  1.00  0.00    -0.361 N 
ATOM      6  C   UNL     1      -0.450   0.292  -4.786  1.00  0.00     0.083 A 
ATOM      7  C   UNL     1      -0.970  -0.531  -3.793  1.00  0.00     0.028 A 
ATOM      8  C   UNL     1      -1.135   0.287  -2.697  1.00  0.00     0.005 A 
ATOM      9  C   UNL     1      -1.620   0.007  -1.422  1.00  0.00     0.078 A 
ATOM     10  H   UNL     1       0.068   2.376  -4.865  1.00  0.00     0.166 HD
ENDROOT
BRANCH   1  11
ATOM     11  N   UNL     1      -2.159   0.824   0.857  1.00  0.00    -0.281 N 
ATOM     12  H   UNL     1      -2.890   1.538   1.081  1.00  0.00     0.358 HD
ATOM     13  H   UNL     1      -2.625  -0.110   0.925  1.00  0.00     0.358 HD
BRANCH  11  14
ATOM     14  C   UNL     1      -1.077   0.899   1.810  1.00  0.00     0.138 A 
ATOM     15  C   UNL     1       0.223   2.176   3.443  1.00  0.00     0.006 A 
ATOM     16  C   UNL     1       1.056   1.072   3.661  1.00  0.00     0.004 A 
ATOM     17  C   UNL     1      -0.837   2.093   2.526  1.00  0.00     0.068 A 
ATOM     18  C   UNL     1       0.812  -0.105   2.952  1.00  0.00    -0.039 A 
ATOM     19  C   UNL     1      -0.219  -0.196   2.048  1.00  0.00     0.017 A 
ATOM     20  C   UNL     1       1.590  -1.361   3.050  1.00  0.00     0.036 C 
ATOM     21  C   UNL     1      -0.258  -1.536   1.407  1.00  0.00     0.042 C 
ATOM     22  C   UNL     1       0.822  -2.343   2.150  1.00  0.00     0.010 C 
ENDBRANCH  11  14
ENDBRANCH   1  11
TORSDOF 2


