REMARK SMILES C=Cc1cccc(-c2ccc3c(c2)[C@H](N)CC3)c1
REMARK SMILES IDX 8 1 9 2 10 3 11 4 12 5 13 6 14 7 16 8 17 9 7 10 3 11 4 12
REMARK SMILES IDX 18 13 5 14 6 15 2 16 1 17 15 18
REMARK H PARENT 15 19 15 20
ROOT
ATOM      1  C   UNL     1       0.942   0.488   0.203  1.00  0.00    -0.018 A 
ATOM      2  C   UNL     1       1.859   0.343   1.271  1.00  0.00     0.009 A 
ATOM      3  C   UNL     1       2.319  -0.926   1.650  1.00  0.00     0.005 A 
ATOM      4  C   UNL     1       1.857  -2.045   0.956  1.00  0.00    -0.043 A 
ATOM      5  C   UNL     1       0.963  -1.919  -0.075  1.00  0.00    -0.027 A 
ATOM      6  C   UNL     1       0.492  -0.666  -0.475  1.00  0.00     0.014 A 
ATOM      7  C   UNL     1       0.596  -3.240  -0.656  1.00  0.00     0.081 C 
ATOM      8  C   UNL     1       1.524  -4.234   0.080  1.00  0.00     0.028 C 
ATOM      9  C   UNL     1       2.223  -3.457   1.211  1.00  0.00     0.038 C 
ENDROOT
BRANCH   1  10
ATOM     10  C   UNL     1       0.457   1.833  -0.197  1.00  0.00    -0.018 A 
ATOM     11  C   UNL     1      -0.317   4.076   0.408  1.00  0.00    -0.026 A 
ATOM     12  C   UNL     1      -0.465   4.377  -0.960  1.00  0.00     0.008 A 
ATOM     13  C   UNL     1       0.135   2.797   0.776  1.00  0.00     0.016 A 
ATOM     14  C   UNL     1      -0.148   3.425  -1.931  1.00  0.00     0.001 A 
ATOM     15  C   UNL     1       0.312   2.163  -1.555  1.00  0.00     0.009 A 
BRANCH  11  16
ATOM     16  C   UNL     1      -0.652   5.045   1.481  1.00  0.00     0.000 C 
ATOM     17  C   UNL     1      -0.777   6.359   1.293  1.00  0.00     0.009 C 
ENDBRANCH  11  16
ENDBRANCH   1  10
BRANCH   7  18
ATOM     18  N   UNL     1      -0.812  -3.560  -0.410  1.00  0.00    -0.324 NA
ATOM     19  H   UNL     1      -1.028  -3.429   0.606  1.00  0.00     0.119 HD
ATOM     20  H   UNL     1      -1.405  -2.886  -0.945  1.00  0.00     0.119 HD
ENDBRANCH   7  18
TORSDOF 3


