MODEL 1
REMARK VINA RESULT:      -6.3      0.000      0.000
REMARK SMILES C=CCC[C@H](O)Cn1cc(F)cc(N)/c1=N\c1c[n-]c2nccc-2c1
REMARK SMILES IDX 5 1 6 2 7 4 8 5 9 6 15 7 10 8 13 9 12 10 11 11 16 12 17 13
REMARK SMILES IDX 18 14 25 15 19 16 24 17 20 18 23 19 21 20 22 21 14 22 4 25
REMARK SMILES IDX 3 26 2 27 1 28
REMARK H PARENT 6 3 14 23 14 24
ROOT
ATOM      1  C   UNL     1      45.084 131.042  17.590  1.00  0.00     0.134 C 
ENDROOT
BRANCH   1   2
ATOM      2  O   UNL     1      45.101 132.444  17.652  1.00  0.00    -0.391 OA
ATOM      3  H   UNL     1      44.676 132.700  18.511  1.00  0.00     0.211 HD
ENDBRANCH   1   2
BRANCH   1   4
ATOM      4  C   UNL     1      45.316 130.440  18.992  1.00  0.00     0.155 C 
BRANCH   4   5
ATOM      5  N   UNL     1      44.401 131.015  20.003  1.00  0.00    -0.326 N 
ATOM      6  C   UNL     1      43.431 131.875  19.563  1.00  0.00     0.127 A 
ATOM      7  C   UNL     1      44.495 130.679  21.340  1.00  0.00     0.156 A 
ATOM      8  C   UNL     1      42.530 132.452  20.450  1.00  0.00     0.141 A 
ATOM      9  C   UNL     1      43.658 131.351  22.281  1.00  0.00     0.078 A 
ATOM     10  C   UNL     1      42.652 132.198  21.807  1.00  0.00     0.070 A 
ATOM     11  F   UNL     1      41.571 133.297  19.997  1.00  0.00    -0.205 F 
BRANCH   7  12
ATOM     12  N   UNL     1      45.348 129.746  21.688  1.00  0.00    -0.229 NA
BRANCH  12  13
ATOM     13  C   UNL     1      45.115 128.399  22.121  1.00  0.00     0.062 A 
ATOM     14  C   UNL     1      44.009 128.132  22.971  1.00  0.00     0.006 A 
ATOM     15  C   UNL     1      46.035 127.372  21.812  1.00  0.00     0.036 A 
ATOM     16  N   UNL     1      43.774 126.877  23.461  1.00  0.00    -0.440 NA
ATOM     17  C   UNL     1      45.770 126.110  22.316  1.00  0.00    -0.025 A 
ATOM     18  C   UNL     1      44.629 125.880  23.136  1.00  0.00    -0.052 A 
ATOM     19  C   UNL     1      46.416 124.904  22.224  1.00  0.00     0.003 A 
ATOM     20  N   UNL     1      44.558 124.602  23.539  1.00  0.00    -0.442 NA
ATOM     21  C   UNL     1      45.647 124.014  22.977  1.00  0.00    -0.022 A 
ENDBRANCH  12  13
ENDBRANCH   7  12
BRANCH   9  22
ATOM     22  N   UNL     1      43.896 131.324  23.694  1.00  0.00    -0.396 N 
ATOM     23  H   UNL     1      44.828 131.576  24.090  1.00  0.00     0.156 HD
ATOM     24  H   UNL     1      43.095 131.276  24.363  1.00  0.00     0.156 HD
ENDBRANCH   9  22
ENDBRANCH   4   5
ENDBRANCH   1   4
BRANCH   1  25
ATOM     25  C   UNL     1      46.137 130.556  16.574  1.00  0.00     0.038 C 
BRANCH  25  26
ATOM     26  C   UNL     1      46.183 131.421  15.305  1.00  0.00     0.029 C 
BRANCH  26  27
ATOM     27  C   UNL     1      47.010 130.777  14.225  1.00  0.00    -0.035 C 
ATOM     28  C   UNL     1      47.408 129.505  14.304  1.00  0.00     0.004 C 
ENDBRANCH  26  27
ENDBRANCH  25  26
ENDBRANCH   1  25
TORSDOF 9
ENDMDL
MODEL 2
REMARK VINA RESULT:      -5.8      3.089      7.404
REMARK SMILES C=CCC[C@H](O)Cn1cc(F)cc(N)/c1=N\c1c[n-]c2nccc-2c1
REMARK SMILES IDX 5 1 6 2 7 4 8 5 9 6 15 7 10 8 13 9 12 10 11 11 16 12 17 13
REMARK SMILES IDX 18 14 25 15 19 16 24 17 20 18 23 19 21 20 22 21 14 22 4 25
REMARK SMILES IDX 3 26 2 27 1 28
REMARK H PARENT 6 3 14 23 14 24
ROOT
ATOM      1  C   UNL     1      44.854 130.852  22.435  1.00  0.00     0.134 C 
ENDROOT
BRANCH   1   2
ATOM      2  O   UNL     1      43.989 131.942  22.625  1.00  0.00    -0.391 OA
ATOM      3  H   UNL     1      43.575 131.829  23.520  1.00  0.00     0.211 HD
ENDBRANCH   1   2
BRANCH   1   4
ATOM      4  C   UNL     1      45.208 130.701  20.941  1.00  0.00     0.155 C 
BRANCH   4   5
ATOM      5  N   UNL     1      44.197 131.330  20.062  1.00  0.00    -0.326 N 
ATOM      6  C   UNL     1      43.164 131.999  20.662  1.00  0.00     0.127 A 
ATOM      7  C   UNL     1      44.298 131.274  18.686  1.00  0.00     0.156 A 
ATOM      8  C   UNL     1      42.177 132.620  19.907  1.00  0.00     0.141 A 
ATOM      9  C   UNL     1      43.234 131.802  17.894  1.00  0.00     0.078 A 
ATOM     10  C   UNL     1      42.209 132.511  18.525  1.00  0.00     0.070 A 
ATOM     11  F   UNL     1      41.166 133.285  20.517  1.00  0.00    -0.205 F 
BRANCH   7  12
ATOM     12  N   UNL     1      45.377 130.744  18.162  1.00  0.00    -0.229 NA
BRANCH  12  13
ATOM     13  C   UNL     1      45.935 130.896  16.850  1.00  0.00     0.062 A 
ATOM     14  C   UNL     1      45.670 132.088  16.124  1.00  0.00     0.006 A 
ATOM     15  C   UNL     1      46.636 129.833  16.236  1.00  0.00     0.036 A 
ATOM     16  N   UNL     1      46.128 132.261  14.847  1.00  0.00    -0.440 NA
ATOM     17  C   UNL     1      47.093 130.038  14.945  1.00  0.00    -0.025 A 
ATOM     18  C   UNL     1      46.834 131.263  14.268  1.00  0.00    -0.052 A 
ATOM     19  C   UNL     1      47.794 129.259  14.060  1.00  0.00     0.003 A 
ATOM     20  N   UNL     1      47.341 131.259  13.025  1.00  0.00    -0.442 NA
ATOM     21  C   UNL     1      47.926 130.038  12.908  1.00  0.00    -0.022 A 
ENDBRANCH  12  13
ENDBRANCH   7  12
BRANCH   9  22
ATOM     22  N   UNL     1      43.081 131.509  16.499  1.00  0.00    -0.396 N 
ATOM     23  H   UNL     1      42.143 131.307  16.089  1.00  0.00     0.156 HD
ATOM     24  H   UNL     1      43.855 131.713  15.829  1.00  0.00     0.156 HD
ENDBRANCH   9  22
ENDBRANCH   4   5
ENDBRANCH   1   4
BRANCH   1  25
ATOM     25  C   UNL     1      44.209 129.574  23.005  1.00  0.00     0.038 C 
BRANCH  25  26
ATOM     26  C   UNL     1      43.061 129.871  23.982  1.00  0.00     0.029 C 
BRANCH  26  27
ATOM     27  C   UNL     1      42.013 128.792  23.951  1.00  0.00    -0.035 C 
ATOM     28  C   UNL     1      42.284 127.534  24.311  1.00  0.00     0.004 C 
ENDBRANCH  26  27
ENDBRANCH  25  26
ENDBRANCH   1  25
TORSDOF 9
ENDMDL
MODEL 3
REMARK VINA RESULT:      -5.7      1.143      1.612
REMARK SMILES C=CCC[C@H](O)Cn1cc(F)cc(N)/c1=N\c1c[n-]c2nccc-2c1
REMARK SMILES IDX 5 1 6 2 7 4 8 5 9 6 15 7 10 8 13 9 12 10 11 11 16 12 17 13
REMARK SMILES IDX 18 14 25 15 19 16 24 17 20 18 23 19 21 20 22 21 14 22 4 25
REMARK SMILES IDX 3 26 2 27 1 28
REMARK H PARENT 6 3 14 23 14 24
ROOT
ATOM      1  C   UNL     1      44.989 130.806  18.257  1.00  0.00     0.134 C 
ENDROOT
BRANCH   1   2
ATOM      2  O   UNL     1      45.219 132.145  17.902  1.00  0.00    -0.391 OA
ATOM      3  H   UNL     1      46.148 132.360  18.177  1.00  0.00     0.211 HD
ENDBRANCH   1   2
BRANCH   1   4
ATOM      4  C   UNL     1      45.591 130.508  19.646  1.00  0.00     0.155 C 
BRANCH   4   5
ATOM      5  N   UNL     1      44.630 130.777  20.739  1.00  0.00    -0.326 N 
ATOM      6  C   UNL     1      43.670 131.727  20.519  1.00  0.00     0.127 A 
ATOM      7  C   UNL     1      44.674 130.079  21.931  1.00  0.00     0.156 A 
ATOM      8  C   UNL     1      42.728 132.033  21.494  1.00  0.00     0.141 A 
ATOM      9  C   UNL     1      43.794 130.461  22.987  1.00  0.00     0.078 A 
ATOM     10  C   UNL     1      42.798 131.407  22.729  1.00  0.00     0.070 A 
ATOM     11  F   UNL     1      41.779 132.971  21.257  1.00  0.00    -0.205 F 
BRANCH   7  12
ATOM     12  N   UNL     1      45.522 129.085  22.038  1.00  0.00    -0.229 NA
BRANCH  12  13
ATOM     13  C   UNL     1      45.289 127.702  22.339  1.00  0.00     0.062 A 
ATOM     14  C   UNL     1      46.354 126.776  22.180  1.00  0.00     0.006 A 
ATOM     15  C   UNL     1      43.994 127.243  22.670  1.00  0.00     0.036 A 
ATOM     16  N   UNL     1      46.172 125.437  22.396  1.00  0.00    -0.440 NA
ATOM     17  C   UNL     1      43.840 125.884  22.888  1.00  0.00    -0.025 A 
ATOM     18  C   UNL     1      44.944 124.997  22.752  1.00  0.00    -0.052 A 
ATOM     19  C   UNL     1      42.766 125.101  23.222  1.00  0.00     0.003 A 
ATOM     20  N   UNL     1      44.588 123.724  22.985  1.00  0.00    -0.442 NA
ATOM     21  C   UNL     1      43.262 123.796  23.274  1.00  0.00    -0.022 A 
ENDBRANCH  12  13
ENDBRANCH   7  12
BRANCH   9  22
ATOM     22  N   UNL     1      43.975 130.037  24.344  1.00  0.00    -0.396 N 
ATOM     23  H   UNL     1      44.494 130.628  25.030  1.00  0.00     0.156 HD
ATOM     24  H   UNL     1      43.405 129.253  24.733  1.00  0.00     0.156 HD
ENDBRANCH   9  22
ENDBRANCH   4   5
ENDBRANCH   1   4
BRANCH   1  25
ATOM     25  C   UNL     1      45.562 129.877  17.169  1.00  0.00     0.038 C 
BRANCH  25  26
ATOM     26  C   UNL     1      46.422 130.625  16.140  1.00  0.00     0.029 C 
BRANCH  26  27
ATOM     27  C   UNL     1      46.423 129.927  14.806  1.00  0.00    -0.035 C 
ATOM     28  C   UNL     1      47.547 129.736  14.111  1.00  0.00     0.004 C 
ENDBRANCH  26  27
ENDBRANCH  25  26
ENDBRANCH   1  25
TORSDOF 9
ENDMDL
MODEL 4
REMARK VINA RESULT:      -5.6      3.212      7.261
REMARK SMILES C=CCC[C@H](O)Cn1cc(F)cc(N)/c1=N\c1c[n-]c2nccc-2c1
REMARK SMILES IDX 5 1 6 2 7 4 8 5 9 6 15 7 10 8 13 9 12 10 11 11 16 12 17 13
REMARK SMILES IDX 18 14 25 15 19 16 24 17 20 18 23 19 21 20 22 21 14 22 4 25
REMARK SMILES IDX 3 26 2 27 1 28
REMARK H PARENT 6 3 14 23 14 24
ROOT
ATOM      1  C   UNL     1      45.009 129.817  21.443  1.00  0.00     0.134 C 
ENDROOT
BRANCH   1   2
ATOM      2  O   UNL     1      46.310 129.318  21.614  1.00  0.00    -0.391 OA
ATOM      3  H   UNL     1      46.934 130.043  21.350  1.00  0.00     0.211 HD
ENDBRANCH   1   2
BRANCH   1   4
ATOM      4  C   UNL     1      45.051 131.323  21.109  1.00  0.00     0.155 C 
BRANCH   4   5
ATOM      5  N   UNL     1      44.003 131.708  20.137  1.00  0.00    -0.326 N 
ATOM      6  C   UNL     1      42.851 132.257  20.632  1.00  0.00     0.127 A 
ATOM      7  C   UNL     1      44.183 131.548  18.776  1.00  0.00     0.156 A 
ATOM      8  C   UNL     1      41.822 132.648  19.784  1.00  0.00     0.141 A 
ATOM      9  C   UNL     1      43.094 131.832  17.898  1.00  0.00     0.078 A 
ATOM     10  C   UNL     1      41.942 132.425  18.420  1.00  0.00     0.070 A 
ATOM     11  F   UNL     1      40.691 133.197  20.290  1.00  0.00    -0.205 F 
BRANCH   7  12
ATOM     12  N   UNL     1      45.356 131.149  18.346  1.00  0.00    -0.229 NA
BRANCH  12  13
ATOM     13  C   UNL     1      45.895 131.135  17.018  1.00  0.00     0.062 A 
ATOM     14  C   UNL     1      45.764 132.296  16.210  1.00  0.00     0.006 A 
ATOM     15  C   UNL     1      46.440 129.950  16.472  1.00  0.00     0.036 A 
ATOM     16  N   UNL     1      46.207 132.317  14.916  1.00  0.00    -0.440 NA
ATOM     17  C   UNL     1      46.886 130.002  15.162  1.00  0.00    -0.025 A 
ATOM     18  C   UNL     1      46.766 131.199  14.401  1.00  0.00    -0.052 A 
ATOM     19  C   UNL     1      47.460 129.080  14.326  1.00  0.00     0.003 A 
ATOM     20  N   UNL     1      47.236 131.042  13.154  1.00  0.00    -0.442 NA
ATOM     21  C   UNL     1      47.659 129.751  13.117  1.00  0.00    -0.022 A 
ENDBRANCH  12  13
ENDBRANCH   7  12
BRANCH   9  22
ATOM     22  N   UNL     1      43.061 131.398  16.533  1.00  0.00    -0.396 N 
ATOM     23  H   UNL     1      43.609 131.893  15.795  1.00  0.00     0.156 HD
ATOM     24  H   UNL     1      42.679 130.458  16.287  1.00  0.00     0.156 HD
ENDBRANCH   9  22
ENDBRANCH   4   5
ENDBRANCH   1   4
BRANCH   1  25
ATOM     25  C   UNL     1      44.175 129.532  22.707  1.00  0.00     0.038 C 
BRANCH  25  26
ATOM     26  C   UNL     1      44.447 130.535  23.838  1.00  0.00     0.029 C 
BRANCH  26  27
ATOM     27  C   UNL     1      43.187 131.233  24.275  1.00  0.00    -0.035 C 
ATOM     28  C   UNL     1      43.179 132.522  24.624  1.00  0.00     0.004 C 
ENDBRANCH  26  27
ENDBRANCH  25  26
ENDBRANCH   1  25
TORSDOF 9
ENDMDL
MODEL 5
REMARK VINA RESULT:      -5.6      1.358      1.616
REMARK SMILES C=CCC[C@H](O)Cn1cc(F)cc(N)/c1=N\c1c[n-]c2nccc-2c1
REMARK SMILES IDX 5 1 6 2 7 4 8 5 9 6 15 7 10 8 13 9 12 10 11 11 16 12 17 13
REMARK SMILES IDX 18 14 25 15 19 16 24 17 20 18 23 19 21 20 22 21 14 22 4 25
REMARK SMILES IDX 3 26 2 27 1 28
REMARK H PARENT 6 3 14 23 14 24
ROOT
ATOM      1  C   UNL     1      45.780 131.098  19.661  1.00  0.00     0.134 C 
ENDROOT
BRANCH   1   2
ATOM      2  O   UNL     1      47.029 131.234  20.286  1.00  0.00    -0.391 OA
ATOM      3  H   UNL     1      47.228 132.206  20.323  1.00  0.00     0.211 HD
ENDBRANCH   1   2
BRANCH   1   4
ATOM      4  C   UNL     1      44.855 130.191  20.501  1.00  0.00     0.155 C 
BRANCH   4   5
ATOM      5  N   UNL     1      43.807 130.963  21.204  1.00  0.00    -0.326 N 
ATOM      6  C   UNL     1      43.038 131.814  20.456  1.00  0.00     0.127 A 
ATOM      7  C   UNL     1      43.585 130.816  22.559  1.00  0.00     0.156 A 
ATOM      8  C   UNL     1      42.029 132.569  21.041  1.00  0.00     0.141 A 
ATOM      9  C   UNL     1      42.636 131.669  23.199  1.00  0.00     0.078 A 
ATOM     10  C   UNL     1      41.838 132.504  22.412  1.00  0.00     0.070 A 
ATOM     11  F   UNL     1      41.272 133.401  20.284  1.00  0.00    -0.205 F 
BRANCH   7  12
ATOM     12  N   UNL     1      44.252 129.889  23.202  1.00  0.00    -0.229 NA
BRANCH  12  13
ATOM     13  C   UNL     1      44.062 128.468  23.231  1.00  0.00     0.062 A 
ATOM     14  C   UNL     1      42.892 127.943  23.841  1.00  0.00     0.006 A 
ATOM     15  C   UNL     1      45.074 127.595  22.772  1.00  0.00     0.036 A 
ATOM     16  N   UNL     1      42.688 126.595  23.948  1.00  0.00    -0.440 NA
ATOM     17  C   UNL     1      44.839 126.235  22.888  1.00  0.00    -0.025 A 
ATOM     18  C   UNL     1      43.634 125.754  23.474  1.00  0.00    -0.052 A 
ATOM     19  C   UNL     1      45.567 125.122  22.556  1.00  0.00     0.003 A 
ATOM     20  N   UNL     1      43.603 124.413  23.512  1.00  0.00    -0.442 NA
ATOM     21  C   UNL     1      44.782 124.036  22.949  1.00  0.00    -0.022 A 
ENDBRANCH  12  13
ENDBRANCH   7  12
BRANCH   9  22
ATOM     22  N   UNL     1      42.566 131.828  24.622  1.00  0.00    -0.396 N 
ATOM     23  H   UNL     1      43.321 131.464  25.244  1.00  0.00     0.156 HD
ATOM     24  H   UNL     1      41.889 132.501  25.046  1.00  0.00     0.156 HD
ENDBRANCH   9  22
ENDBRANCH   4   5
ENDBRANCH   1   4
BRANCH   1  25
ATOM     25  C   UNL     1      45.973 130.556  18.231  1.00  0.00     0.038 C 
BRANCH  25  26
ATOM     26  C   UNL     1      45.118 131.298  17.193  1.00  0.00     0.029 C 
BRANCH  26  27
ATOM     27  C   UNL     1      45.569 131.001  15.788  1.00  0.00    -0.035 C 
ATOM     28  C   UNL     1      45.213 129.880  15.155  1.00  0.00     0.004 C 
ENDBRANCH  26  27
ENDBRANCH  25  26
ENDBRANCH   1  25
TORSDOF 9
ENDMDL
MODEL 6
REMARK VINA RESULT:      -5.4      1.530      1.781
REMARK SMILES C=CCC[C@H](O)Cn1cc(F)cc(N)/c1=N\c1c[n-]c2nccc-2c1
REMARK SMILES IDX 5 1 6 2 7 4 8 5 9 6 15 7 10 8 13 9 12 10 11 11 16 12 17 13
REMARK SMILES IDX 18 14 25 15 19 16 24 17 20 18 23 19 21 20 22 21 14 22 4 25
REMARK SMILES IDX 3 26 2 27 1 28
REMARK H PARENT 6 3 14 23 14 24
ROOT
ATOM      1  C   UNL     1      45.968 130.283  17.571  1.00  0.00     0.134 C 
ENDROOT
BRANCH   1   2
ATOM      2  O   UNL     1      45.160 129.173  17.866  1.00  0.00    -0.391 OA
ATOM      3  H   UNL     1      45.483 128.423  17.303  1.00  0.00     0.211 HD
ENDBRANCH   1   2
BRANCH   1   4
ATOM      4  C   UNL     1      45.898 131.318  18.713  1.00  0.00     0.155 C 
BRANCH   4   5
ATOM      5  N   UNL     1      44.504 131.608  19.118  1.00  0.00    -0.326 N 
ATOM      6  C   UNL     1      43.629 131.997  18.140  1.00  0.00     0.127 A 
ATOM      7  C   UNL     1      44.085 131.466  20.426  1.00  0.00     0.156 A 
ATOM      8  C   UNL     1      42.302 132.282  18.438  1.00  0.00     0.141 A 
ATOM      9  C   UNL     1      42.760 131.868  20.774  1.00  0.00     0.078 A 
ATOM     10  C   UNL     1      41.873 132.227  19.756  1.00  0.00     0.070 A 
ATOM     11  F   UNL     1      41.446 132.660  17.457  1.00  0.00    -0.205 F 
BRANCH   7  12
ATOM     12  N   UNL     1      44.923 130.957  21.297  1.00  0.00    -0.229 NA
BRANCH  12  13
ATOM     13  C   UNL     1      44.796 129.798  22.131  1.00  0.00     0.062 A 
ATOM     14  C   UNL     1      44.267 129.949  23.441  1.00  0.00     0.006 A 
ATOM     15  C   UNL     1      45.299 128.546  21.710  1.00  0.00     0.036 A 
ATOM     16  N   UNL     1      44.178 128.888  24.299  1.00  0.00    -0.440 NA
ATOM     17  C   UNL     1      45.191 127.488  22.598  1.00  0.00    -0.025 A 
ATOM     18  C   UNL     1      44.620 127.678  23.888  1.00  0.00    -0.052 A 
ATOM     19  C   UNL     1      45.553 126.168  22.536  1.00  0.00     0.003 A 
ATOM     20  N   UNL     1      44.623 126.542  24.603  1.00  0.00    -0.442 NA
ATOM     21  C   UNL     1      45.189 125.627  23.772  1.00  0.00    -0.022 A 
ENDBRANCH  12  13
ENDBRANCH   7  12
BRANCH   9  22
ATOM     22  N   UNL     1      42.337 132.071  22.129  1.00  0.00    -0.396 N 
ATOM     23  H   UNL     1      42.836 132.739  22.756  1.00  0.00     0.156 HD
ATOM     24  H   UNL     1      41.399 131.737  22.444  1.00  0.00     0.156 HD
ENDBRANCH   9  22
ENDBRANCH   4   5
ENDBRANCH   1   4
BRANCH   1  25
ATOM     25  C   UNL     1      45.541 130.888  16.219  1.00  0.00     0.038 C 
BRANCH  25  26
ATOM     26  C   UNL     1      46.737 131.270  15.335  1.00  0.00     0.029 C 
BRANCH  26  27
ATOM     27  C   UNL     1      46.379 131.240  13.874  1.00  0.00    -0.035 C 
ATOM     28  C   UNL     1      47.250 130.846  12.941  1.00  0.00     0.004 C 
ENDBRANCH  26  27
ENDBRANCH  25  26
ENDBRANCH   1  25
TORSDOF 9
ENDMDL
MODEL 7
REMARK VINA RESULT:      -5.3      2.752      6.949
REMARK SMILES C=CCC[C@H](O)Cn1cc(F)cc(N)/c1=N\c1c[n-]c2nccc-2c1
REMARK SMILES IDX 5 1 6 2 7 4 8 5 9 6 15 7 10 8 13 9 12 10 11 11 16 12 17 13
REMARK SMILES IDX 18 14 25 15 19 16 24 17 20 18 23 19 21 20 22 21 14 22 4 25
REMARK SMILES IDX 3 26 2 27 1 28
REMARK H PARENT 6 3 14 23 14 24
ROOT
ATOM      1  C   UNL     1      44.878 128.241  22.392  1.00  0.00     0.134 C 
ENDROOT
BRANCH   1   2
ATOM      2  O   UNL     1      45.651 127.198  21.858  1.00  0.00    -0.391 OA
ATOM      3  H   UNL     1      46.188 126.827  22.604  1.00  0.00     0.211 HD
ENDBRANCH   1   2
BRANCH   1   4
ATOM      4  C   UNL     1      45.287 129.590  21.762  1.00  0.00     0.155 C 
BRANCH   4   5
ATOM      5  N   UNL     1      44.178 130.569  21.772  1.00  0.00    -0.326 N 
ATOM      6  C   UNL     1      43.290 130.509  22.812  1.00  0.00     0.127 A 
ATOM      7  C   UNL     1      44.051 131.530  20.788  1.00  0.00     0.156 A 
ATOM      8  C   UNL     1      42.224 131.397  22.896  1.00  0.00     0.141 A 
ATOM      9  C   UNL     1      42.899 132.373  20.791  1.00  0.00     0.078 A 
ATOM     10  C   UNL     1      42.025 132.320  21.881  1.00  0.00     0.070 A 
ATOM     11  F   UNL     1      41.358 131.329  23.937  1.00  0.00    -0.205 F 
BRANCH   7  12
ATOM     12  N   UNL     1      45.004 131.635  19.894  1.00  0.00    -0.229 NA
BRANCH  12  13
ATOM     13  C   UNL     1      45.046 131.181  18.535  1.00  0.00     0.062 A 
ATOM     14  C   UNL     1      45.976 130.168  18.177  1.00  0.00     0.006 A 
ATOM     15  C   UNL     1      44.267 131.810  17.538  1.00  0.00     0.036 A 
ATOM     16  N   UNL     1      46.101 129.739  16.884  1.00  0.00    -0.440 NA
ATOM     17  C   UNL     1      44.409 131.353  16.238  1.00  0.00    -0.025 A 
ATOM     18  C   UNL     1      45.328 130.310  15.932  1.00  0.00    -0.052 A 
ATOM     19  C   UNL     1      43.831 131.708  15.047  1.00  0.00     0.003 A 
ATOM     20  N   UNL     1      45.333 130.023  14.621  1.00  0.00    -0.442 NA
ATOM     21  C   UNL     1      44.417 130.875  14.090  1.00  0.00    -0.022 A 
ENDBRANCH  12  13
ENDBRANCH   7  12
BRANCH   9  22
ATOM     22  N   UNL     1      42.507 133.162  19.661  1.00  0.00    -0.396 N 
ATOM     23  H   UNL     1      42.782 132.891  18.691  1.00  0.00     0.156 HD
ATOM     24  H   UNL     1      41.759 133.885  19.755  1.00  0.00     0.156 HD
ENDBRANCH   9  22
ENDBRANCH   4   5
ENDBRANCH   1   4
BRANCH   1  25
ATOM     25  C   UNL     1      45.019 128.256  23.926  1.00  0.00     0.038 C 
BRANCH  25  26
ATOM     26  C   UNL     1      44.279 127.093  24.603  1.00  0.00     0.029 C 
BRANCH  26  27
ATOM     27  C   UNL     1      42.965 126.804  23.930  1.00  0.00    -0.035 C 
ATOM     28  C   UNL     1      42.681 125.602  23.421  1.00  0.00     0.004 C 
ENDBRANCH  26  27
ENDBRANCH  25  26
ENDBRANCH   1  25
TORSDOF 9
ENDMDL
MODEL 8
REMARK VINA RESULT:      -4.4      1.827      2.652
REMARK SMILES C=CCC[C@H](O)Cn1cc(F)cc(N)/c1=N\c1c[n-]c2nccc-2c1
REMARK SMILES IDX 5 1 6 2 7 4 8 5 9 6 15 7 10 8 13 9 12 10 11 11 16 12 17 13
REMARK SMILES IDX 18 14 25 15 19 16 24 17 20 18 23 19 21 20 22 21 14 22 4 25
REMARK SMILES IDX 3 26 2 27 1 28
REMARK H PARENT 6 3 14 23 14 24
ROOT
ATOM      1  C   UNL     1      46.556 130.076  16.058  1.00  0.00     0.134 C 
ENDROOT
BRANCH   1   2
ATOM      2  O   UNL     1      45.575 129.106  15.799  1.00  0.00    -0.391 OA
ATOM      3  H   UNL     1      44.911 129.523  15.192  1.00  0.00     0.211 HD
ENDBRANCH   1   2
BRANCH   1   4
ATOM      4  C   UNL     1      46.448 130.575  17.514  1.00  0.00     0.155 C 
BRANCH   4   5
ATOM      5  N   UNL     1      45.094 131.083  17.830  1.00  0.00    -0.326 N 
ATOM      6  C   UNL     1      44.277 131.403  16.780  1.00  0.00     0.127 A 
ATOM      7  C   UNL     1      44.652 131.205  19.133  1.00  0.00     0.156 A 
ATOM      8  C   UNL     1      42.989 131.881  16.994  1.00  0.00     0.141 A 
ATOM      9  C   UNL     1      43.380 131.805  19.377  1.00  0.00     0.078 A 
ATOM     10  C   UNL     1      42.548 132.091  18.291  1.00  0.00     0.070 A 
ATOM     11  F   UNL     1      42.190 132.186  15.942  1.00  0.00    -0.205 F 
BRANCH   7  12
ATOM     12  N   UNL     1      45.419 130.754  20.096  1.00  0.00    -0.229 NA
BRANCH  12  13
ATOM     13  C   UNL     1      45.095 129.935  21.227  1.00  0.00     0.062 A 
ATOM     14  C   UNL     1      44.497 130.540  22.364  1.00  0.00     0.006 A 
ATOM     15  C   UNL     1      45.472 128.573  21.265  1.00  0.00     0.036 A 
ATOM     16  N   UNL     1      44.221 129.818  23.493  1.00  0.00    -0.440 NA
ATOM     17  C   UNL     1      45.176 127.865  22.417  1.00  0.00    -0.025 A 
ATOM     18  C   UNL     1      44.543 128.505  23.521  1.00  0.00    -0.052 A 
ATOM     19  C   UNL     1      45.380 126.565  22.802  1.00  0.00     0.003 A 
ATOM     20  N   UNL     1      44.358 127.658  24.545  1.00  0.00    -0.442 NA
ATOM     21  C   UNL     1      44.867 126.479  24.099  1.00  0.00    -0.022 A 
ENDBRANCH  12  13
ENDBRANCH   7  12
BRANCH   9  22
ATOM     22  N   UNL     1      42.974 132.274  20.669  1.00  0.00    -0.396 N 
ATOM     23  H   UNL     1      41.977 132.221  20.974  1.00  0.00     0.156 HD
ATOM     24  H   UNL     1      43.685 132.461  21.410  1.00  0.00     0.156 HD
ENDBRANCH   9  22
ENDBRANCH   4   5
ENDBRANCH   1   4
BRANCH   1  25
ATOM     25  C   UNL     1      46.423 131.229  15.044  1.00  0.00     0.038 C 
BRANCH  25  26
ATOM     26  C   UNL     1      46.777 130.805  13.611  1.00  0.00     0.029 C 
BRANCH  26  27
ATOM     27  C   UNL     1      48.036 129.982  13.570  1.00  0.00    -0.035 C 
ATOM     28  C   UNL     1      48.540 129.518  12.424  1.00  0.00     0.004 C 
ENDBRANCH  26  27
ENDBRANCH  25  26
ENDBRANCH   1  25
TORSDOF 9
ENDMDL
MODEL 9
REMARK VINA RESULT:      -4.3      3.648      6.733
REMARK SMILES C=CCC[C@H](O)Cn1cc(F)cc(N)/c1=N\c1c[n-]c2nccc-2c1
REMARK SMILES IDX 5 1 6 2 7 4 8 5 9 6 15 7 10 8 13 9 12 10 11 11 16 12 17 13
REMARK SMILES IDX 18 14 25 15 19 16 24 17 20 18 23 19 21 20 22 21 14 22 4 25
REMARK SMILES IDX 3 26 2 27 1 28
REMARK H PARENT 6 3 14 23 14 24
ROOT
ATOM      1  C   UNL     1      47.047 131.651  21.064  1.00  0.00     0.134 C 
ENDROOT
BRANCH   1   2
ATOM      2  O   UNL     1      48.336 131.829  20.538  1.00  0.00    -0.391 OA
ATOM      3  H   UNL     1      48.971 131.740  21.295  1.00  0.00     0.211 HD
ENDBRANCH   1   2
BRANCH   1   4
ATOM      4  C   UNL     1      46.161 130.875  20.067  1.00  0.00     0.155 C 
BRANCH   4   5
ATOM      5  N   UNL     1      44.737 131.265  20.166  1.00  0.00    -0.326 N 
ATOM      6  C   UNL     1      44.086 130.994  21.339  1.00  0.00     0.127 A 
ATOM      7  C   UNL     1      44.088 131.905  19.128  1.00  0.00     0.156 A 
ATOM      8  C   UNL     1      42.750 131.334  21.512  1.00  0.00     0.141 A 
ATOM      9  C   UNL     1      42.687 132.154  19.240  1.00  0.00     0.078 A 
ATOM     10  C   UNL     1      42.051 131.903  20.459  1.00  0.00     0.070 A 
ATOM     11  F   UNL     1      42.123 131.065  22.683  1.00  0.00    -0.205 F 
BRANCH   7  12
ATOM     12  N   UNL     1      44.791 132.266  18.082  1.00  0.00    -0.229 NA
BRANCH  12  13
ATOM     13  C   UNL     1      45.359 131.472  17.033  1.00  0.00     0.062 A 
ATOM     14  C   UNL     1      45.414 130.061  17.192  1.00  0.00     0.006 A 
ATOM     15  C   UNL     1      45.967 132.082  15.913  1.00  0.00     0.036 A 
ATOM     16  N   UNL     1      45.999 129.260  16.251  1.00  0.00    -0.440 NA
ATOM     17  C   UNL     1      46.546 131.247  14.972  1.00  0.00    -0.025 A 
ATOM     18  C   UNL     1      46.546 129.835  15.156  1.00  0.00    -0.052 A 
ATOM     19  C   UNL     1      47.204 131.473  13.791  1.00  0.00     0.003 A 
ATOM     20  N   UNL     1      47.170 129.205  14.149  1.00  0.00    -0.442 NA
ATOM     21  C   UNL     1      47.564 130.208  13.320  1.00  0.00    -0.022 A 
ENDBRANCH  12  13
ENDBRANCH   7  12
BRANCH   9  22
ATOM     22  N   UNL     1      41.865 132.503  18.119  1.00  0.00    -0.396 N 
ATOM     23  H   UNL     1      41.741 133.498  17.830  1.00  0.00     0.156 HD
ATOM     24  H   UNL     1      41.562 131.772  17.438  1.00  0.00     0.156 HD
ENDBRANCH   9  22
ENDBRANCH   4   5
ENDBRANCH   1   4
BRANCH   1  25
ATOM     25  C   UNL     1      46.441 133.021  21.426  1.00  0.00     0.038 C 
BRANCH  25  26
ATOM     26  C   UNL     1      47.497 134.132  21.519  1.00  0.00     0.029 C 
BRANCH  26  27
ATOM     27  C   UNL     1      48.092 134.219  22.899  1.00  0.00    -0.035 C 
ATOM     28  C   UNL     1      49.221 134.890  23.141  1.00  0.00     0.004 C 
ENDBRANCH  26  27
ENDBRANCH  25  26
ENDBRANCH   1  25
TORSDOF 9
ENDMDL


