REMARK SMILES NNc1ccccc1-c1[nH]c2ccccc2[nH+]1
REMARK SMILES IDX 3 1 4 2 5 3 6 4 7 5 8 6 2 7 1 9 9 12 10 13 17 14 11 15 16 16
REMARK SMILES IDX 12 17 15 18 13 19 14 20
REMARK H PARENT 2 8 1 10 1 11 10 21 17 22
ROOT
ATOM      1  C   UNL     1       1.834   0.009   1.802  1.00  0.00     0.064 A 
ATOM      2  C   UNL     1       1.996  -0.571   3.070  1.00  0.00     0.028 A 
ATOM      3  C   UNL     1       1.078  -1.509   3.546  1.00  0.00     0.002 A 
ATOM      4  C   UNL     1      -0.012  -1.881   2.760  1.00  0.00     0.001 A 
ATOM      5  C   UNL     1      -0.175  -1.334   1.486  1.00  0.00     0.019 A 
ATOM      6  C   UNL     1       0.751  -0.403   0.983  1.00  0.00     0.088 A 
ENDROOT
BRANCH   1   7
ATOM      7  N   UNL     1       2.751   1.037   1.394  1.00  0.00    -0.323 N 
ATOM      8  H   UNL     1       3.692   1.073   1.849  1.00  0.00     0.181 HD
BRANCH   7   9
ATOM      9  N   UNL     1       2.285   2.193   0.749  1.00  0.00    -0.250 NA
ATOM     10  H   UNL     1       2.151   2.923   1.485  1.00  0.00     0.143 HD
ATOM     11  H   UNL     1       3.051   2.527   0.121  1.00  0.00     0.143 HD
ENDBRANCH   7   9
ENDBRANCH   1   7
BRANCH   6  12
ATOM     12  C   UNL     1       0.594   0.064  -0.412  1.00  0.00     0.287 A 
ATOM     13  N   UNL     1       1.625   0.182  -1.289  1.00  0.00    -0.236 N 
ATOM     14  N   UNL     1      -0.606   0.365  -0.972  1.00  0.00    -0.236 N 
ATOM     15  C   UNL     1       1.042   0.585  -2.429  1.00  0.00     0.172 A 
ATOM     16  C   UNL     1      -0.304   0.696  -2.237  1.00  0.00     0.172 A 
ATOM     17  C   UNL     1       1.638   0.856  -3.658  1.00  0.00     0.056 A 
ATOM     18  C   UNL     1      -1.166   1.092  -3.258  1.00  0.00     0.056 A 
ATOM     19  C   UNL     1       0.798   1.260  -4.713  1.00  0.00     0.005 A 
ATOM     20  C   UNL     1      -0.598   1.378  -4.514  1.00  0.00     0.005 A 
ATOM     21  H   UNL     1       2.637  -0.021  -1.129  1.00  0.00     0.312 HD
ATOM     22  H   UNL     1      -1.550   0.351  -0.523  1.00  0.00     0.312 HD
ENDBRANCH   6  12
TORSDOF 3


