MODEL 1
REMARK VINA RESULT:      -7.3      0.000      0.000
REMARK SMILES C#CCOCn1[nH+]c2cc(-c3c[nH+]c(F)cc3C)ccc2c1C
REMARK SMILES IDX 4 1 3 2 2 3 1 4 5 5 6 6 7 7 22 8 8 9 21 10 9 11 20 12 10 13
REMARK SMILES IDX 19 14 23 16 11 17 12 18 17 19 13 20 16 21 14 22 18 23 15 25
REMARK H PARENT 7 15 13 24
ROOT
ATOM      1  O   UNL     1      44.931 130.014  23.461  1.00  0.00    -0.342 OA
ENDROOT
BRANCH   1   2
ATOM      2  C   UNL     1      44.276 129.235  24.438  1.00  0.00     0.251 C 
BRANCH   2   3
ATOM      3  C   UNL     1      42.875 129.070  24.047  1.00  0.00    -0.078 C 
ATOM      4  C   UNL     1      41.722 128.934  23.726  1.00  0.00     0.006 C 
ENDBRANCH   2   3
ENDBRANCH   1   2
BRANCH   1   5
ATOM      5  C   UNL     1      44.131 131.131  23.136  1.00  0.00     0.351 C 
BRANCH   5   6
ATOM      6  N   UNL     1      44.159 131.334  21.689  1.00  0.00    -0.133 N 
ATOM      7  N   UNL     1      45.179 130.986  20.913  1.00  0.00    -0.121 N 
ATOM      8  C   UNL     1      43.147 131.815  20.918  1.00  0.00     0.090 A 
ATOM      9  C   UNL     1      44.831 131.239  19.641  1.00  0.00     0.236 A 
ATOM     10  C   UNL     1      43.562 131.753  19.599  1.00  0.00     0.073 A 
ATOM     11  C   UNL     1      45.571 131.009  18.485  1.00  0.00     0.091 A 
ATOM     12  C   UNL     1      42.933 132.064  18.397  1.00  0.00     0.018 A 
ATOM     13  C   UNL     1      44.977 131.333  17.244  1.00  0.00    -0.005 A 
ATOM     14  C   UNL     1      43.654 131.849  17.208  1.00  0.00     0.010 A 
ATOM     15  H   UNL     1      46.078 130.567  21.244  1.00  0.00     0.489 HD
ATOM     16  C   UNL     1      41.785 132.200  21.412  1.00  0.00     0.071 C 
BRANCH  13  17
ATOM     17  C   UNL     1      45.722 131.097  15.987  1.00  0.00     0.049 A 
ATOM     18  C   UNL     1      46.369 132.179  15.367  1.00  0.00     0.317 A 
ATOM     19  C   UNL     1      45.801 129.821  15.383  1.00  0.00    -0.028 A 
ATOM     20  N   UNL     1      47.084 131.996  14.225  1.00  0.00    -0.186 N 
ATOM     21  C   UNL     1      46.563 129.666  14.216  1.00  0.00     0.118 A 
ATOM     22  C   UNL     1      47.197 130.771  13.647  1.00  0.00     0.358 A 
ATOM     23  C   UNL     1      45.105 128.618  15.964  1.00  0.00     0.045 C 
ATOM     24  H   UNL     1      47.561 132.814  13.787  1.00  0.00     0.456 HD
ATOM     25  F   UNL     1      47.926 130.621  12.514  1.00  0.00    -0.136 F 
ENDBRANCH  13  17
ENDBRANCH   5   6
ENDBRANCH   1   5
TORSDOF 5
ENDMDL
MODEL 2
REMARK VINA RESULT:      -7.1      1.040      1.764
REMARK SMILES C#CCOCn1[nH+]c2cc(-c3c[nH+]c(F)cc3C)ccc2c1C
REMARK SMILES IDX 4 1 3 2 2 3 1 4 5 5 6 6 7 7 22 8 8 9 21 10 9 11 20 12 10 13
REMARK SMILES IDX 19 14 23 16 11 17 12 18 17 19 13 20 16 21 14 22 18 23 15 25
REMARK H PARENT 7 15 13 24
ROOT
ATOM      1  O   UNL     1      44.744 130.321  23.668  1.00  0.00    -0.342 OA
ENDROOT
BRANCH   1   2
ATOM      2  C   UNL     1      44.020 129.207  24.142  1.00  0.00     0.251 C 
BRANCH   2   3
ATOM      3  C   UNL     1      44.764 127.989  23.820  1.00  0.00    -0.078 C 
ATOM      4  C   UNL     1      45.378 126.986  23.556  1.00  0.00     0.006 C 
ENDBRANCH   2   3
ENDBRANCH   1   2
BRANCH   1   5
ATOM      5  C   UNL     1      43.843 131.299  23.193  1.00  0.00     0.351 C 
BRANCH   5   6
ATOM      6  N   UNL     1      43.975 131.404  21.741  1.00  0.00    -0.133 N 
ATOM      7  N   UNL     1      45.009 130.928  21.056  1.00  0.00    -0.121 N 
ATOM      8  C   UNL     1      43.055 131.912  20.878  1.00  0.00     0.090 A 
ATOM      9  C   UNL     1      44.759 131.124  19.750  1.00  0.00     0.236 A 
ATOM     10  C   UNL     1      43.542 131.731  19.595  1.00  0.00     0.073 A 
ATOM     11  C   UNL     1      45.547 130.762  18.662  1.00  0.00     0.091 A 
ATOM     12  C   UNL     1      43.014 132.012  18.337  1.00  0.00     0.018 A 
ATOM     13  C   UNL     1      45.058 131.050  17.367  1.00  0.00    -0.005 A 
ATOM     14  C   UNL     1      43.787 131.664  17.213  1.00  0.00     0.010 A 
ATOM     15  H   UNL     1      45.848 130.462  21.469  1.00  0.00     0.489 HD
ATOM     16  C   UNL     1      41.701 132.433  21.257  1.00  0.00     0.071 C 
BRANCH  13  17
ATOM     17  C   UNL     1      45.855 130.675  16.178  1.00  0.00     0.049 A 
ATOM     18  C   UNL     1      46.165 129.321  15.967  1.00  0.00     0.317 A 
ATOM     19  C   UNL     1      46.323 131.633  15.248  1.00  0.00    -0.028 A 
ATOM     20  N   UNL     1      46.873 128.936  14.872  1.00  0.00    -0.186 N 
ATOM     21  C   UNL     1      47.034 131.196  14.121  1.00  0.00     0.118 A 
ATOM     22  C   UNL     1      47.304 129.838  13.951  1.00  0.00     0.358 A 
ATOM     23  C   UNL     1      46.066 133.107  15.421  1.00  0.00     0.045 C 
ATOM     24  H   UNL     1      47.085 127.923  14.734  1.00  0.00     0.456 HD
ATOM     25  F   UNL     1      48.000 129.419  12.866  1.00  0.00    -0.136 F 
ENDBRANCH  13  17
ENDBRANCH   5   6
ENDBRANCH   1   5
TORSDOF 5
ENDMDL
MODEL 3
REMARK VINA RESULT:      -6.4      1.555      1.990
REMARK SMILES C#CCOCn1[nH+]c2cc(-c3c[nH+]c(F)cc3C)ccc2c1C
REMARK SMILES IDX 4 1 3 2 2 3 1 4 5 5 6 6 7 7 22 8 8 9 21 10 9 11 20 12 10 13
REMARK SMILES IDX 19 14 23 16 11 17 12 18 17 19 13 20 16 21 14 22 18 23 15 25
REMARK H PARENT 7 15 13 24
ROOT
ATOM      1  O   UNL     1      45.019 129.097  24.353  1.00  0.00    -0.342 OA
ENDROOT
BRANCH   1   2
ATOM      2  C   UNL     1      44.368 127.847  24.281  1.00  0.00     0.251 C 
BRANCH   2   3
ATOM      3  C   UNL     1      45.138 126.964  23.405  1.00  0.00    -0.078 C 
ATOM      4  C   UNL     1      45.773 126.237  22.683  1.00  0.00     0.006 C 
ENDBRANCH   2   3
ENDBRANCH   1   2
BRANCH   1   5
ATOM      5  C   UNL     1      44.086 130.128  24.109  1.00  0.00     0.351 C 
BRANCH   5   6
ATOM      6  N   UNL     1      44.169 130.523  22.705  1.00  0.00    -0.133 N 
ATOM      7  N   UNL     1      45.023 129.994  21.836  1.00  0.00    -0.121 N 
ATOM      8  C   UNL     1      43.357 131.405  22.062  1.00  0.00     0.090 A 
ATOM      9  C   UNL     1      44.766 130.529  20.631  1.00  0.00     0.236 A 
ATOM     10  C   UNL     1      43.723 131.412  20.727  1.00  0.00     0.073 A 
ATOM     11  C   UNL     1      45.389 130.253  19.418  1.00  0.00     0.091 A 
ATOM     12  C   UNL     1      43.219 132.079  19.614  1.00  0.00     0.018 A 
ATOM     13  C   UNL     1      44.922 130.927  18.266  1.00  0.00    -0.005 A 
ATOM     14  C   UNL     1      43.829 131.828  18.371  1.00  0.00     0.010 A 
ATOM     15  H   UNL     1      45.745 129.272  22.059  1.00  0.00     0.489 HD
ATOM     16  C   UNL     1      42.189 132.117  22.674  1.00  0.00     0.071 C 
BRANCH  13  17
ATOM     17  C   UNL     1      45.547 130.659  16.951  1.00  0.00     0.049 A 
ATOM     18  C   UNL     1      46.803 130.033  16.912  1.00  0.00     0.317 A 
ATOM     19  C   UNL     1      44.926 131.018  15.732  1.00  0.00    -0.028 A 
ATOM     20  N   UNL     1      47.397 129.748  15.723  1.00  0.00    -0.186 N 
ATOM     21  C   UNL     1      45.560 130.691  14.524  1.00  0.00     0.118 A 
ATOM     22  C   UNL     1      46.802 130.056  14.540  1.00  0.00     0.358 A 
ATOM     23  C   UNL     1      43.597 131.725  15.689  1.00  0.00     0.045 C 
ATOM     24  H   UNL     1      48.328 129.276  15.719  1.00  0.00     0.456 HD
ATOM     25  F   UNL     1      47.418 129.749  13.371  1.00  0.00    -0.136 F 
ENDBRANCH  13  17
ENDBRANCH   5   6
ENDBRANCH   1   5
TORSDOF 5
ENDMDL
MODEL 4
REMARK VINA RESULT:      -6.2      1.500      1.875
REMARK SMILES C#CCOCn1[nH+]c2cc(-c3c[nH+]c(F)cc3C)ccc2c1C
REMARK SMILES IDX 4 1 3 2 2 3 1 4 5 5 6 6 7 7 22 8 8 9 21 10 9 11 20 12 10 13
REMARK SMILES IDX 19 14 23 16 11 17 12 18 17 19 13 20 16 21 14 22 18 23 15 25
REMARK H PARENT 7 15 13 24
ROOT
ATOM      1  O   UNL     1      43.979 127.875  23.053  1.00  0.00    -0.342 OA
ENDROOT
BRANCH   1   2
ATOM      2  C   UNL     1      44.319 126.991  24.099  1.00  0.00     0.251 C 
BRANCH   2   3
ATOM      3  C   UNL     1      45.748 126.690  24.016  1.00  0.00    -0.078 C 
ATOM      4  C   UNL     1      46.926 126.442  23.947  1.00  0.00     0.006 C 
ENDBRANCH   2   3
ENDBRANCH   1   2
BRANCH   1   5
ATOM      5  C   UNL     1      44.713 129.072  23.193  1.00  0.00     0.351 C 
BRANCH   5   6
ATOM      6  N   UNL     1      44.752 129.762  21.905  1.00  0.00    -0.133 N 
ATOM      7  N   UNL     1      45.494 129.365  20.876  1.00  0.00    -0.121 N 
ATOM      8  C   UNL     1      44.000 130.832  21.535  1.00  0.00     0.090 A 
ATOM      9  C   UNL     1      45.222 130.176  19.840  1.00  0.00     0.236 A 
ATOM     10  C   UNL     1      44.284 131.104  20.208  1.00  0.00     0.073 A 
ATOM     11  C   UNL     1      45.740 130.123  18.549  1.00  0.00     0.091 A 
ATOM     12  C   UNL     1      43.786 132.043  19.309  1.00  0.00     0.018 A 
ATOM     13  C   UNL     1      45.276 131.074  17.611  1.00  0.00    -0.005 A 
ATOM     14  C   UNL     1      44.292 132.022  17.996  1.00  0.00     0.010 A 
ATOM     15  H   UNL     1      46.149 128.551  20.878  1.00  0.00     0.489 HD
ATOM     16  C   UNL     1      42.950 131.491  22.379  1.00  0.00     0.071 C 
BRANCH  13  17
ATOM     17  C   UNL     1      45.791 131.051  16.224  1.00  0.00     0.049 A 
ATOM     18  C   UNL     1      46.372 132.216  15.696  1.00  0.00     0.317 A 
ATOM     19  C   UNL     1      45.713 129.900  15.407  1.00  0.00    -0.028 A 
ATOM     20  N   UNL     1      46.878 132.226  14.434  1.00  0.00    -0.186 N 
ATOM     21  C   UNL     1      46.263 129.941  14.117  1.00  0.00     0.118 A 
ATOM     22  C   UNL     1      46.841 131.120  13.645  1.00  0.00     0.358 A 
ATOM     23  C   UNL     1      45.072 128.623  15.885  1.00  0.00     0.045 C 
ATOM     24  H   UNL     1      47.311 133.102  14.066  1.00  0.00     0.456 HD
ATOM     25  F   UNL     1      47.364 131.161  12.395  1.00  0.00    -0.136 F 
ENDBRANCH  13  17
ENDBRANCH   5   6
ENDBRANCH   1   5
TORSDOF 5
ENDMDL
MODEL 5
REMARK VINA RESULT:      -6.1      1.108      1.684
REMARK SMILES C#CCOCn1[nH+]c2cc(-c3c[nH+]c(F)cc3C)ccc2c1C
REMARK SMILES IDX 4 1 3 2 2 3 1 4 5 5 6 6 7 7 22 8 8 9 21 10 9 11 20 12 10 13
REMARK SMILES IDX 19 14 23 16 11 17 12 18 17 19 13 20 16 21 14 22 18 23 15 25
REMARK H PARENT 7 15 13 24
ROOT
ATOM      1  O   UNL     1      44.536 130.012  23.455  1.00  0.00    -0.342 OA
ENDROOT
BRANCH   1   2
ATOM      2  C   UNL     1      43.350 129.656  24.131  1.00  0.00     0.251 C 
BRANCH   2   3
ATOM      3  C   UNL     1      42.580 130.871  24.402  1.00  0.00    -0.078 C 
ATOM      4  C   UNL     1      41.946 131.871  24.625  1.00  0.00     0.006 C 
ENDBRANCH   2   3
ENDBRANCH   1   2
BRANCH   1   5
ATOM      5  C   UNL     1      44.458 131.361  23.046  1.00  0.00     0.351 C 
BRANCH   5   6
ATOM      6  N   UNL     1      44.493 131.420  21.586  1.00  0.00    -0.133 N 
ATOM      7  N   UNL     1      45.521 131.006  20.854  1.00  0.00    -0.121 N 
ATOM      8  C   UNL     1      43.483 131.815  20.767  1.00  0.00     0.090 A 
ATOM      9  C   UNL     1      45.178 131.130  19.561  1.00  0.00     0.236 A 
ATOM     10  C   UNL     1      43.906 131.627  19.462  1.00  0.00     0.073 A 
ATOM     11  C   UNL     1      45.928 130.793  18.437  1.00  0.00     0.091 A 
ATOM     12  C   UNL     1      43.282 131.813  18.231  1.00  0.00     0.018 A 
ATOM     13  C   UNL     1      45.339 130.989  17.167  1.00  0.00    -0.005 A 
ATOM     14  C   UNL     1      44.012 131.488  17.073  1.00  0.00     0.010 A 
ATOM     15  H   UNL     1      46.421 130.629  21.229  1.00  0.00     0.489 HD
ATOM     16  C   UNL     1      42.115 132.236  21.212  1.00  0.00     0.071 C 
BRANCH  13  17
ATOM     17  C   UNL     1      46.093 130.637  15.943  1.00  0.00     0.049 A 
ATOM     18  C   UNL     1      46.430 129.292  15.717  1.00  0.00     0.317 A 
ATOM     19  C   UNL     1      46.492 131.607  14.995  1.00  0.00    -0.028 A 
ATOM     20  N   UNL     1      47.100 128.927  14.592  1.00  0.00    -0.186 N 
ATOM     21  C   UNL     1      47.164 131.191  13.837  1.00  0.00     0.118 A 
ATOM     22  C   UNL     1      47.464 129.841  13.654  1.00  0.00     0.358 A 
ATOM     23  C   UNL     1      46.202 133.074  15.182  1.00  0.00     0.045 C 
ATOM     24  H   UNL     1      47.333 127.920  14.443  1.00  0.00     0.456 HD
ATOM     25  F   UNL     1      48.123 129.441  12.538  1.00  0.00    -0.136 F 
ENDBRANCH  13  17
ENDBRANCH   5   6
ENDBRANCH   1   5
TORSDOF 5
ENDMDL
MODEL 6
REMARK VINA RESULT:      -5.9      1.717      1.972
REMARK SMILES C#CCOCn1[nH+]c2cc(-c3c[nH+]c(F)cc3C)ccc2c1C
REMARK SMILES IDX 4 1 3 2 2 3 1 4 5 5 6 6 7 7 22 8 8 9 21 10 9 11 20 12 10 13
REMARK SMILES IDX 19 14 23 16 11 17 12 18 17 19 13 20 16 21 14 22 18 23 15 25
REMARK H PARENT 7 15 13 24
ROOT
ATOM      1  O   UNL     1      44.265 128.007  23.250  1.00  0.00    -0.342 OA
ENDROOT
BRANCH   1   2
ATOM      2  C   UNL     1      44.157 127.454  24.544  1.00  0.00     0.251 C 
BRANCH   2   3
ATOM      3  C   UNL     1      44.184 125.995  24.436  1.00  0.00    -0.078 C 
ATOM      4  C   UNL     1      44.206 124.793  24.347  1.00  0.00     0.006 C 
ENDBRANCH   2   3
ENDBRANCH   1   2
BRANCH   1   5
ATOM      5  C   UNL     1      44.588 129.378  23.351  1.00  0.00     0.351 C 
BRANCH   5   6
ATOM      6  N   UNL     1      44.668 129.950  22.009  1.00  0.00    -0.133 N 
ATOM      7  N   UNL     1      45.430 129.456  21.039  1.00  0.00    -0.121 N 
ATOM      8  C   UNL     1      43.938 130.990  21.526  1.00  0.00     0.090 A 
ATOM      9  C   UNL     1      45.194 130.174  19.928  1.00  0.00     0.236 A 
ATOM     10  C   UNL     1      44.259 131.140  20.188  1.00  0.00     0.073 A 
ATOM     11  C   UNL     1      45.744 130.002  18.661  1.00  0.00     0.091 A 
ATOM     12  C   UNL     1      43.795 132.001  19.197  1.00  0.00     0.018 A 
ATOM     13  C   UNL     1      45.315 130.871  17.631  1.00  0.00    -0.005 A 
ATOM     14  C   UNL     1      44.333 131.859  17.904  1.00  0.00     0.010 A 
ATOM     15  H   UNL     1      46.075 128.639  21.130  1.00  0.00     0.489 HD
ATOM     16  C   UNL     1      42.875 131.732  22.281  1.00  0.00     0.071 C 
BRANCH  13  17
ATOM     17  C   UNL     1      45.864 130.720  16.265  1.00  0.00     0.049 A 
ATOM     18  C   UNL     1      47.127 130.127  16.102  1.00  0.00     0.317 A 
ATOM     19  C   UNL     1      45.165 131.158  15.116  1.00  0.00    -0.028 A 
ATOM     20  N   UNL     1      47.652 129.948  14.861  1.00  0.00    -0.186 N 
ATOM     21  C   UNL     1      45.729 130.940  13.851  1.00  0.00     0.118 A 
ATOM     22  C   UNL     1      46.981 130.334  13.743  1.00  0.00     0.358 A 
ATOM     23  C   UNL     1      43.823 131.836  15.208  1.00  0.00     0.045 C 
ATOM     24  H   UNL     1      48.590 129.499  14.764  1.00  0.00     0.456 HD
ATOM     25  F   UNL     1      47.530 130.133  12.519  1.00  0.00    -0.136 F 
ENDBRANCH  13  17
ENDBRANCH   5   6
ENDBRANCH   1   5
TORSDOF 5
ENDMDL
MODEL 7
REMARK VINA RESULT:      -5.7      1.117      1.401
REMARK SMILES C#CCOCn1[nH+]c2cc(-c3c[nH+]c(F)cc3C)ccc2c1C
REMARK SMILES IDX 4 1 3 2 2 3 1 4 5 5 6 6 7 7 22 8 8 9 21 10 9 11 20 12 10 13
REMARK SMILES IDX 19 14 23 16 11 17 12 18 17 19 13 20 16 21 14 22 18 23 15 25
REMARK H PARENT 7 15 13 24
ROOT
ATOM      1  O   UNL     1      43.451 129.161  22.768  1.00  0.00    -0.342 OA
ENDROOT
BRANCH   1   2
ATOM      2  C   UNL     1      43.887 127.820  22.720  1.00  0.00     0.251 C 
BRANCH   2   3
ATOM      3  C   UNL     1      44.892 127.613  23.764  1.00  0.00    -0.078 C 
ATOM      4  C   UNL     1      45.719 127.443  24.623  1.00  0.00     0.006 C 
ENDBRANCH   2   3
ENDBRANCH   1   2
BRANCH   1   5
ATOM      5  C   UNL     1      44.563 130.021  22.643  1.00  0.00     0.351 C 
BRANCH   5   6
ATOM      6  N   UNL     1      44.640 130.504  21.265  1.00  0.00    -0.133 N 
ATOM      7  N   UNL     1      45.538 130.081  20.382  1.00  0.00    -0.121 N 
ATOM      8  C   UNL     1      43.783 131.370  20.661  1.00  0.00     0.090 A 
ATOM      9  C   UNL     1      45.264 130.670  19.206  1.00  0.00     0.236 A 
ATOM     10  C   UNL     1      44.167 131.479  19.335  1.00  0.00     0.073 A 
ATOM     11  C   UNL     1      45.920 130.505  17.990  1.00  0.00     0.091 A 
ATOM     12  C   UNL     1      43.637 132.178  18.254  1.00  0.00     0.018 A 
ATOM     13  C   UNL     1      45.427 131.216  16.872  1.00  0.00    -0.005 A 
ATOM     14  C   UNL     1      44.279 132.040  17.009  1.00  0.00     0.010 A 
ATOM     15  H   UNL     1      46.300 129.393  20.575  1.00  0.00     0.489 HD
ATOM     16  C   UNL     1      42.564 131.971  21.292  1.00  0.00     0.071 C 
BRANCH  13  17
ATOM     17  C   UNL     1      46.086 131.066  15.555  1.00  0.00     0.049 A 
ATOM     18  C   UNL     1      46.645 132.199  14.942  1.00  0.00     0.317 A 
ATOM     19  C   UNL     1      46.168 129.822  14.888  1.00  0.00    -0.028 A 
ATOM     20  N   UNL     1      47.281 132.096  13.745  1.00  0.00    -0.186 N 
ATOM     21  C   UNL     1      46.849 129.750  13.663  1.00  0.00     0.118 A 
ATOM     22  C   UNL     1      47.398 130.904  13.103  1.00  0.00     0.358 A 
ATOM     23  C   UNL     1      45.563 128.567  15.460  1.00  0.00     0.045 C 
ATOM     24  H   UNL     1      47.694 132.952  13.312  1.00  0.00     0.456 HD
ATOM     25  F   UNL     1      48.046 130.834  11.915  1.00  0.00    -0.136 F 
ENDBRANCH  13  17
ENDBRANCH   5   6
ENDBRANCH   1   5
TORSDOF 5
ENDMDL
MODEL 8
REMARK VINA RESULT:      -5.7      1.418      2.096
REMARK SMILES C#CCOCn1[nH+]c2cc(-c3c[nH+]c(F)cc3C)ccc2c1C
REMARK SMILES IDX 4 1 3 2 2 3 1 4 5 5 6 6 7 7 22 8 8 9 21 10 9 11 20 12 10 13
REMARK SMILES IDX 19 14 23 16 11 17 12 18 17 19 13 20 16 21 14 22 18 23 15 25
REMARK H PARENT 7 15 13 24
ROOT
ATOM      1  O   UNL     1      44.608 131.362  22.438  1.00  0.00    -0.342 OA
ENDROOT
BRANCH   1   2
ATOM      2  C   UNL     1      44.350 131.495  23.819  1.00  0.00     0.251 C 
BRANCH   2   3
ATOM      3  C   UNL     1      43.133 130.750  24.144  1.00  0.00    -0.078 C 
ATOM      4  C   UNL     1      42.131 130.136  24.412  1.00  0.00     0.006 C 
ENDBRANCH   2   3
ENDBRANCH   1   2
BRANCH   1   5
ATOM      5  C   UNL     1      43.463 131.746  21.707  1.00  0.00     0.351 C 
BRANCH   5   6
ATOM      6  N   UNL     1      43.769 131.693  20.279  1.00  0.00    -0.133 N 
ATOM      7  N   UNL     1      44.907 131.218  19.783  1.00  0.00    -0.121 N 
ATOM      8  C   UNL     1      42.937 132.031  19.258  1.00  0.00     0.090 A 
ATOM      9  C   UNL     1      44.812 131.245  18.443  1.00  0.00     0.236 A 
ATOM     10  C   UNL     1      43.590 131.741  18.073  1.00  0.00     0.073 A 
ATOM     11  C   UNL     1      45.749 130.819  17.507  1.00  0.00     0.091 A 
ATOM     12  C   UNL     1      43.209 131.837  16.737  1.00  0.00     0.018 A 
ATOM     13  C   UNL     1      45.410 130.921  16.138  1.00  0.00    -0.005 A 
ATOM     14  C   UNL     1      44.134 131.420  15.763  1.00  0.00     0.010 A 
ATOM     15  H   UNL     1      45.713 130.865  20.346  1.00  0.00     0.489 HD
ATOM     16  C   UNL     1      41.519 132.493  19.409  1.00  0.00     0.071 C 
BRANCH  13  17
ATOM     17  C   UNL     1      46.370 130.471  15.106  1.00  0.00     0.049 A 
ATOM     18  C   UNL     1      46.614 129.096  14.958  1.00  0.00     0.317 A 
ATOM     19  C   UNL     1      47.057 131.378  14.265  1.00  0.00    -0.028 A 
ATOM     20  N   UNL     1      47.470 128.644  14.003  1.00  0.00    -0.186 N 
ATOM     21  C   UNL     1      47.918 130.874  13.279  1.00  0.00     0.118 A 
ATOM     22  C   UNL     1      48.115 129.498  13.165  1.00  0.00     0.358 A 
ATOM     23  C   UNL     1      46.879 132.869  14.385  1.00  0.00     0.045 C 
ATOM     24  H   UNL     1      47.630 127.616  13.908  1.00  0.00     0.456 HD
ATOM     25  F   UNL     1      48.955 129.013  12.218  1.00  0.00    -0.136 F 
ENDBRANCH  13  17
ENDBRANCH   5   6
ENDBRANCH   1   5
TORSDOF 5
ENDMDL
MODEL 9
REMARK VINA RESULT:      -4.9      3.948      7.993
REMARK SMILES C#CCOCn1[nH+]c2cc(-c3c[nH+]c(F)cc3C)ccc2c1C
REMARK SMILES IDX 4 1 3 2 2 3 1 4 5 5 6 6 7 7 22 8 8 9 21 10 9 11 20 12 10 13
REMARK SMILES IDX 19 14 23 16 11 17 12 18 17 19 13 20 16 21 14 22 18 23 15 25
REMARK H PARENT 7 15 13 24
ROOT
ATOM      1  O   UNL     1      46.554 131.178  13.160  1.00  0.00    -0.342 OA
ENDROOT
BRANCH   1   2
ATOM      2  C   UNL     1      47.947 131.385  13.063  1.00  0.00     0.251 C 
BRANCH   2   3
ATOM      3  C   UNL     1      48.618 130.085  13.066  1.00  0.00    -0.078 C 
ATOM      4  C   UNL     1      49.171 129.015  13.068  1.00  0.00     0.006 C 
ENDBRANCH   2   3
ENDBRANCH   1   2
BRANCH   1   5
ATOM      5  C   UNL     1      46.303 130.048  13.968  1.00  0.00     0.351 C 
BRANCH   5   6
ATOM      6  N   UNL     1      45.449 130.442  15.087  1.00  0.00    -0.133 N 
ATOM      7  N   UNL     1      45.778 130.276  16.363  1.00  0.00    -0.121 N 
ATOM      8  C   UNL     1      44.259 131.095  15.007  1.00  0.00     0.090 A 
ATOM      9  C   UNL     1      44.805 130.822  17.111  1.00  0.00     0.236 A 
ATOM     10  C   UNL     1      43.837 131.354  16.300  1.00  0.00     0.073 A 
ATOM     11  C   UNL     1      44.734 130.910  18.498  1.00  0.00     0.091 A 
ATOM     12  C   UNL     1      42.731 132.023  16.816  1.00  0.00     0.018 A 
ATOM     13  C   UNL     1      43.615 131.562  19.063  1.00  0.00    -0.005 A 
ATOM     14  C   UNL     1      42.624 132.126  18.216  1.00  0.00     0.010 A 
ATOM     15  H   UNL     1      46.653 129.822  16.710  1.00  0.00     0.489 HD
ATOM     16  C   UNL     1      43.610 131.571  13.742  1.00  0.00     0.071 C 
BRANCH  13  17
ATOM     17  C   UNL     1      43.500 131.689  20.533  1.00  0.00     0.049 A 
ATOM     18  C   UNL     1      42.293 132.150  21.084  1.00  0.00     0.317 A 
ATOM     19  C   UNL     1      44.567 131.368  21.405  1.00  0.00    -0.028 A 
ATOM     20  N   UNL     1      42.142 132.254  22.430  1.00  0.00    -0.186 N 
ATOM     21  C   UNL     1      44.368 131.471  22.790  1.00  0.00     0.118 A 
ATOM     22  C   UNL     1      43.144 131.921  23.286  1.00  0.00     0.358 A 
ATOM     23  C   UNL     1      45.905 130.903  20.894  1.00  0.00     0.045 C 
ATOM     24  H   UNL     1      41.232 132.593  22.816  1.00  0.00     0.456 HD
ATOM     25  F   UNL     1      42.957 132.028  24.624  1.00  0.00    -0.136 F 
ENDBRANCH  13  17
ENDBRANCH   5   6
ENDBRANCH   1   5
TORSDOF 5
ENDMDL


