MODEL 1
REMARK VINA RESULT:     -10.2      0.000      0.000
REMARK SMILES C=Cc1cccc(-c2ccc3cc[nH]c3c2)c1
REMARK SMILES IDX 3 1 4 2 5 3 6 4 7 5 17 6 2 7 1 8 8 9 9 10 16 11 10 12 15 13
REMARK SMILES IDX 11 14 14 15 12 16 13 17
REMARK H PARENT 14 18
ROOT
ATOM      1  C   UNL     1      43.640 131.662  20.271  1.00  0.00    -0.026 A 
ATOM      2  C   UNL     1      44.364 130.927  21.230  1.00  0.00     0.008 A 
ATOM      3  C   UNL     1      45.519 130.233  20.862  1.00  0.00     0.001 A 
ATOM      4  C   UNL     1      45.971 130.267  19.543  1.00  0.00     0.009 A 
ATOM      5  C   UNL     1      45.274 131.003  18.571  1.00  0.00    -0.018 A 
ATOM      6  C   UNL     1      44.111 131.701  18.948  1.00  0.00     0.016 A 
ENDROOT
BRANCH   1   7
ATOM      7  C   UNL     1      42.415 132.428  20.610  1.00  0.00     0.000 C 
ATOM      8  C   UNL     1      41.579 132.946  19.709  1.00  0.00     0.009 C 
ENDBRANCH   1   7
BRANCH   5   9
ATOM      9  C   UNL     1      45.757 131.044  17.167  1.00  0.00    -0.016 A 
ATOM     10  C   UNL     1      45.469 132.164  16.339  1.00  0.00     0.009 A 
ATOM     11  C   UNL     1      46.509 129.967  16.640  1.00  0.00     0.035 A 
ATOM     12  C   UNL     1      45.922 132.213  15.009  1.00  0.00     0.011 A 
ATOM     13  C   UNL     1      46.943 130.050  15.318  1.00  0.00     0.046 A 
ATOM     14  C   UNL     1      46.659 131.133  14.533  1.00  0.00    -0.001 A 
ATOM     15  N   UNL     1      47.665 129.145  14.639  1.00  0.00    -0.361 N 
ATOM     16  C   UNL     1      47.224 130.908  13.298  1.00  0.00     0.028 A 
ATOM     17  C   UNL     1      47.840 129.664  13.402  1.00  0.00     0.083 A 
ATOM     18  H   UNL     1      48.021 128.227  14.988  1.00  0.00     0.166 HD
ENDBRANCH   5   9
TORSDOF 2
ENDMDL
MODEL 2
REMARK VINA RESULT:     -10.2      2.397      6.693
REMARK SMILES C=Cc1cccc(-c2ccc3cc[nH]c3c2)c1
REMARK SMILES IDX 3 1 4 2 5 3 6 4 7 5 17 6 2 7 1 8 8 9 9 10 16 11 10 12 15 13
REMARK SMILES IDX 11 14 14 15 12 16 13 17
REMARK H PARENT 14 18
ROOT
ATOM      1  C   UNL     1      46.128 130.331  14.974  1.00  0.00    -0.026 A 
ATOM      2  C   UNL     1      45.173 130.966  14.156  1.00  0.00     0.008 A 
ATOM      3  C   UNL     1      44.089 131.635  14.727  1.00  0.00     0.001 A 
ATOM      4  C   UNL     1      43.944 131.687  16.113  1.00  0.00     0.009 A 
ATOM      5  C   UNL     1      44.890 131.073  16.951  1.00  0.00    -0.018 A 
ATOM      6  C   UNL     1      45.981 130.400  16.369  1.00  0.00     0.016 A 
ENDROOT
BRANCH   1   7
ATOM      7  C   UNL     1      47.306 129.617  14.420  1.00  0.00     0.000 C 
ATOM      8  C   UNL     1      48.028 130.049  13.384  1.00  0.00     0.009 C 
ENDBRANCH   1   7
BRANCH   5   9
ATOM      9  C   UNL     1      44.740 131.132  18.427  1.00  0.00    -0.016 A 
ATOM     10  C   UNL     1      45.780 130.661  19.276  1.00  0.00     0.009 A 
ATOM     11  C   UNL     1      43.559 131.658  19.004  1.00  0.00     0.035 A 
ATOM     12  C   UNL     1      45.648 130.713  20.675  1.00  0.00     0.011 A 
ATOM     13  C   UNL     1      43.464 131.695  20.394  1.00  0.00     0.046 A 
ATOM     14  C   UNL     1      44.471 131.239  21.198  1.00  0.00    -0.001 A 
ATOM     15  N   UNL     1      42.438 132.156  21.128  1.00  0.00    -0.361 N 
ATOM     16  C   UNL     1      44.070 131.416  22.504  1.00  0.00     0.028 A 
ATOM     17  C   UNL     1      42.803 131.987  22.420  1.00  0.00     0.083 A 
ATOM     18  H   UNL     1      41.542 132.561  20.780  1.00  0.00     0.166 HD
ENDBRANCH   5   9
TORSDOF 2
ENDMDL
MODEL 3
REMARK VINA RESULT:      -9.9      0.997      2.110
REMARK SMILES C=Cc1cccc(-c2ccc3cc[nH]c3c2)c1
REMARK SMILES IDX 3 1 4 2 5 3 6 4 7 5 17 6 2 7 1 8 8 9 9 10 16 11 10 12 15 13
REMARK SMILES IDX 11 14 14 15 12 16 13 17
REMARK H PARENT 14 18
ROOT
ATOM      1  C   UNL     1      44.131 131.549  20.295  1.00  0.00    -0.026 A 
ATOM      2  C   UNL     1      42.798 131.998  20.234  1.00  0.00     0.008 A 
ATOM      3  C   UNL     1      42.175 132.194  19.000  1.00  0.00     0.001 A 
ATOM      4  C   UNL     1      42.865 131.940  17.814  1.00  0.00     0.009 A 
ATOM      5  C   UNL     1      44.192 131.479  17.849  1.00  0.00    -0.018 A 
ATOM      6  C   UNL     1      44.814 131.283  19.096  1.00  0.00     0.016 A 
ENDROOT
BRANCH   1   7
ATOM      7  C   UNL     1      44.836 131.312  21.579  1.00  0.00     0.000 C 
ATOM      8  C   UNL     1      44.238 131.282  22.771  1.00  0.00     0.009 C 
ENDBRANCH   1   7
BRANCH   5   9
ATOM      9  C   UNL     1      44.926 131.203  16.587  1.00  0.00    -0.016 A 
ATOM     10  C   UNL     1      44.468 131.745  15.355  1.00  0.00     0.009 A 
ATOM     11  C   UNL     1      46.090 130.397  16.601  1.00  0.00     0.035 A 
ATOM     12  C   UNL     1      45.157 131.490  14.156  1.00  0.00     0.011 A 
ATOM     13  C   UNL     1      46.747 130.166  15.394  1.00  0.00     0.046 A 
ATOM     14  C   UNL     1      46.296 130.694  14.216  1.00  0.00    -0.001 A 
ATOM     15  N   UNL     1      47.859 129.440  15.197  1.00  0.00    -0.361 N 
ATOM     16  C   UNL     1      47.158 130.285  13.223  1.00  0.00     0.028 A 
ATOM     17  C   UNL     1      48.115 129.509  13.870  1.00  0.00     0.083 A 
ATOM     18  H   UNL     1      48.415 128.926  15.915  1.00  0.00     0.166 HD
ENDBRANCH   5   9
TORSDOF 2
ENDMDL
MODEL 4
REMARK VINA RESULT:      -9.7      2.159      6.516
REMARK SMILES C=Cc1cccc(-c2ccc3cc[nH]c3c2)c1
REMARK SMILES IDX 3 1 4 2 5 3 6 4 7 5 17 6 2 7 1 8 8 9 9 10 16 11 10 12 15 13
REMARK SMILES IDX 11 14 14 15 12 16 13 17
REMARK H PARENT 14 18
ROOT
ATOM      1  C   UNL     1      46.351 130.375  15.023  1.00  0.00    -0.026 A 
ATOM      2  C   UNL     1      45.551 130.860  13.970  1.00  0.00     0.008 A 
ATOM      3  C   UNL     1      44.336 131.492  14.241  1.00  0.00     0.001 A 
ATOM      4  C   UNL     1      43.904 131.656  15.557  1.00  0.00     0.009 A 
ATOM      5  C   UNL     1      44.690 131.192  16.626  1.00  0.00    -0.018 A 
ATOM      6  C   UNL     1      45.914 130.556  16.347  1.00  0.00     0.016 A 
ENDROOT
BRANCH   1   7
ATOM      7  C   UNL     1      47.657 129.708  14.793  1.00  0.00     0.000 C 
ATOM      8  C   UNL     1      48.229 129.569  13.596  1.00  0.00     0.009 C 
ENDBRANCH   1   7
BRANCH   5   9
ATOM      9  C   UNL     1      44.235 131.370  18.028  1.00  0.00    -0.016 A 
ATOM     10  C   UNL     1      42.924 131.850  18.304  1.00  0.00     0.009 A 
ATOM     11  C   UNL     1      45.102 131.064  19.105  1.00  0.00     0.035 A 
ATOM     12  C   UNL     1      42.484 132.021  19.628  1.00  0.00     0.011 A 
ATOM     13  C   UNL     1      44.631 131.246  20.403  1.00  0.00     0.046 A 
ATOM     14  C   UNL     1      43.369 131.707  20.655  1.00  0.00    -0.001 A 
ATOM     15  N   UNL     1      45.290 131.011  21.549  1.00  0.00    -0.361 N 
ATOM     16  C   UNL     1      43.216 131.771  22.022  1.00  0.00     0.028 A 
ATOM     17  C   UNL     1      44.429 131.331  22.543  1.00  0.00     0.083 A 
ATOM     18  H   UNL     1      46.266 130.656  21.658  1.00  0.00     0.166 HD
ENDBRANCH   5   9
TORSDOF 2
ENDMDL
MODEL 5
REMARK VINA RESULT:      -9.4      1.232      2.508
REMARK SMILES C=Cc1cccc(-c2ccc3cc[nH]c3c2)c1
REMARK SMILES IDX 3 1 4 2 5 3 6 4 7 5 17 6 2 7 1 8 8 9 9 10 16 11 10 12 15 13
REMARK SMILES IDX 11 14 14 15 12 16 13 17
REMARK H PARENT 14 18
ROOT
ATOM      1  C   UNL     1      43.978 131.721  20.315  1.00  0.00    -0.026 A 
ATOM      2  C   UNL     1      42.666 132.180  20.089  1.00  0.00     0.008 A 
ATOM      3  C   UNL     1      42.148 132.226  18.793  1.00  0.00     0.001 A 
ATOM      4  C   UNL     1      42.922 131.811  17.710  1.00  0.00     0.009 A 
ATOM      5  C   UNL     1      44.230 131.337  17.911  1.00  0.00    -0.018 A 
ATOM      6  C   UNL     1      44.746 131.293  19.219  1.00  0.00     0.016 A 
ENDROOT
BRANCH   1   7
ATOM      7  C   UNL     1      44.573 131.639  21.673  1.00  0.00     0.000 C 
ATOM      8  C   UNL     1      44.076 130.904  22.668  1.00  0.00     0.009 C 
ENDBRANCH   1   7
BRANCH   5   9
ATOM      9  C   UNL     1      45.054 130.890  16.758  1.00  0.00    -0.016 A 
ATOM     10  C   UNL     1      45.161 129.507  16.445  1.00  0.00     0.009 A 
ATOM     11  C   UNL     1      45.741 131.838  15.962  1.00  0.00     0.035 A 
ATOM     12  C   UNL     1      45.938 129.074  15.356  1.00  0.00     0.011 A 
ATOM     13  C   UNL     1      46.501 131.372  14.891  1.00  0.00     0.046 A 
ATOM     14  C   UNL     1      46.595 130.039  14.600  1.00  0.00    -0.001 A 
ATOM     15  N   UNL     1      47.217 132.102  14.021  1.00  0.00    -0.361 N 
ATOM     16  C   UNL     1      47.409 129.914  13.495  1.00  0.00     0.028 A 
ATOM     17  C   UNL     1      47.775 131.215  13.165  1.00  0.00     0.083 A 
ATOM     18  H   UNL     1      47.324 133.140  14.004  1.00  0.00     0.166 HD
ENDBRANCH   5   9
TORSDOF 2
ENDMDL
MODEL 6
REMARK VINA RESULT:      -8.8      1.264      2.539
REMARK SMILES C=Cc1cccc(-c2ccc3cc[nH]c3c2)c1
REMARK SMILES IDX 3 1 4 2 5 3 6 4 7 5 17 6 2 7 1 8 8 9 9 10 16 11 10 12 15 13
REMARK SMILES IDX 11 14 14 15 12 16 13 17
REMARK H PARENT 14 18
ROOT
ATOM      1  C   UNL     1      43.911 131.244  21.624  1.00  0.00    -0.026 A 
ATOM      2  C   UNL     1      42.724 131.995  21.726  1.00  0.00     0.008 A 
ATOM      3  C   UNL     1      42.116 132.512  20.580  1.00  0.00     0.001 A 
ATOM      4  C   UNL     1      42.674 132.284  19.322  1.00  0.00     0.009 A 
ATOM      5  C   UNL     1      43.851 131.527  19.193  1.00  0.00    -0.018 A 
ATOM      6  C   UNL     1      44.458 131.008  20.351  1.00  0.00     0.016 A 
ENDROOT
BRANCH   1   7
ATOM      7  C   UNL     1      44.591 130.660  22.807  1.00  0.00     0.000 C 
ATOM      8  C   UNL     1      44.316 129.458  23.315  1.00  0.00     0.009 C 
ENDBRANCH   1   7
BRANCH   5   9
ATOM      9  C   UNL     1      44.443 131.278  17.854  1.00  0.00    -0.016 A 
ATOM     10  C   UNL     1      43.839 131.823  16.687  1.00  0.00     0.009 A 
ATOM     11  C   UNL     1      45.616 130.496  17.727  1.00  0.00     0.035 A 
ATOM     12  C   UNL     1      44.393 131.595  15.415  1.00  0.00     0.011 A 
ATOM     13  C   UNL     1      46.137 130.291  16.451  1.00  0.00     0.046 A 
ATOM     14  C   UNL     1      45.547 130.821  15.337  1.00  0.00    -0.001 A 
ATOM     15  N   UNL     1      47.233 129.589  16.121  1.00  0.00    -0.361 N 
ATOM     16  C   UNL     1      46.299 130.439  14.249  1.00  0.00     0.028 A 
ATOM     17  C   UNL     1      47.337 129.676  14.775  1.00  0.00     0.083 A 
ATOM     18  H   UNL     1      47.877 129.079  16.766  1.00  0.00     0.166 HD
ENDBRANCH   5   9
TORSDOF 2
ENDMDL
MODEL 7
REMARK VINA RESULT:      -8.6      1.058      1.622
REMARK SMILES C=Cc1cccc(-c2ccc3cc[nH]c3c2)c1
REMARK SMILES IDX 3 1 4 2 5 3 6 4 7 5 17 6 2 7 1 8 8 9 9 10 16 11 10 12 15 13
REMARK SMILES IDX 11 14 14 15 12 16 13 17
REMARK H PARENT 14 18
ROOT
ATOM      1  C   UNL     1      43.167 132.109  19.700  1.00  0.00    -0.026 A 
ATOM      2  C   UNL     1      43.864 131.789  20.882  1.00  0.00     0.008 A 
ATOM      3  C   UNL     1      45.087 131.120  20.820  1.00  0.00     0.001 A 
ATOM      4  C   UNL     1      45.635 130.766  19.587  1.00  0.00     0.009 A 
ATOM      5  C   UNL     1      44.966 131.085  18.393  1.00  0.00    -0.018 A 
ATOM      6  C   UNL     1      43.733 131.760  18.462  1.00  0.00     0.016 A 
ENDROOT
BRANCH   1   7
ATOM      7  C   UNL     1      41.870 132.831  19.709  1.00  0.00     0.000 C 
ATOM      8  C   UNL     1      41.289 133.321  20.805  1.00  0.00     0.009 C 
ENDBRANCH   1   7
BRANCH   5   9
ATOM      9  C   UNL     1      45.550 130.714  17.079  1.00  0.00    -0.016 A 
ATOM     10  C   UNL     1      45.582 129.354  16.664  1.00  0.00     0.009 A 
ATOM     11  C   UNL     1      46.082 131.712  16.227  1.00  0.00     0.035 A 
ATOM     12  C   UNL     1      46.132 128.993  15.421  1.00  0.00     0.011 A 
ATOM     13  C   UNL     1      46.619 131.317  15.004  1.00  0.00     0.046 A 
ATOM     14  C   UNL     1      46.643 130.006  14.616  1.00  0.00    -0.001 A 
ATOM     15  N   UNL     1      47.163 132.103  14.061  1.00  0.00    -0.361 N 
ATOM     16  C   UNL     1      47.230 129.953  13.371  1.00  0.00     0.028 A 
ATOM     17  C   UNL     1      47.539 131.274  13.060  1.00  0.00     0.083 A 
ATOM     18  H   UNL     1      47.276 133.141  14.089  1.00  0.00     0.166 HD
ENDBRANCH   5   9
TORSDOF 2
ENDMDL
MODEL 8
REMARK VINA RESULT:      -8.3      0.844      2.255
REMARK SMILES C=Cc1cccc(-c2ccc3cc[nH]c3c2)c1
REMARK SMILES IDX 3 1 4 2 5 3 6 4 7 5 17 6 2 7 1 8 8 9 9 10 16 11 10 12 15 13
REMARK SMILES IDX 11 14 14 15 12 16 13 17
REMARK H PARENT 14 18
ROOT
ATOM      1  C   UNL     1      44.988 130.083  20.970  1.00  0.00    -0.026 A 
ATOM      2  C   UNL     1      44.119 131.107  21.395  1.00  0.00     0.008 A 
ATOM      3  C   UNL     1      43.761 132.135  20.520  1.00  0.00     0.001 A 
ATOM      4  C   UNL     1      44.254 132.154  19.215  1.00  0.00     0.009 A 
ATOM      5  C   UNL     1      45.112 131.137  18.764  1.00  0.00    -0.018 A 
ATOM      6  C   UNL     1      45.469 130.103  19.650  1.00  0.00     0.016 A 
ENDROOT
BRANCH   1   7
ATOM      7  C   UNL     1      45.390 128.960  21.854  1.00  0.00     0.000 C 
ATOM      8  C   UNL     1      44.916 128.766  23.086  1.00  0.00     0.009 C 
ENDBRANCH   1   7
BRANCH   5   9
ATOM      9  C   UNL     1      45.634 131.152  17.374  1.00  0.00    -0.016 A 
ATOM     10  C   UNL     1      45.426 132.285  16.540  1.00  0.00     0.009 A 
ATOM     11  C   UNL     1      46.344 130.038  16.865  1.00  0.00     0.035 A 
ATOM     12  C   UNL     1      45.916 132.310  15.222  1.00  0.00     0.011 A 
ATOM     13  C   UNL     1      46.816 130.098  15.556  1.00  0.00     0.046 A 
ATOM     14  C   UNL     1      46.609 131.194  14.765  1.00  0.00    -0.001 A 
ATOM     15  N   UNL     1      47.509 129.157  14.895  1.00  0.00    -0.361 N 
ATOM     16  C   UNL     1      47.195 130.940  13.545  1.00  0.00     0.028 A 
ATOM     17  C   UNL     1      47.743 129.667  13.663  1.00  0.00     0.083 A 
ATOM     18  H   UNL     1      47.808 128.223  15.252  1.00  0.00     0.166 HD
ENDBRANCH   5   9
TORSDOF 2
ENDMDL
MODEL 9
REMARK VINA RESULT:      -8.1      1.383      2.885
REMARK SMILES C=Cc1cccc(-c2ccc3cc[nH]c3c2)c1
REMARK SMILES IDX 3 1 4 2 5 3 6 4 7 5 17 6 2 7 1 8 8 9 9 10 16 11 10 12 15 13
REMARK SMILES IDX 11 14 14 15 12 16 13 17
REMARK H PARENT 14 18
ROOT
ATOM      1  C   UNL     1      43.257 131.696  21.494  1.00  0.00    -0.026 A 
ATOM      2  C   UNL     1      42.098 132.454  21.237  1.00  0.00     0.008 A 
ATOM      3  C   UNL     1      41.766 132.814  19.930  1.00  0.00     0.001 A 
ATOM      4  C   UNL     1      42.574 132.420  18.863  1.00  0.00     0.009 A 
ATOM      5  C   UNL     1      43.729 131.652  19.092  1.00  0.00    -0.018 A 
ATOM      6  C   UNL     1      44.058 131.293  20.412  1.00  0.00     0.016 A 
ENDROOT
BRANCH   1   7
ATOM      7  C   UNL     1      43.650 131.276  22.862  1.00  0.00     0.000 C 
ATOM      8  C   UNL     1      44.228 130.109  23.153  1.00  0.00     0.009 C 
ENDBRANCH   1   7
BRANCH   5   9
ATOM      9  C   UNL     1      44.587 131.227  17.957  1.00  0.00    -0.016 A 
ATOM     10  C   UNL     1      45.658 130.316  18.167  1.00  0.00     0.009 A 
ATOM     11  C   UNL     1      44.347 131.727  16.654  1.00  0.00     0.035 A 
ATOM     12  C   UNL     1      46.477 129.907  17.099  1.00  0.00     0.011 A 
ATOM     13  C   UNL     1      45.178 131.300  15.620  1.00  0.00     0.046 A 
ATOM     14  C   UNL     1      46.204 130.422  15.836  1.00  0.00    -0.001 A 
ATOM     15  N   UNL     1      45.114 131.650  14.326  1.00  0.00    -0.361 N 
ATOM     16  C   UNL     1      46.823 130.204  14.625  1.00  0.00     0.028 A 
ATOM     17  C   UNL     1      46.119 130.983  13.712  1.00  0.00     0.083 A 
ATOM     18  H   UNL     1      44.432 132.302  13.879  1.00  0.00     0.166 HD
ENDBRANCH   5   9
TORSDOF 2
ENDMDL


