MODEL 1
REMARK VINA RESULT:      -9.8      0.000      0.000
REMARK SMILES Cc1[nH+]nc(-c2cc3ccc(F)cc3[nH]2)o1
REMARK SMILES IDX 6 1 7 2 8 3 9 4 10 5 11 6 12 7 13 8 14 9 15 10 5 12 2 13
REMARK SMILES IDX 3 14 16 15 4 16 1 17
REMARK H PARENT 15 11 3 18
ROOT
ATOM      1  C   UNL     1      45.678 131.026  17.165  1.00  0.00     0.109 A 
ATOM      2  C   UNL     1      45.620 131.907  16.087  1.00  0.00     0.042 A 
ATOM      3  C   UNL     1      46.386 131.314  15.107  1.00  0.00     0.000 A 
ATOM      4  C   UNL     1      46.689 131.736  13.813  1.00  0.00     0.013 A 
ATOM      5  C   UNL     1      47.511 130.907  13.028  1.00  0.00     0.040 A 
ATOM      6  C   UNL     1      48.007 129.690  13.549  1.00  0.00     0.125 A 
ATOM      7  F   UNL     1      48.797 128.901  12.782  1.00  0.00    -0.207 F 
ATOM      8  C   UNL     1      47.682 129.292  14.860  1.00  0.00     0.066 A 
ATOM      9  C   UNL     1      46.865 130.133  15.613  1.00  0.00     0.049 A 
ATOM     10  N   UNL     1      46.440 129.945  16.872  1.00  0.00    -0.350 N 
ATOM     11  H   UNL     1      46.653 129.133  17.495  1.00  0.00     0.167 HD
ENDROOT
BRANCH   1  12
ATOM     12  C   UNL     1      45.012 131.225  18.457  1.00  0.00     0.312 A 
ATOM     13  C   UNL     1      43.606 131.778  19.891  1.00  0.00     0.369 A 
ATOM     14  N   UNL     1      44.627 131.201  20.545  1.00  0.00    -0.066 N 
ATOM     15  O   UNL     1      43.834 131.794  18.600  1.00  0.00    -0.380 OA
ATOM     16  N   UNL     1      45.527 130.846  19.644  1.00  0.00     0.042 NA
ATOM     17  C   UNL     1      42.371 132.302  20.542  1.00  0.00     0.176 C 
ATOM     18  H   UNL     1      44.716 131.045  21.574  1.00  0.00     0.494 HD
ENDBRANCH   1  12
TORSDOF 1
ENDMDL
MODEL 2
REMARK VINA RESULT:      -9.7      1.052      1.673
REMARK SMILES Cc1[nH+]nc(-c2cc3ccc(F)cc3[nH]2)o1
REMARK SMILES IDX 6 1 7 2 8 3 9 4 10 5 11 6 12 7 13 8 14 9 15 10 5 12 2 13
REMARK SMILES IDX 3 14 16 15 4 16 1 17
REMARK H PARENT 15 11 3 18
ROOT
ATOM      1  C   UNL     1      45.349 131.199  17.290  1.00  0.00     0.109 A 
ATOM      2  C   UNL     1      45.953 129.969  17.039  1.00  0.00     0.042 A 
ATOM      3  C   UNL     1      46.522 130.105  15.791  1.00  0.00     0.000 A 
ATOM      4  C   UNL     1      47.256 129.201  15.025  1.00  0.00     0.013 A 
ATOM      5  C   UNL     1      47.716 129.629  13.766  1.00  0.00     0.040 A 
ATOM      6  C   UNL     1      47.434 130.936  13.307  1.00  0.00     0.125 A 
ATOM      7  F   UNL     1      47.884 131.336  12.093  1.00  0.00    -0.207 F 
ATOM      8  C   UNL     1      46.690 131.826  14.105  1.00  0.00     0.066 A 
ATOM      9  C   UNL     1      46.249 131.373  15.347  1.00  0.00     0.049 A 
ATOM     10  N   UNL     1      45.531 132.053  16.255  1.00  0.00    -0.350 N 
ATOM     11  H   UNL     1      45.186 133.037  16.179  1.00  0.00     0.167 HD
ENDROOT
BRANCH   1  12
ATOM     12  C   UNL     1      44.608 131.543  18.509  1.00  0.00     0.312 A 
ATOM     13  C   UNL     1      43.110 132.230  19.784  1.00  0.00     0.369 A 
ATOM     14  N   UNL     1      44.113 131.785  20.560  1.00  0.00    -0.066 N 
ATOM     15  O   UNL     1      43.407 132.081  18.515  1.00  0.00    -0.380 OA
ATOM     16  N   UNL     1      45.071 131.348  19.760  1.00  0.00     0.042 NA
ATOM     17  C   UNL     1      41.826 132.788  20.296  1.00  0.00     0.176 C 
ATOM     18  H   UNL     1      44.151 131.773  21.603  1.00  0.00     0.494 HD
ENDBRANCH   1  12
TORSDOF 1
ENDMDL
MODEL 3
REMARK VINA RESULT:      -9.7      1.092      1.168
REMARK SMILES Cc1[nH+]nc(-c2cc3ccc(F)cc3[nH]2)o1
REMARK SMILES IDX 6 1 7 2 8 3 9 4 10 5 11 6 12 7 13 8 14 9 15 10 5 12 2 13
REMARK SMILES IDX 3 14 16 15 4 16 1 17
REMARK H PARENT 15 11 3 18
ROOT
ATOM      1  C   UNL     1      45.490 131.087  17.247  1.00  0.00     0.109 A 
ATOM      2  C   UNL     1      45.542 132.009  16.204  1.00  0.00     0.042 A 
ATOM      3  C   UNL     1      46.320 131.406  15.240  1.00  0.00     0.000 A 
ATOM      4  C   UNL     1      46.715 131.855  13.981  1.00  0.00     0.013 A 
ATOM      5  C   UNL     1      47.525 131.006  13.205  1.00  0.00     0.040 A 
ATOM      6  C   UNL     1      47.918 129.741  13.701  1.00  0.00     0.125 A 
ATOM      7  F   UNL     1      48.697 128.932  12.943  1.00  0.00    -0.207 F 
ATOM      8  C   UNL     1      47.501 129.316  14.977  1.00  0.00     0.066 A 
ATOM      9  C   UNL     1      46.699 130.179  15.721  1.00  0.00     0.049 A 
ATOM     10  N   UNL     1      46.198 129.972  16.950  1.00  0.00    -0.350 N 
ATOM     11  H   UNL     1      46.328 129.126  17.549  1.00  0.00     0.167 HD
ENDROOT
BRANCH   1  12
ATOM     12  C   UNL     1      44.770 131.280  18.511  1.00  0.00     0.312 A 
ATOM     13  C   UNL     1      44.327 131.329  20.546  1.00  0.00     0.369 A 
ATOM     14  N   UNL     1      43.234 131.761  19.896  1.00  0.00    -0.066 N 
ATOM     15  O   UNL     1      45.282 131.033  19.698  1.00  0.00    -0.380 OA
ATOM     16  N   UNL     1      43.503 131.733  18.602  1.00  0.00     0.042 NA
ATOM     17  C   UNL     1      44.447 131.229  22.029  1.00  0.00     0.176 C 
ATOM     18  H   UNL     1      42.328 132.071  20.313  1.00  0.00     0.494 HD
ENDBRANCH   1  12
TORSDOF 1
ENDMDL
MODEL 4
REMARK VINA RESULT:      -9.6      1.491      1.994
REMARK SMILES Cc1[nH+]nc(-c2cc3ccc(F)cc3[nH]2)o1
REMARK SMILES IDX 6 1 7 2 8 3 9 4 10 5 11 6 12 7 13 8 14 9 15 10 5 12 2 13
REMARK SMILES IDX 3 14 16 15 4 16 1 17
REMARK H PARENT 15 11 3 18
ROOT
ATOM      1  C   UNL     1      45.202 131.138  17.234  1.00  0.00     0.109 A 
ATOM      2  C   UNL     1      45.778 129.906  16.933  1.00  0.00     0.042 A 
ATOM      3  C   UNL     1      46.421 130.102  15.731  1.00  0.00     0.000 A 
ATOM      4  C   UNL     1      47.168 129.223  14.947  1.00  0.00     0.013 A 
ATOM      5  C   UNL     1      47.713 129.715  13.747  1.00  0.00     0.040 A 
ATOM      6  C   UNL     1      47.501 131.059  13.362  1.00  0.00     0.125 A 
ATOM      7  F   UNL     1      48.033 131.521  12.204  1.00  0.00    -0.207 F 
ATOM      8  C   UNL     1      46.742 131.922  14.176  1.00  0.00     0.066 A 
ATOM      9  C   UNL     1      46.216 131.406  15.359  1.00  0.00     0.049 A 
ATOM     10  N   UNL     1      45.470 132.051  16.270  1.00  0.00    -0.350 N 
ATOM     11  H   UNL     1      45.163 133.050  16.241  1.00  0.00     0.167 HD
ENDROOT
BRANCH   1  12
ATOM     12  C   UNL     1      44.404 131.429  18.430  1.00  0.00     0.312 A 
ATOM     13  C   UNL     1      43.825 131.618  20.422  1.00  0.00     0.369 A 
ATOM     14  N   UNL     1      42.793 132.039  19.672  1.00  0.00    -0.066 N 
ATOM     15  O   UNL     1      44.825 131.243  19.662  1.00  0.00    -0.380 OA
ATOM     16  N   UNL     1      43.148 131.922  18.404  1.00  0.00     0.042 NA
ATOM     17  C   UNL     1      43.839 131.607  21.913  1.00  0.00     0.176 C 
ATOM     18  H   UNL     1      41.871 132.400  20.005  1.00  0.00     0.494 HD
ENDBRANCH   1  12
TORSDOF 1
ENDMDL
MODEL 5
REMARK VINA RESULT:      -9.5      3.520      6.629
REMARK SMILES Cc1[nH+]nc(-c2cc3ccc(F)cc3[nH]2)o1
REMARK SMILES IDX 6 1 7 2 8 3 9 4 10 5 11 6 12 7 13 8 14 9 15 10 5 12 2 13
REMARK SMILES IDX 3 14 16 15 4 16 1 17
REMARK H PARENT 15 11 3 18
ROOT
ATOM      1  C   UNL     1      45.047 131.038  17.245  1.00  0.00     0.109 A 
ATOM      2  C   UNL     1      45.463 130.862  18.562  1.00  0.00     0.042 A 
ATOM      3  C   UNL     1      44.451 131.402  19.326  1.00  0.00     0.000 A 
ATOM      4  C   UNL     1      44.317 131.510  20.710  1.00  0.00     0.013 A 
ATOM      5  C   UNL     1      43.153 132.121  21.211  1.00  0.00     0.040 A 
ATOM      6  C   UNL     1      42.161 132.605  20.327  1.00  0.00     0.125 A 
ATOM      7  F   UNL     1      41.044 133.191  20.823  1.00  0.00    -0.207 F 
ATOM      8  C   UNL     1      42.326 132.481  18.934  1.00  0.00     0.066 A 
ATOM      9  C   UNL     1      43.489 131.871  18.468  1.00  0.00     0.049 A 
ATOM     10  N   UNL     1      43.842 131.655  17.191  1.00  0.00    -0.350 N 
ATOM     11  H   UNL     1      43.299 131.909  16.335  1.00  0.00     0.167 HD
ENDROOT
BRANCH   1  12
ATOM     12  C   UNL     1      45.799 130.619  16.057  1.00  0.00     0.312 A 
ATOM     13  C   UNL     1      46.901 130.685  14.290  1.00  0.00     0.369 A 
ATOM     14  N   UNL     1      46.737 129.388  14.602  1.00  0.00    -0.066 N 
ATOM     15  O   UNL     1      46.327 131.451  15.185  1.00  0.00    -0.380 OA
ATOM     16  N   UNL     1      46.037 129.334  15.722  1.00  0.00     0.042 NA
ATOM     17  C   UNL     1      47.656 131.181  13.104  1.00  0.00     0.176 C 
ATOM     18  H   UNL     1      47.090 128.559  14.076  1.00  0.00     0.494 HD
ENDBRANCH   1  12
TORSDOF 1
ENDMDL
MODEL 6
REMARK VINA RESULT:      -9.5      0.969      1.025
REMARK SMILES Cc1[nH+]nc(-c2cc3ccc(F)cc3[nH]2)o1
REMARK SMILES IDX 6 1 7 2 8 3 9 4 10 5 11 6 12 7 13 8 14 9 15 10 5 12 2 13
REMARK SMILES IDX 3 14 16 15 4 16 1 17
REMARK H PARENT 15 11 3 18
ROOT
ATOM      1  C   UNL     1      45.498 130.919  17.954  1.00  0.00     0.109 A 
ATOM      2  C   UNL     1      45.009 131.704  16.912  1.00  0.00     0.042 A 
ATOM      3  C   UNL     1      45.678 131.259  15.793  1.00  0.00     0.000 A 
ATOM      4  C   UNL     1      45.599 131.671  14.464  1.00  0.00     0.013 A 
ATOM      5  C   UNL     1      46.419 131.021  13.524  1.00  0.00     0.040 A 
ATOM      6  C   UNL     1      47.290 129.984  13.930  1.00  0.00     0.125 A 
ATOM      7  F   UNL     1      48.074 129.364  13.014  1.00  0.00    -0.207 F 
ATOM      8  C   UNL     1      47.346 129.589  15.281  1.00  0.00     0.066 A 
ATOM      9  C   UNL     1      46.522 130.252  16.187  1.00  0.00     0.049 A 
ATOM     10  N   UNL     1      46.422 130.035  17.509  1.00  0.00    -0.350 N 
ATOM     11  H   UNL     1      46.947 129.330  18.074  1.00  0.00     0.167 HD
ENDROOT
BRANCH   1  12
ATOM     12  C   UNL     1      45.081 131.022  19.357  1.00  0.00     0.312 A 
ATOM     13  C   UNL     1      43.946 131.421  21.058  1.00  0.00     0.369 A 
ATOM     14  N   UNL     1      45.108 130.893  21.477  1.00  0.00    -0.066 N 
ATOM     15  O   UNL     1      43.920 131.501  19.750  1.00  0.00    -0.380 OA
ATOM     16  N   UNL     1      45.838 130.637  20.405  1.00  0.00     0.042 NA
ATOM     17  C   UNL     1      42.830 131.832  21.957  1.00  0.00     0.176 C 
ATOM     18  H   UNL     1      45.403 130.706  22.461  1.00  0.00     0.494 HD
ENDBRANCH   1  12
TORSDOF 1
ENDMDL
MODEL 7
REMARK VINA RESULT:      -9.3      1.909      2.631
REMARK SMILES Cc1[nH+]nc(-c2cc3ccc(F)cc3[nH]2)o1
REMARK SMILES IDX 6 1 7 2 8 3 9 4 10 5 11 6 12 7 13 8 14 9 15 10 5 12 2 13
REMARK SMILES IDX 3 14 16 15 4 16 1 17
REMARK H PARENT 15 11 3 18
ROOT
ATOM      1  C   UNL     1      44.249 131.453  18.205  1.00  0.00     0.109 A 
ATOM      2  C   UNL     1      45.369 130.624  18.170  1.00  0.00     0.042 A 
ATOM      3  C   UNL     1      45.750 130.603  16.846  1.00  0.00     0.000 A 
ATOM      4  C   UNL     1      46.804 129.944  16.215  1.00  0.00     0.013 A 
ATOM      5  C   UNL     1      46.946 130.113  14.826  1.00  0.00     0.040 A 
ATOM      6  C   UNL     1      46.042 130.928  14.107  1.00  0.00     0.125 A 
ATOM      7  F   UNL     1      46.192 131.083  12.769  1.00  0.00    -0.207 F 
ATOM      8  C   UNL     1      44.988 131.581  14.774  1.00  0.00     0.066 A 
ATOM      9  C   UNL     1      44.873 131.395  16.150  1.00  0.00     0.049 A 
ATOM     10  N   UNL     1      43.949 131.920  16.970  1.00  0.00    -0.350 N 
ATOM     11  H   UNL     1      43.162 132.558  16.709  1.00  0.00     0.167 HD
ENDROOT
BRANCH   1  12
ATOM     12  C   UNL     1      43.481 131.786  19.410  1.00  0.00     0.312 A 
ATOM     13  C   UNL     1      42.877 131.901  21.400  1.00  0.00     0.369 A 
ATOM     14  N   UNL     1      41.978 132.588  20.677  1.00  0.00    -0.066 N 
ATOM     15  O   UNL     1      43.811 131.404  20.625  1.00  0.00    -0.380 OA
ATOM     16  N   UNL     1      42.350 132.521  19.410  1.00  0.00     0.042 NA
ATOM     17  C   UNL     1      42.834 131.748  22.883  1.00  0.00     0.176 C 
ATOM     18  H   UNL     1      41.134 133.094  21.027  1.00  0.00     0.494 HD
ENDBRANCH   1  12
TORSDOF 1
ENDMDL
MODEL 8
REMARK VINA RESULT:      -9.3      3.360      6.451
REMARK SMILES Cc1[nH+]nc(-c2cc3ccc(F)cc3[nH]2)o1
REMARK SMILES IDX 6 1 7 2 8 3 9 4 10 5 11 6 12 7 13 8 14 9 15 10 5 12 2 13
REMARK SMILES IDX 3 14 16 15 4 16 1 17
REMARK H PARENT 15 11 3 18
ROOT
ATOM      1  C   UNL     1      45.031 131.021  17.004  1.00  0.00     0.109 A 
ATOM      2  C   UNL     1      43.734 131.521  16.900  1.00  0.00     0.042 A 
ATOM      3  C   UNL     1      43.349 131.771  18.199  1.00  0.00     0.000 A 
ATOM      4  C   UNL     1      42.155 132.279  18.710  1.00  0.00     0.013 A 
ATOM      5  C   UNL     1      42.047 132.427  20.105  1.00  0.00     0.040 A 
ATOM      6  C   UNL     1      43.124 132.068  20.948  1.00  0.00     0.125 A 
ATOM      7  F   UNL     1      43.008 132.218  22.290  1.00  0.00    -0.207 F 
ATOM      8  C   UNL     1      44.318 131.559  20.401  1.00  0.00     0.066 A 
ATOM      9  C   UNL     1      44.394 131.425  19.016  1.00  0.00     0.049 A 
ATOM     10  N   UNL     1      45.430 130.963  18.297  1.00  0.00    -0.350 N 
ATOM     11  H   UNL     1      46.352 130.630  18.661  1.00  0.00     0.167 HD
ENDROOT
BRANCH   1  12
ATOM     12  C   UNL     1      45.870 130.606  15.875  1.00  0.00     0.312 A 
ATOM     13  C   UNL     1      47.027 130.669  14.143  1.00  0.00     0.369 A 
ATOM     14  N   UNL     1      46.992 129.388  14.545  1.00  0.00    -0.066 N 
ATOM     15  O   UNL     1      46.339 131.429  14.961  1.00  0.00    -0.380 OA
ATOM     16  N   UNL     1      46.258 129.335  15.644  1.00  0.00     0.042 NA
ATOM     17  C   UNL     1      47.770 131.162  12.948  1.00  0.00     0.176 C 
ATOM     18  H   UNL     1      47.452 128.567  14.093  1.00  0.00     0.494 HD
ENDBRANCH   1  12
TORSDOF 1
ENDMDL
MODEL 9
REMARK VINA RESULT:      -9.2      3.617      6.691
REMARK SMILES Cc1[nH+]nc(-c2cc3ccc(F)cc3[nH]2)o1
REMARK SMILES IDX 6 1 7 2 8 3 9 4 10 5 11 6 12 7 13 8 14 9 15 10 5 12 2 13
REMARK SMILES IDX 3 14 16 15 4 16 1 17
REMARK H PARENT 15 11 3 18
ROOT
ATOM      1  C   UNL     1      44.946 131.390  17.304  1.00  0.00     0.109 A 
ATOM      2  C   UNL     1      45.750 130.971  18.363  1.00  0.00     0.042 A 
ATOM      3  C   UNL     1      44.996 131.207  19.492  1.00  0.00     0.000 A 
ATOM      4  C   UNL     1      45.283 130.984  20.838  1.00  0.00     0.013 A 
ATOM      5  C   UNL     1      44.302 131.330  21.784  1.00  0.00     0.040 A 
ATOM      6  C   UNL     1      43.070 131.885  21.369  1.00  0.00     0.125 A 
ATOM      7  F   UNL     1      42.133 132.213  22.291  1.00  0.00    -0.207 F 
ATOM      8  C   UNL     1      42.809 132.097  20.001  1.00  0.00     0.066 A 
ATOM      9  C   UNL     1      43.800 131.743  19.088  1.00  0.00     0.049 A 
ATOM     10  N   UNL     1      43.757 131.862  17.751  1.00  0.00    -0.350 N 
ATOM     11  H   UNL     1      42.970 132.239  17.176  1.00  0.00     0.167 HD
ENDROOT
BRANCH   1  12
ATOM     12  C   UNL     1      45.319 131.337  15.887  1.00  0.00     0.312 A 
ATOM     13  C   UNL     1      46.451 131.175  14.145  1.00  0.00     0.369 A 
ATOM     14  N   UNL     1      45.175 131.363  13.768  1.00  0.00    -0.066 N 
ATOM     15  O   UNL     1      46.548 131.155  15.453  1.00  0.00    -0.380 OA
ATOM     16  N   UNL     1      44.447 131.469  14.866  1.00  0.00     0.042 NA
ATOM     17  C   UNL     1      47.593 130.986  13.205  1.00  0.00     0.176 C 
ATOM     18  H   UNL     1      44.802 131.416  12.795  1.00  0.00     0.494 HD
ENDBRANCH   1  12
TORSDOF 1
ENDMDL


