REMARK SMILES C=Cc1cc(-c2ccc3cc[nH]c3c2)ccc1O
REMARK SMILES IDX 3 1 4 2 5 3 15 4 16 5 17 6 2 7 1 8 18 9 6 11 7 12 14 13 8 14
REMARK SMILES IDX 13 15 9 16 12 17 10 18 11 19
REMARK H PARENT 18 10 12 20
ROOT
ATOM      1  C   UNL     1       2.824   0.223   0.182  1.00  0.00     0.016 A 
ATOM      2  C   UNL     1       1.432   0.390   0.266  1.00  0.00     0.020 A 
ATOM      3  C   UNL     1       0.554  -0.654  -0.072  1.00  0.00    -0.017 A 
ATOM      4  C   UNL     1       1.088  -1.885  -0.487  1.00  0.00     0.012 A 
ATOM      5  C   UNL     1       2.470  -2.071  -0.549  1.00  0.00     0.047 A 
ATOM      6  C   UNL     1       3.344  -1.032  -0.205  1.00  0.00     0.122 A 
ENDROOT
BRANCH   1   7
ATOM      7  C   UNL     1       3.689   1.365   0.555  1.00  0.00     0.004 C 
ATOM      8  C   UNL     1       4.821   1.664  -0.081  1.00  0.00     0.009 C 
ENDBRANCH   1   7
BRANCH   6   9
ATOM      9  O   UNL     1       4.720  -1.259  -0.219  1.00  0.00    -0.507 OA
ATOM     10  H   UNL     1       5.109  -2.156  -0.486  1.00  0.00     0.293 HD
ENDBRANCH   6   9
BRANCH   3  11
ATOM     11  C   UNL     1      -0.916  -0.460   0.004  1.00  0.00    -0.016 A 
ATOM     12  C   UNL     1      -1.753  -1.491   0.513  1.00  0.00     0.009 A 
ATOM     13  C   UNL     1      -1.500   0.756  -0.428  1.00  0.00     0.035 A 
ATOM     14  C   UNL     1      -3.146  -1.318   0.590  1.00  0.00     0.011 A 
ATOM     15  C   UNL     1      -2.883   0.892  -0.338  1.00  0.00     0.046 A 
ATOM     16  C   UNL     1      -3.676  -0.108   0.153  1.00  0.00    -0.001 A 
ATOM     17  N   UNL     1      -3.623   1.954  -0.696  1.00  0.00    -0.361 N 
ATOM     18  C   UNL     1      -4.979   0.337   0.108  1.00  0.00     0.028 A 
ATOM     19  C   UNL     1      -4.906   1.620  -0.425  1.00  0.00     0.083 A 
ATOM     20  H   UNL     1      -3.283   2.855  -1.101  1.00  0.00     0.166 HD
ENDBRANCH   3  11
TORSDOF 3


