REMARK SMILES Cc1cc(N)c([NH2+]c2c(F)[nH+]c(C)c(-c3ccc4c(C)[nH]nc4c3)c2C)cc1F
REMARK SMILES IDX 7 1 6 4 2 5 3 6 28 7 4 8 27 9 1 10 29 11 5 12 8 15 9 16
REMARK SMILES IDX 25 17 11 18 14 19 12 20 10 21 26 22 13 24 15 25 16 26 24 27
REMARK SMILES IDX 17 28 23 29 18 30 22 31 19 32 21 33 20 34
REMARK H PARENT 7 2 7 3 5 13 5 14 11 23 21 35
ROOT
ATOM      1  N   UNL     1       2.640  -0.675  -2.163  1.00  0.00    -0.271 N 
ATOM      2  H   UNL     1       3.299  -1.353  -2.610  1.00  0.00     0.358 HD
ATOM      3  H   UNL     1       2.422   0.030  -2.896  1.00  0.00     0.358 HD
ENDROOT
BRANCH   1   4
ATOM      4  C   UNL     1       3.314  -0.115  -1.007  1.00  0.00     0.161 A 
ATOM      5  C   UNL     1       4.516   0.934   1.330  1.00  0.00    -0.013 A 
ATOM      6  C   UNL     1       4.372   1.733   0.188  1.00  0.00     0.038 A 
ATOM      7  C   UNL     1       4.120  -0.408   1.282  1.00  0.00     0.132 A 
ATOM      8  C   UNL     1       3.800   1.222  -0.988  1.00  0.00     0.094 A 
ATOM      9  C   UNL     1       3.531  -0.925   0.127  1.00  0.00     0.110 A 
ATOM     10  C   UNL     1       5.168   1.488   2.564  1.00  0.00     0.047 C 
ATOM     11  F   UNL     1       4.298  -1.218   2.356  1.00  0.00    -0.206 F 
BRANCH   8  12
ATOM     12  N   UNL     1       3.755   2.071  -2.143  1.00  0.00    -0.394 N 
ATOM     13  H   UNL     1       3.944   3.094  -2.050  1.00  0.00     0.156 HD
ATOM     14  H   UNL     1       3.704   1.695  -3.114  1.00  0.00     0.156 HD
ENDBRANCH   8  12
ENDBRANCH   1   4
BRANCH   1  15
ATOM     15  C   UNL     1       1.390  -1.315  -1.793  1.00  0.00     0.243 A 
ATOM     16  C   UNL     1       1.272  -2.716  -1.881  1.00  0.00     0.421 A 
ATOM     17  C   UNL     1       0.275  -0.568  -1.323  1.00  0.00     0.034 A 
ATOM     18  N   UNL     1       0.132  -3.342  -1.497  1.00  0.00    -0.178 N 
ATOM     19  C   UNL     1      -0.885  -1.257  -0.889  1.00  0.00     0.058 A 
ATOM     20  C   UNL     1      -0.933  -2.665  -0.989  1.00  0.00     0.187 A 
ATOM     21  F   UNL     1       2.307  -3.466  -2.339  1.00  0.00    -0.131 F 
ATOM     22  C   UNL     1       0.346   0.943  -1.214  1.00  0.00     0.052 C 
ATOM     23  H   UNL     1       0.094  -4.383  -1.582  1.00  0.00     0.456 HD
ATOM     24  C   UNL     1      -2.150  -3.438  -0.547  1.00  0.00     0.124 C 
BRANCH  19  25
ATOM     25  C   UNL     1      -2.031  -0.521  -0.306  1.00  0.00    -0.009 A 
ATOM     26  C   UNL     1      -3.220  -0.344  -1.059  1.00  0.00     0.010 A 
ATOM     27  C   UNL     1      -1.933   0.008   1.000  1.00  0.00     0.040 A 
ATOM     28  C   UNL     1      -4.313   0.356  -0.516  1.00  0.00     0.013 A 
ATOM     29  C   UNL     1      -3.032   0.697   1.505  1.00  0.00     0.093 A 
ATOM     30  C   UNL     1      -4.176   0.865   0.772  1.00  0.00     0.023 A 
ATOM     31  N   UNL     1      -3.161   1.264   2.718  1.00  0.00    -0.175 NA
ATOM     32  C   UNL     1      -5.021   1.578   1.591  1.00  0.00     0.040 A 
ATOM     33  N   UNL     1      -4.380   1.794   2.762  1.00  0.00    -0.282 N 
ATOM     34  C   UNL     1      -6.431   1.979   1.301  1.00  0.00     0.067 C 
ATOM     35  H   UNL     1      -4.768   2.295   3.592  1.00  0.00     0.190 HD
ENDBRANCH  19  25
ENDBRANCH   1  15
TORSDOF 4


