MODEL 1
REMARK VINA RESULT:     -10.3      0.000      0.000
REMARK SMILES Cc1ccc(-c2ccc([O-])cc2)c2c[nH][nH+]c12
REMARK SMILES IDX 1 1 2 2 3 3 4 4 5 5 13 6 14 7 15 8 16 9 17 10 6 13 7 14
REMARK SMILES IDX 12 15 8 16 11 17 9 18 10 19
REMARK H PARENT 15 11 16 12
ROOT
ATOM      1  C   UNL     1      43.452 131.573  22.579  1.00  0.00     0.052 C 
ATOM      2  C   UNL     1      43.985 131.406  21.187  1.00  0.00     0.024 A 
ATOM      3  C   UNL     1      45.273 130.882  20.951  1.00  0.00     0.011 A 
ATOM      4  C   UNL     1      45.768 130.747  19.634  1.00  0.00     0.010 A 
ATOM      5  C   UNL     1      44.985 131.129  18.521  1.00  0.00    -0.003 A 
ATOM      6  C   UNL     1      43.714 131.654  18.790  1.00  0.00     0.078 A 
ATOM      7  C   UNL     1      42.724 132.172  17.974  1.00  0.00     0.163 A 
ATOM      8  N   UNL     1      41.706 132.578  18.767  1.00  0.00    -0.174 N 
ATOM      9  N   UNL     1      42.012 132.346  20.036  1.00  0.00    -0.126 N 
ATOM     10  C   UNL     1      43.235 131.787  20.069  1.00  0.00     0.239 A 
ATOM     11  H   UNL     1      40.816 133.020  18.446  1.00  0.00     0.238 HD
ATOM     12  H   UNL     1      41.400 132.581  20.849  1.00  0.00     0.488 HD
ENDROOT
BRANCH   5  13
ATOM     13  C   UNL     1      45.504 130.978  17.142  1.00  0.00    -0.018 A 
ATOM     14  C   UNL     1      45.935 129.725  16.672  1.00  0.00     0.008 A 
ATOM     15  C   UNL     1      45.597 132.096  16.293  1.00  0.00     0.008 A 
ATOM     16  C   UNL     1      46.433 129.590  15.373  1.00  0.00    -0.008 A 
ATOM     17  C   UNL     1      46.095 131.957  14.994  1.00  0.00    -0.008 A 
ATOM     18  C   UNL     1      46.512 130.704  14.533  1.00  0.00    -0.109 A 
ATOM     19  O   UNL     1      47.007 130.569  13.242  1.00  0.00    -0.872 OA
ENDBRANCH   5  13
TORSDOF 1
ENDMDL
MODEL 2
REMARK VINA RESULT:     -10.1      0.290      1.210
REMARK SMILES Cc1ccc(-c2ccc([O-])cc2)c2c[nH][nH+]c12
REMARK SMILES IDX 1 1 2 2 3 3 4 4 5 5 13 6 14 7 15 8 16 9 17 10 6 13 7 14
REMARK SMILES IDX 12 15 8 16 11 17 9 18 10 19
REMARK H PARENT 15 11 16 12
ROOT
ATOM      1  C   UNL     1      43.314 131.617  22.266  1.00  0.00     0.052 C 
ATOM      2  C   UNL     1      43.912 131.439  20.902  1.00  0.00     0.024 A 
ATOM      3  C   UNL     1      45.214 130.924  20.731  1.00  0.00     0.011 A 
ATOM      4  C   UNL     1      45.769 130.778  19.441  1.00  0.00     0.010 A 
ATOM      5  C   UNL     1      45.036 131.140  18.288  1.00  0.00    -0.003 A 
ATOM      6  C   UNL     1      43.749 131.656  18.493  1.00  0.00     0.078 A 
ATOM      7  C   UNL     1      42.793 132.155  17.626  1.00  0.00     0.163 A 
ATOM      8  N   UNL     1      41.736 132.560  18.366  1.00  0.00    -0.174 N 
ATOM      9  N   UNL     1      41.986 132.346  19.651  1.00  0.00    -0.126 N 
ATOM     10  C   UNL     1      43.211 131.800  19.746  1.00  0.00     0.239 A 
ATOM     11  H   UNL     1      40.858 132.990  17.999  1.00  0.00     0.238 HD
ATOM     12  H   UNL     1      41.334 132.586  20.431  1.00  0.00     0.488 HD
ENDROOT
BRANCH   5  13
ATOM     13  C   UNL     1      45.618 130.977  16.936  1.00  0.00    -0.018 A 
ATOM     14  C   UNL     1      45.750 132.081  16.075  1.00  0.00     0.008 A 
ATOM     15  C   UNL     1      46.024 129.708  16.487  1.00  0.00     0.008 A 
ATOM     16  C   UNL     1      46.292 131.920  14.797  1.00  0.00    -0.008 A 
ATOM     17  C   UNL     1      46.567 129.551  15.208  1.00  0.00    -0.008 A 
ATOM     18  C   UNL     1      46.702 130.656  14.363  1.00  0.00    -0.109 A 
ATOM     19  O   UNL     1      47.241 130.498  13.093  1.00  0.00    -0.872 OA
ENDBRANCH   5  13
TORSDOF 1
ENDMDL
MODEL 3
REMARK VINA RESULT:      -9.6      1.567      2.349
REMARK SMILES Cc1ccc(-c2ccc([O-])cc2)c2c[nH][nH+]c12
REMARK SMILES IDX 1 1 2 2 3 3 4 4 5 5 13 6 14 7 15 8 16 9 17 10 6 13 7 14
REMARK SMILES IDX 12 15 8 16 11 17 9 18 10 19
REMARK H PARENT 15 11 16 12
ROOT
ATOM      1  C   UNL     1      42.081 132.390  21.348  1.00  0.00     0.052 C 
ATOM      2  C   UNL     1      42.885 132.059  20.125  1.00  0.00     0.024 A 
ATOM      3  C   UNL     1      42.318 132.121  18.835  1.00  0.00     0.011 A 
ATOM      4  C   UNL     1      43.082 131.791  17.694  1.00  0.00     0.010 A 
ATOM      5  C   UNL     1      44.434 131.395  17.814  1.00  0.00    -0.003 A 
ATOM      6  C   UNL     1      44.964 131.336  19.110  1.00  0.00     0.078 A 
ATOM      7  C   UNL     1      46.197 130.944  19.599  1.00  0.00     0.163 A 
ATOM      8  N   UNL     1      46.159 131.048  20.947  1.00  0.00    -0.174 N 
ATOM      9  N   UNL     1      44.963 131.478  21.325  1.00  0.00    -0.126 N 
ATOM     10  C   UNL     1      44.220 131.654  20.218  1.00  0.00     0.239 A 
ATOM     11  H   UNL     1      46.938 130.816  21.603  1.00  0.00     0.238 HD
ATOM     12  H   UNL     1      44.671 131.629  22.316  1.00  0.00     0.488 HD
ENDROOT
BRANCH   5  13
ATOM     13  C   UNL     1      45.234 131.058  16.615  1.00  0.00    -0.018 A 
ATOM     14  C   UNL     1      45.437 129.716  16.243  1.00  0.00     0.008 A 
ATOM     15  C   UNL     1      45.824 132.077  15.846  1.00  0.00     0.008 A 
ATOM     16  C   UNL     1      46.202 129.404  15.115  1.00  0.00    -0.008 A 
ATOM     17  C   UNL     1      46.588 131.760  14.718  1.00  0.00    -0.008 A 
ATOM     18  C   UNL     1      46.776 130.424  14.352  1.00  0.00    -0.109 A 
ATOM     19  O   UNL     1      47.535 130.112  13.231  1.00  0.00    -0.872 OA
ENDBRANCH   5  13
TORSDOF 1
ENDMDL
MODEL 4
REMARK VINA RESULT:      -9.6      1.578      2.653
REMARK SMILES Cc1ccc(-c2ccc([O-])cc2)c2c[nH][nH+]c12
REMARK SMILES IDX 1 1 2 2 3 3 4 4 5 5 13 6 14 7 15 8 16 9 17 10 6 13 7 14
REMARK SMILES IDX 12 15 8 16 11 17 9 18 10 19
REMARK H PARENT 15 11 16 12
ROOT
ATOM      1  C   UNL     1      41.910 132.565  20.893  1.00  0.00     0.052 C 
ATOM      2  C   UNL     1      42.792 132.170  19.746  1.00  0.00     0.024 A 
ATOM      3  C   UNL     1      42.319 132.184  18.417  1.00  0.00     0.011 A 
ATOM      4  C   UNL     1      43.157 131.793  17.348  1.00  0.00     0.010 A 
ATOM      5  C   UNL     1      44.489 131.382  17.581  1.00  0.00    -0.003 A 
ATOM      6  C   UNL     1      44.925 131.372  18.913  1.00  0.00     0.078 A 
ATOM      7  C   UNL     1      46.113 130.983  19.505  1.00  0.00     0.163 A 
ATOM      8  N   UNL     1      45.982 131.147  20.841  1.00  0.00    -0.174 N 
ATOM      9  N   UNL     1      44.770 131.611  21.114  1.00  0.00    -0.126 N 
ATOM     10  C   UNL     1      44.110 131.749  19.951  1.00  0.00     0.239 A 
ATOM     11  H   UNL     1      46.708 130.932  21.560  1.00  0.00     0.238 HD
ATOM     12  H   UNL     1      44.411 131.808  22.075  1.00  0.00     0.488 HD
ENDROOT
BRANCH   5  13
ATOM     13  C   UNL     1      45.366 130.982  16.457  1.00  0.00    -0.018 A 
ATOM     14  C   UNL     1      45.950 131.952  15.623  1.00  0.00     0.008 A 
ATOM     15  C   UNL     1      45.605 129.621  16.195  1.00  0.00     0.008 A 
ATOM     16  C   UNL     1      46.769 131.567  14.558  1.00  0.00    -0.008 A 
ATOM     17  C   UNL     1      46.426 129.240  15.129  1.00  0.00    -0.008 A 
ATOM     18  C   UNL     1      47.009 130.213  14.310  1.00  0.00    -0.109 A 
ATOM     19  O   UNL     1      47.823 129.832  13.252  1.00  0.00    -0.872 OA
ENDBRANCH   5  13
TORSDOF 1
ENDMDL
MODEL 5
REMARK VINA RESULT:      -8.8      3.471      6.100
REMARK SMILES Cc1ccc(-c2ccc([O-])cc2)c2c[nH][nH+]c12
REMARK SMILES IDX 1 1 2 2 3 3 4 4 5 5 13 6 14 7 15 8 16 9 17 10 6 13 7 14
REMARK SMILES IDX 12 15 8 16 11 17 9 18 10 19
REMARK H PARENT 15 11 16 12
ROOT
ATOM      1  C   UNL     1      47.531 131.016  12.975  1.00  0.00     0.052 C 
ATOM      2  C   UNL     1      46.734 131.194  14.234  1.00  0.00     0.024 A 
ATOM      3  C   UNL     1      46.588 132.460  14.838  1.00  0.00     0.011 A 
ATOM      4  C   UNL     1      45.848 132.609  16.033  1.00  0.00     0.010 A 
ATOM      5  C   UNL     1      45.233 131.496  16.650  1.00  0.00    -0.003 A 
ATOM      6  C   UNL     1      45.404 130.252  16.029  1.00  0.00     0.078 A 
ATOM      7  C   UNL     1      45.006 128.972  16.372  1.00  0.00     0.163 A 
ATOM      8  N   UNL     1      45.477 128.125  15.428  1.00  0.00    -0.174 N 
ATOM      9  N   UNL     1      46.155 128.810  14.517  1.00  0.00    -0.126 N 
ATOM     10  C   UNL     1      46.125 130.107  14.870  1.00  0.00     0.239 A 
ATOM     11  H   UNL     1      45.348 127.090  15.413  1.00  0.00     0.238 HD
ATOM     12  H   UNL     1      46.633 128.388  13.690  1.00  0.00     0.488 HD
ENDROOT
BRANCH   5  13
ATOM     13  C   UNL     1      44.451 131.657  17.898  1.00  0.00    -0.018 A 
ATOM     14  C   UNL     1      43.058 131.843  17.851  1.00  0.00     0.008 A 
ATOM     15  C   UNL     1      45.099 131.654  19.146  1.00  0.00     0.008 A 
ATOM     16  C   UNL     1      42.327 132.004  19.031  1.00  0.00    -0.008 A 
ATOM     17  C   UNL     1      44.364 131.815  20.324  1.00  0.00    -0.008 A 
ATOM     18  C   UNL     1      42.978 131.989  20.268  1.00  0.00    -0.109 A 
ATOM     19  O   UNL     1      42.250 132.150  21.440  1.00  0.00    -0.872 OA
ENDBRANCH   5  13
TORSDOF 1
ENDMDL
MODEL 6
REMARK VINA RESULT:      -8.8      3.468      6.071
REMARK SMILES Cc1ccc(-c2ccc([O-])cc2)c2c[nH][nH+]c12
REMARK SMILES IDX 1 1 2 2 3 3 4 4 5 5 13 6 14 7 15 8 16 9 17 10 6 13 7 14
REMARK SMILES IDX 12 15 8 16 11 17 9 18 10 19
REMARK H PARENT 15 11 16 12
ROOT
ATOM      1  C   UNL     1      47.504 131.002  12.932  1.00  0.00     0.052 C 
ATOM      2  C   UNL     1      46.716 131.190  14.195  1.00  0.00     0.024 A 
ATOM      3  C   UNL     1      46.576 132.461  14.792  1.00  0.00     0.011 A 
ATOM      4  C   UNL     1      45.845 132.619  15.990  1.00  0.00     0.010 A 
ATOM      5  C   UNL     1      45.232 131.512  16.620  1.00  0.00    -0.003 A 
ATOM      6  C   UNL     1      45.396 130.263  16.006  1.00  0.00     0.078 A 
ATOM      7  C   UNL     1      44.998 128.987  16.361  1.00  0.00     0.163 A 
ATOM      8  N   UNL     1      45.460 128.133  15.420  1.00  0.00    -0.174 N 
ATOM      9  N   UNL     1      46.134 128.810  14.499  1.00  0.00    -0.126 N 
ATOM     10  C   UNL     1      46.109 130.109  14.843  1.00  0.00     0.239 A 
ATOM     11  H   UNL     1      45.328 127.097  15.413  1.00  0.00     0.238 HD
ATOM     12  H   UNL     1      46.605 128.381  13.672  1.00  0.00     0.488 HD
ENDROOT
BRANCH   5  13
ATOM     13  C   UNL     1      44.459 131.685  17.871  1.00  0.00    -0.018 A 
ATOM     14  C   UNL     1      45.104 131.650  19.121  1.00  0.00     0.008 A 
ATOM     15  C   UNL     1      43.065 131.859  17.825  1.00  0.00     0.008 A 
ATOM     16  C   UNL     1      44.368 131.804  20.299  1.00  0.00    -0.008 A 
ATOM     17  C   UNL     1      42.332 132.013  19.006  1.00  0.00    -0.008 A 
ATOM     18  C   UNL     1      42.983 131.987  20.244  1.00  0.00    -0.109 A 
ATOM     19  O   UNL     1      42.254 132.139  21.415  1.00  0.00    -0.872 OA
ENDBRANCH   5  13
TORSDOF 1
ENDMDL
MODEL 7
REMARK VINA RESULT:      -8.4      1.726      2.456
REMARK SMILES Cc1ccc(-c2ccc([O-])cc2)c2c[nH][nH+]c12
REMARK SMILES IDX 1 1 2 2 3 3 4 4 5 5 13 6 14 7 15 8 16 9 17 10 6 13 7 14
REMARK SMILES IDX 12 15 8 16 11 17 9 18 10 19
REMARK H PARENT 15 11 16 12
ROOT
ATOM      1  C   UNL     1      42.253 132.126  22.269  1.00  0.00     0.052 C 
ATOM      2  C   UNL     1      42.848 131.940  20.905  1.00  0.00     0.024 A 
ATOM      3  C   UNL     1      42.119 132.248  19.737  1.00  0.00     0.011 A 
ATOM      4  C   UNL     1      42.688 132.051  18.459  1.00  0.00     0.010 A 
ATOM      5  C   UNL     1      44.001 131.546  18.316  1.00  0.00    -0.003 A 
ATOM      6  C   UNL     1      44.694 131.243  19.496  1.00  0.00     0.078 A 
ATOM      7  C   UNL     1      45.941 130.692  19.732  1.00  0.00     0.163 A 
ATOM      8  N   UNL     1      46.096 130.582  21.071  1.00  0.00    -0.174 N 
ATOM      9  N   UNL     1      45.007 131.029  21.683  1.00  0.00    -0.126 N 
ATOM     10  C   UNL     1      44.141 131.432  20.737  1.00  0.00     0.239 A 
ATOM     11  H   UNL     1      46.931 130.194  21.563  1.00  0.00     0.238 HD
ATOM     12  H   UNL     1      44.868 131.040  22.718  1.00  0.00     0.488 HD
ENDROOT
BRANCH   5  13
ATOM     13  C   UNL     1      44.596 131.349  16.975  1.00  0.00    -0.018 A 
ATOM     14  C   UNL     1      45.903 130.850  16.837  1.00  0.00     0.008 A 
ATOM     15  C   UNL     1      43.867 131.686  15.820  1.00  0.00     0.008 A 
ATOM     16  C   UNL     1      46.463 130.675  15.568  1.00  0.00    -0.008 A 
ATOM     17  C   UNL     1      44.430 131.509  14.552  1.00  0.00    -0.008 A 
ATOM     18  C   UNL     1      45.728 131.003  14.425  1.00  0.00    -0.109 A 
ATOM     19  O   UNL     1      46.285 130.828  13.166  1.00  0.00    -0.872 OA
ENDBRANCH   5  13
TORSDOF 1
ENDMDL
MODEL 8
REMARK VINA RESULT:      -8.4      1.716      2.595
REMARK SMILES Cc1ccc(-c2ccc([O-])cc2)c2c[nH][nH+]c12
REMARK SMILES IDX 1 1 2 2 3 3 4 4 5 5 13 6 14 7 15 8 16 9 17 10 6 13 7 14
REMARK SMILES IDX 12 15 8 16 11 17 9 18 10 19
REMARK H PARENT 15 11 16 12
ROOT
ATOM      1  C   UNL     1      42.139 132.193  22.264  1.00  0.00     0.052 C 
ATOM      2  C   UNL     1      42.755 131.999  20.909  1.00  0.00     0.024 A 
ATOM      3  C   UNL     1      42.022 132.240  19.728  1.00  0.00     0.011 A 
ATOM      4  C   UNL     1      42.610 132.036  18.460  1.00  0.00     0.010 A 
ATOM      5  C   UNL     1      43.946 131.591  18.341  1.00  0.00    -0.003 A 
ATOM      6  C   UNL     1      44.643 131.353  19.533  1.00  0.00     0.078 A 
ATOM      7  C   UNL     1      45.912 130.868  19.793  1.00  0.00     0.163 A 
ATOM      8  N   UNL     1      46.061 130.801  21.136  1.00  0.00    -0.174 N 
ATOM      9  N   UNL     1      44.948 131.212  21.727  1.00  0.00    -0.126 N 
ATOM     10  C   UNL     1      44.071 131.548  20.765  1.00  0.00     0.239 A 
ATOM     11  H   UNL     1      46.910 130.466  21.643  1.00  0.00     0.238 HD
ATOM     12  H   UNL     1      44.800 131.244  22.760  1.00  0.00     0.488 HD
ENDROOT
BRANCH   5  13
ATOM     13  C   UNL     1      44.561 131.387  17.009  1.00  0.00    -0.018 A 
ATOM     14  C   UNL     1      43.845 131.687  15.836  1.00  0.00     0.008 A 
ATOM     15  C   UNL     1      45.862 130.864  16.902  1.00  0.00     0.008 A 
ATOM     16  C   UNL     1      44.427 131.483  14.582  1.00  0.00    -0.008 A 
ATOM     17  C   UNL     1      46.441 130.663  15.645  1.00  0.00    -0.008 A 
ATOM     18  C   UNL     1      45.725 130.973  14.485  1.00  0.00    -0.109 A 
ATOM     19  O   UNL     1      46.302 130.771  13.238  1.00  0.00    -0.872 OA
ENDBRANCH   5  13
TORSDOF 1
ENDMDL
MODEL 9
REMARK VINA RESULT:      -8.3      1.158      1.719
REMARK SMILES Cc1ccc(-c2ccc([O-])cc2)c2c[nH][nH+]c12
REMARK SMILES IDX 1 1 2 2 3 3 4 4 5 5 13 6 14 7 15 8 16 9 17 10 6 13 7 14
REMARK SMILES IDX 12 15 8 16 11 17 9 18 10 19
REMARK H PARENT 15 11 16 12
ROOT
ATOM      1  C   UNL     1      43.355 131.814  23.763  1.00  0.00     0.052 C 
ATOM      2  C   UNL     1      43.694 131.648  22.311  1.00  0.00     0.024 A 
ATOM      3  C   UNL     1      44.896 131.031  21.903  1.00  0.00     0.011 A 
ATOM      4  C   UNL     1      45.209 130.897  20.532  1.00  0.00     0.010 A 
ATOM      5  C   UNL     1      44.327 131.372  19.534  1.00  0.00    -0.003 A 
ATOM      6  C   UNL     1      43.147 131.986  19.973  1.00  0.00     0.078 A 
ATOM      7  C   UNL     1      42.108 132.604  19.300  1.00  0.00     0.163 A 
ATOM      8  N   UNL     1      41.233 133.064  20.223  1.00  0.00    -0.174 N 
ATOM      9  N   UNL     1      41.676 132.771  21.439  1.00  0.00    -0.126 N 
ATOM     10  C   UNL     1      42.844 132.119  21.305  1.00  0.00     0.239 A 
ATOM     11  H   UNL     1      40.349 133.583  20.026  1.00  0.00     0.238 HD
ATOM     12  H   UNL     1      41.191 133.030  22.326  1.00  0.00     0.488 HD
ENDROOT
BRANCH   5  13
ATOM     13  C   UNL     1      44.656 131.221  18.099  1.00  0.00    -0.018 A 
ATOM     14  C   UNL     1      43.747 131.636  17.108  1.00  0.00     0.008 A 
ATOM     15  C   UNL     1      45.874 130.636  17.707  1.00  0.00     0.008 A 
ATOM     16  C   UNL     1      44.059 131.483  15.754  1.00  0.00    -0.008 A 
ATOM     17  C   UNL     1      46.182 130.485  16.352  1.00  0.00    -0.008 A 
ATOM     18  C   UNL     1      45.276 130.909  15.375  1.00  0.00    -0.109 A 
ATOM     19  O   UNL     1      45.584 130.758  14.029  1.00  0.00    -0.872 OA
ENDBRANCH   5  13
TORSDOF 1
ENDMDL


