MODEL 1
REMARK VINA RESULT:      -2.7      0.000      0.000
REMARK SMILES CC/N=C(\O)C(=O)N1CC[C@H](C)[C@@H](F)[C@@H]1c1ccc(C(C)=O)c(F)c1
REMARK SMILES IDX 6 1 7 2 4 3 5 4 3 6 2 7 1 8 8 9 9 10 15 11 10 12 13 13 11 14
REMARK SMILES IDX 14 15 12 16 16 17 17 18 25 19 18 20 23 21 19 22 24 23 20 24
REMARK SMILES IDX 22 25 21 26
REMARK H PARENT 5 5
ROOT
ATOM      1  C   UNL     1      43.886 131.434  19.051  1.00  0.00     0.309 C 
ATOM      2  O   UNL     1      42.690 131.340  18.664  1.00  0.00    -0.264 OA
ENDROOT
BRANCH   1   3
ATOM      3  C   UNL     1      44.953 131.437  18.022  1.00  0.00     0.273 C 
BRANCH   3   4
ATOM      4  O   UNL     1      45.148 132.569  17.226  1.00  0.00    -0.490 OA
ATOM      5  H   UNL     1      45.663 133.374  17.560  1.00  0.00     0.295 HD
ENDBRANCH   3   4
BRANCH   3   6
ATOM      6  N   UNL     1      45.726 130.406  17.876  1.00  0.00    -0.247 NA
BRANCH   6   7
ATOM      7  C   UNL     1      45.725 129.558  16.688  1.00  0.00     0.143 C 
ATOM      8  C   UNL     1      46.680 130.128  15.650  1.00  0.00     0.029 C 
ENDBRANCH   6   7
ENDBRANCH   3   6
ENDBRANCH   1   3
BRANCH   1   9
ATOM      9  N   UNL     1      44.162 131.547  20.469  1.00  0.00    -0.325 N 
ATOM     10  C   UNL     1      45.073 132.621  20.905  1.00  0.00     0.121 C 
ATOM     11  C   UNL     1      43.346 130.817  21.466  1.00  0.00     0.150 C 
ATOM     12  C   UNL     1      45.452 132.493  22.385  1.00  0.00     0.028 C 
ATOM     13  C   UNL     1      42.980 131.764  22.632  1.00  0.00     0.196 C 
ATOM     14  C   UNL     1      44.216 132.419  23.308  1.00  0.00     0.024 C 
ATOM     15  F   UNL     1      42.165 132.768  22.130  1.00  0.00    -0.245 F 
ATOM     16  C   UNL     1      44.575 131.714  24.625  1.00  0.00     0.011 C 
BRANCH  11  17
ATOM     17  C   UNL     1      44.010 129.533  21.951  1.00  0.00    -0.020 A 
ATOM     18  C   UNL     1      45.186 129.094  21.321  1.00  0.00     0.007 A 
ATOM     19  C   UNL     1      43.518 128.792  23.043  1.00  0.00     0.046 A 
ATOM     20  C   UNL     1      45.837 127.936  21.749  1.00  0.00     0.015 A 
ATOM     21  C   UNL     1      44.169 127.633  23.477  1.00  0.00     0.134 A 
ATOM     22  C   UNL     1      45.346 127.193  22.836  1.00  0.00     0.053 A 
ATOM     23  F   UNL     1      43.625 126.944  24.511  1.00  0.00    -0.206 F 
BRANCH  22  24
ATOM     24  C   UNL     1      46.083 125.976  23.275  1.00  0.00     0.162 C 
ATOM     25  O   UNL     1      46.709 125.994  24.369  1.00  0.00    -0.294 OA
ATOM     26  C   UNL     1      46.116 124.719  22.460  1.00  0.00     0.093 C 
ENDBRANCH  22  24
ENDBRANCH  11  17
ENDBRANCH   1   9
TORSDOF 7
ENDMDL
MODEL 2
REMARK VINA RESULT:      -2.1      2.493      5.994
REMARK SMILES CC/N=C(\O)C(=O)N1CC[C@H](C)[C@@H](F)[C@@H]1c1ccc(C(C)=O)c(F)c1
REMARK SMILES IDX 6 1 7 2 4 3 5 4 3 6 2 7 1 8 8 9 9 10 15 11 10 12 13 13 11 14
REMARK SMILES IDX 14 15 12 16 16 17 17 18 25 19 18 20 23 21 19 22 24 23 20 24
REMARK SMILES IDX 22 25 21 26
REMARK H PARENT 5 5
ROOT
ATOM      1  C   UNL     1      45.008 128.303  23.366  1.00  0.00     0.309 C 
ATOM      2  O   UNL     1      45.455 128.251  24.544  1.00  0.00    -0.264 OA
ENDROOT
BRANCH   1   3
ATOM      3  C   UNL     1      45.402 127.230  22.423  1.00  0.00     0.273 C 
BRANCH   3   4
ATOM      4  O   UNL     1      46.212 127.533  21.325  1.00  0.00    -0.490 OA
ATOM      5  H   UNL     1      46.832 126.847  20.913  1.00  0.00     0.295 HD
ENDBRANCH   3   4
BRANCH   3   6
ATOM      6  N   UNL     1      45.024 126.007  22.627  1.00  0.00    -0.247 NA
BRANCH   6   7
ATOM      7  C   UNL     1      45.923 124.948  23.074  1.00  0.00     0.143 C 
ATOM      8  C   UNL     1      45.652 123.676  22.284  1.00  0.00     0.029 C 
ENDBRANCH   6   7
ENDBRANCH   3   6
ENDBRANCH   1   3
BRANCH   1   9
ATOM      9  N   UNL     1      44.127 129.392  22.994  1.00  0.00    -0.325 N 
ATOM     10  C   UNL     1      42.698 129.263  23.337  1.00  0.00     0.121 C 
ATOM     11  C   UNL     1      44.669 130.698  22.559  1.00  0.00     0.150 C 
ATOM     12  C   UNL     1      41.848 130.367  22.699  1.00  0.00     0.028 C 
ATOM     13  C   UNL     1      43.900 131.841  23.261  1.00  0.00     0.196 C 
ATOM     14  C   UNL     1      42.364 131.783  23.036  1.00  0.00     0.024 C 
ATOM     15  F   UNL     1      44.153 131.755  24.622  1.00  0.00    -0.245 F 
ATOM     16  C   UNL     1      41.915 132.785  21.963  1.00  0.00     0.011 C 
BRANCH  11  17
ATOM     17  C   UNL     1      44.684 130.859  21.042  1.00  0.00    -0.020 A 
ATOM     18  C   UNL     1      43.702 131.658  20.432  1.00  0.00     0.007 A 
ATOM     19  C   UNL     1      45.677 130.280  20.229  1.00  0.00     0.046 A 
ATOM     20  C   UNL     1      43.694 131.850  19.050  1.00  0.00     0.015 A 
ATOM     21  C   UNL     1      45.674 130.472  18.844  1.00  0.00     0.134 A 
ATOM     22  C   UNL     1      44.681 131.269  18.236  1.00  0.00     0.053 A 
ATOM     23  F   UNL     1      46.636 129.857  18.112  1.00  0.00    -0.206 F 
BRANCH  22  24
ATOM     24  C   UNL     1      44.649 131.517  16.768  1.00  0.00     0.162 C 
ATOM     25  O   UNL     1      43.598 131.263  16.121  1.00  0.00    -0.294 OA
ATOM     26  C   UNL     1      45.828 132.060  16.020  1.00  0.00     0.093 C 
ENDBRANCH  22  24
ENDBRANCH  11  17
ENDBRANCH   1   9
TORSDOF 7
ENDMDL
MODEL 3
REMARK VINA RESULT:      -1.9      2.377      6.313
REMARK SMILES CC/N=C(\O)C(=O)N1CC[C@H](C)[C@@H](F)[C@@H]1c1ccc(C(C)=O)c(F)c1
REMARK SMILES IDX 6 1 7 2 4 3 5 4 3 6 2 7 1 8 8 9 9 10 15 11 10 12 13 13 11 14
REMARK SMILES IDX 14 15 12 16 16 17 17 18 25 19 18 20 23 21 19 22 24 23 20 24
REMARK SMILES IDX 22 25 21 26
REMARK H PARENT 5 5
ROOT
ATOM      1  C   UNL     1      45.270 128.230  22.399  1.00  0.00     0.309 C 
ATOM      2  O   UNL     1      46.215 127.998  21.598  1.00  0.00    -0.264 OA
ENDROOT
BRANCH   1   3
ATOM      3  C   UNL     1      45.110 127.331  23.567  1.00  0.00     0.273 C 
BRANCH   3   4
ATOM      4  O   UNL     1      44.259 127.696  24.613  1.00  0.00    -0.490 OA
ATOM      5  H   UNL     1      44.609 128.104  25.471  1.00  0.00     0.295 HD
ENDBRANCH   3   4
BRANCH   3   6
ATOM      6  N   UNL     1      45.734 126.195  23.610  1.00  0.00    -0.247 NA
BRANCH   6   7
ATOM      7  C   UNL     1      46.958 125.974  24.373  1.00  0.00     0.143 C 
ATOM      8  C   UNL     1      47.939 125.157  23.546  1.00  0.00     0.029 C 
ENDBRANCH   6   7
ENDBRANCH   3   6
ENDBRANCH   1   3
BRANCH   1   9
ATOM      9  N   UNL     1      44.399 129.361  22.154  1.00  0.00    -0.325 N 
ATOM     10  C   UNL     1      42.993 129.248  22.584  1.00  0.00     0.121 C 
ATOM     11  C   UNL     1      44.950 130.678  21.762  1.00  0.00     0.150 C 
ATOM     12  C   UNL     1      42.135 130.411  22.072  1.00  0.00     0.028 C 
ATOM     13  C   UNL     1      44.263 131.794  22.582  1.00  0.00     0.196 C 
ATOM     14  C   UNL     1      42.715 131.789  22.459  1.00  0.00     0.024 C 
ATOM     15  F   UNL     1      44.603 131.618  23.915  1.00  0.00    -0.245 F 
ATOM     16  C   UNL     1      42.225 132.867  21.480  1.00  0.00     0.011 C 
BRANCH  11  17
ATOM     17  C   UNL     1      44.870 130.933  20.260  1.00  0.00    -0.020 A 
ATOM     18  C   UNL     1      45.965 130.587  19.452  1.00  0.00     0.007 A 
ATOM     19  C   UNL     1      43.719 131.456  19.641  1.00  0.00     0.046 A 
ATOM     20  C   UNL     1      45.924 130.782  18.070  1.00  0.00     0.015 A 
ATOM     21  C   UNL     1      43.672 131.650  18.257  1.00  0.00     0.134 A 
ATOM     22  C   UNL     1      44.778 131.308  17.450  1.00  0.00     0.053 A 
ATOM     23  F   UNL     1      42.548 132.191  17.725  1.00  0.00    -0.206 F 
BRANCH  22  24
ATOM     24  C   UNL     1      44.768 131.479  15.972  1.00  0.00     0.162 C 
ATOM     25  O   UNL     1      43.702 131.268  15.332  1.00  0.00    -0.294 OA
ATOM     26  C   UNL     1      45.986 131.892  15.203  1.00  0.00     0.093 C 
ENDBRANCH  22  24
ENDBRANCH  11  17
ENDBRANCH   1   9
TORSDOF 7
ENDMDL
MODEL 4
REMARK VINA RESULT:      -1.7      2.564      5.990
REMARK SMILES CC/N=C(\O)C(=O)N1CC[C@H](C)[C@@H](F)[C@@H]1c1ccc(C(C)=O)c(F)c1
REMARK SMILES IDX 6 1 7 2 4 3 5 4 3 6 2 7 1 8 8 9 9 10 15 11 10 12 13 13 11 14
REMARK SMILES IDX 14 15 12 16 16 17 17 18 25 19 18 20 23 21 19 22 24 23 20 24
REMARK SMILES IDX 22 25 21 26
REMARK H PARENT 5 5
ROOT
ATOM      1  C   UNL     1      45.020 128.283  23.380  1.00  0.00     0.309 C 
ATOM      2  O   UNL     1      45.514 128.302  24.539  1.00  0.00    -0.264 OA
ENDROOT
BRANCH   1   3
ATOM      3  C   UNL     1      45.357 127.142  22.496  1.00  0.00     0.273 C 
BRANCH   3   4
ATOM      4  O   UNL     1      46.182 127.341  21.387  1.00  0.00    -0.490 OA
ATOM      5  H   UNL     1      47.192 127.346  21.465  1.00  0.00     0.295 HD
ENDBRANCH   3   4
BRANCH   3   6
ATOM      6  N   UNL     1      44.914 125.953  22.764  1.00  0.00    -0.247 NA
BRANCH   6   7
ATOM      7  C   UNL     1      43.615 125.694  23.378  1.00  0.00     0.143 C 
ATOM      8  C   UNL     1      42.884 124.613  22.596  1.00  0.00     0.029 C 
ENDBRANCH   6   7
ENDBRANCH   3   6
ENDBRANCH   1   3
BRANCH   1   9
ATOM      9  N   UNL     1      44.142 129.361  22.970  1.00  0.00    -0.325 N 
ATOM     10  C   UNL     1      42.698 129.203  23.229  1.00  0.00     0.121 C 
ATOM     11  C   UNL     1      44.685 130.682  22.581  1.00  0.00     0.150 C 
ATOM     12  C   UNL     1      41.867 130.300  22.555  1.00  0.00     0.028 C 
ATOM     13  C   UNL     1      43.857 131.802  23.251  1.00  0.00     0.196 C 
ATOM     14  C   UNL     1      42.338 131.720  22.938  1.00  0.00     0.024 C 
ATOM     15  F   UNL     1      44.033 131.704  24.623  1.00  0.00    -0.245 F 
ATOM     16  C   UNL     1      41.933 132.728  21.852  1.00  0.00     0.011 C 
BRANCH  11  17
ATOM     17  C   UNL     1      44.784 130.862  21.070  1.00  0.00    -0.020 A 
ATOM     18  C   UNL     1      44.052 131.893  20.457  1.00  0.00     0.007 A 
ATOM     19  C   UNL     1      45.623 130.066  20.266  1.00  0.00     0.046 A 
ATOM     20  C   UNL     1      44.133 132.106  19.081  1.00  0.00     0.015 A 
ATOM     21  C   UNL     1      45.709 130.279  18.887  1.00  0.00     0.134 A 
ATOM     22  C   UNL     1      44.966 131.311  18.276  1.00  0.00     0.053 A 
ATOM     23  F   UNL     1      46.507 129.455  18.162  1.00  0.00    -0.206 F 
BRANCH  22  24
ATOM     24  C   UNL     1      45.040 131.587  16.815  1.00  0.00     0.162 C 
ATOM     25  O   UNL     1      45.708 132.574  16.405  1.00  0.00    -0.294 OA
ATOM     26  C   UNL     1      44.343 130.733  15.800  1.00  0.00     0.093 C 
ENDBRANCH  22  24
ENDBRANCH  11  17
ENDBRANCH   1   9
TORSDOF 7
ENDMDL
MODEL 5
REMARK VINA RESULT:      -1.3      2.678      6.485
REMARK SMILES CC/N=C(\O)C(=O)N1CC[C@H](C)[C@@H](F)[C@@H]1c1ccc(C(C)=O)c(F)c1
REMARK SMILES IDX 6 1 7 2 4 3 5 4 3 6 2 7 1 8 8 9 9 10 15 11 10 12 13 13 11 14
REMARK SMILES IDX 14 15 12 16 16 17 17 18 25 19 18 20 23 21 19 22 24 23 20 24
REMARK SMILES IDX 22 25 21 26
REMARK H PARENT 5 5
ROOT
ATOM      1  C   UNL     1      45.236 128.573  22.179  1.00  0.00     0.309 C 
ATOM      2  O   UNL     1      46.277 128.285  21.531  1.00  0.00    -0.264 OA
ENDROOT
BRANCH   1   3
ATOM      3  C   UNL     1      44.913 127.760  23.376  1.00  0.00     0.273 C 
BRANCH   3   4
ATOM      4  O   UNL     1      45.421 128.129  24.625  1.00  0.00    -0.490 OA
ATOM      5  H   UNL     1      45.375 127.510  25.424  1.00  0.00     0.295 HD
ENDBRANCH   3   4
BRANCH   3   6
ATOM      6  N   UNL     1      44.138 126.726  23.276  1.00  0.00    -0.247 NA
BRANCH   6   7
ATOM      7  C   UNL     1      44.049 125.682  24.292  1.00  0.00     0.143 C 
ATOM      8  C   UNL     1      42.779 124.870  24.086  1.00  0.00     0.029 C 
ENDBRANCH   6   7
ENDBRANCH   3   6
ENDBRANCH   1   3
BRANCH   1   9
ATOM      9  N   UNL     1      44.415 129.683  21.739  1.00  0.00    -0.325 N 
ATOM     10  C   UNL     1      42.968 129.617  22.018  1.00  0.00     0.121 C 
ATOM     11  C   UNL     1      45.026 130.956  21.296  1.00  0.00     0.150 C 
ATOM     12  C   UNL     1      42.191 130.734  21.312  1.00  0.00     0.028 C 
ATOM     13  C   UNL     1      44.271 132.145  21.932  1.00  0.00     0.196 C 
ATOM     14  C   UNL     1      42.746 132.138  21.638  1.00  0.00     0.024 C 
ATOM     15  F   UNL     1      44.458 132.087  23.305  1.00  0.00    -0.245 F 
ATOM     16  C   UNL     1      42.385 133.127  20.519  1.00  0.00     0.011 C 
BRANCH  11  17
ATOM     17  C   UNL     1      45.118 131.075  19.778  1.00  0.00    -0.020 A 
ATOM     18  C   UNL     1      44.787 132.298  19.170  1.00  0.00     0.007 A 
ATOM     19  C   UNL     1      45.570 130.021  18.962  1.00  0.00     0.046 A 
ATOM     20  C   UNL     1      44.879 132.455  17.786  1.00  0.00     0.015 A 
ATOM     21  C   UNL     1      45.666 130.176  17.576  1.00  0.00     0.134 A 
ATOM     22  C   UNL     1      45.326 131.404  16.969  1.00  0.00     0.053 A 
ATOM     23  F   UNL     1      46.074 129.111  16.840  1.00  0.00    -0.206 F 
BRANCH  22  24
ATOM     24  C   UNL     1      45.431 131.621  15.500  1.00  0.00     0.162 C 
ATOM     25  O   UNL     1      46.444 132.208  15.032  1.00  0.00    -0.294 OA
ATOM     26  C   UNL     1      44.369 131.171  14.544  1.00  0.00     0.093 C 
ENDBRANCH  22  24
ENDBRANCH  11  17
ENDBRANCH   1   9
TORSDOF 7
ENDMDL
MODEL 6
REMARK VINA RESULT:      -1.1      2.403      6.453
REMARK SMILES CC/N=C(\O)C(=O)N1CC[C@H](C)[C@@H](F)[C@@H]1c1ccc(C(C)=O)c(F)c1
REMARK SMILES IDX 6 1 7 2 4 3 5 4 3 6 2 7 1 8 8 9 9 10 15 11 10 12 13 13 11 14
REMARK SMILES IDX 14 15 12 16 16 17 17 18 25 19 18 20 23 21 19 22 24 23 20 24
REMARK SMILES IDX 22 25 21 26
REMARK H PARENT 5 5
ROOT
ATOM      1  C   UNL     1      45.154 128.445  21.878  1.00  0.00     0.309 C 
ATOM      2  O   UNL     1      46.196 128.229  21.203  1.00  0.00    -0.264 OA
ENDROOT
BRANCH   1   3
ATOM      3  C   UNL     1      44.794 127.470  22.935  1.00  0.00     0.273 C 
BRANCH   3   4
ATOM      4  O   UNL     1      44.848 127.851  24.279  1.00  0.00    -0.490 OA
ATOM      5  H   UNL     1      44.009 128.039  24.815  1.00  0.00     0.295 HD
ENDBRANCH   3   4
BRANCH   3   6
ATOM      6  N   UNL     1      44.403 126.275  22.620  1.00  0.00    -0.247 NA
BRANCH   6   7
ATOM      7  C   UNL     1      44.080 125.245  23.602  1.00  0.00     0.143 C 
ATOM      8  C   UNL     1      45.362 124.686  24.200  1.00  0.00     0.029 C 
ENDBRANCH   6   7
ENDBRANCH   3   6
ENDBRANCH   1   3
BRANCH   1   9
ATOM      9  N   UNL     1      44.368 129.630  21.603  1.00  0.00    -0.325 N 
ATOM     10  C   UNL     1      42.979 129.660  22.098  1.00  0.00     0.121 C 
ATOM     11  C   UNL     1      45.006 130.872  21.111  1.00  0.00     0.150 C 
ATOM     12  C   UNL     1      42.196 130.861  21.554  1.00  0.00     0.028 C 
ATOM     13  C   UNL     1      44.452 132.086  21.891  1.00  0.00     0.196 C 
ATOM     14  C   UNL     1      42.904 132.205  21.833  1.00  0.00     0.024 C 
ATOM     15  F   UNL     1      44.838 131.956  23.217  1.00  0.00    -0.245 F 
ATOM     16  C   UNL     1      42.460 133.264  20.814  1.00  0.00     0.011 C 
BRANCH  11  17
ATOM     17  C   UNL     1      44.877 131.048  19.601  1.00  0.00    -0.020 A 
ATOM     18  C   UNL     1      45.934 130.632  18.774  1.00  0.00     0.007 A 
ATOM     19  C   UNL     1      43.717 131.567  18.996  1.00  0.00     0.046 A 
ATOM     20  C   UNL     1      45.847 130.755  17.387  1.00  0.00     0.015 A 
ATOM     21  C   UNL     1      43.625 131.689  17.606  1.00  0.00     0.134 A 
ATOM     22  C   UNL     1      44.692 131.276  16.780  1.00  0.00     0.053 A 
ATOM     23  F   UNL     1      42.495 132.231  17.085  1.00  0.00    -0.206 F 
BRANCH  22  24
ATOM     24  C   UNL     1      44.632 131.369  15.296  1.00  0.00     0.162 C 
ATOM     25  O   UNL     1      43.542 131.671  14.739  1.00  0.00    -0.294 OA
ATOM     26  C   UNL     1      45.824 131.112  14.426  1.00  0.00     0.093 C 
ENDBRANCH  22  24
ENDBRANCH  11  17
ENDBRANCH   1   9
TORSDOF 7
ENDMDL
MODEL 7
REMARK VINA RESULT:      -0.9      2.463      6.393
REMARK SMILES CC/N=C(\O)C(=O)N1CC[C@H](C)[C@@H](F)[C@@H]1c1ccc(C(C)=O)c(F)c1
REMARK SMILES IDX 6 1 7 2 4 3 5 4 3 6 2 7 1 8 8 9 9 10 15 11 10 12 13 13 11 14
REMARK SMILES IDX 14 15 12 16 16 17 17 18 25 19 18 20 23 21 19 22 24 23 20 24
REMARK SMILES IDX 22 25 21 26
REMARK H PARENT 5 5
ROOT
ATOM      1  C   UNL     1      44.911 128.401  22.160  1.00  0.00     0.309 C 
ATOM      2  O   UNL     1      45.895 128.086  21.438  1.00  0.00    -0.264 OA
ENDROOT
BRANCH   1   3
ATOM      3  C   UNL     1      44.608 127.551  23.336  1.00  0.00     0.273 C 
BRANCH   3   4
ATOM      4  O   UNL     1      44.812 128.049  24.625  1.00  0.00    -0.490 OA
ATOM      5  H   UNL     1      45.393 128.860  24.799  1.00  0.00     0.295 HD
ENDBRANCH   3   4
BRANCH   3   6
ATOM      6  N   UNL     1      44.128 126.357  23.175  1.00  0.00    -0.247 NA
BRANCH   6   7
ATOM      7  C   UNL     1      42.707 126.039  23.273  1.00  0.00     0.143 C 
ATOM      8  C   UNL     1      42.059 126.904  24.344  1.00  0.00     0.029 C 
ENDBRANCH   6   7
ENDBRANCH   3   6
ENDBRANCH   1   3
BRANCH   1   9
ATOM      9  N   UNL     1      44.134 129.576  21.819  1.00  0.00    -0.325 N 
ATOM     10  C   UNL     1      42.707 129.584  22.192  1.00  0.00     0.121 C 
ATOM     11  C   UNL     1      44.794 130.828  21.387  1.00  0.00     0.150 C 
ATOM     12  C   UNL     1      41.958 130.775  21.584  1.00  0.00     0.028 C 
ATOM     13  C   UNL     1      44.157 132.031  22.119  1.00  0.00     0.196 C 
ATOM     14  C   UNL     1      42.619 132.128  21.927  1.00  0.00     0.024 C 
ATOM     15  F   UNL     1      44.428 131.903  23.473  1.00  0.00    -0.245 F 
ATOM     16  C   UNL     1      42.249 133.184  20.875  1.00  0.00     0.011 C 
BRANCH  11  17
ATOM     17  C   UNL     1      44.795 131.007  19.873  1.00  0.00    -0.020 A 
ATOM     18  C   UNL     1      45.913 130.581  19.137  1.00  0.00     0.007 A 
ATOM     19  C   UNL     1      43.695 131.539  19.173  1.00  0.00     0.046 A 
ATOM     20  C   UNL     1      45.944 130.706  17.747  1.00  0.00     0.015 A 
ATOM     21  C   UNL     1      43.721 131.663  17.780  1.00  0.00     0.134 A 
ATOM     22  C   UNL     1      44.850 131.240  17.046  1.00  0.00     0.053 A 
ATOM     23  F   UNL     1      42.645 132.217  17.167  1.00  0.00    -0.206 F 
BRANCH  22  24
ATOM     24  C   UNL     1      44.915 131.335  15.562  1.00  0.00     0.162 C 
ATOM     25  O   UNL     1      46.038 131.445  14.999  1.00  0.00    -0.294 OA
ATOM     26  C   UNL     1      43.690 131.309  14.701  1.00  0.00     0.093 C 
ENDBRANCH  22  24
ENDBRANCH  11  17
ENDBRANCH   1   9
TORSDOF 7
ENDMDL
MODEL 8
REMARK VINA RESULT:      -0.5      2.587      6.530
REMARK SMILES CC/N=C(\O)C(=O)N1CC[C@H](C)[C@@H](F)[C@@H]1c1ccc(C(C)=O)c(F)c1
REMARK SMILES IDX 6 1 7 2 4 3 5 4 3 6 2 7 1 8 8 9 9 10 15 11 10 12 13 13 11 14
REMARK SMILES IDX 14 15 12 16 16 17 17 18 25 19 18 20 23 21 19 22 24 23 20 24
REMARK SMILES IDX 22 25 21 26
REMARK H PARENT 5 5
ROOT
ATOM      1  C   UNL     1      45.133 128.362  22.236  1.00  0.00     0.309 C 
ATOM      2  O   UNL     1      46.234 128.184  21.647  1.00  0.00    -0.264 OA
ENDROOT
BRANCH   1   3
ATOM      3  C   UNL     1      44.725 127.377  23.265  1.00  0.00     0.273 C 
BRANCH   3   4
ATOM      4  O   UNL     1      45.506 126.240  23.488  1.00  0.00    -0.490 OA
ATOM      5  H   UNL     1      45.256 125.337  23.105  1.00  0.00     0.295 HD
ENDBRANCH   3   4
BRANCH   3   6
ATOM      6  N   UNL     1      43.663 127.579  23.981  1.00  0.00    -0.247 NA
BRANCH   6   7
ATOM      7  C   UNL     1      42.535 126.655  24.029  1.00  0.00     0.143 C 
ATOM      8  C   UNL     1      42.983 125.328  24.625  1.00  0.00     0.029 C 
ENDBRANCH   6   7
ENDBRANCH   3   6
ENDBRANCH   1   3
BRANCH   1   9
ATOM      9  N   UNL     1      44.330 129.519  21.893  1.00  0.00    -0.325 N 
ATOM     10  C   UNL     1      42.923 129.530  22.336  1.00  0.00     0.121 C 
ATOM     11  C   UNL     1      44.957 130.760  21.386  1.00  0.00     0.150 C 
ATOM     12  C   UNL     1      42.134 130.693  21.725  1.00  0.00     0.028 C 
ATOM     13  C   UNL     1      44.345 131.984  22.106  1.00  0.00     0.196 C 
ATOM     14  C   UNL     1      42.799 132.062  21.987  1.00  0.00     0.024 C 
ATOM     15  F   UNL     1      44.684 131.905  23.448  1.00  0.00    -0.245 F 
ATOM     16  C   UNL     1      42.368 133.078  20.918  1.00  0.00     0.011 C 
BRANCH  11  17
ATOM     17  C   UNL     1      44.881 130.886  19.868  1.00  0.00    -0.020 A 
ATOM     18  C   UNL     1      43.791 131.561  19.294  1.00  0.00     0.007 A 
ATOM     19  C   UNL     1      45.889 130.394  19.016  1.00  0.00     0.046 A 
ATOM     20  C   UNL     1      43.696 131.718  17.910  1.00  0.00     0.015 A 
ATOM     21  C   UNL     1      45.798 130.552  17.630  1.00  0.00     0.134 A 
ATOM     22  C   UNL     1      44.698 131.225  17.058  1.00  0.00     0.053 A 
ATOM     23  F   UNL     1      46.784 130.024  16.860  1.00  0.00    -0.206 F 
BRANCH  22  24
ATOM     24  C   UNL     1      44.568 131.434  15.589  1.00  0.00     0.162 C 
ATOM     25  O   UNL     1      43.435 131.690  15.099  1.00  0.00    -0.294 OA
ATOM     26  C   UNL     1      45.740 131.348  14.659  1.00  0.00     0.093 C 
ENDBRANCH  22  24
ENDBRANCH  11  17
ENDBRANCH   1   9
TORSDOF 7
ENDMDL
MODEL 9
REMARK VINA RESULT:      -0.4      3.171      6.624
REMARK SMILES CC/N=C(\O)C(=O)N1CC[C@H](C)[C@@H](F)[C@@H]1c1ccc(C(C)=O)c(F)c1
REMARK SMILES IDX 6 1 7 2 4 3 5 4 3 6 2 7 1 8 8 9 9 10 15 11 10 12 13 13 11 14
REMARK SMILES IDX 14 15 12 16 16 17 17 18 25 19 18 20 23 21 19 22 24 23 20 24
REMARK SMILES IDX 22 25 21 26
REMARK H PARENT 5 5
ROOT
ATOM      1  C   UNL     1      44.771 130.485  21.746  1.00  0.00     0.309 C 
ATOM      2  O   UNL     1      45.863 129.903  21.503  1.00  0.00    -0.264 OA
ENDROOT
BRANCH   1   3
ATOM      3  C   UNL     1      44.393 130.696  23.164  1.00  0.00     0.273 C 
BRANCH   3   4
ATOM      4  O   UNL     1      44.171 131.991  23.638  1.00  0.00    -0.490 OA
ATOM      5  H   UNL     1      43.239 132.335  23.837  1.00  0.00     0.295 HD
ENDBRANCH   3   4
BRANCH   3   6
ATOM      6  N   UNL     1      44.240 129.683  23.959  1.00  0.00    -0.247 NA
BRANCH   6   7
ATOM      7  C   UNL     1      42.969 129.335  24.586  1.00  0.00     0.143 C 
ATOM      8  C   UNL     1      42.027 128.746  23.547  1.00  0.00     0.029 C 
ENDBRANCH   6   7
ENDBRANCH   3   6
ENDBRANCH   1   3
BRANCH   1   9
ATOM      9  N   UNL     1      43.947 130.928  20.639  1.00  0.00    -0.325 N 
ATOM     10  C   UNL     1      42.552 130.453  20.592  1.00  0.00     0.121 C 
ATOM     11  C   UNL     1      44.383 132.035  19.759  1.00  0.00     0.150 C 
ATOM     12  C   UNL     1      41.863 130.810  19.270  1.00  0.00     0.028 C 
ATOM     13  C   UNL     1      43.205 133.009  19.526  1.00  0.00     0.196 C 
ATOM     14  C   UNL     1      41.937 132.320  18.953  1.00  0.00     0.024 C 
ATOM     15  F   UNL     1      42.883 133.591  20.743  1.00  0.00    -0.245 F 
ATOM     16  C   UNL     1      41.805 132.555  17.440  1.00  0.00     0.011 C 
BRANCH  11  17
ATOM     17  C   UNL     1      44.997 131.547  18.451  1.00  0.00    -0.020 A 
ATOM     18  C   UNL     1      45.646 130.302  18.426  1.00  0.00     0.007 A 
ATOM     19  C   UNL     1      44.895 132.274  17.249  1.00  0.00     0.046 A 
ATOM     20  C   UNL     1      46.202 129.809  17.244  1.00  0.00     0.015 A 
ATOM     21  C   UNL     1      45.447 131.782  16.062  1.00  0.00     0.134 A 
ATOM     22  C   UNL     1      46.105 130.534  16.044  1.00  0.00     0.053 A 
ATOM     23  F   UNL     1      45.347 132.547  14.946  1.00  0.00    -0.206 F 
BRANCH  22  24
ATOM     24  C   UNL     1      46.691 129.961  14.802  1.00  0.00     0.162 C 
ATOM     25  O   UNL     1      46.671 128.713  14.627  1.00  0.00    -0.294 OA
ATOM     26  C   UNL     1      47.313 130.815  13.739  1.00  0.00     0.093 C 
ENDBRANCH  22  24
ENDBRANCH  11  17
ENDBRANCH   1   9
TORSDOF 7
ENDMDL


