MODEL 1
REMARK VINA RESULT:      -6.7      0.000      0.000
REMARK SMILES CC(=O)c1ccc(/C(O)=N/[C@@H]2C=CCC2)c(F)c1OC(=O)C(C)(C)C
REMARK SMILES IDX 7 1 6 2 5 3 4 4 18 5 16 6 17 7 8 8 9 9 10 11 11 12 12 13
REMARK SMILES IDX 15 14 13 15 14 16 19 17 20 18 21 19 22 20 23 21 24 22 25 23
REMARK SMILES IDX 2 24 3 25 1 26
REMARK H PARENT 9 10
ROOT
ATOM      1  C   UNL     1      43.941 131.554  18.884  1.00  0.00     0.076 A 
ATOM      2  C   UNL     1      42.866 132.297  19.400  1.00  0.00     0.018 A 
ATOM      3  C   UNL     1      42.596 132.310  20.767  1.00  0.00     0.017 A 
ATOM      4  C   UNL     1      43.384 131.570  21.667  1.00  0.00     0.063 A 
ATOM      5  C   UNL     1      44.450 130.794  21.157  1.00  0.00     0.178 A 
ATOM      6  C   UNL     1      44.738 130.810  19.777  1.00  0.00     0.179 A 
ATOM      7  F   UNL     1      45.832 130.146  19.325  1.00  0.00    -0.202 F 
ENDROOT
BRANCH   1   8
ATOM      8  C   UNL     1      44.224 131.565  17.423  1.00  0.00     0.217 C 
BRANCH   8   9
ATOM      9  O   UNL     1      43.364 132.256  16.561  1.00  0.00    -0.493 OA
ATOM     10  H   UNL     1      42.416 131.962  16.365  1.00  0.00     0.295 HD
ENDBRANCH   8   9
BRANCH   8  11
ATOM     11  N   UNL     1      45.270 130.936  16.967  1.00  0.00    -0.244 NA
BRANCH  11  12
ATOM     12  C   UNL     1      45.339 130.168  15.724  1.00  0.00     0.132 C 
ATOM     13  C   UNL     1      46.699 129.584  15.584  1.00  0.00    -0.005 C 
ATOM     14  C   UNL     1      45.191 131.076  14.488  1.00  0.00     0.036 C 
ATOM     15  C   UNL     1      47.332 130.025  14.512  1.00  0.00    -0.029 C 
ATOM     16  C   UNL     1      46.520 130.993  13.731  1.00  0.00     0.029 C 
ENDBRANCH  11  12
ENDBRANCH   8  11
ENDBRANCH   1   8
BRANCH   5  17
ATOM     17  O   UNL     1      45.236 130.034  22.036  1.00  0.00    -0.422 OA
BRANCH  17  18
ATOM     18  C   UNL     1      45.112 128.649  22.217  1.00  0.00     0.316 C 
ATOM     19  O   UNL     1      45.435 127.858  21.287  1.00  0.00    -0.251 OA
BRANCH  18  20
ATOM     20  C   UNL     1      44.626 128.104  23.545  1.00  0.00     0.060 C 
ATOM     21  C   UNL     1      44.770 129.204  24.610  1.00  0.00     0.023 C 
ATOM     22  C   UNL     1      43.146 127.683  23.438  1.00  0.00     0.023 C 
ATOM     23  C   UNL     1      45.462 126.874  23.958  1.00  0.00     0.023 C 
ENDBRANCH  18  20
ENDBRANCH  17  18
ENDBRANCH   5  17
BRANCH   4  24
ATOM     24  C   UNL     1      43.084 131.605  23.127  1.00  0.00     0.163 C 
ATOM     25  O   UNL     1      43.888 132.157  23.926  1.00  0.00    -0.294 OA
ATOM     26  C   UNL     1      41.816 131.030  23.684  1.00  0.00     0.093 C 
ENDBRANCH   4  24
TORSDOF 8
ENDMDL
MODEL 2
REMARK VINA RESULT:      -6.4      0.701      1.068
REMARK SMILES CC(=O)c1ccc(/C(O)=N/[C@@H]2C=CCC2)c(F)c1OC(=O)C(C)(C)C
REMARK SMILES IDX 7 1 6 2 5 3 4 4 18 5 16 6 17 7 8 8 9 9 10 11 11 12 12 13
REMARK SMILES IDX 15 14 13 15 14 16 19 17 20 18 21 19 22 20 23 21 24 22 25 23
REMARK SMILES IDX 2 24 3 25 1 26
REMARK H PARENT 9 10
ROOT
ATOM      1  C   UNL     1      43.760 131.535  18.662  1.00  0.00     0.076 A 
ATOM      2  C   UNL     1      42.665 132.281  19.128  1.00  0.00     0.018 A 
ATOM      3  C   UNL     1      42.398 132.387  20.491  1.00  0.00     0.017 A 
ATOM      4  C   UNL     1      43.209 131.739  21.439  1.00  0.00     0.063 A 
ATOM      5  C   UNL     1      44.297 130.959  20.983  1.00  0.00     0.178 A 
ATOM      6  C   UNL     1      44.581 130.882  19.605  1.00  0.00     0.179 A 
ATOM      7  F   UNL     1      45.693 130.218  19.198  1.00  0.00    -0.202 F 
ENDROOT
BRANCH   1   8
ATOM      8  C   UNL     1      44.039 131.446  17.203  1.00  0.00     0.217 C 
BRANCH   8   9
ATOM      9  O   UNL     1      43.346 132.281  16.319  1.00  0.00    -0.493 OA
ATOM     10  H   UNL     1      43.743 132.634  15.458  1.00  0.00     0.295 HD
ENDBRANCH   8   9
BRANCH   8  11
ATOM     11  N   UNL     1      44.927 130.596  16.770  1.00  0.00    -0.244 NA
BRANCH  11  12
ATOM     12  C   UNL     1      45.002 130.044  15.418  1.00  0.00     0.132 C 
ATOM     13  C   UNL     1      46.233 129.221  15.293  1.00  0.00    -0.005 C 
ATOM     14  C   UNL     1      45.182 131.151  14.362  1.00  0.00     0.036 C 
ATOM     15  C   UNL     1      47.066 129.689  14.380  1.00  0.00    -0.029 C 
ATOM     16  C   UNL     1      46.554 130.918  13.722  1.00  0.00     0.029 C 
ENDBRANCH  11  12
ENDBRANCH   8  11
ENDBRANCH   1   8
BRANCH   5  17
ATOM     17  O   UNL     1      45.106 130.289  21.912  1.00  0.00    -0.422 OA
BRANCH  17  18
ATOM     18  C   UNL     1      45.157 128.897  22.063  1.00  0.00     0.316 C 
ATOM     19  O   UNL     1      45.817 128.195  21.245  1.00  0.00    -0.251 OA
BRANCH  18  20
ATOM     20  C   UNL     1      44.453 128.239  23.232  1.00  0.00     0.060 C 
ATOM     21  C   UNL     1      42.937 128.439  23.068  1.00  0.00     0.023 C 
ATOM     22  C   UNL     1      44.770 126.730  23.263  1.00  0.00     0.023 C 
ATOM     23  C   UNL     1      44.915 128.870  24.562  1.00  0.00     0.023 C 
ENDBRANCH  18  20
ENDBRANCH  17  18
ENDBRANCH   5  17
BRANCH   4  24
ATOM     24  C   UNL     1      42.912 131.872  22.894  1.00  0.00     0.163 C 
ATOM     25  O   UNL     1      41.737 131.703  23.319  1.00  0.00    -0.294 OA
ATOM     26  C   UNL     1      43.991 132.168  23.894  1.00  0.00     0.093 C 
ENDBRANCH   4  24
TORSDOF 8
ENDMDL
MODEL 3
REMARK VINA RESULT:      -6.3      1.116      1.310
REMARK SMILES CC(=O)c1ccc(/C(O)=N/[C@@H]2C=CCC2)c(F)c1OC(=O)C(C)(C)C
REMARK SMILES IDX 7 1 6 2 5 3 4 4 18 5 16 6 17 7 8 8 9 9 10 11 11 12 12 13
REMARK SMILES IDX 15 14 13 15 14 16 19 17 20 18 21 19 22 20 23 21 24 22 25 23
REMARK SMILES IDX 2 24 3 25 1 26
REMARK H PARENT 9 10
ROOT
ATOM      1  C   UNL     1      43.707 131.546  19.583  1.00  0.00     0.076 A 
ATOM      2  C   UNL     1      42.876 132.444  20.272  1.00  0.00     0.018 A 
ATOM      3  C   UNL     1      42.761 132.393  21.660  1.00  0.00     0.017 A 
ATOM      4  C   UNL     1      43.464 131.432  22.408  1.00  0.00     0.063 A 
ATOM      5  C   UNL     1      44.280 130.502  21.724  1.00  0.00     0.178 A 
ATOM      6  C   UNL     1      44.417 130.580  20.324  1.00  0.00     0.179 A 
ATOM      7  F   UNL     1      45.291 129.747  19.701  1.00  0.00    -0.202 F 
ENDROOT
BRANCH   1   8
ATOM      8  C   UNL     1      43.830 131.626  18.102  1.00  0.00     0.217 C 
BRANCH   8   9
ATOM      9  O   UNL     1      42.796 132.205  17.357  1.00  0.00    -0.493 OA
ATOM     10  H   UNL     1      42.591 131.954  16.399  1.00  0.00     0.295 HD
ENDBRANCH   8   9
BRANCH   8  11
ATOM     11  N   UNL     1      44.899 131.161  17.520  1.00  0.00    -0.244 NA
BRANCH  11  12
ATOM     12  C   UNL     1      44.980 130.639  16.157  1.00  0.00     0.132 C 
ATOM     13  C   UNL     1      46.107 129.674  16.067  1.00  0.00    -0.005 C 
ATOM     14  C   UNL     1      45.349 131.742  15.147  1.00  0.00     0.036 C 
ATOM     15  C   UNL     1      47.038 130.060  15.213  1.00  0.00    -0.029 C 
ATOM     16  C   UNL     1      46.715 131.359  14.570  1.00  0.00     0.029 C 
ENDBRANCH  11  12
ENDBRANCH   8  11
ENDBRANCH   1   8
BRANCH   5  17
ATOM     17  O   UNL     1      44.974 129.523  22.452  1.00  0.00    -0.422 OA
BRANCH  17  18
ATOM     18  C   UNL     1      44.411 128.322  22.905  1.00  0.00     0.316 C 
ATOM     19  O   UNL     1      43.214 128.297  23.309  1.00  0.00    -0.251 OA
BRANCH  18  20
ATOM     20  C   UNL     1      45.229 127.047  22.872  1.00  0.00     0.060 C 
ATOM     21  C   UNL     1      45.908 126.864  24.239  1.00  0.00     0.023 C 
ATOM     22  C   UNL     1      44.316 125.837  22.586  1.00  0.00     0.023 C 
ATOM     23  C   UNL     1      46.304 127.127  21.768  1.00  0.00     0.023 C 
ENDBRANCH  18  20
ENDBRANCH  17  18
ENDBRANCH   5  17
BRANCH   4  24
ATOM     24  C   UNL     1      43.334 131.400  23.893  1.00  0.00     0.163 C 
ATOM     25  O   UNL     1      44.317 131.705  24.622  1.00  0.00    -0.294 OA
ATOM     26  C   UNL     1      42.039 131.048  24.563  1.00  0.00     0.093 C 
ENDBRANCH   4  24
TORSDOF 8
ENDMDL
MODEL 4
REMARK VINA RESULT:      -5.7      0.788      1.060
REMARK SMILES CC(=O)c1ccc(/C(O)=N/[C@@H]2C=CCC2)c(F)c1OC(=O)C(C)(C)C
REMARK SMILES IDX 7 1 6 2 5 3 4 4 18 5 16 6 17 7 8 8 9 9 10 11 11 12 12 13
REMARK SMILES IDX 15 14 13 15 14 16 19 17 20 18 21 19 22 20 23 21 24 22 25 23
REMARK SMILES IDX 2 24 3 25 1 26
REMARK H PARENT 9 10
ROOT
ATOM      1  C   UNL     1      44.095 131.284  18.723  1.00  0.00     0.076 A 
ATOM      2  C   UNL     1      43.053 132.135  19.129  1.00  0.00     0.018 A 
ATOM      3  C   UNL     1      42.755 132.308  20.479  1.00  0.00     0.017 A 
ATOM      4  C   UNL     1      43.480 131.626  21.473  1.00  0.00     0.063 A 
ATOM      5  C   UNL     1      44.511 130.744  21.077  1.00  0.00     0.178 A 
ATOM      6  C   UNL     1      44.829 130.598  19.711  1.00  0.00     0.179 A 
ATOM      7  F   UNL     1      45.893 129.830  19.362  1.00  0.00    -0.202 F 
ENDROOT
BRANCH   1   8
ATOM      8  C   UNL     1      44.409 131.124  17.277  1.00  0.00     0.217 C 
BRANCH   8   9
ATOM      9  O   UNL     1      43.850 132.012  16.350  1.00  0.00    -0.493 OA
ATOM     10  H   UNL     1      44.037 131.971  15.357  1.00  0.00     0.295 HD
ENDBRANCH   8   9
BRANCH   8  11
ATOM     11  N   UNL     1      45.203 130.164  16.896  1.00  0.00    -0.244 NA
BRANCH  11  12
ATOM     12  C   UNL     1      46.413 130.316  16.089  1.00  0.00     0.132 C 
ATOM     13  C   UNL     1      46.481 131.705  15.565  1.00  0.00    -0.005 C 
ATOM     14  C   UNL     1      46.365 129.439  14.823  1.00  0.00     0.036 C 
ATOM     15  C   UNL     1      46.452 131.751  14.245  1.00  0.00    -0.029 C 
ATOM     16  C   UNL     1      46.356 130.402  13.632  1.00  0.00     0.029 C 
ENDBRANCH  11  12
ENDBRANCH   8  11
ENDBRANCH   1   8
BRANCH   5  17
ATOM     17  O   UNL     1      45.233 130.040  22.052  1.00  0.00    -0.422 OA
BRANCH  17  18
ATOM     18  C   UNL     1      45.124 128.661  22.280  1.00  0.00     0.316 C 
ATOM     19  O   UNL     1      45.634 127.842  21.464  1.00  0.00    -0.251 OA
BRANCH  18  20
ATOM     20  C   UNL     1      44.428 128.156  23.528  1.00  0.00     0.060 C 
ATOM     21  C   UNL     1      44.540 129.232  24.622  1.00  0.00     0.023 C 
ATOM     22  C   UNL     1      42.940 127.879  23.231  1.00  0.00     0.023 C 
ATOM     23  C   UNL     1      45.087 126.850  24.019  1.00  0.00     0.023 C 
ENDBRANCH  18  20
ENDBRANCH  17  18
ENDBRANCH   5  17
BRANCH   4  24
ATOM     24  C   UNL     1      43.152 131.833  22.912  1.00  0.00     0.163 C 
ATOM     25  O   UNL     1      41.990 131.589  23.339  1.00  0.00    -0.294 OA
ATOM     26  C   UNL     1      44.186 132.291  23.898  1.00  0.00     0.093 C 
ENDBRANCH   4  24
TORSDOF 8
ENDMDL
MODEL 5
REMARK VINA RESULT:      -5.3      1.161      1.472
REMARK SMILES CC(=O)c1ccc(/C(O)=N/[C@@H]2C=CCC2)c(F)c1OC(=O)C(C)(C)C
REMARK SMILES IDX 7 1 6 2 5 3 4 4 18 5 16 6 17 7 8 8 9 9 10 11 11 12 12 13
REMARK SMILES IDX 15 14 13 15 14 16 19 17 20 18 21 19 22 20 23 21 24 22 25 23
REMARK SMILES IDX 2 24 3 25 1 26
REMARK H PARENT 9 10
ROOT
ATOM      1  C   UNL     1      43.633 131.652  18.103  1.00  0.00     0.076 A 
ATOM      2  C   UNL     1      42.415 132.325  18.297  1.00  0.00     0.018 A 
ATOM      3  C   UNL     1      41.934 132.581  19.579  1.00  0.00     0.017 A 
ATOM      4  C   UNL     1      42.647 132.160  20.716  1.00  0.00     0.063 A 
ATOM      5  C   UNL     1      43.858 131.454  20.535  1.00  0.00     0.178 A 
ATOM      6  C   UNL     1      44.356 131.228  19.236  1.00  0.00     0.179 A 
ATOM      7  F   UNL     1      45.574 130.645  19.090  1.00  0.00    -0.202 F 
ENDROOT
BRANCH   1   8
ATOM      8  C   UNL     1      44.139 131.403  16.726  1.00  0.00     0.217 C 
BRANCH   8   9
ATOM      9  O   UNL     1      43.608 132.133  15.656  1.00  0.00    -0.493 OA
ATOM     10  H   UNL     1      43.754 131.887  14.686  1.00  0.00     0.295 HD
ENDBRANCH   8   9
BRANCH   8  11
ATOM     11  N   UNL     1      45.071 130.513  16.536  1.00  0.00    -0.244 NA
BRANCH  11  12
ATOM     12  C   UNL     1      46.421 130.772  16.039  1.00  0.00     0.132 C 
ATOM     13  C   UNL     1      46.350 131.726  14.902  1.00  0.00    -0.005 C 
ATOM     14  C   UNL     1      47.055 129.507  15.430  1.00  0.00     0.036 C 
ATOM     15  C   UNL     1      46.803 131.206  13.775  1.00  0.00    -0.029 C 
ATOM     16  C   UNL     1      47.262 129.804  13.941  1.00  0.00     0.029 C 
ENDBRANCH  11  12
ENDBRANCH   8  11
ENDBRANCH   1   8
BRANCH   5  17
ATOM     17  O   UNL     1      44.574 131.009  21.656  1.00  0.00    -0.422 OA
BRANCH  17  18
ATOM     18  C   UNL     1      44.865 129.666  21.931  1.00  0.00     0.316 C 
ATOM     19  O   UNL     1      45.688 129.035  21.208  1.00  0.00    -0.251 OA
BRANCH  18  20
ATOM     20  C   UNL     1      44.221 128.983  23.121  1.00  0.00     0.060 C 
ATOM     21  C   UNL     1      44.596 129.760  24.395  1.00  0.00     0.023 C 
ATOM     22  C   UNL     1      42.687 128.973  22.961  1.00  0.00     0.023 C 
ATOM     23  C   UNL     1      44.717 127.527  23.239  1.00  0.00     0.023 C 
ENDBRANCH  18  20
ENDBRANCH  17  18
ENDBRANCH   5  17
BRANCH   4  24
ATOM     24  C   UNL     1      42.119 132.451  22.079  1.00  0.00     0.163 C 
ATOM     25  O   UNL     1      40.978 132.968  22.221  1.00  0.00    -0.294 OA
ATOM     26  C   UNL     1      42.897 132.106  23.315  1.00  0.00     0.093 C 
ENDBRANCH   4  24
TORSDOF 8
ENDMDL
MODEL 6
REMARK VINA RESULT:      -5.3      1.723      2.633
REMARK SMILES CC(=O)c1ccc(/C(O)=N/[C@@H]2C=CCC2)c(F)c1OC(=O)C(C)(C)C
REMARK SMILES IDX 7 1 6 2 5 3 4 4 18 5 16 6 17 7 8 8 9 9 10 11 11 12 12 13
REMARK SMILES IDX 15 14 13 15 14 16 19 17 20 18 21 19 22 20 23 21 24 22 25 23
REMARK SMILES IDX 2 24 3 25 1 26
REMARK H PARENT 9 10
ROOT
ATOM      1  C   UNL     1      45.097 130.615  17.581  1.00  0.00     0.076 A 
ATOM      2  C   UNL     1      43.949 131.223  17.045  1.00  0.00     0.018 A 
ATOM      3  C   UNL     1      43.076 131.944  17.857  1.00  0.00     0.017 A 
ATOM      4  C   UNL     1      43.311 132.071  19.238  1.00  0.00     0.063 A 
ATOM      5  C   UNL     1      44.446 131.439  19.795  1.00  0.00     0.178 A 
ATOM      6  C   UNL     1      45.343 130.739  18.963  1.00  0.00     0.179 A 
ATOM      7  F   UNL     1      46.483 130.234  19.503  1.00  0.00    -0.202 F 
ENDROOT
BRANCH   1   8
ATOM      8  C   UNL     1      46.028 129.864  16.696  1.00  0.00     0.217 C 
BRANCH   8   9
ATOM      9  O   UNL     1      47.388 129.800  17.023  1.00  0.00    -0.493 OA
ATOM     10  H   UNL     1      47.962 130.618  17.179  1.00  0.00     0.295 HD
ENDBRANCH   8   9
BRANCH   8  11
ATOM     11  N   UNL     1      45.564 129.273  15.631  1.00  0.00    -0.244 NA
BRANCH  11  12
ATOM     12  C   UNL     1      45.931 129.577  14.248  1.00  0.00     0.132 C 
ATOM     13  C   UNL     1      47.339 129.166  14.014  1.00  0.00    -0.005 C 
ATOM     14  C   UNL     1      45.933 131.094  13.983  1.00  0.00     0.036 C 
ATOM     15  C   UNL     1      48.118 130.184  13.694  1.00  0.00    -0.029 C 
ATOM     16  C   UNL     1      47.381 131.473  13.657  1.00  0.00     0.029 C 
ENDBRANCH  11  12
ENDBRANCH   8  11
ENDBRANCH   1   8
BRANCH   5  17
ATOM     17  O   UNL     1      44.688 131.539  21.173  1.00  0.00    -0.422 OA
BRANCH  17  18
ATOM     18  C   UNL     1      44.550 130.482  22.083  1.00  0.00     0.316 C 
ATOM     19  O   UNL     1      45.066 129.357  21.829  1.00  0.00    -0.251 OA
BRANCH  18  20
ATOM     20  C   UNL     1      43.815 130.703  23.390  1.00  0.00     0.060 C 
ATOM     21  C   UNL     1      44.622 130.049  24.524  1.00  0.00     0.023 C 
ATOM     22  C   UNL     1      43.671 132.214  23.669  1.00  0.00     0.023 C 
ATOM     23  C   UNL     1      42.408 130.074  23.328  1.00  0.00     0.023 C 
ENDBRANCH  18  20
ENDBRANCH  17  18
ENDBRANCH   5  17
BRANCH   4  24
ATOM     24  C   UNL     1      42.369 132.854  20.087  1.00  0.00     0.163 C 
ATOM     25  O   UNL     1      42.370 134.114  20.040  1.00  0.00    -0.294 OA
ATOM     26  C   UNL     1      41.372 132.181  20.985  1.00  0.00     0.093 C 
ENDBRANCH   4  24
TORSDOF 8
ENDMDL
MODEL 7
REMARK VINA RESULT:      -4.8      1.857      3.044
REMARK SMILES CC(=O)c1ccc(/C(O)=N/[C@@H]2C=CCC2)c(F)c1OC(=O)C(C)(C)C
REMARK SMILES IDX 7 1 6 2 5 3 4 4 18 5 16 6 17 7 8 8 9 9 10 11 11 12 12 13
REMARK SMILES IDX 15 14 13 15 14 16 19 17 20 18 21 19 22 20 23 21 24 22 25 23
REMARK SMILES IDX 2 24 3 25 1 26
REMARK H PARENT 9 10
ROOT
ATOM      1  C   UNL     1      45.004 130.862  17.558  1.00  0.00     0.076 A 
ATOM      2  C   UNL     1      43.858 131.320  16.887  1.00  0.00     0.018 A 
ATOM      3  C   UNL     1      42.816 131.930  17.583  1.00  0.00     0.017 A 
ATOM      4  C   UNL     1      42.877 132.092  18.978  1.00  0.00     0.063 A 
ATOM      5  C   UNL     1      44.011 131.609  19.670  1.00  0.00     0.178 A 
ATOM      6  C   UNL     1      45.075 131.022  18.956  1.00  0.00     0.179 A 
ATOM      7  F   UNL     1      46.200 130.664  19.628  1.00  0.00    -0.202 F 
ENDROOT
BRANCH   1   8
ATOM      8  C   UNL     1      46.114 130.228  16.795  1.00  0.00     0.217 C 
BRANCH   8   9
ATOM      9  O   UNL     1      46.684 129.042  17.271  1.00  0.00    -0.493 OA
ATOM     10  H   UNL     1      47.677 128.923  17.426  1.00  0.00     0.295 HD
ENDBRANCH   8   9
BRANCH   8  11
ATOM     11  N   UNL     1      46.536 130.784  15.695  1.00  0.00    -0.244 NA
BRANCH  11  12
ATOM     12  C   UNL     1      46.515 130.182  14.363  1.00  0.00     0.132 C 
ATOM     13  C   UNL     1      47.701 129.299  14.206  1.00  0.00    -0.005 C 
ATOM     14  C   UNL     1      46.687 131.241  13.258  1.00  0.00     0.036 C 
ATOM     15  C   UNL     1      48.504 129.697  13.235  1.00  0.00    -0.029 C 
ATOM     16  C   UNL     1      48.012 130.923  12.558  1.00  0.00     0.029 C 
ENDBRANCH  11  12
ENDBRANCH   8  11
ENDBRANCH   1   8
BRANCH   5  17
ATOM     17  O   UNL     1      44.081 131.744  21.065  1.00  0.00    -0.422 OA
BRANCH  17  18
ATOM     18  C   UNL     1      43.394 130.931  21.977  1.00  0.00     0.316 C 
ATOM     19  O   UNL     1      42.506 130.132  21.569  1.00  0.00    -0.251 OA
BRANCH  18  20
ATOM     20  C   UNL     1      43.749 130.986  23.450  1.00  0.00     0.060 C 
ATOM     21  C   UNL     1      44.448 129.672  23.836  1.00  0.00     0.023 C 
ATOM     22  C   UNL     1      44.698 132.171  23.724  1.00  0.00     0.023 C 
ATOM     23  C   UNL     1      42.476 131.163  24.303  1.00  0.00     0.023 C 
ENDBRANCH  18  20
ENDBRANCH  17  18
ENDBRANCH   5  17
BRANCH   4  24
ATOM     24  C   UNL     1      41.756 132.756  19.703  1.00  0.00     0.163 C 
ATOM     25  O   UNL     1      40.594 132.268  19.658  1.00  0.00    -0.294 OA
ATOM     26  C   UNL     1      41.974 133.987  20.533  1.00  0.00     0.093 C 
ENDBRANCH   4  24
TORSDOF 8
ENDMDL
MODEL 8
REMARK VINA RESULT:      -4.7      0.970      1.374
REMARK SMILES CC(=O)c1ccc(/C(O)=N/[C@@H]2C=CCC2)c(F)c1OC(=O)C(C)(C)C
REMARK SMILES IDX 7 1 6 2 5 3 4 4 18 5 16 6 17 7 8 8 9 9 10 11 11 12 12 13
REMARK SMILES IDX 15 14 13 15 14 16 19 17 20 18 21 19 22 20 23 21 24 22 25 23
REMARK SMILES IDX 2 24 3 25 1 26
REMARK H PARENT 9 10
ROOT
ATOM      1  C   UNL     1      43.979 131.644  19.177  1.00  0.00     0.076 A 
ATOM      2  C   UNL     1      42.767 132.219  19.595  1.00  0.00     0.018 A 
ATOM      3  C   UNL     1      42.398 132.214  20.938  1.00  0.00     0.017 A 
ATOM      4  C   UNL     1      43.221 131.620  21.912  1.00  0.00     0.063 A 
ATOM      5  C   UNL     1      44.428 131.011  21.501  1.00  0.00     0.178 A 
ATOM      6  C   UNL     1      44.812 131.048  20.145  1.00  0.00     0.179 A 
ATOM      7  F   UNL     1      46.026 130.554  19.791  1.00  0.00    -0.202 F 
ENDROOT
BRANCH   1   8
ATOM      8  C   UNL     1      44.365 131.674  17.740  1.00  0.00     0.217 C 
BRANCH   8   9
ATOM      9  O   UNL     1      45.305 132.613  17.300  1.00  0.00    -0.493 OA
ATOM     10  H   UNL     1      46.211 132.363  16.927  1.00  0.00     0.295 HD
ENDBRANCH   8   9
BRANCH   8  11
ATOM     11  N   UNL     1      43.825 130.824  16.913  1.00  0.00    -0.244 NA
BRANCH  11  12
ATOM     12  C   UNL     1      44.458 130.263  15.720  1.00  0.00     0.132 C 
ATOM     13  C   UNL     1      45.721 129.583  16.110  1.00  0.00    -0.005 C 
ATOM     14  C   UNL     1      44.911 131.366  14.745  1.00  0.00     0.036 C 
ATOM     15  C   UNL     1      46.785 130.129  15.548  1.00  0.00    -0.029 C 
ATOM     16  C   UNL     1      46.439 131.281  14.677  1.00  0.00     0.029 C 
ENDBRANCH  11  12
ENDBRANCH   8  11
ENDBRANCH   1   8
BRANCH   5  17
ATOM     17  O   UNL     1      45.253 130.397  22.455  1.00  0.00    -0.422 OA
BRANCH  17  18
ATOM     18  C   UNL     1      44.817 129.448  23.389  1.00  0.00     0.316 C 
ATOM     19  O   UNL     1      44.448 129.815  24.540  1.00  0.00    -0.251 OA
BRANCH  18  20
ATOM     20  C   UNL     1      44.752 127.984  23.002  1.00  0.00     0.060 C 
ATOM     21  C   UNL     1      43.278 127.543  22.994  1.00  0.00     0.023 C 
ATOM     22  C   UNL     1      45.356 127.779  21.597  1.00  0.00     0.023 C 
ATOM     23  C   UNL     1      45.541 127.125  24.011  1.00  0.00     0.023 C 
ENDBRANCH  18  20
ENDBRANCH  17  18
ENDBRANCH   5  17
BRANCH   4  24
ATOM     24  C   UNL     1      42.811 131.633  23.345  1.00  0.00     0.163 C 
ATOM     25  O   UNL     1      43.337 132.452  24.147  1.00  0.00    -0.294 OA
ATOM     26  C   UNL     1      41.746 130.715  23.868  1.00  0.00     0.093 C 
ENDBRANCH   4  24
TORSDOF 8
ENDMDL
MODEL 9
REMARK VINA RESULT:      -4.7      1.029      1.542
REMARK SMILES CC(=O)c1ccc(/C(O)=N/[C@@H]2C=CCC2)c(F)c1OC(=O)C(C)(C)C
REMARK SMILES IDX 7 1 6 2 5 3 4 4 18 5 16 6 17 7 8 8 9 9 10 11 11 12 12 13
REMARK SMILES IDX 15 14 13 15 14 16 19 17 20 18 21 19 22 20 23 21 24 22 25 23
REMARK SMILES IDX 2 24 3 25 1 26
REMARK H PARENT 9 10
ROOT
ATOM      1  C   UNL     1      43.631 131.598  19.401  1.00  0.00     0.076 A 
ATOM      2  C   UNL     1      42.483 132.187  19.956  1.00  0.00     0.018 A 
ATOM      3  C   UNL     1      42.278 132.196  21.335  1.00  0.00     0.017 A 
ATOM      4  C   UNL     1      43.208 131.603  22.207  1.00  0.00     0.063 A 
ATOM      5  C   UNL     1      44.352 130.979  21.659  1.00  0.00     0.178 A 
ATOM      6  C   UNL     1      44.570 131.002  20.267  1.00  0.00     0.179 A 
ATOM      7  F   UNL     1      45.728 130.494  19.774  1.00  0.00    -0.202 F 
ENDROOT
BRANCH   1   8
ATOM      8  C   UNL     1      43.841 131.613  17.928  1.00  0.00     0.217 C 
BRANCH   8   9
ATOM      9  O   UNL     1      42.943 132.311  17.112  1.00  0.00    -0.493 OA
ATOM     10  H   UNL     1      43.131 133.230  16.734  1.00  0.00     0.295 HD
ENDBRANCH   8   9
BRANCH   8  11
ATOM     11  N   UNL     1      44.860 130.979  17.418  1.00  0.00    -0.244 NA
BRANCH  11  12
ATOM     12  C   UNL     1      44.940 130.424  16.068  1.00  0.00     0.132 C 
ATOM     13  C   UNL     1      46.269 129.785  15.879  1.00  0.00    -0.005 C 
ATOM     14  C   UNL     1      44.899 131.529  14.996  1.00  0.00     0.036 C 
ATOM     15  C   UNL     1      46.974 130.355  14.918  1.00  0.00    -0.029 C 
ATOM     16  C   UNL     1      46.253 131.487  14.282  1.00  0.00     0.029 C 
ENDBRANCH  11  12
ENDBRANCH   8  11
ENDBRANCH   1   8
BRANCH   5  17
ATOM     17  O   UNL     1      45.281 130.365  22.513  1.00  0.00    -0.422 OA
BRANCH  17  18
ATOM     18  C   UNL     1      44.978 129.322  23.398  1.00  0.00     0.316 C 
ATOM     19  O   UNL     1      44.723 129.574  24.610  1.00  0.00    -0.251 OA
BRANCH  18  20
ATOM     20  C   UNL     1      44.917 127.895  22.889  1.00  0.00     0.060 C 
ATOM     21  C   UNL     1      45.775 127.791  21.617  1.00  0.00     0.023 C 
ATOM     22  C   UNL     1      45.465 126.927  23.958  1.00  0.00     0.023 C 
ATOM     23  C   UNL     1      43.461 127.502  22.564  1.00  0.00     0.023 C 
ENDBRANCH  18  20
ENDBRANCH  17  18
ENDBRANCH   5  17
BRANCH   4  24
ATOM     24  C   UNL     1      42.974 131.631  23.679  1.00  0.00     0.163 C 
ATOM     25  O   UNL     1      42.273 130.738  24.228  1.00  0.00    -0.294 OA
ATOM     26  C   UNL     1      43.589 132.684  24.554  1.00  0.00     0.093 C 
ENDBRANCH   4  24
TORSDOF 8
ENDMDL


