REMARK SMILES [H]/N=c1\c([NH2+]c2ccc3c(c2)[nH+]nn3C)cccn1C(=O)OCc1ccccc1
REMARK SMILES IDX 3 1 4 2 16 3 17 4 18 5 19 6 2 7 1 8 5 9 6 12 7 13 11 14 8 15
REMARK SMILES IDX 10 16 9 17 12 18 14 19 13 20 15 22 20 23 21 24 22 25 23 26
REMARK SMILES IDX 24 27 25 28 29 29 26 30 28 31 27 32
REMARK H PARENT 5 10 5 11 12 21
ROOT
ATOM      1  C   UNL     1      -1.539  -0.265   1.061  1.00  0.00     0.197 A 
ATOM      2  C   UNL     1      -0.732  -0.880   2.063  1.00  0.00     0.178 A 
ATOM      3  C   UNL     1      -0.692  -0.297   3.338  1.00  0.00     0.074 A 
ATOM      4  C   UNL     1      -1.423   0.848   3.614  1.00  0.00     0.025 A 
ATOM      5  C   UNL     1      -2.191   1.429   2.612  1.00  0.00     0.100 A 
ATOM      6  N   UNL     1      -2.238   0.889   1.355  1.00  0.00    -0.232 N 
ENDROOT
BRANCH   1   7
ATOM      7  N   UNL     1      -1.649  -0.794  -0.123  1.00  0.00    -0.279 NA
ATOM      8  H   UNL     1      -1.181  -1.667  -0.443  1.00  0.00     0.190 HD
ENDBRANCH   1   7
BRANCH   2   9
ATOM      9  N   UNL     1       0.068  -2.061   1.805  1.00  0.00    -0.278 N 
ATOM     10  H   UNL     1      -0.511  -2.785   1.321  1.00  0.00     0.358 HD
ATOM     11  H   UNL     1       0.375  -2.501   2.704  1.00  0.00     0.358 HD
BRANCH   9  12
ATOM     12  C   UNL     1       1.253  -1.726   1.050  1.00  0.00     0.139 A 
ATOM     13  C   UNL     1       1.495  -2.333  -0.218  1.00  0.00     0.073 A 
ATOM     14  C   UNL     1       2.215  -0.833   1.589  1.00  0.00     0.126 A 
ATOM     15  C   UNL     1       2.654  -2.027  -0.958  1.00  0.00     0.065 A 
ATOM     16  C   UNL     1       3.344  -0.561   0.824  1.00  0.00     0.201 A 
ATOM     17  C   UNL     1       3.552  -1.127  -0.394  1.00  0.00     0.198 A 
ATOM     18  N   UNL     1       4.387   0.241   1.096  1.00  0.00    -0.143 N 
ATOM     19  N   UNL     1       4.726  -0.664  -0.859  1.00  0.00    -0.133 N 
ATOM     20  N   UNL     1       5.217   0.164   0.059  1.00  0.00     0.088 NA
ATOM     21  H   UNL     1       4.541   0.822   1.950  1.00  0.00     0.342 HD
ATOM     22  C   UNL     1       5.376  -0.990  -2.121  1.00  0.00     0.327 C 
ENDBRANCH   9  12
ENDBRANCH   2   9
BRANCH   6  23
ATOM     23  C   UNL     1      -3.030   1.568   0.353  1.00  0.00     0.420 C 
ATOM     24  O   UNL     1      -4.039   2.245   0.695  1.00  0.00    -0.223 OA
BRANCH  23  25
ATOM     25  O   UNL     1      -2.667   1.497  -0.997  1.00  0.00    -0.444 OA
BRANCH  25  26
ATOM     26  C   UNL     1      -3.409   2.131  -2.033  1.00  0.00     0.270 C 
BRANCH  26  27
ATOM     27  C   UNL     1      -2.757   1.838  -3.352  1.00  0.00    -0.011 A 
ATOM     28  C   UNL     1      -3.041   0.640  -4.028  1.00  0.00     0.007 A 
ATOM     29  C   UNL     1      -1.803   2.720  -3.885  1.00  0.00     0.007 A 
ATOM     30  C   UNL     1      -2.401   0.344  -5.235  1.00  0.00     0.000 A 
ATOM     31  C   UNL     1      -1.166   2.421  -5.093  1.00  0.00     0.000 A 
ATOM     32  C   UNL     1      -1.466   1.236  -5.769  1.00  0.00     0.000 A 
ENDBRANCH  26  27
ENDBRANCH  25  26
ENDBRANCH  23  25
ENDBRANCH   6  23
TORSDOF 7


