REMARK SMILES C=C[C@@H](C)/N=C(\S)Oc1c(N)cccc1[NH2+]c1ccc(C)c(F)c1
REMARK SMILES IDX 6 1 7 2 5 4 3 5 4 6 2 7 1 8 8 9 9 10 10 11 15 12 12 13 14 14
REMARK SMILES IDX 13 15 11 16 16 19 17 22 18 23 24 24 19 25 22 26 20 27 23 28
REMARK SMILES IDX 21 29
REMARK H PARENT 7 3 11 17 11 18 16 20 16 21
ROOT
ATOM      1  C   UNL     1      -1.196   0.675  -1.296  1.00  0.00     0.249 C 
ENDROOT
BRANCH   1   2
ATOM      2  S   UNL     1      -1.899  -0.168  -2.719  1.00  0.00    -0.085 SA
ATOM      3  H   UNL     1      -2.354   1.044  -3.270  1.00  0.00     0.113 HD
ENDBRANCH   1   2
BRANCH   1   4
ATOM      4  N   UNL     1       0.028   1.126  -1.295  1.00  0.00    -0.238 NA
BRANCH   4   5
ATOM      5  C   UNL     1       0.989   1.015  -2.394  1.00  0.00     0.129 C 
ATOM      6  C   UNL     1       1.599  -0.392  -2.422  1.00  0.00     0.038 C 
BRANCH   5   7
ATOM      7  C   UNL     1       2.068   2.050  -2.205  1.00  0.00    -0.008 C 
ATOM      8  C   UNL     1       1.790   3.357  -2.255  1.00  0.00     0.006 C 
ENDBRANCH   5   7
ENDBRANCH   4   5
ENDBRANCH   1   4
BRANCH   1   9
ATOM      9  O   UNL     1      -2.004   0.833  -0.164  1.00  0.00    -0.425 OA
BRANCH   9  10
ATOM     10  C   UNL     1      -1.643   1.627   0.933  1.00  0.00     0.213 A 
ATOM     11  C   UNL     1      -1.436   3.017   0.783  1.00  0.00     0.081 A 
ATOM     12  C   UNL     1      -1.486   1.026   2.201  1.00  0.00     0.180 A 
ATOM     13  C   UNL     1      -1.010   3.776   1.880  1.00  0.00     0.030 A 
ATOM     14  C   UNL     1      -1.069   1.814   3.288  1.00  0.00     0.072 A 
ATOM     15  C   UNL     1      -0.823   3.176   3.123  1.00  0.00     0.009 A 
BRANCH  11  16
ATOM     16  N   UNL     1      -1.687   3.673  -0.466  1.00  0.00    -0.396 N 
ATOM     17  H   UNL     1      -1.466   4.685  -0.588  1.00  0.00     0.156 HD
ATOM     18  H   UNL     1      -2.148   3.180  -1.262  1.00  0.00     0.156 HD
ENDBRANCH  11  16
BRANCH  12  19
ATOM     19  N   UNL     1      -1.691  -0.393   2.380  1.00  0.00    -0.278 N 
ATOM     20  H   UNL     1      -1.914  -0.605   3.381  1.00  0.00     0.358 HD
ATOM     21  H   UNL     1      -2.520  -0.706   1.820  1.00  0.00     0.358 HD
BRANCH  19  22
ATOM     22  C   UNL     1      -0.502  -1.120   1.998  1.00  0.00     0.137 A 
ATOM     23  C   UNL     1       0.637  -1.097   2.818  1.00  0.00     0.068 A 
ATOM     24  C   UNL     1      -0.461  -1.852   0.793  1.00  0.00     0.107 A 
ATOM     25  C   UNL     1       1.796  -1.777   2.442  1.00  0.00     0.012 A 
ATOM     26  C   UNL     1       0.700  -2.534   0.418  1.00  0.00     0.132 A 
ATOM     27  C   UNL     1       1.833  -2.511   1.245  1.00  0.00    -0.015 A 
ATOM     28  F   UNL     1       0.714  -3.223  -0.751  1.00  0.00    -0.206 F 
ATOM     29  C   UNL     1       3.098  -3.207   0.830  1.00  0.00     0.047 C 
ENDBRANCH  19  22
ENDBRANCH  12  19
ENDBRANCH   9  10
ENDBRANCH   1   9
TORSDOF 9


