MODEL 1
REMARK VINA RESULT:      -3.8      0.000      0.000
REMARK SMILES CC(=O)c1ccc(-c2ccc(OC(=O)C(=O)[C@@H](F)[C@@H](O)C(C)C)cc2)c2c[nH][nH+]c12
REMARK SMILES IDX 13 1 14 2 12 3 11 4 8 5 9 6 25 7 10 8 24 9 7 10 4 11 5 12
REMARK SMILES IDX 30 13 6 14 29 15 26 16 28 17 27 18 2 21 1 22 3 23 15 24
REMARK SMILES IDX 16 25 17 26 18 27 19 28 20 29 21 31 22 32 23 33
REMARK H PARENT 29 19 28 20 20 30
ROOT
ATOM      1  C   UNL     1      43.574 130.006  23.612  1.00  0.00     0.383 C 
ATOM      2  O   UNL     1      44.299 130.214  24.624  1.00  0.00    -0.242 OA
ENDROOT
BRANCH   1   3
ATOM      3  O   UNL     1      43.342 131.023  22.677  1.00  0.00    -0.421 OA
BRANCH   3   4
ATOM      4  C   UNL     1      43.792 131.024  21.349  1.00  0.00     0.131 A 
ATOM      5  C   UNL     1      44.792 131.001  18.713  1.00  0.00    -0.017 A 
ATOM      6  C   UNL     1      45.450 130.293  19.731  1.00  0.00     0.012 A 
ATOM      7  C   UNL     1      43.629 131.722  19.024  1.00  0.00     0.012 A 
ATOM      8  C   UNL     1      44.958 130.314  21.038  1.00  0.00     0.048 A 
ATOM      9  C   UNL     1      43.136 131.743  20.332  1.00  0.00     0.048 A 
BRANCH   5  10
ATOM     10  C   UNL     1      45.305 130.974  17.322  1.00  0.00    -0.003 A 
ATOM     11  C   UNL     1      46.310 130.924  14.636  1.00  0.00     0.092 A 
ATOM     12  C   UNL     1      47.058 130.383  15.708  1.00  0.00     0.019 A 
ATOM     13  C   UNL     1      45.054 131.471  14.955  1.00  0.00     0.247 A 
ATOM     14  C   UNL     1      46.563 130.407  17.029  1.00  0.00     0.010 A 
ATOM     15  N   UNL     1      44.114 131.971  14.129  1.00  0.00    -0.125 N 
ATOM     16  C   UNL     1      44.577 131.493  16.244  1.00  0.00     0.078 A 
ATOM     17  N   UNL     1      43.063 132.311  14.863  1.00  0.00    -0.174 N 
ATOM     18  C   UNL     1      43.306 132.030  16.161  1.00  0.00     0.163 A 
ATOM     19  H   UNL     1      44.151 132.056  13.090  1.00  0.00     0.488 HD
ATOM     20  H   UNL     1      42.179 132.710  14.477  1.00  0.00     0.238 HD
BRANCH  11  21
ATOM     21  C   UNL     1      46.849 130.916  13.251  1.00  0.00     0.166 C 
ATOM     22  C   UNL     1      48.264 131.314  12.964  1.00  0.00     0.094 C 
ATOM     23  O   UNL     1      46.097 130.626  12.283  1.00  0.00    -0.294 OA
ENDBRANCH  11  21
ENDBRANCH   5  10
ENDBRANCH   3   4
ENDBRANCH   1   3
BRANCH   1  24
ATOM     24  C   UNL     1      42.914 128.701  23.426  1.00  0.00     0.277 C 
ATOM     25  O   UNL     1      41.677 128.676  23.187  1.00  0.00    -0.283 OA
BRANCH  24  26
ATOM     26  C   UNL     1      43.663 127.393  23.537  1.00  0.00     0.274 C 
ATOM     27  F   UNL     1      43.147 126.644  24.582  1.00  0.00    -0.235 F 
BRANCH  26  28
ATOM     28  C   UNL     1      43.620 126.559  22.237  1.00  0.00     0.159 C 
BRANCH  28  29
ATOM     29  O   UNL     1      44.915 126.511  21.688  1.00  0.00    -0.389 OA
ATOM     30  H   UNL     1      44.959 125.715  21.096  1.00  0.00     0.211 HD
ENDBRANCH  28  29
BRANCH  28  31
ATOM     31  C   UNL     1      43.074 125.114  22.433  1.00  0.00     0.015 C 
ATOM     32  C   UNL     1      41.715 125.137  23.149  1.00  0.00     0.010 C 
ATOM     33  C   UNL     1      44.050 124.231  23.229  1.00  0.00     0.010 C 
ENDBRANCH  28  31
ENDBRANCH  26  28
ENDBRANCH  24  26
ENDBRANCH   1  24
TORSDOF 9
ENDMDL
MODEL 2
REMARK VINA RESULT:      -2.1      2.023      2.680
REMARK SMILES CC(=O)c1ccc(-c2ccc(OC(=O)C(=O)[C@@H](F)[C@@H](O)C(C)C)cc2)c2c[nH][nH+]c12
REMARK SMILES IDX 13 1 14 2 12 3 11 4 8 5 9 6 25 7 10 8 24 9 7 10 4 11 5 12
REMARK SMILES IDX 30 13 6 14 29 15 26 16 28 17 27 18 2 21 1 22 3 23 15 24
REMARK SMILES IDX 16 25 17 26 18 27 19 28 20 29 21 31 22 32 23 33
REMARK H PARENT 29 19 28 20 20 30
ROOT
ATOM      1  C   UNL     1      42.339 131.975  22.540  1.00  0.00     0.383 C 
ATOM      2  O   UNL     1      42.179 133.046  23.188  1.00  0.00    -0.242 OA
ENDROOT
BRANCH   1   3
ATOM      3  O   UNL     1      41.919 131.876  21.207  1.00  0.00    -0.421 OA
BRANCH   3   4
ATOM      4  C   UNL     1      42.766 131.738  20.096  1.00  0.00     0.131 A 
ATOM      5  C   UNL     1      44.395 131.400  17.820  1.00  0.00    -0.017 A 
ATOM      6  C   UNL     1      43.006 131.206  17.739  1.00  0.00     0.012 A 
ATOM      7  C   UNL     1      44.963 131.764  19.052  1.00  0.00     0.012 A 
ATOM      8  C   UNL     1      42.203 131.366  18.871  1.00  0.00     0.048 A 
ATOM      9  C   UNL     1      44.158 131.923  20.184  1.00  0.00     0.048 A 
BRANCH   5  10
ATOM     10  C   UNL     1      45.251 131.242  16.621  1.00  0.00    -0.003 A 
ATOM     11  C   UNL     1      46.903 130.949  14.294  1.00  0.00     0.092 A 
ATOM     12  C   UNL     1      46.697 132.215  14.891  1.00  0.00     0.019 A 
ATOM     13  C   UNL     1      46.270 129.852  14.906  1.00  0.00     0.247 A 
ATOM     14  C   UNL     1      45.884 132.358  16.036  1.00  0.00     0.010 A 
ATOM     15  N   UNL     1      46.361 128.543  14.598  1.00  0.00    -0.125 N 
ATOM     16  C   UNL     1      45.479 129.998  16.021  1.00  0.00     0.078 A 
ATOM     17  N   UNL     1      45.647 127.863  15.485  1.00  0.00    -0.174 N 
ATOM     18  C   UNL     1      45.094 128.717  16.374  1.00  0.00     0.163 A 
ATOM     19  H   UNL     1      46.916 128.099  13.835  1.00  0.00     0.488 HD
ATOM     20  H   UNL     1      45.555 126.824  15.497  1.00  0.00     0.238 HD
BRANCH  11  21
ATOM     21  C   UNL     1      47.741 130.810  13.075  1.00  0.00     0.166 C 
ATOM     22  C   UNL     1      47.314 131.397  11.765  1.00  0.00     0.094 C 
ATOM     23  O   UNL     1      48.806 130.138  13.115  1.00  0.00    -0.294 OA
ENDBRANCH  11  21
ENDBRANCH   5  10
ENDBRANCH   3   4
ENDBRANCH   1   3
BRANCH   1  24
ATOM     24  C   UNL     1      42.925 130.791  23.194  1.00  0.00     0.277 C 
ATOM     25  O   UNL     1      43.944 130.941  23.919  1.00  0.00    -0.283 OA
BRANCH  24  26
ATOM     26  C   UNL     1      42.362 129.402  23.004  1.00  0.00     0.274 C 
ATOM     27  F   UNL     1      41.441 129.406  21.969  1.00  0.00    -0.235 F 
BRANCH  26  28
ATOM     28  C   UNL     1      43.451 128.342  22.718  1.00  0.00     0.159 C 
BRANCH  28  29
ATOM     29  O   UNL     1      44.710 128.897  23.016  1.00  0.00    -0.389 OA
ATOM     30  H   UNL     1      45.020 129.383  22.208  1.00  0.00     0.211 HD
ENDBRANCH  28  29
BRANCH  28  31
ATOM     31  C   UNL     1      43.259 127.013  23.507  1.00  0.00     0.015 C 
ATOM     32  C   UNL     1      43.339 125.803  22.562  1.00  0.00     0.010 C 
ATOM     33  C   UNL     1      41.920 126.977  24.262  1.00  0.00     0.010 C 
ENDBRANCH  28  31
ENDBRANCH  26  28
ENDBRANCH  24  26
ENDBRANCH   1  24
TORSDOF 9
ENDMDL
MODEL 3
REMARK VINA RESULT:      -1.6      5.606      6.784
REMARK SMILES CC(=O)c1ccc(-c2ccc(OC(=O)C(=O)[C@@H](F)[C@@H](O)C(C)C)cc2)c2c[nH][nH+]c12
REMARK SMILES IDX 13 1 14 2 12 3 11 4 8 5 9 6 25 7 10 8 24 9 7 10 4 11 5 12
REMARK SMILES IDX 30 13 6 14 29 15 26 16 28 17 27 18 2 21 1 22 3 23 15 24
REMARK SMILES IDX 16 25 17 26 18 27 19 28 20 29 21 31 22 32 23 33
REMARK H PARENT 29 19 28 20 20 30
ROOT
ATOM      1  C   UNL     1      43.185 130.384  22.887  1.00  0.00     0.383 C 
ATOM      2  O   UNL     1      42.000 130.710  23.174  1.00  0.00    -0.242 OA
ENDROOT
BRANCH   1   3
ATOM      3  O   UNL     1      43.875 131.034  21.856  1.00  0.00    -0.421 OA
BRANCH   3   4
ATOM      4  C   UNL     1      45.005 131.849  22.021  1.00  0.00     0.131 A 
ATOM      5  C   UNL     1      47.326 133.428  22.285  1.00  0.00    -0.017 A 
ATOM      6  C   UNL     1      47.116 132.656  21.131  1.00  0.00     0.012 A 
ATOM      7  C   UNL     1      46.364 133.403  23.308  1.00  0.00     0.012 A 
ATOM      8  C   UNL     1      45.969 131.867  21.008  1.00  0.00     0.048 A 
ATOM      9  C   UNL     1      45.217 132.614  23.184  1.00  0.00     0.048 A 
BRANCH   5  10
ATOM     10  C   UNL     1      48.535 134.274  22.418  1.00  0.00    -0.003 A 
ATOM     11  C   UNL     1      50.879 135.906  22.688  1.00  0.00     0.092 A 
ATOM     12  C   UNL     1      50.775 134.659  23.348  1.00  0.00     0.019 A 
ATOM     13  C   UNL     1      49.786 136.291  21.890  1.00  0.00     0.247 A 
ATOM     14  C   UNL     1      49.622 133.856  23.214  1.00  0.00     0.010 A 
ATOM     15  N   UNL     1      49.656 137.374  21.098  1.00  0.00    -0.125 N 
ATOM     16  C   UNL     1      48.665 135.505  21.764  1.00  0.00     0.078 A 
ATOM     17  N   UNL     1      48.484 137.293  20.483  1.00  0.00    -0.174 N 
ATOM     18  C   UNL     1      47.850 136.162  20.861  1.00  0.00     0.163 A 
ATOM     19  H   UNL     1      50.345 138.139  20.938  1.00  0.00     0.488 HD
ATOM     20  H   UNL     1      48.131 137.992  19.793  1.00  0.00     0.238 HD
BRANCH  11  21
ATOM     21  C   UNL     1      52.086 136.756  22.852  1.00  0.00     0.166 C 
ATOM     22  C   UNL     1      52.064 138.215  22.510  1.00  0.00     0.094 C 
ATOM     23  O   UNL     1      53.173 136.244  23.231  1.00  0.00    -0.294 OA
ENDBRANCH  11  21
ENDBRANCH   5  10
ENDBRANCH   3   4
ENDBRANCH   1   3
BRANCH   1  24
ATOM     24  C   UNL     1      43.845 129.275  23.600  1.00  0.00     0.277 C 
ATOM     25  O   UNL     1      44.536 129.536  24.620  1.00  0.00    -0.283 OA
BRANCH  24  26
ATOM     26  C   UNL     1      43.743 127.841  23.134  1.00  0.00     0.274 C 
ATOM     27  F   UNL     1      44.953 127.436  22.595  1.00  0.00    -0.235 F 
BRANCH  26  28
ATOM     28  C   UNL     1      43.330 126.867  24.261  1.00  0.00     0.159 C 
BRANCH  28  29
ATOM     29  O   UNL     1      41.931 126.722  24.241  1.00  0.00    -0.389 OA
ATOM     30  H   UNL     1      41.652 126.639  23.292  1.00  0.00     0.211 HD
ENDBRANCH  28  29
BRANCH  28  31
ATOM     31  C   UNL     1      44.008 125.469  24.164  1.00  0.00     0.015 C 
ATOM     32  C   UNL     1      45.534 125.591  24.309  1.00  0.00     0.010 C 
ATOM     33  C   UNL     1      43.682 124.758  22.840  1.00  0.00     0.010 C 
ENDBRANCH  28  31
ENDBRANCH  26  28
ENDBRANCH  24  26
ENDBRANCH   1  24
TORSDOF 9
ENDMDL
MODEL 4
REMARK VINA RESULT:      -1.1      4.925      7.522
REMARK SMILES CC(=O)c1ccc(-c2ccc(OC(=O)C(=O)[C@@H](F)[C@@H](O)C(C)C)cc2)c2c[nH][nH+]c12
REMARK SMILES IDX 13 1 14 2 12 3 11 4 8 5 9 6 25 7 10 8 24 9 7 10 4 11 5 12
REMARK SMILES IDX 30 13 6 14 29 15 26 16 28 17 27 18 2 21 1 22 3 23 15 24
REMARK SMILES IDX 16 25 17 26 18 27 19 28 20 29 21 31 22 32 23 33
REMARK H PARENT 29 19 28 20 20 30
ROOT
ATOM      1  C   UNL     1      48.531 124.405  22.857  1.00  0.00     0.383 C 
ATOM      2  O   UNL     1      48.495 123.987  21.667  1.00  0.00    -0.242 OA
ENDROOT
BRANCH   1   3
ATOM      3  O   UNL     1      47.360 124.812  23.508  1.00  0.00    -0.421 OA
BRANCH   3   4
ATOM      4  C   UNL     1      46.574 125.918  23.152  1.00  0.00     0.131 A 
ATOM      5  C   UNL     1      45.082 128.192  22.409  1.00  0.00    -0.017 A 
ATOM      6  C   UNL     1      46.362 127.974  21.875  1.00  0.00     0.012 A 
ATOM      7  C   UNL     1      44.553 127.263  23.319  1.00  0.00     0.012 A 
ATOM      8  C   UNL     1      47.103 126.851  22.252  1.00  0.00     0.048 A 
ATOM      9  C   UNL     1      45.295 126.140  23.696  1.00  0.00     0.048 A 
BRANCH   5  10
ATOM     10  C   UNL     1      44.288 129.376  22.004  1.00  0.00    -0.003 A 
ATOM     11  C   UNL     1      42.739 131.663  21.229  1.00  0.00     0.092 A 
ATOM     12  C   UNL     1      42.497 130.996  22.453  1.00  0.00     0.019 A 
ATOM     13  C   UNL     1      43.777 131.155  20.427  1.00  0.00     0.247 A 
ATOM     14  C   UNL     1      43.261 129.872  22.835  1.00  0.00     0.010 A 
ATOM     15  N   UNL     1      44.266 131.639  19.268  1.00  0.00    -0.125 N 
ATOM     16  C   UNL     1      44.516 130.058  20.803  1.00  0.00     0.078 A 
ATOM     17  N   UNL     1      45.287 130.876  18.904  1.00  0.00    -0.174 N 
ATOM     18  C   UNL     1      45.474 129.900  19.819  1.00  0.00     0.163 A 
ATOM     19  H   UNL     1      43.953 132.483  18.741  1.00  0.00     0.488 HD
ATOM     20  H   UNL     1      45.865 131.033  18.049  1.00  0.00     0.238 HD
BRANCH  11  21
ATOM     21  C   UNL     1      41.916 132.832  20.823  1.00  0.00     0.166 C 
ATOM     22  C   UNL     1      40.863 133.394  21.729  1.00  0.00     0.094 C 
ATOM     23  O   UNL     1      42.055 133.335  19.677  1.00  0.00    -0.294 OA
ENDBRANCH  11  21
ENDBRANCH   5  10
ENDBRANCH   3   4
ENDBRANCH   1   3
BRANCH   1  24
ATOM     24  C   UNL     1      49.820 124.523  23.564  1.00  0.00     0.277 C 
ATOM     25  O   UNL     1      50.051 123.753  24.534  1.00  0.00    -0.283 OA
BRANCH  24  26
ATOM     26  C   UNL     1      50.859 125.552  23.184  1.00  0.00     0.274 C 
ATOM     27  F   UNL     1      51.014 126.465  24.214  1.00  0.00    -0.235 F 
BRANCH  26  28
ATOM     28  C   UNL     1      52.230 124.927  22.841  1.00  0.00     0.159 C 
BRANCH  28  29
ATOM     29  O   UNL     1      52.983 124.812  24.025  1.00  0.00    -0.389 OA
ATOM     30  H   UNL     1      53.633 125.563  24.039  1.00  0.00     0.211 HD
ENDBRANCH  28  29
BRANCH  28  31
ATOM     31  C   UNL     1      52.133 123.540  22.139  1.00  0.00     0.015 C 
ATOM     32  C   UNL     1      52.628 122.423  23.072  1.00  0.00     0.010 C 
ATOM     33  C   UNL     1      52.937 123.498  20.829  1.00  0.00     0.010 C 
ENDBRANCH  28  31
ENDBRANCH  26  28
ENDBRANCH  24  26
ENDBRANCH   1  24
TORSDOF 9
ENDMDL


