MODEL 1
REMARK VINA RESULT:      -4.1      0.000      0.000
REMARK SMILES N#C[C@H]1C[C@@H]1C(=O)N(c1ccc2cc[nH]c2c1)c1c2o[n-]cc-2cc(-n2nc3ccccc3n2)c1=O
REMARK SMILES IDX 6 1 7 2 5 3 3 4 4 5 2 6 1 7 8 8 9 9 10 10 17 11 11 12 16 13
REMARK SMILES IDX 12 14 15 15 13 16 14 17 18 19 19 20 35 21 20 22 23 23 25 24
REMARK SMILES IDX 21 25 22 26 24 27 36 28 26 29 27 30 34 31 28 32 33 33 29 34
REMARK SMILES IDX 32 35 30 36 31 37
REMARK H PARENT 15 18
ROOT
ATOM      1  C   UNL     1      43.890 129.906  22.478  1.00  0.00     0.236 C 
ATOM      2  O   UNL     1      42.645 129.771  22.622  1.00  0.00    -0.274 OA
ENDROOT
BRANCH   1   3
ATOM      3  C   UNL     1      44.802 128.841  23.016  1.00  0.00     0.098 C 
ATOM      4  C   UNL     1      44.124 127.848  23.952  1.00  0.00     0.106 C 
ATOM      5  C   UNL     1      45.049 128.914  24.519  1.00  0.00     0.034 C 
BRANCH   4   6
ATOM      6  C   UNL     1      44.706 126.503  23.909  1.00  0.00     0.066 C 
ATOM      7  N   UNL     1      45.168 125.442  23.875  1.00  0.00    -0.198 NA
ENDBRANCH   4   6
ENDBRANCH   1   3
BRANCH   1   8
ATOM      8  N   UNL     1      44.420 131.091  21.845  1.00  0.00    -0.273 N 
BRANCH   8   9
ATOM      9  C   UNL     1      45.337 131.951  22.552  1.00  0.00     0.051 A 
ATOM     10  C   UNL     1      45.104 132.276  23.916  1.00  0.00     0.027 A 
ATOM     11  C   UNL     1      46.491 132.453  21.905  1.00  0.00     0.053 A 
ATOM     12  C   UNL     1      45.999 133.097  24.624  1.00  0.00     0.012 A 
ATOM     13  C   UNL     1      47.357 133.263  22.637  1.00  0.00     0.047 A 
ATOM     14  C   UNL     1      47.119 133.573  23.948  1.00  0.00    -0.000 A 
ATOM     15  N   UNL     1      48.498 133.831  22.213  1.00  0.00    -0.361 N 
ATOM     16  C   UNL     1      48.154 134.374  24.377  1.00  0.00     0.028 A 
ATOM     17  C   UNL     1      48.988 134.511  23.273  1.00  0.00     0.083 A 
ATOM     18  H   UNL     1      48.922 133.762  21.261  1.00  0.00     0.166 HD
ENDBRANCH   8   9
BRANCH   8  19
ATOM     19  C   UNL     1      44.046 131.416  20.492  1.00  0.00     0.141 A 
ATOM     20  C   UNL     1      42.850 132.068  20.218  1.00  0.00     0.141 A 
ATOM     21  C   UNL     1      44.875 131.085  19.389  1.00  0.00     0.233 A 
ATOM     22  O   UNL     1      41.905 132.471  21.028  1.00  0.00    -0.555 OA
ATOM     23  C   UNL     1      42.471 132.397  18.891  1.00  0.00     0.000 A 
ATOM     24  C   UNL     1      44.493 131.414  18.044  1.00  0.00     0.136 A 
ATOM     25  N   UNL     1      40.939 133.041  20.353  1.00  0.00    -0.513 NA
ATOM     26  C   UNL     1      41.252 133.014  19.033  1.00  0.00    -0.098 A 
ATOM     27  C   UNL     1      43.265 132.082  17.803  1.00  0.00     0.044 A 
ATOM     28  O   UNL     1      45.971 130.501  19.610  1.00  0.00    -0.285 OA
BRANCH  24  29
ATOM     29  N   UNL     1      45.339 131.080  16.921  1.00  0.00    -0.146 N 
ATOM     30  N   UNL     1      45.638 131.921  15.931  1.00  0.00    -0.148 NA
ATOM     31  N   UNL     1      45.904 129.882  16.761  1.00  0.00    -0.148 NA
ATOM     32  C   UNL     1      46.431 131.221  15.107  1.00  0.00     0.113 A 
ATOM     33  C   UNL     1      46.593 129.971  15.616  1.00  0.00     0.113 A 
ATOM     34  C   UNL     1      47.031 131.623  13.918  1.00  0.00     0.032 A 
ATOM     35  C   UNL     1      47.369 129.006  14.982  1.00  0.00     0.032 A 
ATOM     36  C   UNL     1      47.828 130.674  13.244  1.00  0.00     0.002 A 
ATOM     37  C   UNL     1      47.995 129.372  13.774  1.00  0.00     0.002 A 
ENDBRANCH  24  29
ENDBRANCH   8  19
ENDBRANCH   1   8
TORSDOF 6
ENDMDL
MODEL 2
REMARK VINA RESULT:      -2.4      1.055      4.646
REMARK SMILES N#C[C@H]1C[C@@H]1C(=O)N(c1ccc2cc[nH]c2c1)c1c2o[n-]cc-2cc(-n2nc3ccccc3n2)c1=O
REMARK SMILES IDX 6 1 7 2 5 3 3 4 4 5 2 6 1 7 8 8 9 9 10 10 17 11 11 12 16 13
REMARK SMILES IDX 12 14 15 15 13 16 14 17 18 19 19 20 35 21 20 22 23 23 25 24
REMARK SMILES IDX 21 25 22 26 24 27 36 28 26 29 27 30 34 31 28 32 33 33 29 34
REMARK SMILES IDX 32 35 30 36 31 37
REMARK H PARENT 15 18
ROOT
ATOM      1  C   UNL     1      45.493 132.051  22.624  1.00  0.00     0.236 C 
ATOM      2  O   UNL     1      45.671 131.919  23.866  1.00  0.00    -0.274 OA
ENDROOT
BRANCH   1   3
ATOM      3  C   UNL     1      46.180 133.180  21.910  1.00  0.00     0.098 C 
ATOM      4  C   UNL     1      47.343 133.795  22.680  1.00  0.00     0.106 C 
ATOM      5  C   UNL     1      46.023 134.544  22.574  1.00  0.00     0.034 C 
BRANCH   4   6
ATOM      6  C   UNL     1      48.407 134.323  21.819  1.00  0.00     0.066 C 
ATOM      7  N   UNL     1      49.246 134.741  21.142  1.00  0.00    -0.198 NA
ENDBRANCH   4   6
ENDBRANCH   1   3
BRANCH   1   8
ATOM      8  N   UNL     1      44.605 131.155  21.922  1.00  0.00    -0.273 N 
BRANCH   8   9
ATOM      9  C   UNL     1      44.108 129.963  22.566  1.00  0.00     0.051 A 
ATOM     10  C   UNL     1      42.920 130.015  23.344  1.00  0.00     0.027 A 
ATOM     11  C   UNL     1      44.782 128.730  22.405  1.00  0.00     0.053 A 
ATOM     12  C   UNL     1      42.413 128.857  23.962  1.00  0.00     0.012 A 
ATOM     13  C   UNL     1      44.251 127.603  23.031  1.00  0.00     0.047 A 
ATOM     14  C   UNL     1      43.109 127.666  23.781  1.00  0.00    -0.000 A 
ATOM     15  N   UNL     1      44.732 126.350  22.999  1.00  0.00    -0.361 N 
ATOM     16  C   UNL     1      42.852 126.396  24.248  1.00  0.00     0.028 A 
ATOM     17  C   UNL     1      43.880 125.608  23.742  1.00  0.00     0.083 A 
ATOM     18  H   UNL     1      45.587 126.013  22.502  1.00  0.00     0.166 HD
ENDBRANCH   8   9
BRANCH   8  19
ATOM     19  C   UNL     1      44.196 131.454  20.573  1.00  0.00     0.141 A 
ATOM     20  C   UNL     1      42.984 132.083  20.317  1.00  0.00     0.141 A 
ATOM     21  C   UNL     1      45.006 131.121  19.457  1.00  0.00     0.233 A 
ATOM     22  O   UNL     1      42.051 132.483  21.143  1.00  0.00    -0.555 OA
ATOM     23  C   UNL     1      42.570 132.388  18.995  1.00  0.00     0.000 A 
ATOM     24  C   UNL     1      44.589 131.426  18.116  1.00  0.00     0.136 A 
ATOM     25  N   UNL     1      41.060 133.027  20.483  1.00  0.00    -0.513 NA
ATOM     26  C   UNL     1      41.345 132.987  19.156  1.00  0.00    -0.098 A 
ATOM     27  C   UNL     1      43.345 132.071  17.894  1.00  0.00     0.044 A 
ATOM     28  O   UNL     1      46.116 130.559  19.661  1.00  0.00    -0.285 OA
BRANCH  24  29
ATOM     29  N   UNL     1      45.415 131.090  16.979  1.00  0.00    -0.146 N 
ATOM     30  N   UNL     1      45.988 129.901  16.794  1.00  0.00    -0.148 NA
ATOM     31  N   UNL     1      45.693 131.950  15.997  1.00  0.00    -0.148 NA
ATOM     32  C   UNL     1      46.659 130.014  15.639  1.00  0.00     0.113 A 
ATOM     33  C   UNL     1      46.478 131.269  15.151  1.00  0.00     0.113 A 
ATOM     34  C   UNL     1      47.429 129.063  14.976  1.00  0.00     0.032 A 
ATOM     35  C   UNL     1      47.053 131.692  13.956  1.00  0.00     0.032 A 
ATOM     36  C   UNL     1      48.029 129.451  13.761  1.00  0.00     0.002 A 
ATOM     37  C   UNL     1      47.842 130.759  13.254  1.00  0.00     0.002 A 
ENDBRANCH  24  29
ENDBRANCH   8  19
ENDBRANCH   1   8
TORSDOF 6
ENDMDL
MODEL 3
REMARK VINA RESULT:      -1.5      1.321      1.754
REMARK SMILES N#C[C@H]1C[C@@H]1C(=O)N(c1ccc2cc[nH]c2c1)c1c2o[n-]cc-2cc(-n2nc3ccccc3n2)c1=O
REMARK SMILES IDX 6 1 7 2 5 3 3 4 4 5 2 6 1 7 8 8 9 9 10 10 17 11 11 12 16 13
REMARK SMILES IDX 12 14 15 15 13 16 14 17 18 19 19 20 35 21 20 22 23 23 25 24
REMARK SMILES IDX 21 25 22 26 24 27 36 28 26 29 27 30 34 31 28 32 33 33 29 34
REMARK SMILES IDX 32 35 30 36 31 37
REMARK H PARENT 15 18
ROOT
ATOM      1  C   UNL     1      44.539 129.981  22.504  1.00  0.00     0.236 C 
ATOM      2  O   UNL     1      45.427 129.372  23.160  1.00  0.00    -0.274 OA
ENDROOT
BRANCH   1   3
ATOM      3  C   UNL     1      43.170 129.372  22.398  1.00  0.00     0.098 C 
ATOM      4  C   UNL     1      42.781 128.492  23.579  1.00  0.00     0.106 C 
ATOM      5  C   UNL     1      43.158 127.855  22.250  1.00  0.00     0.034 C 
BRANCH   4   6
ATOM      6  C   UNL     1      41.343 128.488  23.865  1.00  0.00     0.066 C 
ATOM      7  N   UNL     1      40.208 128.486  24.092  1.00  0.00    -0.198 NA
ENDBRANCH   4   6
ENDBRANCH   1   3
BRANCH   1   8
ATOM      8  N   UNL     1      44.859 131.219  21.831  1.00  0.00    -0.273 N 
BRANCH   8   9
ATOM      9  C   UNL     1      45.678 132.213  22.479  1.00  0.00     0.051 A 
ATOM     10  C   UNL     1      45.273 132.775  23.719  1.00  0.00     0.027 A 
ATOM     11  C   UNL     1      46.905 132.616  21.901  1.00  0.00     0.053 A 
ATOM     12  C   UNL     1      46.070 133.732  24.372  1.00  0.00     0.012 A 
ATOM     13  C   UNL     1      47.671 133.565  22.575  1.00  0.00     0.047 A 
ATOM     14  C   UNL     1      47.267 134.103  23.766  1.00  0.00    -0.000 A 
ATOM     15  N   UNL     1      48.857 134.073  22.201  1.00  0.00    -0.361 N 
ATOM     16  C   UNL     1      48.239 134.993  24.169  1.00  0.00     0.028 A 
ATOM     17  C   UNL     1      49.208 134.946  23.171  1.00  0.00     0.083 A 
ATOM     18  H   UNL     1      49.399 133.842  21.338  1.00  0.00     0.166 HD
ENDBRANCH   8   9
BRANCH   8  19
ATOM     19  C   UNL     1      44.372 131.462  20.497  1.00  0.00     0.141 A 
ATOM     20  C   UNL     1      43.121 132.028  20.285  1.00  0.00     0.141 A 
ATOM     21  C   UNL     1      45.142 131.134  19.350  1.00  0.00     0.233 A 
ATOM     22  O   UNL     1      42.211 132.408  21.145  1.00  0.00    -0.555 OA
ATOM     23  C   UNL     1      42.630 132.277  18.977  1.00  0.00     0.000 A 
ATOM     24  C   UNL     1      44.647 131.382  18.025  1.00  0.00     0.136 A 
ATOM     25  N   UNL     1      41.166 132.889  20.521  1.00  0.00    -0.513 NA
ATOM     26  C   UNL     1      41.388 132.825  19.183  1.00  0.00    -0.098 A 
ATOM     27  C   UNL     1      43.365 131.964  17.847  1.00  0.00     0.044 A 
ATOM     28  O   UNL     1      46.284 130.628  19.514  1.00  0.00    -0.285 OA
BRANCH  24  29
ATOM     29  N   UNL     1      45.431 131.052  16.858  1.00  0.00    -0.146 N 
ATOM     30  N   UNL     1      45.908 129.835  16.594  1.00  0.00    -0.148 NA
ATOM     31  N   UNL     1      45.764 131.944  15.922  1.00  0.00    -0.148 NA
ATOM     32  C   UNL     1      46.573 129.964  15.437  1.00  0.00     0.113 A 
ATOM     33  C   UNL     1      46.484 131.256  15.026  1.00  0.00     0.113 A 
ATOM     34  C   UNL     1      47.260 128.998  14.709  1.00  0.00     0.032 A 
ATOM     35  C   UNL     1      47.077 131.704  13.849  1.00  0.00     0.032 A 
ATOM     36  C   UNL     1      47.875 129.410  13.509  1.00  0.00     0.002 A 
ATOM     37  C   UNL     1      47.784 130.757  13.082  1.00  0.00     0.002 A 
ENDBRANCH  24  29
ENDBRANCH   8  19
ENDBRANCH   1   8
TORSDOF 6
ENDMDL


