REMARK SMILES Cc1cc2cc(F)c(C3CC3)cc2[nH]1
REMARK SMILES IDX 1 1 2 2 3 3 4 4 5 5 6 6 7 7 8 8 12 9 13 10 14 11 9 13 10 14
REMARK SMILES IDX 11 15
REMARK H PARENT 14 12
ROOT
ATOM      1  C   UNL     1      -3.462   1.567  -1.520  1.00  0.00     0.064 C 
ATOM      2  C   UNL     1      -2.197   0.786  -1.384  1.00  0.00     0.013 A 
ATOM      3  C   UNL     1      -1.321   0.496  -2.427  1.00  0.00     0.031 A 
ATOM      4  C   UNL     1      -0.271  -0.168  -1.831  1.00  0.00     0.003 A 
ATOM      5  C   UNL     1       0.901  -0.683  -2.377  1.00  0.00     0.049 A 
ATOM      6  C   UNL     1       1.817  -1.302  -1.507  1.00  0.00     0.127 A 
ATOM      7  F   UNL     1       2.978  -1.792  -2.011  1.00  0.00    -0.207 F 
ATOM      8  C   UNL     1       1.537  -1.406  -0.118  1.00  0.00    -0.007 A 
ATOM      9  C   UNL     1       0.349  -0.845   0.401  1.00  0.00     0.033 A 
ATOM     10  C   UNL     1      -0.537  -0.242  -0.489  1.00  0.00     0.046 A 
ATOM     11  N   UNL     1      -1.711   0.344  -0.201  1.00  0.00    -0.359 N 
ATOM     12  H   UNL     1      -2.149   0.449   0.742  1.00  0.00     0.166 HD
ENDROOT
BRANCH   8  13
ATOM     13  C   UNL     1       2.542  -2.028   0.815  1.00  0.00     0.022 C 
ATOM     14  C   UNL     1       1.999  -3.127   1.720  1.00  0.00     0.009 C 
ATOM     15  C   UNL     1       2.867  -3.489   0.529  1.00  0.00     0.009 C 
ENDBRANCH   8  13
TORSDOF 1


