REMARK SMILES Cn1cc2ccc([NH2+]c3cccc(N)c3[O-])cc2n1
REMARK SMILES IDX 9 1 10 2 11 3 12 4 13 5 15 6 16 7 8 8 7 11 2 12 3 13 19 14
REMARK SMILES IDX 4 15 18 16 5 17 17 18 6 19 1 20 14 21
REMARK H PARENT 8 9 8 10 14 22 14 23
ROOT
ATOM      1  C   UNL     1      -0.265  -1.152   0.992  1.00  0.00     0.128 A 
ATOM      2  C   UNL     1       0.960  -1.753   1.334  1.00  0.00     0.067 A 
ATOM      3  C   UNL     1       1.367  -1.824   2.666  1.00  0.00     0.008 A 
ATOM      4  C   UNL     1       0.562  -1.295   3.675  1.00  0.00     0.025 A 
ATOM      5  C   UNL     1      -0.661  -0.688   3.359  1.00  0.00     0.029 A 
ATOM      6  C   UNL     1      -1.075  -0.615   2.016  1.00  0.00    -0.021 A 
ATOM      7  O   UNL     1      -2.290  -0.013   1.700  1.00  0.00    -0.867 OA
ENDROOT
BRANCH   1   8
ATOM      8  N   UNL     1      -0.658  -1.058  -0.395  1.00  0.00    -0.282 N 
ATOM      9  H   UNL     1      -0.286  -1.878  -0.930  1.00  0.00     0.358 HD
ATOM     10  H   UNL     1      -1.700  -1.097  -0.485  1.00  0.00     0.358 HD
BRANCH   8  11
ATOM     11  C   UNL     1      -0.148   0.164  -0.965  1.00  0.00     0.136 A 
ATOM     12  N   UNL     1      -0.076   4.494  -2.202  1.00  0.00    -0.275 N 
ATOM     13  C   UNL     1       1.072   3.818  -2.441  1.00  0.00     0.117 A 
ATOM     14  N   UNL     1      -0.979   3.702  -1.630  1.00  0.00    -0.173 NA
ATOM     15  C   UNL     1       0.873   2.527  -2.015  1.00  0.00     0.020 A 
ATOM     16  C   UNL     1      -0.402   2.493  -1.522  1.00  0.00     0.098 A 
ATOM     17  C   UNL     1       1.699   1.409  -2.011  1.00  0.00     0.018 A 
ATOM     18  C   UNL     1      -0.951   1.332  -0.986  1.00  0.00     0.099 A 
ATOM     19  C   UNL     1       1.178   0.216  -1.479  1.00  0.00     0.069 A 
ATOM     20  C   UNL     1      -0.285   5.915  -2.442  1.00  0.00     0.173 C 
ENDBRANCH   8  11
ENDBRANCH   1   8
BRANCH   5  21
ATOM     21  N   UNL     1      -1.474  -0.147   4.406  1.00  0.00    -0.399 N 
ATOM     22  H   UNL     1      -1.166  -0.201   5.402  1.00  0.00     0.156 HD
ATOM     23  H   UNL     1      -2.390   0.312   4.202  1.00  0.00     0.156 HD
ENDBRANCH   5  21
TORSDOF 3


