MODEL 1
REMARK VINA RESULT:      -7.4      0.000      0.000
REMARK SMILES C=Cc1ccc(-c2cccc3cc(Nc4ccc(F)cc4C)[nH]c23)[nH+]c1
REMARK SMILES IDX 7 1 8 2 9 3 10 4 11 5 12 6 13 7 23 8 24 9 6 11 3 12 4 13
REMARK SMILES IDX 26 14 5 15 25 16 2 18 1 19 14 20 15 22 16 23 21 24 17 25
REMARK SMILES IDX 20 26 18 27 22 28 19 29
REMARK H PARENT 23 10 25 17 14 21
ROOT
ATOM      1  C   UNL     1      44.399 129.400  22.851  1.00  0.00     0.070 A 
ATOM      2  C   UNL     1      43.886 130.191  23.902  1.00  0.00     0.017 A 
ATOM      3  C   UNL     1      43.886 131.601  23.814  1.00  0.00     0.002 A 
ATOM      4  C   UNL     1      44.392 132.243  22.672  1.00  0.00     0.010 A 
ATOM      5  C   UNL     1      44.883 131.447  21.642  1.00  0.00     0.002 A 
ATOM      6  C   UNL     1      45.389 131.802  20.410  1.00  0.00     0.055 A 
ATOM      7  C   UNL     1      45.677 130.595  19.789  1.00  0.00     0.108 A 
ATOM      8  N   UNL     1      45.361 129.540  20.577  1.00  0.00    -0.341 N 
ATOM      9  C   UNL     1      44.889 130.074  21.720  1.00  0.00     0.061 A 
ATOM     10  H   UNL     1      45.429 128.529  20.329  1.00  0.00     0.168 HD
ENDROOT
BRANCH   1  11
ATOM     11  C   UNL     1      44.416 127.925  22.965  1.00  0.00     0.212 A 
ATOM     12  C   UNL     1      44.436 125.142  23.233  1.00  0.00     0.038 A 
ATOM     13  C   UNL     1      45.523 125.801  22.644  1.00  0.00     0.021 A 
ATOM     14  C   UNL     1      43.346 125.917  23.673  1.00  0.00     0.314 A 
ATOM     15  C   UNL     1      45.521 127.189  22.517  1.00  0.00     0.081 A 
ATOM     16  N   UNL     1      43.364 127.272  23.538  1.00  0.00    -0.210 N 
ATOM     17  H   UNL     1      42.533 127.814  23.869  1.00  0.00     0.453 HD
BRANCH  12  18
ATOM     18  C   UNL     1      44.474 123.662  23.342  1.00  0.00     0.006 C 
ATOM     19  C   UNL     1      45.540 122.965  23.737  1.00  0.00     0.009 C 
ENDBRANCH  12  18
ENDBRANCH   1  11
BRANCH   7  20
ATOM     20  N   UNL     1      46.190 130.475  18.455  1.00  0.00    -0.342 N 
ATOM     21  H   UNL     1      47.211 130.294  18.330  1.00  0.00     0.168 HD
BRANCH  20  22
ATOM     22  C   UNL     1      45.410 130.807  17.299  1.00  0.00     0.043 A 
ATOM     23  C   UNL     1      44.214 131.517  17.472  1.00  0.00     0.029 A 
ATOM     24  C   UNL     1      45.834 130.457  15.993  1.00  0.00    -0.025 A 
ATOM     25  C   UNL     1      43.414 131.833  16.372  1.00  0.00     0.041 A 
ATOM     26  C   UNL     1      45.007 130.764  14.899  1.00  0.00     0.044 A 
ATOM     27  C   UNL     1      43.805 131.449  15.088  1.00  0.00     0.123 A 
ATOM     28  C   UNL     1      47.141 129.753  15.747  1.00  0.00     0.047 C 
ATOM     29  F   UNL     1      43.021 131.748  14.023  1.00  0.00    -0.207 F 
ENDBRANCH  20  22
ENDBRANCH   7  20
TORSDOF 4
ENDMDL
MODEL 2
REMARK VINA RESULT:      -7.4      2.814      7.397
REMARK SMILES C=Cc1ccc(-c2cccc3cc(Nc4ccc(F)cc4C)[nH]c23)[nH+]c1
REMARK SMILES IDX 7 1 8 2 9 3 10 4 11 5 12 6 13 7 23 8 24 9 6 11 3 12 4 13
REMARK SMILES IDX 26 14 5 15 25 16 2 18 1 19 14 20 15 22 16 23 21 24 17 25
REMARK SMILES IDX 20 26 18 27 22 28 19 29
REMARK H PARENT 23 10 25 17 14 21
ROOT
ATOM      1  C   UNL     1      43.498 131.744  19.670  1.00  0.00     0.070 A 
ATOM      2  C   UNL     1      42.508 132.746  19.568  1.00  0.00     0.017 A 
ATOM      3  C   UNL     1      41.695 133.075  20.674  1.00  0.00     0.002 A 
ATOM      4  C   UNL     1      41.861 132.416  21.902  1.00  0.00     0.010 A 
ATOM      5  C   UNL     1      42.850 131.440  21.988  1.00  0.00     0.002 A 
ATOM      6  C   UNL     1      43.255 130.680  23.064  1.00  0.00     0.055 A 
ATOM      7  C   UNL     1      44.305 129.914  22.576  1.00  0.00     0.108 A 
ATOM      8  N   UNL     1      44.555 130.184  21.273  1.00  0.00    -0.341 N 
ATOM      9  C   UNL     1      43.646 131.111  20.916  1.00  0.00     0.061 A 
ATOM     10  H   UNL     1      45.322 129.787  20.686  1.00  0.00     0.168 HD
ENDROOT
BRANCH   1  11
ATOM     11  C   UNL     1      44.329 131.391  18.498  1.00  0.00     0.212 A 
ATOM     12  C   UNL     1      45.941 130.744  16.307  1.00  0.00     0.038 A 
ATOM     13  C   UNL     1      44.775 131.499  16.126  1.00  0.00     0.021 A 
ATOM     14  C   UNL     1      46.265 130.323  17.611  1.00  0.00     0.314 A 
ATOM     15  C   UNL     1      43.974 131.832  17.216  1.00  0.00     0.081 A 
ATOM     16  N   UNL     1      45.467 130.657  18.663  1.00  0.00    -0.210 N 
ATOM     17  H   UNL     1      45.735 130.319  19.615  1.00  0.00     0.453 HD
BRANCH  12  18
ATOM     18  C   UNL     1      46.763 130.405  15.119  1.00  0.00     0.006 C 
ATOM     19  C   UNL     1      46.775 129.207  14.531  1.00  0.00     0.009 C 
ENDBRANCH  12  18
ENDBRANCH   1  11
BRANCH   7  20
ATOM     20  N   UNL     1      45.070 128.995  23.367  1.00  0.00    -0.342 N 
ATOM     21  H   UNL     1      45.825 129.376  23.979  1.00  0.00     0.168 HD
BRANCH  20  22
ATOM     22  C   UNL     1      44.987 127.575  23.190  1.00  0.00     0.043 A 
ATOM     23  C   UNL     1      45.985 126.926  22.449  1.00  0.00     0.029 A 
ATOM     24  C   UNL     1      43.938 126.816  23.766  1.00  0.00    -0.025 A 
ATOM     25  C   UNL     1      45.923 125.549  22.232  1.00  0.00     0.041 A 
ATOM     26  C   UNL     1      43.878 125.433  23.520  1.00  0.00     0.044 A 
ATOM     27  C   UNL     1      44.865 124.804  22.759  1.00  0.00     0.123 A 
ATOM     28  C   UNL     1      42.878 127.452  24.624  1.00  0.00     0.047 C 
ATOM     29  F   UNL     1      44.802 123.468  22.537  1.00  0.00    -0.207 F 
ENDBRANCH  20  22
ENDBRANCH   7  20
TORSDOF 4
ENDMDL
MODEL 3
REMARK VINA RESULT:      -7.4      2.062      3.452
REMARK SMILES C=Cc1ccc(-c2cccc3cc(Nc4ccc(F)cc4C)[nH]c23)[nH+]c1
REMARK SMILES IDX 7 1 8 2 9 3 10 4 11 5 12 6 13 7 23 8 24 9 6 11 3 12 4 13
REMARK SMILES IDX 26 14 5 15 25 16 2 18 1 19 14 20 15 22 16 23 21 24 17 25
REMARK SMILES IDX 20 26 18 27 22 28 19 29
REMARK H PARENT 23 10 25 17 14 21
ROOT
ATOM      1  C   UNL     1      44.146 127.140  23.517  1.00  0.00     0.070 A 
ATOM      2  C   UNL     1      43.118 126.592  24.316  1.00  0.00     0.017 A 
ATOM      3  C   UNL     1      41.962 127.343  24.623  1.00  0.00     0.002 A 
ATOM      4  C   UNL     1      41.810 128.649  24.132  1.00  0.00     0.010 A 
ATOM      5  C   UNL     1      42.827 129.168  23.337  1.00  0.00     0.002 A 
ATOM      6  C   UNL     1      42.917 130.385  22.695  1.00  0.00     0.055 A 
ATOM      7  C   UNL     1      44.127 130.332  22.015  1.00  0.00     0.108 A 
ATOM      8  N   UNL     1      44.756 129.148  22.207  1.00  0.00    -0.341 N 
ATOM      9  C   UNL     1      43.956 128.446  23.033  1.00  0.00     0.061 A 
ATOM     10  H   UNL     1      45.649 128.834  21.769  1.00  0.00     0.168 HD
ENDROOT
BRANCH   1  11
ATOM     11  C   UNL     1      45.363 126.353  23.221  1.00  0.00     0.212 A 
ATOM     12  C   UNL     1      47.636 124.821  22.671  1.00  0.00     0.038 A 
ATOM     13  C   UNL     1      47.691 125.847  23.623  1.00  0.00     0.021 A 
ATOM     14  C   UNL     1      46.416 124.595  22.005  1.00  0.00     0.314 A 
ATOM     15  C   UNL     1      46.558 126.607  23.907  1.00  0.00     0.081 A 
ATOM     16  N   UNL     1      45.321 125.351  22.296  1.00  0.00    -0.210 N 
ATOM     17  H   UNL     1      44.435 125.161  21.775  1.00  0.00     0.453 HD
BRANCH  12  18
ATOM     18  C   UNL     1      48.867 124.040  22.392  1.00  0.00     0.006 C 
ATOM     19  C   UNL     1      49.915 124.507  21.713  1.00  0.00     0.009 C 
ENDBRANCH  12  18
ENDBRANCH   1  11
BRANCH   7  20
ATOM     20  N   UNL     1      44.623 131.376  21.167  1.00  0.00    -0.342 N 
ATOM     21  H   UNL     1      44.834 132.305  21.595  1.00  0.00     0.168 HD
BRANCH  20  22
ATOM     22  C   UNL     1      44.634 131.265  19.738  1.00  0.00     0.043 A 
ATOM     23  C   UNL     1      45.752 130.694  19.113  1.00  0.00     0.029 A 
ATOM     24  C   UNL     1      43.536 131.693  18.952  1.00  0.00    -0.025 A 
ATOM     25  C   UNL     1      45.811 130.594  17.722  1.00  0.00     0.041 A 
ATOM     26  C   UNL     1      43.620 131.605  17.552  1.00  0.00     0.044 A 
ATOM     27  C   UNL     1      44.751 131.058  16.942  1.00  0.00     0.123 A 
ATOM     28  C   UNL     1      42.286 132.252  19.575  1.00  0.00     0.047 C 
ATOM     29  F   UNL     1      44.815 130.969  15.590  1.00  0.00    -0.207 F 
ENDBRANCH  20  22
ENDBRANCH   7  20
TORSDOF 4
ENDMDL
MODEL 4
REMARK VINA RESULT:      -7.4      2.836      7.395
REMARK SMILES C=Cc1ccc(-c2cccc3cc(Nc4ccc(F)cc4C)[nH]c23)[nH+]c1
REMARK SMILES IDX 7 1 8 2 9 3 10 4 11 5 12 6 13 7 23 8 24 9 6 11 3 12 4 13
REMARK SMILES IDX 26 14 5 15 25 16 2 18 1 19 14 20 15 22 16 23 21 24 17 25
REMARK SMILES IDX 20 26 18 27 22 28 19 29
REMARK H PARENT 23 10 25 17 14 21
ROOT
ATOM      1  C   UNL     1      44.283 131.264  19.689  1.00  0.00     0.070 A 
ATOM      2  C   UNL     1      43.392 132.335  19.915  1.00  0.00     0.017 A 
ATOM      3  C   UNL     1      42.735 132.480  21.156  1.00  0.00     0.002 A 
ATOM      4  C   UNL     1      42.963 131.563  22.195  1.00  0.00     0.010 A 
ATOM      5  C   UNL     1      43.854 130.521  21.958  1.00  0.00     0.002 A 
ATOM      6  C   UNL     1      44.292 129.520  22.798  1.00  0.00     0.055 A 
ATOM      7  C   UNL     1      45.205 128.800  22.039  1.00  0.00     0.108 A 
ATOM      8  N   UNL     1      45.342 129.322  20.797  1.00  0.00    -0.341 N 
ATOM      9  C   UNL     1      44.497 130.370  20.752  1.00  0.00     0.061 A 
ATOM     10  H   UNL     1      46.001 129.004  20.052  1.00  0.00     0.168 HD
ENDROOT
BRANCH   1  11
ATOM     11  C   UNL     1      44.948 131.108  18.376  1.00  0.00     0.212 A 
ATOM     12  C   UNL     1      46.250 130.811  15.920  1.00  0.00     0.038 A 
ATOM     13  C   UNL     1      45.402 131.903  16.140  1.00  0.00     0.021 A 
ATOM     14  C   UNL     1      46.418 129.877  16.961  1.00  0.00     0.314 A 
ATOM     15  C   UNL     1      44.758 132.060  17.366  1.00  0.00     0.081 A 
ATOM     16  N   UNL     1      45.777 130.049  18.151  1.00  0.00    -0.210 N 
ATOM     17  H   UNL     1      45.918 129.331  18.897  1.00  0.00     0.453 HD
BRANCH  12  18
ATOM     18  C   UNL     1      46.911 130.675  14.598  1.00  0.00     0.006 C 
ATOM     19  C   UNL     1      47.573 129.589  14.196  1.00  0.00     0.009 C 
ENDBRANCH  12  18
ENDBRANCH   1  11
BRANCH   7  20
ATOM     20  N   UNL     1      45.953 127.678  22.526  1.00  0.00    -0.342 N 
ATOM     21  H   UNL     1      46.960 127.819  22.765  1.00  0.00     0.168 HD
BRANCH  20  22
ATOM     22  C   UNL     1      45.442 126.339  22.491  1.00  0.00     0.043 A 
ATOM     23  C   UNL     1      44.057 126.143  22.580  1.00  0.00     0.029 A 
ATOM     24  C   UNL     1      46.300 125.222  22.342  1.00  0.00    -0.025 A 
ATOM     25  C   UNL     1      43.524 124.852  22.578  1.00  0.00     0.041 A 
ATOM     26  C   UNL     1      45.749 123.928  22.363  1.00  0.00     0.044 A 
ATOM     27  C   UNL     1      44.370 123.746  22.479  1.00  0.00     0.123 A 
ATOM     28  C   UNL     1      47.786 125.380  22.176  1.00  0.00     0.047 C 
ATOM     29  F   UNL     1      43.850 122.493  22.488  1.00  0.00    -0.207 F 
ENDBRANCH  20  22
ENDBRANCH   7  20
TORSDOF 4
ENDMDL
MODEL 5
REMARK VINA RESULT:      -7.4      2.598      4.798
REMARK SMILES C=Cc1ccc(-c2cccc3cc(Nc4ccc(F)cc4C)[nH]c23)[nH+]c1
REMARK SMILES IDX 7 1 8 2 9 3 10 4 11 5 12 6 13 7 23 8 24 9 6 11 3 12 4 13
REMARK SMILES IDX 26 14 5 15 25 16 2 18 1 19 14 20 15 22 16 23 21 24 17 25
REMARK SMILES IDX 20 26 18 27 22 28 19 29
REMARK H PARENT 23 10 25 17 14 21
ROOT
ATOM      1  C   UNL     1      45.175 125.729  23.484  1.00  0.00     0.070 A 
ATOM      2  C   UNL     1      44.302 124.713  23.930  1.00  0.00     0.017 A 
ATOM      3  C   UNL     1      42.968 125.010  24.288  1.00  0.00     0.002 A 
ATOM      4  C   UNL     1      42.483 126.325  24.200  1.00  0.00     0.010 A 
ATOM      5  C   UNL     1      43.355 127.311  23.748  1.00  0.00     0.002 A 
ATOM      6  C   UNL     1      43.136 128.653  23.524  1.00  0.00     0.055 A 
ATOM      7  C   UNL     1      44.346 129.127  23.034  1.00  0.00     0.108 A 
ATOM      8  N   UNL     1      45.269 128.140  22.943  1.00  0.00    -0.341 N 
ATOM      9  C   UNL     1      44.655 127.031  23.398  1.00  0.00     0.061 A 
ATOM     10  H   UNL     1      46.235 128.219  22.557  1.00  0.00     0.168 HD
ENDROOT
BRANCH   1  11
ATOM     11  C   UNL     1      46.577 125.409  23.134  1.00  0.00     0.212 A 
ATOM     12  C   UNL     1      49.238 124.858  22.478  1.00  0.00     0.038 A 
ATOM     13  C   UNL     1      48.202 124.434  21.636  1.00  0.00     0.021 A 
ATOM     14  C   UNL     1      48.898 125.556  23.653  1.00  0.00     0.314 A 
ATOM     15  C   UNL     1      46.875 124.715  21.954  1.00  0.00     0.081 A 
ATOM     16  N   UNL     1      47.594 125.818  23.946  1.00  0.00    -0.210 N 
ATOM     17  H   UNL     1      47.379 126.330  24.832  1.00  0.00     0.453 HD
BRANCH  12  18
ATOM     18  C   UNL     1      50.638 124.532  22.106  1.00  0.00     0.006 C 
ATOM     19  C   UNL     1      51.047 124.289  20.861  1.00  0.00     0.009 C 
ENDBRANCH  12  18
ENDBRANCH   1  11
BRANCH   7  20
ATOM     20  N   UNL     1      44.574 130.481  22.620  1.00  0.00    -0.342 N 
ATOM     21  H   UNL     1      44.558 131.232  23.345  1.00  0.00     0.168 HD
BRANCH  20  22
ATOM     22  C   UNL     1      44.607 130.866  21.239  1.00  0.00     0.043 A 
ATOM     23  C   UNL     1      45.667 130.420  20.438  1.00  0.00     0.029 A 
ATOM     24  C   UNL     1      43.582 131.660  20.667  1.00  0.00    -0.025 A 
ATOM     25  C   UNL     1      45.748 130.798  19.096  1.00  0.00     0.041 A 
ATOM     26  C   UNL     1      43.689 132.049  19.320  1.00  0.00     0.044 A 
ATOM     27  C   UNL     1      44.765 131.620  18.540  1.00  0.00     0.123 A 
ATOM     28  C   UNL     1      42.389 132.110  21.465  1.00  0.00     0.047 C 
ATOM     29  F   UNL     1      44.851 131.994  17.240  1.00  0.00    -0.207 F 
ENDBRANCH  20  22
ENDBRANCH   7  20
TORSDOF 4
ENDMDL
MODEL 6
REMARK VINA RESULT:      -7.3      4.900      7.690
REMARK SMILES C=Cc1ccc(-c2cccc3cc(Nc4ccc(F)cc4C)[nH]c23)[nH+]c1
REMARK SMILES IDX 7 1 8 2 9 3 10 4 11 5 12 6 13 7 23 8 24 9 6 11 3 12 4 13
REMARK SMILES IDX 26 14 5 15 25 16 2 18 1 19 14 20 15 22 16 23 21 24 17 25
REMARK SMILES IDX 20 26 18 27 22 28 19 29
REMARK H PARENT 23 10 25 17 14 21
ROOT
ATOM      1  C   UNL     1      44.350 131.664  18.369  1.00  0.00     0.070 A 
ATOM      2  C   UNL     1      42.941 131.627  18.275  1.00  0.00     0.017 A 
ATOM      3  C   UNL     1      42.134 131.852  19.412  1.00  0.00     0.002 A 
ATOM      4  C   UNL     1      42.720 132.124  20.659  1.00  0.00     0.010 A 
ATOM      5  C   UNL     1      44.109 132.168  20.729  1.00  0.00     0.002 A 
ATOM      6  C   UNL     1      44.933 132.454  21.796  1.00  0.00     0.055 A 
ATOM      7  C   UNL     1      46.217 132.396  21.270  1.00  0.00     0.108 A 
ATOM      8  N   UNL     1      46.202 132.103  19.948  1.00  0.00    -0.341 N 
ATOM      9  C   UNL     1      44.903 131.950  19.629  1.00  0.00     0.061 A 
ATOM     10  H   UNL     1      47.024 132.053  19.307  1.00  0.00     0.168 HD
ENDROOT
BRANCH   1  11
ATOM     11  C   UNL     1      45.186 131.404  17.176  1.00  0.00     0.212 A 
ATOM     12  C   UNL     1      46.725 130.928  14.891  1.00  0.00     0.038 A 
ATOM     13  C   UNL     1      46.546 129.916  15.843  1.00  0.00     0.021 A 
ATOM     14  C   UNL     1      46.117 132.177  15.124  1.00  0.00     0.314 A 
ATOM     15  C   UNL     1      45.772 130.146  16.979  1.00  0.00     0.081 A 
ATOM     16  N   UNL     1      45.366 132.381  16.241  1.00  0.00    -0.210 N 
ATOM     17  H   UNL     1      44.938 133.323  16.385  1.00  0.00     0.453 HD
BRANCH  12  18
ATOM     18  C   UNL     1      47.563 130.645  13.699  1.00  0.00     0.006 C 
ATOM     19  C   UNL     1      48.281 129.534  13.532  1.00  0.00     0.009 C 
ENDBRANCH  12  18
ENDBRANCH   1  11
BRANCH   7  20
ATOM     20  N   UNL     1      47.409 132.670  22.018  1.00  0.00    -0.342 N 
ATOM     21  H   UNL     1      47.700 131.991  22.757  1.00  0.00     0.168 HD
BRANCH  20  22
ATOM     22  C   UNL     1      48.090 133.930  21.944  1.00  0.00     0.043 A 
ATOM     23  C   UNL     1      47.587 134.921  21.090  1.00  0.00     0.029 A 
ATOM     24  C   UNL     1      49.236 134.201  22.732  1.00  0.00    -0.025 A 
ATOM     25  C   UNL     1      48.239 136.150  20.971  1.00  0.00     0.041 A 
ATOM     26  C   UNL     1      49.893 135.435  22.585  1.00  0.00     0.044 A 
ATOM     27  C   UNL     1      49.396 136.403  21.710  1.00  0.00     0.123 A 
ATOM     28  C   UNL     1      49.779 133.197  23.713  1.00  0.00     0.047 C 
ATOM     29  F   UNL     1      50.033 137.594  21.584  1.00  0.00    -0.207 F 
ENDBRANCH  20  22
ENDBRANCH   7  20
TORSDOF 4
ENDMDL
MODEL 7
REMARK VINA RESULT:      -7.2      2.970      7.761
REMARK SMILES C=Cc1ccc(-c2cccc3cc(Nc4ccc(F)cc4C)[nH]c23)[nH+]c1
REMARK SMILES IDX 7 1 8 2 9 3 10 4 11 5 12 6 13 7 23 8 24 9 6 11 3 12 4 13
REMARK SMILES IDX 26 14 5 15 25 16 2 18 1 19 14 20 15 22 16 23 21 24 17 25
REMARK SMILES IDX 20 26 18 27 22 28 19 29
REMARK H PARENT 23 10 25 17 14 21
ROOT
ATOM      1  C   UNL     1      43.743 131.696  18.846  1.00  0.00     0.070 A 
ATOM      2  C   UNL     1      42.756 132.706  18.867  1.00  0.00     0.017 A 
ATOM      3  C   UNL     1      42.053 133.007  20.054  1.00  0.00     0.002 A 
ATOM      4  C   UNL     1      42.329 132.309  21.241  1.00  0.00     0.010 A 
ATOM      5  C   UNL     1      43.313 131.326  21.204  1.00  0.00     0.002 A 
ATOM      6  C   UNL     1      43.810 130.532  22.215  1.00  0.00     0.055 A 
ATOM      7  C   UNL     1      44.803 129.775  21.608  1.00  0.00     0.108 A 
ATOM      8  N   UNL     1      44.932 130.082  20.295  1.00  0.00    -0.341 N 
ATOM      9  C   UNL     1      44.002 131.025  20.053  1.00  0.00     0.061 A 
ATOM     10  H   UNL     1      45.637 129.699  19.627  1.00  0.00     0.168 HD
ENDROOT
BRANCH   1  11
ATOM     11  C   UNL     1      44.457 131.373  17.591  1.00  0.00     0.212 A 
ATOM     12  C   UNL     1      45.761 130.741  15.199  1.00  0.00     0.038 A 
ATOM     13  C   UNL     1      46.301 130.334  16.426  1.00  0.00     0.021 A 
ATOM     14  C   UNL     1      44.559 131.475  15.212  1.00  0.00     0.314 A 
ATOM     15  C   UNL     1      45.650 130.639  17.620  1.00  0.00     0.081 A 
ATOM     16  N   UNL     1      43.939 131.763  16.390  1.00  0.00    -0.210 N 
ATOM     17  H   UNL     1      43.053 132.317  16.362  1.00  0.00     0.453 HD
BRANCH  12  18
ATOM     18  C   UNL     1      46.490 130.404  13.951  1.00  0.00     0.006 C 
ATOM     19  C   UNL     1      47.533 131.089  13.482  1.00  0.00     0.009 C 
ENDBRANCH  12  18
ENDBRANCH   1  11
BRANCH   7  20
ATOM     20  N   UNL     1      45.631 128.827  22.296  1.00  0.00    -0.342 N 
ATOM     21  H   UNL     1      46.663 128.988  22.311  1.00  0.00     0.168 HD
BRANCH  20  22
ATOM     22  C   UNL     1      45.130 127.571  22.771  1.00  0.00     0.043 A 
ATOM     23  C   UNL     1      45.557 126.392  22.143  1.00  0.00     0.029 A 
ATOM     24  C   UNL     1      44.240 127.496  23.871  1.00  0.00    -0.025 A 
ATOM     25  C   UNL     1      45.069 125.152  22.560  1.00  0.00     0.041 A 
ATOM     26  C   UNL     1      43.742 126.242  24.264  1.00  0.00     0.044 A 
ATOM     27  C   UNL     1      44.155 125.078  23.613  1.00  0.00     0.123 A 
ATOM     28  C   UNL     1      43.802 128.724  24.621  1.00  0.00     0.047 C 
ATOM     29  F   UNL     1      43.675 123.873  24.009  1.00  0.00    -0.207 F 
ENDBRANCH  20  22
ENDBRANCH   7  20
TORSDOF 4
ENDMDL
MODEL 8
REMARK VINA RESULT:      -7.2      2.606      4.519
REMARK SMILES C=Cc1ccc(-c2cccc3cc(Nc4ccc(F)cc4C)[nH]c23)[nH+]c1
REMARK SMILES IDX 7 1 8 2 9 3 10 4 11 5 12 6 13 7 23 8 24 9 6 11 3 12 4 13
REMARK SMILES IDX 26 14 5 15 25 16 2 18 1 19 14 20 15 22 16 23 21 24 17 25
REMARK SMILES IDX 20 26 18 27 22 28 19 29
REMARK H PARENT 23 10 25 17 14 21
ROOT
ATOM      1  C   UNL     1      44.856 126.119  23.739  1.00  0.00     0.070 A 
ATOM      2  C   UNL     1      43.964 125.133  24.213  1.00  0.00     0.017 A 
ATOM      3  C   UNL     1      42.630 125.461  24.540  1.00  0.00     0.002 A 
ATOM      4  C   UNL     1      42.163 126.777  24.393  1.00  0.00     0.010 A 
ATOM      5  C   UNL     1      43.053 127.733  23.914  1.00  0.00     0.002 A 
ATOM      6  C   UNL     1      42.855 129.068  23.633  1.00  0.00     0.055 A 
ATOM      7  C   UNL     1      44.077 129.507  23.141  1.00  0.00     0.108 A 
ATOM      8  N   UNL     1      44.988 128.505  23.102  1.00  0.00    -0.341 N 
ATOM      9  C   UNL     1      44.354 127.423  23.594  1.00  0.00     0.061 A 
ATOM     10  H   UNL     1      45.961 128.556  22.727  1.00  0.00     0.168 HD
ENDROOT
BRANCH   1  11
ATOM     11  C   UNL     1      46.258 125.768  23.421  1.00  0.00     0.212 A 
ATOM     12  C   UNL     1      48.892 125.055  22.811  1.00  0.00     0.038 A 
ATOM     13  C   UNL     1      48.593 125.669  24.034  1.00  0.00     0.021 A 
ATOM     14  C   UNL     1      47.836 124.819  21.909  1.00  0.00     0.314 A 
ATOM     15  C   UNL     1      47.280 126.017  24.347  1.00  0.00     0.081 A 
ATOM     16  N   UNL     1      46.561 125.169  22.234  1.00  0.00    -0.210 N 
ATOM     17  H   UNL     1      45.804 124.987  21.536  1.00  0.00     0.453 HD
BRANCH  12  18
ATOM     18  C   UNL     1      50.304 124.707  22.514  1.00  0.00     0.006 C 
ATOM     19  C   UNL     1      51.059 125.339  21.614  1.00  0.00     0.009 C 
ENDBRANCH  12  18
ENDBRANCH   1  11
BRANCH   7  20
ATOM     20  N   UNL     1      44.328 130.839  22.675  1.00  0.00    -0.342 N 
ATOM     21  H   UNL     1      44.764 131.522  23.335  1.00  0.00     0.168 HD
BRANCH  20  22
ATOM     22  C   UNL     1      43.814 131.328  21.429  1.00  0.00     0.043 A 
ATOM     23  C   UNL     1      42.583 131.998  21.422  1.00  0.00     0.029 A 
ATOM     24  C   UNL     1      44.533 131.172  20.219  1.00  0.00    -0.025 A 
ATOM     25  C   UNL     1      42.037 132.463  20.224  1.00  0.00     0.041 A 
ATOM     26  C   UNL     1      43.961 131.627  19.018  1.00  0.00     0.044 A 
ATOM     27  C   UNL     1      42.721 132.269  19.022  1.00  0.00     0.123 A 
ATOM     28  C   UNL     1      45.889 130.520  20.180  1.00  0.00     0.047 C 
ATOM     29  F   UNL     1      42.184 132.712  17.858  1.00  0.00    -0.207 F 
ENDBRANCH  20  22
ENDBRANCH   7  20
TORSDOF 4
ENDMDL
MODEL 9
REMARK VINA RESULT:      -7.1      0.720      1.070
REMARK SMILES C=Cc1ccc(-c2cccc3cc(Nc4ccc(F)cc4C)[nH]c23)[nH+]c1
REMARK SMILES IDX 7 1 8 2 9 3 10 4 11 5 12 6 13 7 23 8 24 9 6 11 3 12 4 13
REMARK SMILES IDX 26 14 5 15 25 16 2 18 1 19 14 20 15 22 16 23 21 24 17 25
REMARK SMILES IDX 20 26 18 27 22 28 19 29
REMARK H PARENT 23 10 25 17 14 21
ROOT
ATOM      1  C   UNL     1      44.243 129.280  23.235  1.00  0.00     0.070 A 
ATOM      2  C   UNL     1      43.664 130.072  24.251  1.00  0.00     0.017 A 
ATOM      3  C   UNL     1      43.578 131.475  24.114  1.00  0.00     0.002 A 
ATOM      4  C   UNL     1      44.062 132.109  22.957  1.00  0.00     0.010 A 
ATOM      5  C   UNL     1      44.617 131.311  21.962  1.00  0.00     0.002 A 
ATOM      6  C   UNL     1      45.119 131.656  20.726  1.00  0.00     0.055 A 
ATOM      7  C   UNL     1      45.492 130.449  20.150  1.00  0.00     0.108 A 
ATOM      8  N   UNL     1      45.229 129.403  20.970  1.00  0.00    -0.341 N 
ATOM      9  C   UNL     1      44.707 129.945  22.087  1.00  0.00     0.061 A 
ATOM     10  H   UNL     1      45.363 128.390  20.757  1.00  0.00     0.168 HD
ENDROOT
BRANCH   1  11
ATOM     11  C   UNL     1      44.349 127.813  23.399  1.00  0.00     0.212 A 
ATOM     12  C   UNL     1      44.583 125.040  23.670  1.00  0.00     0.038 A 
ATOM     13  C   UNL     1      43.322 125.629  23.521  1.00  0.00     0.021 A 
ATOM     14  C   UNL     1      45.713 125.881  23.686  1.00  0.00     0.314 A 
ATOM     15  C   UNL     1      43.200 127.010  23.376  1.00  0.00     0.081 A 
ATOM     16  N   UNL     1      45.572 127.228  23.544  1.00  0.00    -0.210 N 
ATOM     17  H   UNL     1      46.433 127.822  23.570  1.00  0.00     0.453 HD
BRANCH  12  18
ATOM     18  C   UNL     1      44.669 123.567  23.829  1.00  0.00     0.006 C 
ATOM     19  C   UNL     1      43.637 122.786  24.151  1.00  0.00     0.009 C 
ENDBRANCH  12  18
ENDBRANCH   1  11
BRANCH   7  20
ATOM     20  N   UNL     1      46.032 130.317  18.829  1.00  0.00    -0.342 N 
ATOM     21  H   UNL     1      47.039 130.060  18.727  1.00  0.00     0.168 HD
BRANCH  20  22
ATOM     22  C   UNL     1      45.312 130.730  17.659  1.00  0.00     0.043 A 
ATOM     23  C   UNL     1      44.106 131.427  17.819  1.00  0.00     0.029 A 
ATOM     24  C   UNL     1      45.806 130.474  16.356  1.00  0.00    -0.025 A 
ATOM     25  C   UNL     1      43.364 131.821  16.704  1.00  0.00     0.041 A 
ATOM     26  C   UNL     1      45.036 130.858  15.244  1.00  0.00     0.044 A 
ATOM     27  C   UNL     1      43.823 131.528  15.418  1.00  0.00     0.123 A 
ATOM     28  C   UNL     1      47.126 129.789  16.129  1.00  0.00     0.047 C 
ATOM     29  F   UNL     1      43.095 131.903  14.337  1.00  0.00    -0.207 F 
ENDBRANCH  20  22
ENDBRANCH   7  20
TORSDOF 4
ENDMDL


