MODEL 1
REMARK VINA RESULT:      -6.9      0.000      0.000
REMARK SMILES Nc1c([C@@H]2O[C@H]2c2ccccc2)cc(C(=O)[O-])c([NH2+]c2cc3ccccc3[n-]2)c1[O-]
REMARK SMILES IDX 2 1 3 2 13 3 14 4 18 5 29 6 30 7 1 8 4 11 5 12 6 13 7 14
REMARK SMILES IDX 8 15 12 16 9 17 11 18 10 19 19 20 20 23 21 24 28 25 22 26
REMARK SMILES IDX 27 27 23 28 26 29 24 30 25 31 15 32 16 33 17 34
REMARK H PARENT 1 9 1 10 19 21 19 22
ROOT
ATOM      1  C   UNL     1      45.405 129.444  21.262  1.00  0.00     0.035 A 
ATOM      2  C   UNL     1      44.999 130.678  20.715  1.00  0.00     0.007 A 
ATOM      3  C   UNL     1      44.036 131.445  21.380  1.00  0.00     0.024 A 
ATOM      4  C   UNL     1      43.491 131.036  22.605  1.00  0.00     0.058 A 
ATOM      5  C   UNL     1      43.929 129.815  23.192  1.00  0.00     0.136 A 
ATOM      6  C   UNL     1      44.888 129.033  22.504  1.00  0.00    -0.020 A 
ATOM      7  O   UNL     1      45.334 127.837  23.060  1.00  0.00    -0.867 OA
ENDROOT
BRANCH   1   8
ATOM      8  N   UNL     1      46.339 128.601  20.568  1.00  0.00    -0.399 N 
ATOM      9  H   UNL     1      46.891 128.942  19.753  1.00  0.00     0.156 HD
ATOM     10  H   UNL     1      46.465 127.599  20.834  1.00  0.00     0.156 HD
ENDBRANCH   1   8
BRANCH   2  11
ATOM     11  C   UNL     1      45.533 131.170  19.397  1.00  0.00     0.185 C 
ATOM     12  O   UNL     1      44.663 132.107  18.799  1.00  0.00    -0.359 OA
ATOM     13  C   UNL     1      44.724 130.836  18.194  1.00  0.00     0.183 C 
BRANCH  13  14
ATOM     14  C   UNL     1      45.460 130.877  16.889  1.00  0.00    -0.016 A 
ATOM     15  C   UNL     1      45.665 132.097  16.226  1.00  0.00     0.006 A 
ATOM     16  C   UNL     1      45.895 129.683  16.293  1.00  0.00     0.006 A 
ATOM     17  C   UNL     1      46.324 132.123  14.992  1.00  0.00     0.000 A 
ATOM     18  C   UNL     1      46.555 129.713  15.060  1.00  0.00     0.000 A 
ATOM     19  C   UNL     1      46.771 130.933  14.412  1.00  0.00     0.000 A 
ENDBRANCH  13  14
ENDBRANCH   2  11
BRANCH   5  20
ATOM     20  N   UNL     1      43.488 129.405  24.511  1.00  0.00    -0.299 N 
ATOM     21  H   UNL     1      44.283 129.030  25.071  1.00  0.00     0.356 HD
ATOM     22  H   UNL     1      43.118 130.211  25.063  1.00  0.00     0.356 HD
BRANCH  20  23
ATOM     23  C   UNL     1      42.445 128.426  24.397  1.00  0.00     0.036 A 
ATOM     24  C   UNL     1      41.114 128.720  24.105  1.00  0.00     0.050 A 
ATOM     25  N   UNL     1      42.662 127.094  24.529  1.00  0.00    -0.610 NA
ATOM     26  C   UNL     1      40.498 127.494  24.060  1.00  0.00    -0.036 A 
ATOM     27  C   UNL     1      41.453 126.544  24.320  1.00  0.00    -0.125 A 
ATOM     28  C   UNL     1      39.172 127.157  23.799  1.00  0.00     0.007 A 
ATOM     29  C   UNL     1      41.141 125.185  24.336  1.00  0.00    -0.015 A 
ATOM     30  C   UNL     1      38.828 125.793  23.811  1.00  0.00     0.001 A 
ATOM     31  C   UNL     1      39.809 124.811  24.078  1.00  0.00    -0.001 A 
ENDBRANCH  20  23
ENDBRANCH   5  20
BRANCH   4  32
ATOM     32  C   UNL     1      42.496 131.934  23.238  1.00  0.00     0.077 C 
ATOM     33  O   UNL     1      41.733 132.656  22.544  1.00  0.00    -0.545 OA
ATOM     34  O   UNL     1      42.435 132.033  24.623  1.00  0.00    -0.545 OA
ENDBRANCH   4  32
TORSDOF 6
ENDMDL
MODEL 2
REMARK VINA RESULT:      -5.7      2.292      3.881
REMARK SMILES Nc1c([C@@H]2O[C@H]2c2ccccc2)cc(C(=O)[O-])c([NH2+]c2cc3ccccc3[n-]2)c1[O-]
REMARK SMILES IDX 2 1 3 2 13 3 14 4 18 5 29 6 30 7 1 8 4 11 5 12 6 13 7 14
REMARK SMILES IDX 8 15 12 16 9 17 11 18 10 19 19 20 20 23 21 24 28 25 22 26
REMARK SMILES IDX 27 27 23 28 26 29 24 30 25 31 15 32 16 33 17 34
REMARK H PARENT 1 9 1 10 19 21 19 22
ROOT
ATOM      1  C   UNL     1      43.289 131.865  18.301  1.00  0.00     0.035 A 
ATOM      2  C   UNL     1      44.662 131.829  17.983  1.00  0.00     0.007 A 
ATOM      3  C   UNL     1      45.611 131.971  19.001  1.00  0.00     0.024 A 
ATOM      4  C   UNL     1      45.231 132.109  20.344  1.00  0.00     0.058 A 
ATOM      5  C   UNL     1      43.848 132.099  20.682  1.00  0.00     0.136 A 
ATOM      6  C   UNL     1      42.892 131.976  19.645  1.00  0.00    -0.020 A 
ATOM      7  O   UNL     1      41.534 131.960  19.953  1.00  0.00    -0.867 OA
ENDROOT
BRANCH   1   8
ATOM      8  N   UNL     1      42.292 131.793  17.269  1.00  0.00    -0.399 N 
ATOM      9  H   UNL     1      41.273 131.859  17.480  1.00  0.00     0.156 HD
ATOM     10  H   UNL     1      42.554 131.631  16.272  1.00  0.00     0.156 HD
ENDBRANCH   1   8
BRANCH   2  11
ATOM     11  C   UNL     1      45.140 131.698  16.562  1.00  0.00     0.185 C 
ATOM     12  O   UNL     1      44.293 130.865  15.802  1.00  0.00    -0.359 OA
ATOM     13  C   UNL     1      45.556 130.337  16.132  1.00  0.00     0.183 C 
BRANCH  13  14
ATOM     14  C   UNL     1      46.465 130.285  14.941  1.00  0.00    -0.016 A 
ATOM     15  C   UNL     1      47.471 129.310  14.856  1.00  0.00     0.006 A 
ATOM     16  C   UNL     1      46.351 131.253  13.931  1.00  0.00     0.006 A 
ATOM     17  C   UNL     1      48.336 129.288  13.756  1.00  0.00     0.000 A 
ATOM     18  C   UNL     1      47.217 131.227  12.832  1.00  0.00     0.000 A 
ATOM     19  C   UNL     1      48.207 130.244  12.745  1.00  0.00     0.000 A 
ENDBRANCH  13  14
ENDBRANCH   2  11
BRANCH   5  20
ATOM     20  N   UNL     1      43.404 132.117  22.063  1.00  0.00    -0.299 N 
ATOM     21  H   UNL     1      44.048 132.684  22.655  1.00  0.00     0.356 HD
ATOM     22  H   UNL     1      42.468 132.572  22.163  1.00  0.00     0.356 HD
BRANCH  20  23
ATOM     23  C   UNL     1      43.305 130.776  22.565  1.00  0.00     0.036 A 
ATOM     24  C   UNL     1      44.317 129.823  22.473  1.00  0.00     0.050 A 
ATOM     25  N   UNL     1      42.213 130.310  23.220  1.00  0.00    -0.610 NA
ATOM     26  C   UNL     1      43.802 128.721  23.109  1.00  0.00    -0.036 A 
ATOM     27  C   UNL     1      42.542 129.046  23.543  1.00  0.00    -0.125 A 
ATOM     28  C   UNL     1      44.362 127.466  23.341  1.00  0.00     0.007 A 
ATOM     29  C   UNL     1      41.754 128.132  24.240  1.00  0.00    -0.015 A 
ATOM     30  C   UNL     1      43.588 126.522  24.042  1.00  0.00     0.001 A 
ATOM     31  C   UNL     1      42.289 126.855  24.489  1.00  0.00    -0.001 A 
ENDBRANCH  20  23
ENDBRANCH   5  20
BRANCH   4  32
ATOM     32  C   UNL     1      46.316 132.229  21.347  1.00  0.00     0.077 C 
ATOM     33  O   UNL     1      46.101 132.720  22.485  1.00  0.00    -0.545 OA
ATOM     34  O   UNL     1      47.611 131.849  21.014  1.00  0.00    -0.545 OA
ENDBRANCH   4  32
TORSDOF 6
ENDMDL
MODEL 3
REMARK VINA RESULT:      -5.5      2.395      3.972
REMARK SMILES Nc1c([C@@H]2O[C@H]2c2ccccc2)cc(C(=O)[O-])c([NH2+]c2cc3ccccc3[n-]2)c1[O-]
REMARK SMILES IDX 2 1 3 2 13 3 14 4 18 5 29 6 30 7 1 8 4 11 5 12 6 13 7 14
REMARK SMILES IDX 8 15 12 16 9 17 11 18 10 19 19 20 20 23 21 24 28 25 22 26
REMARK SMILES IDX 27 27 23 28 26 29 24 30 25 31 15 32 16 33 17 34
REMARK H PARENT 1 9 1 10 19 21 19 22
ROOT
ATOM      1  C   UNL     1      43.118 131.882  18.051  1.00  0.00     0.035 A 
ATOM      2  C   UNL     1      44.488 131.735  17.750  1.00  0.00     0.007 A 
ATOM      3  C   UNL     1      45.435 131.831  18.775  1.00  0.00     0.024 A 
ATOM      4  C   UNL     1      45.054 132.029  20.109  1.00  0.00     0.058 A 
ATOM      5  C   UNL     1      43.671 132.131  20.432  1.00  0.00     0.136 A 
ATOM      6  C   UNL     1      42.718 132.055  19.388  1.00  0.00    -0.020 A 
ATOM      7  O   UNL     1      41.360 132.148  19.681  1.00  0.00    -0.867 OA
ENDROOT
BRANCH   1   8
ATOM      8  N   UNL     1      42.128 131.859  17.011  1.00  0.00    -0.399 N 
ATOM      9  H   UNL     1      41.947 131.007  16.438  1.00  0.00     0.156 HD
ATOM     10  H   UNL     1      41.580 132.714  16.765  1.00  0.00     0.156 HD
ENDBRANCH   1   8
BRANCH   2  11
ATOM     11  C   UNL     1      44.967 131.533  16.338  1.00  0.00     0.185 C 
ATOM     12  O   UNL     1      44.330 130.434  15.723  1.00  0.00    -0.359 OA
ATOM     13  C   UNL     1      45.686 130.260  16.063  1.00  0.00     0.183 C 
BRANCH  13  14
ATOM     14  C   UNL     1      46.568 130.264  14.852  1.00  0.00    -0.016 A 
ATOM     15  C   UNL     1      47.500 129.234  14.647  1.00  0.00     0.006 A 
ATOM     16  C   UNL     1      46.508 131.333  13.945  1.00  0.00     0.006 A 
ATOM     17  C   UNL     1      48.342 129.263  13.531  1.00  0.00     0.000 A 
ATOM     18  C   UNL     1      47.350 131.357  12.829  1.00  0.00     0.000 A 
ATOM     19  C   UNL     1      48.266 130.321  12.621  1.00  0.00     0.000 A 
ENDBRANCH  13  14
ENDBRANCH   2  11
BRANCH   5  20
ATOM     20  N   UNL     1      43.217 132.218  21.807  1.00  0.00    -0.299 N 
ATOM     21  H   UNL     1      43.774 132.918  22.341  1.00  0.00     0.356 HD
ATOM     22  H   UNL     1      42.228 132.549  21.868  1.00  0.00     0.356 HD
BRANCH  20  23
ATOM     23  C   UNL     1      43.295 130.928  22.432  1.00  0.00     0.036 A 
ATOM     24  C   UNL     1      42.395 130.457  23.386  1.00  0.00     0.050 A 
ATOM     25  N   UNL     1      44.247 130.012  22.123  1.00  0.00    -0.610 NA
ATOM     26  C   UNL     1      42.833 129.186  23.666  1.00  0.00    -0.036 A 
ATOM     27  C   UNL     1      43.943 128.953  22.895  1.00  0.00    -0.125 A 
ATOM     28  C   UNL     1      42.323 128.225  24.536  1.00  0.00     0.007 A 
ATOM     29  C   UNL     1      44.620 127.736  22.944  1.00  0.00    -0.015 A 
ATOM     30  C   UNL     1      42.988 126.987  24.608  1.00  0.00     0.001 A 
ATOM     31  C   UNL     1      44.132 126.744  23.814  1.00  0.00    -0.001 A 
ENDBRANCH  20  23
ENDBRANCH   5  20
BRANCH   4  32
ATOM     32  C   UNL     1      46.135 132.093  21.121  1.00  0.00     0.077 C 
ATOM     33  O   UNL     1      47.181 131.404  21.003  1.00  0.00    -0.545 OA
ATOM     34  O   UNL     1      45.975 132.880  22.256  1.00  0.00    -0.545 OA
ENDBRANCH   4  32
TORSDOF 6
ENDMDL
MODEL 4
REMARK VINA RESULT:      -5.3      1.874      3.053
REMARK SMILES Nc1c([C@@H]2O[C@H]2c2ccccc2)cc(C(=O)[O-])c([NH2+]c2cc3ccccc3[n-]2)c1[O-]
REMARK SMILES IDX 2 1 3 2 13 3 14 4 18 5 29 6 30 7 1 8 4 11 5 12 6 13 7 14
REMARK SMILES IDX 8 15 12 16 9 17 11 18 10 19 19 20 20 23 21 24 28 25 22 26
REMARK SMILES IDX 27 27 23 28 26 29 24 30 25 31 15 32 16 33 17 34
REMARK H PARENT 1 9 1 10 19 21 19 22
ROOT
ATOM      1  C   UNL     1      45.529 130.985  19.088  1.00  0.00     0.035 A 
ATOM      2  C   UNL     1      44.704 131.474  18.055  1.00  0.00     0.007 A 
ATOM      3  C   UNL     1      43.432 131.970  18.363  1.00  0.00     0.024 A 
ATOM      4  C   UNL     1      42.970 132.031  19.685  1.00  0.00     0.058 A 
ATOM      5  C   UNL     1      43.814 131.584  20.742  1.00  0.00     0.136 A 
ATOM      6  C   UNL     1      45.091 131.064  20.421  1.00  0.00    -0.020 A 
ATOM      7  O   UNL     1      45.934 130.625  21.438  1.00  0.00    -0.867 OA
ENDROOT
BRANCH   1   8
ATOM      8  N   UNL     1      46.811 130.405  18.795  1.00  0.00    -0.399 N 
ATOM      9  H   UNL     1      46.931 129.669  18.067  1.00  0.00     0.156 HD
ATOM     10  H   UNL     1      47.663 130.674  19.335  1.00  0.00     0.156 HD
ENDBRANCH   1   8
BRANCH   2  11
ATOM     11  C   UNL     1      45.132 131.426  16.613  1.00  0.00     0.185 C 
ATOM     12  O   UNL     1      44.406 130.458  15.886  1.00  0.00    -0.359 OA
ATOM     13  C   UNL     1      45.756 130.156  16.155  1.00  0.00     0.183 C 
BRANCH  13  14
ATOM     14  C   UNL     1      46.605 130.260  14.924  1.00  0.00    -0.016 A 
ATOM     15  C   UNL     1      46.353 131.256  13.968  1.00  0.00     0.006 A 
ATOM     16  C   UNL     1      47.620 129.319  14.693  1.00  0.00     0.006 A 
ATOM     17  C   UNL     1      47.129 131.326  12.807  1.00  0.00     0.000 A 
ATOM     18  C   UNL     1      48.395 129.392  13.531  1.00  0.00     0.000 A 
ATOM     19  C   UNL     1      48.151 130.397  12.590  1.00  0.00     0.000 A 
ENDBRANCH  13  14
ENDBRANCH   2  11
BRANCH   5  20
ATOM     20  N   UNL     1      43.433 131.735  22.133  1.00  0.00    -0.299 N 
ATOM     21  H   UNL     1      44.185 132.211  22.676  1.00  0.00     0.356 HD
ATOM     22  H   UNL     1      42.590 132.343  22.240  1.00  0.00     0.356 HD
BRANCH  20  23
ATOM     23  C   UNL     1      43.134 130.452  22.702  1.00  0.00     0.036 A 
ATOM     24  C   UNL     1      44.093 129.522  23.098  1.00  0.00     0.050 A 
ATOM     25  N   UNL     1      41.870 130.027  22.948  1.00  0.00    -0.610 NA
ATOM     26  C   UNL     1      43.362 128.479  23.610  1.00  0.00    -0.036 A 
ATOM     27  C   UNL     1      42.036 128.814  23.503  1.00  0.00    -0.125 A 
ATOM     28  C   UNL     1      43.776 127.271  24.168  1.00  0.00     0.007 A 
ATOM     29  C   UNL     1      41.031 127.957  23.949  1.00  0.00    -0.015 A 
ATOM     30  C   UNL     1      42.782 126.386  24.624  1.00  0.00     0.001 A 
ATOM     31  C   UNL     1      41.416 126.728  24.516  1.00  0.00    -0.001 A 
ENDBRANCH  20  23
ENDBRANCH   5  20
BRANCH   4  32
ATOM     32  C   UNL     1      41.617 132.596  19.905  1.00  0.00     0.077 C 
ATOM     33  O   UNL     1      40.672 132.357  19.108  1.00  0.00    -0.545 OA
ATOM     34  O   UNL     1      41.391 133.454  20.975  1.00  0.00    -0.545 OA
ENDBRANCH   4  32
TORSDOF 6
ENDMDL
MODEL 5
REMARK VINA RESULT:      -5.0      0.857      1.298
REMARK SMILES Nc1c([C@@H]2O[C@H]2c2ccccc2)cc(C(=O)[O-])c([NH2+]c2cc3ccccc3[n-]2)c1[O-]
REMARK SMILES IDX 2 1 3 2 13 3 14 4 18 5 29 6 30 7 1 8 4 11 5 12 6 13 7 14
REMARK SMILES IDX 8 15 12 16 9 17 11 18 10 19 19 20 20 23 21 24 28 25 22 26
REMARK SMILES IDX 27 27 23 28 26 29 24 30 25 31 15 32 16 33 17 34
REMARK H PARENT 1 9 1 10 19 21 19 22
ROOT
ATOM      1  C   UNL     1      45.468 128.731  21.336  1.00  0.00     0.035 A 
ATOM      2  C   UNL     1      45.199 130.053  20.927  1.00  0.00     0.007 A 
ATOM      3  C   UNL     1      44.346 130.854  21.695  1.00  0.00     0.024 A 
ATOM      4  C   UNL     1      43.781 130.387  22.890  1.00  0.00     0.058 A 
ATOM      5  C   UNL     1      44.084 129.070  23.338  1.00  0.00     0.136 A 
ATOM      6  C   UNL     1      44.929 128.257  22.546  1.00  0.00    -0.020 A 
ATOM      7  O   UNL     1      45.242 126.967  22.966  1.00  0.00    -0.867 OA
ENDROOT
BRANCH   1   8
ATOM      8  N   UNL     1      46.281 127.861  20.533  1.00  0.00    -0.399 N 
ATOM      9  H   UNL     1      46.479 128.060  19.528  1.00  0.00     0.156 HD
ATOM     10  H   UNL     1      46.672 126.974  20.920  1.00  0.00     0.156 HD
ENDBRANCH   1   8
BRANCH   2  11
ATOM     11  C   UNL     1      45.761 130.613  19.649  1.00  0.00     0.185 C 
ATOM     12  O   UNL     1      45.156 131.841  19.307  1.00  0.00    -0.359 OA
ATOM     13  C   UNL     1      44.813 130.731  18.510  1.00  0.00     0.183 C 
BRANCH  13  14
ATOM     14  C   UNL     1      45.440 130.808  17.151  1.00  0.00    -0.016 A 
ATOM     15  C   UNL     1      45.720 132.053  16.566  1.00  0.00     0.006 A 
ATOM     16  C   UNL     1      45.695 129.631  16.431  1.00  0.00     0.006 A 
ATOM     17  C   UNL     1      46.276 132.115  15.284  1.00  0.00     0.000 A 
ATOM     18  C   UNL     1      46.252 129.697  15.150  1.00  0.00     0.000 A 
ATOM     19  C   UNL     1      46.545 130.940  14.578  1.00  0.00     0.000 A 
ENDBRANCH  13  14
ENDBRANCH   2  11
BRANCH   5  20
ATOM     20  N   UNL     1      43.623 128.580  24.623  1.00  0.00    -0.299 N 
ATOM     21  H   UNL     1      44.378 128.057  25.116  1.00  0.00     0.356 HD
ATOM     22  H   UNL     1      43.365 129.363  25.266  1.00  0.00     0.356 HD
BRANCH  20  23
ATOM     23  C   UNL     1      42.466 127.749  24.446  1.00  0.00     0.036 A 
ATOM     24  C   UNL     1      42.508 126.369  24.257  1.00  0.00     0.050 A 
ATOM     25  N   UNL     1      41.198 128.227  24.481  1.00  0.00    -0.610 NA
ATOM     26  C   UNL     1      41.188 125.999  24.173  1.00  0.00    -0.036 A 
ATOM     27  C   UNL     1      40.432 127.135  24.310  1.00  0.00    -0.125 A 
ATOM     28  C   UNL     1      40.610 124.743  23.998  1.00  0.00     0.007 A 
ATOM     29  C   UNL     1      39.040 127.090  24.279  1.00  0.00    -0.015 A 
ATOM     30  C   UNL     1      39.206 124.668  23.960  1.00  0.00     0.001 A 
ATOM     31  C   UNL     1      38.424 125.837  24.101  1.00  0.00    -0.001 A 
ENDBRANCH  20  23
ENDBRANCH   5  20
BRANCH   4  32
ATOM     32  C   UNL     1      42.911 131.324  23.640  1.00  0.00     0.077 C 
ATOM     33  O   UNL     1      41.781 130.968  24.065  1.00  0.00    -0.545 OA
ATOM     34  O   UNL     1      43.315 132.640  23.832  1.00  0.00    -0.545 OA
ENDBRANCH   4  32
TORSDOF 6
ENDMDL
MODEL 6
REMARK VINA RESULT:      -4.7      1.539      2.422
REMARK SMILES Nc1c([C@@H]2O[C@H]2c2ccccc2)cc(C(=O)[O-])c([NH2+]c2cc3ccccc3[n-]2)c1[O-]
REMARK SMILES IDX 2 1 3 2 13 3 14 4 18 5 29 6 30 7 1 8 4 11 5 12 6 13 7 14
REMARK SMILES IDX 8 15 12 16 9 17 11 18 10 19 19 20 20 23 21 24 28 25 22 26
REMARK SMILES IDX 27 27 23 28 26 29 24 30 25 31 15 32 16 33 17 34
REMARK H PARENT 1 9 1 10 19 21 19 22
ROOT
ATOM      1  C   UNL     1      45.229 130.723  19.739  1.00  0.00     0.035 A 
ATOM      2  C   UNL     1      44.536 131.541  18.823  1.00  0.00     0.007 A 
ATOM      3  C   UNL     1      43.404 132.246  19.246  1.00  0.00     0.024 A 
ATOM      4  C   UNL     1      42.961 132.194  20.574  1.00  0.00     0.058 A 
ATOM      5  C   UNL     1      43.681 131.410  21.520  1.00  0.00     0.136 A 
ATOM      6  C   UNL     1      44.813 130.681  21.082  1.00  0.00    -0.020 A 
ATOM      7  O   UNL     1      45.534 129.910  21.990  1.00  0.00    -0.867 OA
ENDROOT
BRANCH   1   8
ATOM      8  N   UNL     1      46.351 129.932  19.319  1.00  0.00    -0.399 N 
ATOM      9  H   UNL     1      46.440 128.923  19.565  1.00  0.00     0.156 HD
ATOM     10  H   UNL     1      47.142 130.354  18.782  1.00  0.00     0.156 HD
ENDBRANCH   1   8
BRANCH   2  11
ATOM     11  C   UNL     1      44.949 131.632  17.379  1.00  0.00     0.185 C 
ATOM     12  O   UNL     1      43.892 131.283  16.512  1.00  0.00    -0.359 OA
ATOM     13  C   UNL     1      44.949 130.357  16.614  1.00  0.00     0.183 C 
BRANCH  13  14
ATOM     14  C   UNL     1      45.799 130.345  15.378  1.00  0.00    -0.016 A 
ATOM     15  C   UNL     1      46.876 129.453  15.265  1.00  0.00     0.006 A 
ATOM     16  C   UNL     1      45.555 131.271  14.353  1.00  0.00     0.006 A 
ATOM     17  C   UNL     1      47.683 129.470  14.123  1.00  0.00     0.000 A 
ATOM     18  C   UNL     1      46.363 131.284  13.211  1.00  0.00     0.000 A 
ATOM     19  C   UNL     1      47.426 130.382  13.096  1.00  0.00     0.000 A 
ENDBRANCH  13  14
ENDBRANCH   2  11
BRANCH   5  20
ATOM     20  N   UNL     1      43.338 131.415  22.929  1.00  0.00    -0.299 N 
ATOM     21  H   UNL     1      44.128 131.775  23.505  1.00  0.00     0.356 HD
ATOM     22  H   UNL     1      42.537 132.055  23.130  1.00  0.00     0.356 HD
BRANCH  20  23
ATOM     23  C   UNL     1      42.969 130.093  23.349  1.00  0.00     0.036 A 
ATOM     24  C   UNL     1      41.658 129.626  23.426  1.00  0.00     0.050 A 
ATOM     25  N   UNL     1      43.876 129.142  23.683  1.00  0.00    -0.610 NA
ATOM     26  C   UNL     1      41.786 128.321  23.830  1.00  0.00    -0.036 A 
ATOM     27  C   UNL     1      43.126 128.064  23.976  1.00  0.00    -0.125 A 
ATOM     28  C   UNL     1      40.818 127.347  24.067  1.00  0.00     0.007 A 
ATOM     29  C   UNL     1      43.588 126.810  24.371  1.00  0.00    -0.015 A 
ATOM     30  C   UNL     1      41.256 126.072  24.469  1.00  0.00     0.001 A 
ATOM     31  C   UNL     1      42.635 125.804  24.620  1.00  0.00    -0.001 A 
ENDBRANCH  20  23
ENDBRANCH   5  20
BRANCH   4  32
ATOM     32  C   UNL     1      41.766 132.998  20.923  1.00  0.00     0.077 C 
ATOM     33  O   UNL     1      41.014 132.671  21.878  1.00  0.00    -0.545 OA
ATOM     34  O   UNL     1      41.426 134.103  20.151  1.00  0.00    -0.545 OA
ENDBRANCH   4  32
TORSDOF 6
ENDMDL


