REMARK SMILES Cc1ccc(-c2ccc(N(C(=O)CCC(=O)Cl)c3cc4ccccc4[n-]3)c(C=O)c2)cc1
REMARK SMILES IDX 11 1 12 2 10 3 9 4 6 5 7 6 30 7 8 8 27 9 5 10 2 11 3 12
REMARK SMILES IDX 32 13 4 14 31 15 1 16 28 17 29 18 18 19 19 20 26 21 20 22
REMARK SMILES IDX 25 23 21 24 24 25 22 26 23 27 13 28 14 29 15 30 16 31 17 32
REMARK H PARENT
ROOT
ATOM      1  C   UNL     1       1.770  -2.692   0.777  1.00  0.00     0.151 C 
ATOM      2  O   UNL     1       2.801  -2.460   0.091  1.00  0.00    -0.299 OA
ENDROOT
BRANCH   1   3
ATOM      3  N   UNL     1       0.515  -2.109   0.385  1.00  0.00    -0.387 N 
BRANCH   3   4
ATOM      4  C   UNL     1       0.484  -0.714   0.053  1.00  0.00    -0.025 A 
ATOM      5  C   UNL     1       0.331   2.049  -0.492  1.00  0.00    -0.018 A 
ATOM      6  C   UNL     1       0.482   1.589   0.825  1.00  0.00     0.009 A 
ATOM      7  C   UNL     1       0.266   1.112  -1.538  1.00  0.00     0.020 A 
ATOM      8  C   UNL     1       0.557   0.222   1.091  1.00  0.00     0.005 A 
ATOM      9  C   UNL     1       0.347  -0.268  -1.284  1.00  0.00     0.018 A 
BRANCH   5  10
ATOM     10  C   UNL     1       0.248   3.505  -0.774  1.00  0.00    -0.018 A 
ATOM     11  C   UNL     1       0.100   6.270  -1.303  1.00  0.00    -0.051 A 
ATOM     12  C   UNL     1       0.861   5.431  -2.131  1.00  0.00     0.004 A 
ATOM     13  C   UNL     1      -0.568   5.725  -0.198  1.00  0.00     0.004 A 
ATOM     14  C   UNL     1       0.929   4.059  -1.873  1.00  0.00     0.009 A 
ATOM     15  C   UNL     1      -0.499   4.354   0.062  1.00  0.00     0.009 A 
ATOM     16  C   UNL     1       0.061   7.749  -1.552  1.00  0.00     0.044 C 
ENDBRANCH   5  10
BRANCH   9  17
ATOM     17  C   UNL     1       0.301  -1.191  -2.442  1.00  0.00     0.260 C 
ATOM     18  O   UNL     1       0.531  -2.423  -2.322  1.00  0.00    -0.298 OA
ENDBRANCH   9  17
ENDBRANCH   3   4
BRANCH   3  19
ATOM     19  C   UNL     1      -0.714  -2.860   0.395  1.00  0.00    -0.051 A 
ATOM     20  C   UNL     1      -0.803  -4.251   0.372  1.00  0.00     0.008 A 
ATOM     21  N   UNL     1      -1.937  -2.270   0.376  1.00  0.00    -0.435 NA
ATOM     22  C   UNL     1      -2.152  -4.508   0.354  1.00  0.00    -0.023 A 
ATOM     23  C   UNL     1      -2.800  -3.300   0.357  1.00  0.00    -0.034 A 
ATOM     24  C   UNL     1      -2.843  -5.717   0.326  1.00  0.00     0.008 A 
ATOM     25  C   UNL     1      -4.192  -3.221   0.332  1.00  0.00     0.004 A 
ATOM     26  C   UNL     1      -4.249  -5.667   0.305  1.00  0.00     0.001 A 
ATOM     27  C   UNL     1      -4.921  -4.425   0.310  1.00  0.00     0.000 A 
ENDBRANCH   3  19
ENDBRANCH   1   3
BRANCH   1  28
ATOM     28  C   UNL     1       1.886  -3.530   2.020  1.00  0.00     0.086 C 
BRANCH  28  29
ATOM     29  C   UNL     1       2.836  -2.875   3.030  1.00  0.00     0.102 C 
BRANCH  29  30
ATOM     30  C   UNL     1       2.993  -3.664   4.307  1.00  0.00     0.222 C 
ATOM     31  O   UNL     1       3.755  -3.253   5.167  1.00  0.00    -0.281 OA
ATOM     32  Cl  UNL     1       2.121  -5.165   4.612  1.00  0.00    -0.043 Cl
ENDBRANCH  29  30
ENDBRANCH  28  29
ENDBRANCH   1  28
TORSDOF 8


