REMARK SMILES Nc1ccc(-c2ccc3ccnc(O)c3c2)cc1C=O
REMARK SMILES IDX 6 1 7 2 8 3 9 4 10 5 11 6 12 7 13 8 15 9 16 10 5 11 2 12
REMARK SMILES IDX 3 13 18 14 4 15 17 16 1 17 19 20 20 21 14 22
REMARK H PARENT 1 18 1 19 14 23
ROOT
ATOM      1  C   UNL     1       0.061   0.613  -0.084  1.00  0.00    -0.018 A 
ATOM      2  C   UNL     1      -0.029   0.745   1.312  1.00  0.00     0.009 A 
ATOM      3  C   UNL     1      -0.314   1.982   1.894  1.00  0.00     0.009 A 
ATOM      4  C   UNL     1      -0.513   3.112   1.089  1.00  0.00    -0.011 A 
ATOM      5  C   UNL     1      -0.799   4.356   1.664  1.00  0.00     0.029 A 
ATOM      6  C   UNL     1      -0.991   5.465   0.839  1.00  0.00     0.116 A 
ATOM      7  N   UNL     1      -0.902   5.336  -0.510  1.00  0.00    -0.222 NA
ATOM      8  C   UNL     1      -0.626   4.144  -1.107  1.00  0.00     0.218 A 
ATOM      9  C   UNL     1      -0.425   2.996  -0.318  1.00  0.00     0.044 A 
ATOM     10  C   UNL     1      -0.138   1.746  -0.894  1.00  0.00     0.023 A 
ENDROOT
BRANCH   1  11
ATOM     11  C   UNL     1       0.363  -0.707  -0.696  1.00  0.00    -0.018 A 
ATOM     12  C   UNL     1       0.929  -3.225  -1.842  1.00  0.00     0.042 A 
ATOM     13  C   UNL     1       1.621  -2.783  -0.706  1.00  0.00     0.027 A 
ATOM     14  C   UNL     1      -0.036  -2.376  -2.442  1.00  0.00     0.038 A 
ATOM     15  C   UNL     1       1.344  -1.540  -0.138  1.00  0.00     0.011 A 
ATOM     16  C   UNL     1      -0.321  -1.136  -1.845  1.00  0.00     0.022 A 
BRANCH  12  17
ATOM     17  N   UNL     1       1.185  -4.551  -2.326  1.00  0.00    -0.398 N 
ATOM     18  H   UNL     1       1.997  -5.097  -1.961  1.00  0.00     0.156 HD
ATOM     19  H   UNL     1       0.499  -5.066  -2.918  1.00  0.00     0.156 HD
ENDBRANCH  12  17
BRANCH  14  20
ATOM     20  C   UNL     1      -0.746  -2.710  -3.696  1.00  0.00     0.262 C 
ATOM     21  O   UNL     1      -0.251  -3.492  -4.549  1.00  0.00    -0.298 OA
ENDBRANCH  14  20
ENDBRANCH   1  11
BRANCH   8  22
ATOM     22  O   UNL     1      -0.548   4.076  -2.496  1.00  0.00    -0.493 OA
ATOM     23  H   UNL     1      -0.692   4.900  -3.067  1.00  0.00     0.295 HD
ENDBRANCH   8  22
TORSDOF 4


