MODEL 1
REMARK VINA RESULT:      -3.5      0.000      0.000
REMARK SMILES CC(=O)[N@@H+](C)[C@@H](C)C(=O)N(c1cn2ccccc2n1)c1cc2ccccc2[n-]1
REMARK SMILES IDX 6 1 7 2 4 3 5 4 2 6 1 7 3 8 8 9 9 10 10 11 11 12 12 13 19 14
REMARK SMILES IDX 13 15 18 16 14 17 17 18 15 19 16 20 20 21 21 22 28 23 22 24
REMARK SMILES IDX 27 25 23 26 26 27 24 28 25 29
REMARK H PARENT 4 5
ROOT
ATOM      1  C   UNL     1      44.401 132.424  22.602  1.00  0.00     0.257 C 
ATOM      2  C   UNL     1      44.870 132.292  24.068  1.00  0.00     0.085 C 
ENDROOT
BRANCH   1   3
ATOM      3  N   UNL     1      43.108 131.737  22.306  1.00  0.00    -0.266 N 
ATOM      4  C   UNL     1      42.335 132.410  21.244  1.00  0.00     0.341 C 
ATOM      5  H   UNL     1      43.356 130.805  21.889  1.00  0.00     0.357 HD
BRANCH   3   6
ATOM      6  C   UNL     1      42.300 131.458  23.488  1.00  0.00     0.309 C 
ATOM      7  C   UNL     1      41.909 130.062  23.911  1.00  0.00     0.164 C 
ATOM      8  O   UNL     1      41.901 132.391  24.172  1.00  0.00    -0.231 OA
ENDBRANCH   3   6
ENDBRANCH   1   3
BRANCH   1   9
ATOM      9  C   UNL     1      45.494 131.942  21.657  1.00  0.00     0.210 C 
ATOM     10  O   UNL     1      46.588 132.574  21.632  1.00  0.00    -0.292 OA
BRANCH   9  11
ATOM     11  N   UNL     1      45.351 130.714  20.897  1.00  0.00    -0.366 N 
BRANCH  11  12
ATOM     12  C   UNL     1      45.321 129.431  21.554  1.00  0.00     0.077 A 
ATOM     13  C   UNL     1      46.077 128.317  21.207  1.00  0.00     0.117 A 
ATOM     14  N   UNL     1      44.452 129.123  22.552  1.00  0.00    -0.233 NA
ATOM     15  N   UNL     1      45.680 127.320  22.010  1.00  0.00    -0.307 N 
ATOM     16  C   UNL     1      44.718 127.825  22.801  1.00  0.00     0.136 A 
ATOM     17  C   UNL     1      46.086 126.026  22.055  1.00  0.00     0.093 A 
ATOM     18  C   UNL     1      44.075 127.023  23.746  1.00  0.00     0.048 A 
ATOM     19  C   UNL     1      45.476 125.172  22.988  1.00  0.00     0.018 A 
ATOM     20  C   UNL     1      44.468 125.677  23.835  1.00  0.00     0.005 A 
ENDBRANCH  11  12
BRANCH  11  21
ATOM     21  C   UNL     1      45.277 130.736  19.461  1.00  0.00    -0.049 A 
ATOM     22  C   UNL     1      44.359 131.493  18.734  1.00  0.00     0.008 A 
ATOM     23  N   UNL     1      46.133 130.055  18.661  1.00  0.00    -0.435 NA
ATOM     24  C   UNL     1      44.671 131.238  17.423  1.00  0.00    -0.023 A 
ATOM     25  C   UNL     1      45.738 130.376  17.414  1.00  0.00    -0.034 A 
ATOM     26  C   UNL     1      44.089 131.701  16.245  1.00  0.00     0.008 A 
ATOM     27  C   UNL     1      46.300 129.921  16.220  1.00  0.00     0.004 A 
ATOM     28  C   UNL     1      44.632 131.255  15.025  1.00  0.00     0.001 A 
ATOM     29  C   UNL     1      45.732 130.369  15.013  1.00  0.00     0.000 A 
ENDBRANCH  11  21
ENDBRANCH   9  11
ENDBRANCH   1   9
TORSDOF 6
ENDMDL
MODEL 2
REMARK VINA RESULT:      -3.0      0.708      5.773
REMARK SMILES CC(=O)[N@@H+](C)[C@@H](C)C(=O)N(c1cn2ccccc2n1)c1cc2ccccc2[n-]1
REMARK SMILES IDX 6 1 7 2 4 3 5 4 2 6 1 7 3 8 8 9 9 10 10 11 11 12 12 13 19 14
REMARK SMILES IDX 13 15 18 16 14 17 17 18 15 19 16 20 20 21 21 22 28 23 22 24
REMARK SMILES IDX 27 25 23 26 26 27 24 28 25 29
REMARK H PARENT 4 5
ROOT
ATOM      1  C   UNL     1      44.361 132.333  22.684  1.00  0.00     0.257 C 
ATOM      2  C   UNL     1      44.827 131.991  24.116  1.00  0.00     0.085 C 
ENDROOT
BRANCH   1   3
ATOM      3  N   UNL     1      43.043 131.738  22.307  1.00  0.00    -0.266 N 
ATOM      4  C   UNL     1      42.417 132.422  21.159  1.00  0.00     0.341 C 
ATOM      5  H   UNL     1      43.245 130.772  21.950  1.00  0.00     0.357 HD
BRANCH   3   6
ATOM      6  C   UNL     1      42.123 131.580  23.428  1.00  0.00     0.309 C 
ATOM      7  C   UNL     1      41.160 132.659  23.865  1.00  0.00     0.164 C 
ATOM      8  O   UNL     1      42.129 130.533  24.062  1.00  0.00    -0.231 OA
ENDBRANCH   3   6
ENDBRANCH   1   3
BRANCH   1   9
ATOM      9  C   UNL     1      45.434 131.941  21.675  1.00  0.00     0.210 C 
ATOM     10  O   UNL     1      46.493 132.628  21.627  1.00  0.00    -0.292 OA
BRANCH   9  11
ATOM     11  N   UNL     1      45.319 130.734  20.877  1.00  0.00    -0.366 N 
BRANCH  11  12
ATOM     12  C   UNL     1      45.282 130.795  19.437  1.00  0.00     0.077 A 
ATOM     13  C   UNL     1      44.355 131.495  18.673  1.00  0.00     0.117 A 
ATOM     14  N   UNL     1      46.109 130.073  18.637  1.00  0.00    -0.233 NA
ATOM     15  N   UNL     1      44.625 131.214  17.391  1.00  0.00    -0.307 N 
ATOM     16  C   UNL     1      45.672 130.371  17.396  1.00  0.00     0.136 A 
ATOM     17  C   UNL     1      43.996 131.622  16.260  1.00  0.00     0.093 A 
ATOM     18  C   UNL     1      46.190 129.866  16.203  1.00  0.00     0.048 A 
ATOM     19  C   UNL     1      44.475 131.147  15.028  1.00  0.00     0.018 A 
ATOM     20  C   UNL     1      45.577 130.267  15.004  1.00  0.00     0.005 A 
ENDBRANCH  11  12
BRANCH  11  21
ATOM     21  C   UNL     1      45.196 129.444  21.500  1.00  0.00    -0.049 A 
ATOM     22  C   UNL     1      46.036 128.363  21.239  1.00  0.00     0.008 A 
ATOM     23  N   UNL     1      44.272 129.162  22.450  1.00  0.00    -0.435 NA
ATOM     24  C   UNL     1      45.580 127.370  22.067  1.00  0.00    -0.023 A 
ATOM     25  C   UNL     1      44.525 127.881  22.779  1.00  0.00    -0.034 A 
ATOM     26  C   UNL     1      46.017 126.058  22.237  1.00  0.00     0.008 A 
ATOM     27  C   UNL     1      43.837 127.111  23.719  1.00  0.00     0.004 A 
ATOM     28  C   UNL     1      45.338 125.256  23.174  1.00  0.00     0.001 A 
ATOM     29  C   UNL     1      44.253 125.780  23.911  1.00  0.00     0.000 A 
ENDBRANCH  11  21
ENDBRANCH   9  11
ENDBRANCH   1   9
TORSDOF 6
ENDMDL
MODEL 3
REMARK VINA RESULT:      -2.9      0.802      5.755
REMARK SMILES CC(=O)[N@@H+](C)[C@@H](C)C(=O)N(c1cn2ccccc2n1)c1cc2ccccc2[n-]1
REMARK SMILES IDX 6 1 7 2 4 3 5 4 2 6 1 7 3 8 8 9 9 10 10 11 11 12 12 13 19 14
REMARK SMILES IDX 13 15 18 16 14 17 17 18 15 19 16 20 20 21 21 22 28 23 22 24
REMARK SMILES IDX 27 25 23 26 26 27 24 28 25 29
REMARK H PARENT 4 5
ROOT
ATOM      1  C   UNL     1      44.402 132.324  22.507  1.00  0.00     0.257 C 
ATOM      2  C   UNL     1      44.902 132.103  23.952  1.00  0.00     0.085 C 
ENDROOT
BRANCH   1   3
ATOM      3  N   UNL     1      43.090 131.677  22.205  1.00  0.00    -0.266 N 
ATOM      4  C   UNL     1      42.381 132.323  21.083  1.00  0.00     0.341 C 
ATOM      5  H   UNL     1      43.309 130.714  21.847  1.00  0.00     0.357 HD
BRANCH   3   6
ATOM      6  C   UNL     1      42.234 131.499  23.372  1.00  0.00     0.309 C 
ATOM      7  C   UNL     1      41.464 132.629  24.013  1.00  0.00     0.164 C 
ATOM      8  O   UNL     1      42.135 130.387  23.876  1.00  0.00    -0.231 OA
ENDBRANCH   3   6
ENDBRANCH   1   3
BRANCH   1   9
ATOM      9  C   UNL     1      45.463 131.876  21.510  1.00  0.00     0.210 C 
ATOM     10  O   UNL     1      46.532 132.544  21.430  1.00  0.00    -0.292 OA
BRANCH   9  11
ATOM     11  N   UNL     1      45.325 130.641  20.760  1.00  0.00    -0.366 N 
BRANCH  11  12
ATOM     12  C   UNL     1      45.231 130.651  19.321  1.00  0.00     0.077 A 
ATOM     13  C   UNL     1      46.118 130.042  18.440  1.00  0.00     0.117 A 
ATOM     14  N   UNL     1      44.297 131.363  18.638  1.00  0.00    -0.233 NA
ATOM     15  N   UNL     1      45.715 130.369  17.204  1.00  0.00    -0.307 N 
ATOM     16  C   UNL     1      44.631 131.150  17.349  1.00  0.00     0.136 A 
ATOM     17  C   UNL     1      46.257 130.052  16.001  1.00  0.00     0.093 A 
ATOM     18  C   UNL     1      43.979 131.681  16.235  1.00  0.00     0.048 A 
ATOM     19  C   UNL     1      45.642 130.557  14.844  1.00  0.00     0.018 A 
ATOM     20  C   UNL     1      44.499 131.373  14.967  1.00  0.00     0.005 A 
ENDBRANCH  11  12
BRANCH  11  21
ATOM     21  C   UNL     1      45.236 129.373  21.432  1.00  0.00    -0.049 A 
ATOM     22  C   UNL     1      46.062 128.283  21.163  1.00  0.00     0.008 A 
ATOM     23  N   UNL     1      44.364 129.125  22.439  1.00  0.00    -0.435 NA
ATOM     24  C   UNL     1      45.650 127.319  22.048  1.00  0.00    -0.023 A 
ATOM     25  C   UNL     1      44.634 127.855  22.797  1.00  0.00    -0.034 A 
ATOM     26  C   UNL     1      46.097 126.013  22.239  1.00  0.00     0.008 A 
ATOM     27  C   UNL     1      43.998 127.119  23.798  1.00  0.00     0.004 A 
ATOM     28  C   UNL     1      45.468 125.245  23.238  1.00  0.00     0.001 A 
ATOM     29  C   UNL     1      44.424 125.795  24.013  1.00  0.00     0.000 A 
ENDBRANCH  11  21
ENDBRANCH   9  11
ENDBRANCH   1   9
TORSDOF 6
ENDMDL
MODEL 4
REMARK VINA RESULT:      -2.7      2.885      5.211
REMARK SMILES CC(=O)[N@@H+](C)[C@@H](C)C(=O)N(c1cn2ccccc2n1)c1cc2ccccc2[n-]1
REMARK SMILES IDX 6 1 7 2 4 3 5 4 2 6 1 7 3 8 8 9 9 10 10 11 11 12 12 13 19 14
REMARK SMILES IDX 13 15 18 16 14 17 17 18 15 19 16 20 20 21 21 22 28 23 22 24
REMARK SMILES IDX 27 25 23 26 26 27 24 28 25 29
REMARK H PARENT 4 5
ROOT
ATOM      1  C   UNL     1      43.361 131.042  22.055  1.00  0.00     0.257 C 
ATOM      2  C   UNL     1      42.164 132.007  21.900  1.00  0.00     0.085 C 
ENDROOT
BRANCH   1   3
ATOM      3  N   UNL     1      43.150 129.957  23.060  1.00  0.00    -0.266 N 
ATOM      4  C   UNL     1      42.585 130.458  24.329  1.00  0.00     0.341 C 
ATOM      5  H   UNL     1      42.398 129.336  22.674  1.00  0.00     0.357 HD
BRANCH   3   6
ATOM      6  C   UNL     1      44.318 129.109  23.270  1.00  0.00     0.309 C 
ATOM      7  C   UNL     1      44.978 128.323  22.162  1.00  0.00     0.164 C 
ATOM      8  O   UNL     1      44.789 129.008  24.396  1.00  0.00    -0.231 OA
ENDBRANCH   3   6
ENDBRANCH   1   3
BRANCH   1   9
ATOM      9  C   UNL     1      44.629 131.826  22.369  1.00  0.00     0.210 C 
ATOM     10  O   UNL     1      44.939 132.007  23.580  1.00  0.00    -0.292 OA
BRANCH   9  11
ATOM     11  N   UNL     1      45.541 132.243  21.319  1.00  0.00    -0.366 N 
BRANCH  11  12
ATOM     12  C   UNL     1      46.589 133.198  21.580  1.00  0.00     0.077 A 
ATOM     13  C   UNL     1      46.763 134.417  20.934  1.00  0.00     0.117 A 
ATOM     14  N   UNL     1      47.615 132.966  22.440  1.00  0.00    -0.233 NA
ATOM     15  N   UNL     1      47.897 134.946  21.413  1.00  0.00    -0.307 N 
ATOM     16  C   UNL     1      48.382 134.067  22.307  1.00  0.00     0.136 A 
ATOM     17  C   UNL     1      48.521 136.106  21.088  1.00  0.00     0.093 A 
ATOM     18  C   UNL     1      49.581 134.315  22.976  1.00  0.00     0.048 A 
ATOM     19  C   UNL     1      49.732 136.410  21.731  1.00  0.00     0.018 A 
ATOM     20  C   UNL     1      50.259 135.509  22.679  1.00  0.00     0.005 A 
ENDBRANCH  11  12
BRANCH  11  21
ATOM     21  C   UNL     1      45.399 131.749  19.976  1.00  0.00    -0.049 A 
ATOM     22  C   UNL     1      44.557 132.309  19.018  1.00  0.00     0.008 A 
ATOM     23  N   UNL     1      46.115 130.706  19.489  1.00  0.00    -0.435 NA
ATOM     24  C   UNL     1      44.767 131.549  17.895  1.00  0.00    -0.023 A 
ATOM     25  C   UNL     1      45.706 130.601  18.210  1.00  0.00    -0.034 A 
ATOM     26  C   UNL     1      44.195 131.627  16.627  1.00  0.00     0.008 A 
ATOM     27  C   UNL     1      46.142 129.665  17.271  1.00  0.00     0.004 A 
ATOM     28  C   UNL     1      44.612 130.692  15.661  1.00  0.00     0.001 A 
ATOM     29  C   UNL     1      45.580 129.716  15.982  1.00  0.00     0.000 A 
ENDBRANCH  11  21
ENDBRANCH   9  11
ENDBRANCH   1   9
TORSDOF 6
ENDMDL
MODEL 5
REMARK VINA RESULT:      -2.4      2.862      5.910
REMARK SMILES CC(=O)[N@@H+](C)[C@@H](C)C(=O)N(c1cn2ccccc2n1)c1cc2ccccc2[n-]1
REMARK SMILES IDX 6 1 7 2 4 3 5 4 2 6 1 7 3 8 8 9 9 10 10 11 11 12 12 13 19 14
REMARK SMILES IDX 13 15 18 16 14 17 17 18 15 19 16 20 20 21 21 22 28 23 22 24
REMARK SMILES IDX 27 25 23 26 26 27 24 28 25 29
REMARK H PARENT 4 5
ROOT
ATOM      1  C   UNL     1      43.554 130.757  22.004  1.00  0.00     0.257 C 
ATOM      2  C   UNL     1      42.302 131.510  21.502  1.00  0.00     0.085 C 
ENDROOT
BRANCH   1   3
ATOM      3  N   UNL     1      43.316 129.899  23.203  1.00  0.00    -0.266 N 
ATOM      4  C   UNL     1      42.920 130.678  24.392  1.00  0.00     0.341 C 
ATOM      5  H   UNL     1      42.471 129.315  22.987  1.00  0.00     0.357 HD
BRANCH   3   6
ATOM      6  C   UNL     1      44.400 128.965  23.488  1.00  0.00     0.309 C 
ATOM      7  C   UNL     1      44.994 128.046  22.447  1.00  0.00     0.164 C 
ATOM      8  O   UNL     1      44.851 128.903  24.625  1.00  0.00    -0.231 OA
ENDBRANCH   3   6
ENDBRANCH   1   3
BRANCH   1   9
ATOM      9  C   UNL     1      44.688 131.741  22.265  1.00  0.00     0.210 C 
ATOM     10  O   UNL     1      44.939 132.066  23.460  1.00  0.00    -0.292 OA
BRANCH   9  11
ATOM     11  N   UNL     1      45.555 132.198  21.194  1.00  0.00    -0.366 N 
BRANCH  11  12
ATOM     12  C   UNL     1      45.410 131.693  19.852  1.00  0.00     0.077 A 
ATOM     13  C   UNL     1      46.126 130.640  19.293  1.00  0.00     0.117 A 
ATOM     14  N   UNL     1      44.607 132.270  18.919  1.00  0.00    -0.233 NA
ATOM     15  N   UNL     1      45.747 130.558  18.010  1.00  0.00    -0.307 N 
ATOM     16  C   UNL     1      44.843 131.533  17.814  1.00  0.00     0.136 A 
ATOM     17  C   UNL     1      46.169 129.719  17.031  1.00  0.00     0.093 A 
ATOM     18  C   UNL     1      44.266 131.732  16.559  1.00  0.00     0.048 A 
ATOM     19  C   UNL     1      45.621 129.870  15.747  1.00  0.00     0.018 A 
ATOM     20  C   UNL     1      44.665 130.881  15.515  1.00  0.00     0.005 A 
ENDBRANCH  11  12
BRANCH  11  21
ATOM     21  C   UNL     1      46.613 133.138  21.449  1.00  0.00    -0.049 A 
ATOM     22  C   UNL     1      47.687 132.898  22.305  1.00  0.00     0.008 A 
ATOM     23  N   UNL     1      46.699 134.345  20.839  1.00  0.00    -0.435 NA
ATOM     24  C   UNL     1      48.452 134.033  22.217  1.00  0.00    -0.023 A 
ATOM     25  C   UNL     1      47.835 134.877  21.330  1.00  0.00    -0.034 A 
ATOM     26  C   UNL     1      49.641 134.377  22.856  1.00  0.00     0.008 A 
ATOM     27  C   UNL     1      48.371 136.128  21.018  1.00  0.00     0.004 A 
ATOM     28  C   UNL     1      50.202 135.635  22.565  1.00  0.00     0.001 A 
ATOM     29  C   UNL     1      49.570 136.506  21.650  1.00  0.00     0.000 A 
ENDBRANCH  11  21
ENDBRANCH   9  11
ENDBRANCH   1   9
TORSDOF 6
ENDMDL
MODEL 6
REMARK VINA RESULT:      -2.2      3.041      5.445
REMARK SMILES CC(=O)[N@@H+](C)[C@@H](C)C(=O)N(c1cn2ccccc2n1)c1cc2ccccc2[n-]1
REMARK SMILES IDX 6 1 7 2 4 3 5 4 2 6 1 7 3 8 8 9 9 10 10 11 11 12 12 13 19 14
REMARK SMILES IDX 13 15 18 16 14 17 17 18 15 19 16 20 20 21 21 22 28 23 22 24
REMARK SMILES IDX 27 25 23 26 26 27 24 28 25 29
REMARK H PARENT 4 5
ROOT
ATOM      1  C   UNL     1      43.748 130.767  22.153  1.00  0.00     0.257 C 
ATOM      2  C   UNL     1      42.428 131.424  21.692  1.00  0.00     0.085 C 
ENDROOT
BRANCH   1   3
ATOM      3  N   UNL     1      43.611 129.881  23.347  1.00  0.00    -0.266 N 
ATOM      4  C   UNL     1      43.757 130.613  24.620  1.00  0.00     0.341 C 
ATOM      5  H   UNL     1      42.615 129.548  23.357  1.00  0.00     0.357 HD
BRANCH   3   6
ATOM      6  C   UNL     1      44.445 128.685  23.297  1.00  0.00     0.309 C 
ATOM      7  C   UNL     1      45.205 128.259  22.063  1.00  0.00     0.164 C 
ATOM      8  O   UNL     1      44.532 127.976  24.291  1.00  0.00    -0.231 OA
ENDBRANCH   3   6
ENDBRANCH   1   3
BRANCH   1   9
ATOM      9  C   UNL     1      44.808 131.835  22.396  1.00  0.00     0.210 C 
ATOM     10  O   UNL     1      44.990 132.242  23.578  1.00  0.00    -0.292 OA
BRANCH   9  11
ATOM     11  N   UNL     1      45.686 132.287  21.332  1.00  0.00    -0.366 N 
BRANCH  11  12
ATOM     12  C   UNL     1      46.714 133.265  21.582  1.00  0.00     0.077 A 
ATOM     13  C   UNL     1      46.874 134.473  20.910  1.00  0.00     0.117 A 
ATOM     14  N   UNL     1      47.736 133.070  22.456  1.00  0.00    -0.233 NA
ATOM     15  N   UNL     1      47.994 135.032  21.388  1.00  0.00    -0.307 N 
ATOM     16  C   UNL     1      48.485 134.182  22.306  1.00  0.00     0.136 A 
ATOM     17  C   UNL     1      48.601 136.195  21.042  1.00  0.00     0.093 A 
ATOM     18  C   UNL     1      49.673 134.466  22.981  1.00  0.00     0.048 A 
ATOM     19  C   UNL     1      49.800 136.535  21.690  1.00  0.00     0.018 A 
ATOM     20  C   UNL     1      50.333 135.664  22.663  1.00  0.00     0.005 A 
ENDBRANCH  11  12
BRANCH  11  21
ATOM     21  C   UNL     1      45.529 131.802  19.987  1.00  0.00    -0.049 A 
ATOM     22  C   UNL     1      46.222 130.714  19.460  1.00  0.00     0.008 A 
ATOM     23  N   UNL     1      44.647 132.329  19.105  1.00  0.00    -0.435 NA
ATOM     24  C   UNL     1      45.741 130.592  18.181  1.00  0.00    -0.023 A 
ATOM     25  C   UNL     1      44.799 131.572  18.001  1.00  0.00    -0.034 A 
ATOM     26  C   UNL     1      46.070 129.692  17.170  1.00  0.00     0.008 A 
ATOM     27  C   UNL     1      44.115 131.715  16.793  1.00  0.00     0.004 A 
ATOM     28  C   UNL     1      45.400 129.816  15.938  1.00  0.00     0.001 A 
ATOM     29  C   UNL     1      44.427 130.822  15.751  1.00  0.00     0.000 A 
ENDBRANCH  11  21
ENDBRANCH   9  11
ENDBRANCH   1   9
TORSDOF 6
ENDMDL
MODEL 7
REMARK VINA RESULT:      -1.9      2.226      3.743
REMARK SMILES CC(=O)[N@@H+](C)[C@@H](C)C(=O)N(c1cn2ccccc2n1)c1cc2ccccc2[n-]1
REMARK SMILES IDX 6 1 7 2 4 3 5 4 2 6 1 7 3 8 8 9 9 10 10 11 11 12 12 13 19 14
REMARK SMILES IDX 13 15 18 16 14 17 17 18 15 19 16 20 20 21 21 22 28 23 22 24
REMARK SMILES IDX 27 25 23 26 26 27 24 28 25 29
REMARK H PARENT 4 5
ROOT
ATOM      1  C   UNL     1      47.057 133.251  21.365  1.00  0.00     0.257 C 
ATOM      2  C   UNL     1      48.207 132.229  21.221  1.00  0.00     0.085 C 
ENDROOT
BRANCH   1   3
ATOM      3  N   UNL     1      47.439 134.514  22.064  1.00  0.00    -0.266 N 
ATOM      4  C   UNL     1      47.519 135.670  21.150  1.00  0.00     0.341 C 
ATOM      5  H   UNL     1      46.642 134.751  22.706  1.00  0.00     0.357 HD
BRANCH   3   6
ATOM      6  C   UNL     1      48.624 134.390  22.906  1.00  0.00     0.309 C 
ATOM      7  C   UNL     1      49.871 135.217  22.705  1.00  0.00     0.164 C 
ATOM      8  O   UNL     1      48.627 133.570  23.816  1.00  0.00    -0.231 OA
ENDBRANCH   3   6
ENDBRANCH   1   3
BRANCH   1   9
ATOM      9  C   UNL     1      45.860 132.600  22.047  1.00  0.00     0.210 C 
ATOM     10  O   UNL     1      45.415 133.125  23.107  1.00  0.00    -0.292 OA
BRANCH   9  11
ATOM     11  N   UNL     1      45.154 131.487  21.439  1.00  0.00    -0.366 N 
BRANCH  11  12
ATOM     12  C   UNL     1      44.469 130.510  22.248  1.00  0.00     0.077 A 
ATOM     13  C   UNL     1      44.868 129.194  22.451  1.00  0.00     0.117 A 
ATOM     14  N   UNL     1      43.266 130.738  22.838  1.00  0.00    -0.233 NA
ATOM     15  N   UNL     1      43.911 128.613  23.188  1.00  0.00    -0.307 N 
ATOM     16  C   UNL     1      42.973 129.551  23.406  1.00  0.00     0.136 A 
ATOM     17  C   UNL     1      43.810 127.334  23.630  1.00  0.00     0.093 A 
ATOM     18  C   UNL     1      41.819 129.252  24.132  1.00  0.00     0.048 A 
ATOM     19  C   UNL     1      42.670 126.976  24.368  1.00  0.00     0.018 A 
ATOM     20  C   UNL     1      41.674 127.942  24.619  1.00  0.00     0.005 A 
ENDBRANCH  11  12
BRANCH  11  21
ATOM     21  C   UNL     1      45.150 131.303  20.013  1.00  0.00    -0.049 A 
ATOM     22  C   UNL     1      46.020 130.456  19.329  1.00  0.00     0.008 A 
ATOM     23  N   UNL     1      44.260 131.905  19.188  1.00  0.00    -0.435 NA
ATOM     24  C   UNL     1      45.641 130.568  18.016  1.00  0.00    -0.023 A 
ATOM     25  C   UNL     1      44.584 131.441  17.966  1.00  0.00    -0.034 A 
ATOM     26  C   UNL     1      46.155 129.967  16.869  1.00  0.00     0.008 A 
ATOM     27  C   UNL     1      43.964 131.768  16.759  1.00  0.00     0.004 A 
ATOM     28  C   UNL     1      45.552 130.283  15.637  1.00  0.00     0.001 A 
ATOM     29  C   UNL     1      44.462 131.179  15.582  1.00  0.00     0.000 A 
ENDBRANCH  11  21
ENDBRANCH   9  11
ENDBRANCH   1   9
TORSDOF 6
ENDMDL
MODEL 8
REMARK VINA RESULT:      -1.9      0.993      5.770
REMARK SMILES CC(=O)[N@@H+](C)[C@@H](C)C(=O)N(c1cn2ccccc2n1)c1cc2ccccc2[n-]1
REMARK SMILES IDX 6 1 7 2 4 3 5 4 2 6 1 7 3 8 8 9 9 10 10 11 11 12 12 13 19 14
REMARK SMILES IDX 13 15 18 16 14 17 17 18 15 19 16 20 20 21 21 22 28 23 22 24
REMARK SMILES IDX 27 25 23 26 26 27 24 28 25 29
REMARK H PARENT 4 5
ROOT
ATOM      1  C   UNL     1      43.143 131.817  21.838  1.00  0.00     0.257 C 
ATOM      2  C   UNL     1      42.336 132.783  20.942  1.00  0.00     0.085 C 
ENDROOT
BRANCH   1   3
ATOM      3  N   UNL     1      43.087 132.138  23.296  1.00  0.00    -0.266 N 
ATOM      4  C   UNL     1      44.384 131.943  23.973  1.00  0.00     0.341 C 
ATOM      5  H   UNL     1      42.916 133.172  23.365  1.00  0.00     0.357 HD
BRANCH   3   6
ATOM      6  C   UNL     1      41.989 131.490  24.004  1.00  0.00     0.309 C 
ATOM      7  C   UNL     1      42.094 130.108  24.605  1.00  0.00     0.164 C 
ATOM      8  O   UNL     1      40.920 132.077  24.113  1.00  0.00    -0.231 OA
ENDBRANCH   3   6
ENDBRANCH   1   3
BRANCH   1   9
ATOM      9  C   UNL     1      44.588 131.741  21.360  1.00  0.00     0.210 C 
ATOM     10  O   UNL     1      45.379 132.668  21.693  1.00  0.00    -0.292 OA
BRANCH   9  11
ATOM     11  N   UNL     1      45.092 130.577  20.655  1.00  0.00    -0.366 N 
BRANCH  11  12
ATOM     12  C   UNL     1      45.400 130.636  19.248  1.00  0.00     0.077 A 
ATOM     13  C   UNL     1      45.163 131.716  18.404  1.00  0.00     0.117 A 
ATOM     14  N   UNL     1      45.876 129.577  18.542  1.00  0.00    -0.233 NA
ATOM     15  N   UNL     1      45.513 131.322  17.172  1.00  0.00    -0.307 N 
ATOM     16  C   UNL     1      45.935 130.051  17.281  1.00  0.00     0.136 A 
ATOM     17  C   UNL     1      45.447 131.992  15.994  1.00  0.00     0.093 A 
ATOM     18  C   UNL     1      46.353 129.337  16.156  1.00  0.00     0.048 A 
ATOM     19  C   UNL     1      45.856 131.324  14.828  1.00  0.00     0.018 A 
ATOM     20  C   UNL     1      46.311 129.993  14.915  1.00  0.00     0.005 A 
ENDBRANCH  11  12
BRANCH  11  21
ATOM     21  C   UNL     1      45.261 129.319  21.330  1.00  0.00    -0.049 A 
ATOM     22  C   UNL     1      44.492 128.900  22.414  1.00  0.00     0.008 A 
ATOM     23  N   UNL     1      46.163 128.383  20.945  1.00  0.00    -0.435 NA
ATOM     24  C   UNL     1      44.970 127.649  22.707  1.00  0.00    -0.023 A 
ATOM     25  C   UNL     1      45.968 127.369  21.808  1.00  0.00    -0.034 A 
ATOM     26  C   UNL     1      44.599 126.745  23.700  1.00  0.00     0.008 A 
ATOM     27  C   UNL     1      46.661 126.158  21.840  1.00  0.00     0.004 A 
ATOM     28  C   UNL     1      45.285 125.517  23.760  1.00  0.00     0.001 A 
ATOM     29  C   UNL     1      46.310 125.225  22.834  1.00  0.00     0.000 A 
ENDBRANCH  11  21
ENDBRANCH   9  11
ENDBRANCH   1   9
TORSDOF 6
ENDMDL
MODEL 9
REMARK VINA RESULT:      -1.7      2.329      6.116
REMARK SMILES CC(=O)[N@@H+](C)[C@@H](C)C(=O)N(c1cn2ccccc2n1)c1cc2ccccc2[n-]1
REMARK SMILES IDX 6 1 7 2 4 3 5 4 2 6 1 7 3 8 8 9 9 10 10 11 11 12 12 13 19 14
REMARK SMILES IDX 13 15 18 16 14 17 17 18 15 19 16 20 20 21 21 22 28 23 22 24
REMARK SMILES IDX 27 25 23 26 26 27 24 28 25 29
REMARK H PARENT 4 5
ROOT
ATOM      1  C   UNL     1      44.293 129.591  22.688  1.00  0.00     0.257 C 
ATOM      2  C   UNL     1      45.116 128.603  21.831  1.00  0.00     0.085 C 
ENDROOT
BRANCH   1   3
ATOM      3  N   UNL     1      43.078 128.994  23.318  1.00  0.00    -0.266 N 
ATOM      4  C   UNL     1      42.271 129.987  24.054  1.00  0.00     0.341 C 
ATOM      5  H   UNL     1      42.453 128.692  22.530  1.00  0.00     0.357 HD
BRANCH   3   6
ATOM      6  C   UNL     1      43.347 127.800  24.112  1.00  0.00     0.309 C 
ATOM      7  C   UNL     1      44.735 127.245  24.325  1.00  0.00     0.164 C 
ATOM      8  O   UNL     1      42.410 127.201  24.625  1.00  0.00    -0.231 OA
ENDBRANCH   3   6
ENDBRANCH   1   3
BRANCH   1   9
ATOM      9  C   UNL     1      43.923 130.818  21.864  1.00  0.00     0.210 C 
ATOM     10  O   UNL     1      42.751 131.278  21.965  1.00  0.00    -0.292 OA
BRANCH   9  11
ATOM     11  N   UNL     1      44.916 131.532  21.081  1.00  0.00    -0.366 N 
BRANCH  11  12
ATOM     12  C   UNL     1      44.994 131.368  19.651  1.00  0.00     0.077 A 
ATOM     13  C   UNL     1      44.110 131.900  18.719  1.00  0.00     0.117 A 
ATOM     14  N   UNL     1      45.906 130.567  19.039  1.00  0.00    -0.233 NA
ATOM     15  N   UNL     1      44.493 131.436  17.521  1.00  0.00    -0.307 N 
ATOM     16  C   UNL     1      45.562 130.650  17.738  1.00  0.00     0.136 A 
ATOM     17  C   UNL     1      43.945 131.635  16.295  1.00  0.00     0.093 A 
ATOM     18  C   UNL     1      46.190 129.990  16.681  1.00  0.00     0.048 A 
ATOM     19  C   UNL     1      44.537 130.996  15.193  1.00  0.00     0.018 A 
ATOM     20  C   UNL     1      45.664 130.173  15.392  1.00  0.00     0.005 A 
ENDBRANCH  11  12
BRANCH  11  21
ATOM     21  C   UNL     1      45.877 132.393  21.714  1.00  0.00    -0.049 A 
ATOM     22  C   UNL     1      45.875 132.709  23.072  1.00  0.00     0.008 A 
ATOM     23  N   UNL     1      46.923 132.951  21.057  1.00  0.00    -0.435 NA
ATOM     24  C   UNL     1      46.971 133.516  23.235  1.00  0.00    -0.023 A 
ATOM     25  C   UNL     1      47.577 133.640  22.011  1.00  0.00    -0.034 A 
ATOM     26  C   UNL     1      47.471 134.149  24.371  1.00  0.00     0.008 A 
ATOM     27  C   UNL     1      48.732 134.404  21.842  1.00  0.00     0.004 A 
ATOM     28  C   UNL     1      48.632 134.932  24.229  1.00  0.00     0.001 A 
ATOM     29  C   UNL     1      49.260 135.059  22.971  1.00  0.00     0.000 A 
ENDBRANCH  11  21
ENDBRANCH   9  11
ENDBRANCH   1   9
TORSDOF 6
ENDMDL


