REMARK SMILES c1cc2cc(-c3ncc4c(n3)CCCC4)ccc2[nH]1
REMARK SMILES IDX 1 1 2 2 3 3 4 4 5 5 16 6 17 7 18 8 19 9 6 11 7 12 11 13 8 14
REMARK SMILES IDX 10 15 9 16 12 17 15 18 13 19 14 20
REMARK H PARENT 19 10
ROOT
ATOM      1  C   UNL     1       0.112  -6.032   1.038  1.00  0.00     0.083 A 
ATOM      2  C   UNL     1       1.019  -5.006   0.790  1.00  0.00     0.028 A 
ATOM      3  C   UNL     1       0.264  -3.854   0.775  1.00  0.00     0.000 A 
ATOM      4  C   UNL     1       0.639  -2.528   0.574  1.00  0.00     0.022 A 
ATOM      5  C   UNL     1      -0.369  -1.533   0.614  1.00  0.00     0.020 A 
ATOM      6  C   UNL     1      -1.716  -1.919   0.857  1.00  0.00     0.014 A 
ATOM      7  C   UNL     1      -2.056  -3.269   1.056  1.00  0.00     0.027 A 
ATOM      8  C   UNL     1      -1.035  -4.213   1.008  1.00  0.00     0.045 A 
ATOM      9  N   UNL     1      -1.142  -5.542   1.170  1.00  0.00    -0.361 N 
ATOM     10  H   UNL     1      -2.011  -6.088   1.359  1.00  0.00     0.166 HD
ENDROOT
BRANCH   5  11
ATOM     11  C   UNL     1      -0.022  -0.106   0.406  1.00  0.00     0.159 A 
ATOM     12  N   UNL     1       1.268   0.261   0.174  1.00  0.00    -0.236 NA
ATOM     13  N   UNL     1      -0.990   0.849   0.444  1.00  0.00    -0.233 NA
ATOM     14  C   UNL     1       1.607   1.560  -0.026  1.00  0.00     0.119 A 
ATOM     15  C   UNL     1      -0.703   2.166   0.264  1.00  0.00     0.048 A 
ATOM     16  C   UNL     1       0.625   2.555  -0.004  1.00  0.00    -0.008 A 
ATOM     17  C   UNL     1      -1.835   3.159   0.253  1.00  0.00     0.056 C 
ATOM     18  C   UNL     1       1.018   4.005  -0.151  1.00  0.00     0.039 C 
ATOM     19  C   UNL     1      -1.352   4.600   0.454  1.00  0.00     0.007 C 
ATOM     20  C   UNL     1      -0.178   4.905  -0.479  1.00  0.00     0.005 C 
ENDBRANCH   5  11
TORSDOF 1


