REMARK SMILES Cc1cc(F)[nH+]cc1-c1ccc2cc[nH]c2c1NC(=O)c1cc(F)c[nH]1
REMARK SMILES IDX 9 1 10 2 11 3 12 4 13 5 14 6 15 7 16 8 17 9 8 11 2 12 3 13
REMARK SMILES IDX 4 14 7 15 6 16 1 17 5 18 18 20 19 21 20 23 21 24 22 25 26 26
REMARK SMILES IDX 23 27 25 28 24 30
REMARK H PARENT 15 10 6 19 18 22 26 29
ROOT
ATOM      1  C   UNL     1      -0.840  -1.134  -1.894  1.00  0.00     0.014 A 
ATOM      2  C   UNL     1      -1.375  -1.838  -3.002  1.00  0.00     0.012 A 
ATOM      3  C   UNL     1      -1.700  -1.168  -4.192  1.00  0.00     0.011 A 
ATOM      4  C   UNL     1      -1.482   0.204  -4.247  1.00  0.00     0.002 A 
ATOM      5  C   UNL     1      -1.702   1.101  -5.269  1.00  0.00     0.028 A 
ATOM      6  C   UNL     1      -1.282   2.329  -4.770  1.00  0.00     0.083 A 
ATOM      7  N   UNL     1      -0.825   2.201  -3.503  1.00  0.00    -0.359 N 
ATOM      8  C   UNL     1      -0.955   0.899  -3.192  1.00  0.00     0.070 A 
ATOM      9  C   UNL     1      -0.597   0.266  -1.996  1.00  0.00     0.074 A 
ATOM     10  H   UNL     1      -0.442   2.965  -2.903  1.00  0.00     0.166 HD
ENDROOT
BRANCH   1  11
ATOM     11  C   UNL     1      -0.584  -1.875  -0.637  1.00  0.00     0.051 A 
ATOM     12  C   UNL     1      -1.310  -1.621   0.551  1.00  0.00    -0.028 A 
ATOM     13  C   UNL     1      -0.958  -2.309   1.721  1.00  0.00     0.118 A 
ATOM     14  C   UNL     1       0.062  -3.260   1.688  1.00  0.00     0.358 A 
ATOM     15  C   UNL     1       0.416  -2.858  -0.622  1.00  0.00     0.318 A 
ATOM     16  N   UNL     1       0.717  -3.521   0.526  1.00  0.00    -0.186 N 
ATOM     17  C   UNL     1      -2.429  -0.615   0.607  1.00  0.00     0.045 C 
ATOM     18  F   UNL     1       0.395  -3.930   2.819  1.00  0.00    -0.136 F 
ATOM     19  H   UNL     1       1.474  -4.240   0.516  1.00  0.00     0.456 HD
ENDBRANCH   1  11
BRANCH   9  20
ATOM     20  N   UNL     1      -0.033   1.027  -0.916  1.00  0.00    -0.318 N 
ATOM     21  C   UNL     1       1.177   0.639  -0.249  1.00  0.00     0.272 C 
ATOM     22  H   UNL     1      -0.466   1.947  -0.680  1.00  0.00     0.170 HD
ATOM     23  O   UNL     1       1.996  -0.124  -0.828  1.00  0.00    -0.267 OA
BRANCH  21  24
ATOM     24  C   UNL     1       1.478   1.125   1.109  1.00  0.00     0.107 A 
ATOM     25  C   UNL     1       0.638   1.885   1.907  1.00  0.00     0.072 A 
ATOM     26  N   UNL     1       2.621   0.844   1.768  1.00  0.00    -0.355 N 
ATOM     27  C   UNL     1       1.319   2.067   3.091  1.00  0.00     0.141 A 
ATOM     28  C   UNL     1       2.530   1.420   2.981  1.00  0.00     0.122 A 
ATOM     29  H   UNL     1       3.426   0.281   1.415  1.00  0.00     0.166 HD
ATOM     30  F   UNL     1       0.873   2.749   4.173  1.00  0.00    -0.205 F 
ENDBRANCH  21  24
ENDBRANCH   9  20
TORSDOF 3


