MODEL 1
REMARK VINA RESULT:     -10.2      0.000      0.000
REMARK SMILES Cc1cc(F)c(CCC(=O)c2ccccc2)c(F)c1
REMARK SMILES IDX 7 1 6 2 2 3 3 4 19 5 4 6 17 7 1 8 5 9 18 10 8 11 9 12 10 13
REMARK SMILES IDX 11 14 12 15 16 16 13 17 15 18 14 19
REMARK H PARENT
ROOT
ATOM      1  C   UNL     1      45.488 131.007  17.932  1.00  0.00     0.050 C 
ENDROOT
BRANCH   1   2
ATOM      2  C   UNL     1      44.760 131.297  19.224  1.00  0.00     0.024 A 
ATOM      3  C   UNL     1      43.337 131.662  21.628  1.00  0.00    -0.045 A 
ATOM      4  C   UNL     1      42.713 131.897  20.395  1.00  0.00     0.043 A 
ATOM      5  C   UNL     1      44.685 131.280  21.656  1.00  0.00     0.043 A 
ATOM      6  C   UNL     1      43.415 131.710  19.201  1.00  0.00     0.129 A 
ATOM      7  C   UNL     1      45.393 131.094  20.465  1.00  0.00     0.129 A 
ATOM      8  C   UNL     1      42.588 131.882  22.908  1.00  0.00     0.044 C 
ATOM      9  F   UNL     1      42.777 131.914  18.020  1.00  0.00    -0.207 F 
ATOM     10  F   UNL     1      46.687 130.688  20.526  1.00  0.00    -0.207 F 
ENDBRANCH   1   2
BRANCH   1  11
ATOM     11  C   UNL     1      45.208 132.070  16.858  1.00  0.00     0.086 C 
BRANCH  11  12
ATOM     12  C   UNL     1      45.005 131.456  15.494  1.00  0.00     0.163 C 
ATOM     13  O   UNL     1      43.856 131.534  14.978  1.00  0.00    -0.294 OA
BRANCH  12  14
ATOM     14  C   UNL     1      46.111 130.846  14.706  1.00  0.00     0.017 A 
ATOM     15  C   UNL     1      46.785 131.621  13.741  1.00  0.00     0.012 A 
ATOM     16  C   UNL     1      46.533 129.516  14.915  1.00  0.00     0.012 A 
ATOM     17  C   UNL     1      47.861 131.088  13.024  1.00  0.00     0.001 A 
ATOM     18  C   UNL     1      47.611 128.991  14.197  1.00  0.00     0.001 A 
ATOM     19  C   UNL     1      48.276 129.777  13.256  1.00  0.00     0.000 A 
ENDBRANCH  12  14
ENDBRANCH  11  12
ENDBRANCH   1  11
TORSDOF 4
ENDMDL
MODEL 2
REMARK VINA RESULT:     -10.0      0.735      2.054
REMARK SMILES Cc1cc(F)c(CCC(=O)c2ccccc2)c(F)c1
REMARK SMILES IDX 7 1 6 2 2 3 3 4 19 5 4 6 17 7 1 8 5 9 18 10 8 11 9 12 10 13
REMARK SMILES IDX 11 14 12 15 16 16 13 17 15 18 14 19
REMARK H PARENT
ROOT
ATOM      1  C   UNL     1      45.034 131.977  18.412  1.00  0.00     0.050 C 
ENDROOT
BRANCH   1   2
ATOM      2  C   UNL     1      44.386 131.750  19.758  1.00  0.00     0.024 A 
ATOM      3  C   UNL     1      43.242 131.492  22.320  1.00  0.00    -0.045 A 
ATOM      4  C   UNL     1      44.558 131.069  22.087  1.00  0.00     0.043 A 
ATOM      5  C   UNL     1      42.488 132.011  21.258  1.00  0.00     0.043 A 
ATOM      6  C   UNL     1      45.130 131.202  20.818  1.00  0.00     0.129 A 
ATOM      7  C   UNL     1      43.053 132.144  19.987  1.00  0.00     0.129 A 
ATOM      8  C   UNL     1      42.625 131.331  23.677  1.00  0.00     0.044 C 
ATOM      9  F   UNL     1      46.417 130.813  20.630  1.00  0.00    -0.207 F 
ATOM     10  F   UNL     1      42.308 132.683  18.990  1.00  0.00    -0.207 F 
ENDBRANCH   1   2
BRANCH   1  11
ATOM     11  C   UNL     1      45.177 130.674  17.611  1.00  0.00     0.086 C 
BRANCH  11  12
ATOM     12  C   UNL     1      45.003 130.899  16.128  1.00  0.00     0.163 C 
ATOM     13  O   UNL     1      43.937 131.449  15.736  1.00  0.00    -0.294 OA
BRANCH  12  14
ATOM     14  C   UNL     1      46.062 130.581  15.129  1.00  0.00     0.017 A 
ATOM     15  C   UNL     1      46.439 131.555  14.184  1.00  0.00     0.012 A 
ATOM     16  C   UNL     1      46.728 129.337  15.117  1.00  0.00     0.012 A 
ATOM     17  C   UNL     1      47.465 131.300  13.269  1.00  0.00     0.001 A 
ATOM     18  C   UNL     1      47.755 129.091  14.201  1.00  0.00     0.001 A 
ATOM     19  C   UNL     1      48.125 130.072  13.281  1.00  0.00     0.000 A 
ENDBRANCH  12  14
ENDBRANCH  11  12
ENDBRANCH   1  11
TORSDOF 4
ENDMDL
MODEL 3
REMARK VINA RESULT:     -10.0      0.467      1.216
REMARK SMILES Cc1cc(F)c(CCC(=O)c2ccccc2)c(F)c1
REMARK SMILES IDX 7 1 6 2 2 3 3 4 19 5 4 6 17 7 1 8 5 9 18 10 8 11 9 12 10 13
REMARK SMILES IDX 11 14 12 15 16 16 13 17 15 18 14 19
REMARK H PARENT
ROOT
ATOM      1  C   UNL     1      45.322 131.547  18.030  1.00  0.00     0.050 C 
ENDROOT
BRANCH   1   2
ATOM      2  C   UNL     1      44.651 131.550  19.385  1.00  0.00     0.024 A 
ATOM      3  C   UNL     1      43.344 131.381  21.874  1.00  0.00    -0.045 A 
ATOM      4  C   UNL     1      42.648 131.818  20.739  1.00  0.00     0.043 A 
ATOM      5  C   UNL     1      44.705 131.064  21.768  1.00  0.00     0.043 A 
ATOM      6  C   UNL     1      43.293 131.897  19.501  1.00  0.00     0.129 A 
ATOM      7  C   UNL     1      45.356 131.142  20.534  1.00  0.00     0.129 A 
ATOM      8  C   UNL     1      42.655 131.316  23.204  1.00  0.00     0.044 C 
ATOM      9  F   UNL     1      42.587 132.293  18.411  1.00  0.00    -0.207 F 
ATOM     10  F   UNL     1      46.665 130.794  20.458  1.00  0.00    -0.207 F 
ENDBRANCH   1   2
BRANCH   1  11
ATOM     11  C   UNL     1      44.712 130.502  17.085  1.00  0.00     0.086 C 
BRANCH  11  12
ATOM     12  C   UNL     1      44.834 130.907  15.636  1.00  0.00     0.163 C 
ATOM     13  O   UNL     1      43.903 131.597  15.136  1.00  0.00    -0.294 OA
BRANCH  12  14
ATOM     14  C   UNL     1      46.035 130.604  14.807  1.00  0.00     0.017 A 
ATOM     15  C   UNL     1      46.739 129.403  15.021  1.00  0.00     0.012 A 
ATOM     16  C   UNL     1      46.477 131.472  13.786  1.00  0.00     0.012 A 
ATOM     17  C   UNL     1      47.838 129.070  14.222  1.00  0.00     0.001 A 
ATOM     18  C   UNL     1      47.574 131.131  12.990  1.00  0.00     0.001 A 
ATOM     19  C   UNL     1      48.252 129.931  13.206  1.00  0.00     0.000 A 
ENDBRANCH  12  14
ENDBRANCH  11  12
ENDBRANCH   1  11
TORSDOF 4
ENDMDL
MODEL 4
REMARK VINA RESULT:      -9.9      0.626      2.299
REMARK SMILES Cc1cc(F)c(CCC(=O)c2ccccc2)c(F)c1
REMARK SMILES IDX 7 1 6 2 2 3 3 4 19 5 4 6 17 7 1 8 5 9 18 10 8 11 9 12 10 13
REMARK SMILES IDX 11 14 12 15 16 16 13 17 15 18 14 19
REMARK H PARENT
ROOT
ATOM      1  C   UNL     1      45.149 131.889  18.165  1.00  0.00     0.050 C 
ENDROOT
BRANCH   1   2
ATOM      2  C   UNL     1      44.449 131.741  19.496  1.00  0.00     0.024 A 
ATOM      3  C   UNL     1      43.196 131.641  22.017  1.00  0.00    -0.045 A 
ATOM      4  C   UNL     1      44.546 131.288  21.884  1.00  0.00     0.043 A 
ATOM      5  C   UNL     1      42.465 132.009  20.879  1.00  0.00     0.043 A 
ATOM      6  C   UNL     1      45.171 131.343  20.635  1.00  0.00     0.129 A 
ATOM      7  C   UNL     1      43.084 132.064  19.627  1.00  0.00     0.129 A 
ATOM      8  C   UNL     1      42.522 131.562  23.354  1.00  0.00     0.044 C 
ATOM      9  F   UNL     1      46.488 131.026  20.541  1.00  0.00    -0.207 F 
ATOM     10  F   UNL     1      42.358 132.459  18.551  1.00  0.00    -0.207 F 
ENDBRANCH   1   2
BRANCH   1  11
ATOM     11  C   UNL     1      45.322 130.541  17.449  1.00  0.00     0.086 C 
BRANCH  11  12
ATOM     12  C   UNL     1      45.121 130.661  15.957  1.00  0.00     0.163 C 
ATOM     13  O   UNL     1      43.974 130.982  15.541  1.00  0.00    -0.294 OA
BRANCH  12  14
ATOM     14  C   UNL     1      46.229 130.503  14.974  1.00  0.00     0.017 A 
ATOM     15  C   UNL     1      46.935 129.285  14.915  1.00  0.00     0.012 A 
ATOM     16  C   UNL     1      46.579 131.528  14.070  1.00  0.00     0.012 A 
ATOM     17  C   UNL     1      47.944 129.091  13.967  1.00  0.00     0.001 A 
ATOM     18  C   UNL     1      47.587 131.326  13.123  1.00  0.00     0.001 A 
ATOM     19  C   UNL     1      48.266 130.109  13.069  1.00  0.00     0.000 A 
ENDBRANCH  12  14
ENDBRANCH  11  12
ENDBRANCH   1  11
TORSDOF 4
ENDMDL
MODEL 5
REMARK VINA RESULT:      -9.8      0.984      1.189
REMARK SMILES Cc1cc(F)c(CCC(=O)c2ccccc2)c(F)c1
REMARK SMILES IDX 7 1 6 2 2 3 3 4 19 5 4 6 17 7 1 8 5 9 18 10 8 11 9 12 10 13
REMARK SMILES IDX 11 14 12 15 16 16 13 17 15 18 14 19
REMARK H PARENT
ROOT
ATOM      1  C   UNL     1      43.816 131.922  17.022  1.00  0.00     0.050 C 
ENDROOT
BRANCH   1   2
ATOM      2  C   UNL     1      43.905 131.760  18.522  1.00  0.00     0.024 A 
ATOM      3  C   UNL     1      43.998 131.286  21.297  1.00  0.00    -0.045 A 
ATOM      4  C   UNL     1      42.844 131.823  20.710  1.00  0.00     0.043 A 
ATOM      5  C   UNL     1      45.118 131.021  20.497  1.00  0.00     0.043 A 
ATOM      6  C   UNL     1      42.793 132.053  19.332  1.00  0.00     0.129 A 
ATOM      7  C   UNL     1      45.074 131.250  19.119  1.00  0.00     0.129 A 
ATOM      8  C   UNL     1      44.056 131.058  22.778  1.00  0.00     0.044 C 
ATOM      9  F   UNL     1      41.652 132.544  18.786  1.00  0.00    -0.207 F 
ATOM     10  F   UNL     1      46.163 130.949  18.368  1.00  0.00    -0.207 F 
ENDBRANCH   1   2
BRANCH   1  11
ATOM     11  C   UNL     1      44.187 130.630  16.277  1.00  0.00     0.086 C 
BRANCH  11  12
ATOM     12  C   UNL     1      44.606 130.898  14.852  1.00  0.00     0.163 C 
ATOM     13  O   UNL     1      43.817 131.556  14.119  1.00  0.00    -0.294 OA
BRANCH  12  14
ATOM     14  C   UNL     1      45.933 130.497  14.307  1.00  0.00     0.017 A 
ATOM     15  C   UNL     1      46.541 131.286  13.311  1.00  0.00     0.012 A 
ATOM     16  C   UNL     1      46.622 129.360  14.780  1.00  0.00     0.012 A 
ATOM     17  C   UNL     1      47.809 130.960  12.819  1.00  0.00     0.001 A 
ATOM     18  C   UNL     1      47.891 129.043  14.286  1.00  0.00     0.001 A 
ATOM     19  C   UNL     1      48.484 129.843  13.310  1.00  0.00     0.000 A 
ENDBRANCH  12  14
ENDBRANCH  11  12
ENDBRANCH   1  11
TORSDOF 4
ENDMDL
MODEL 6
REMARK VINA RESULT:      -9.7      0.729      2.310
REMARK SMILES Cc1cc(F)c(CCC(=O)c2ccccc2)c(F)c1
REMARK SMILES IDX 7 1 6 2 2 3 3 4 19 5 4 6 17 7 1 8 5 9 18 10 8 11 9 12 10 13
REMARK SMILES IDX 11 14 12 15 16 16 13 17 15 18 14 19
REMARK H PARENT
ROOT
ATOM      1  C   UNL     1      44.873 131.541  17.356  1.00  0.00     0.050 C 
ENDROOT
BRANCH   1   2
ATOM      2  C   UNL     1      44.404 131.483  18.792  1.00  0.00     0.024 A 
ATOM      3  C   UNL     1      43.598 131.547  21.490  1.00  0.00    -0.045 A 
ATOM      4  C   UNL     1      44.880 131.098  21.146  1.00  0.00     0.043 A 
ATOM      5  C   UNL     1      42.707 131.928  20.477  1.00  0.00     0.043 A 
ATOM      6  C   UNL     1      45.285 131.072  19.808  1.00  0.00     0.129 A 
ATOM      7  C   UNL     1      43.105 131.902  19.138  1.00  0.00     0.129 A 
ATOM      8  C   UNL     1      43.160 131.556  22.924  1.00  0.00     0.044 C 
ATOM      9  F   UNL     1      46.544 130.663  19.506  1.00  0.00    -0.207 F 
ATOM     10  F   UNL     1      42.231 132.312  18.184  1.00  0.00    -0.207 F 
ENDBRANCH   1   2
BRANCH   1  11
ATOM     11  C   UNL     1      43.730 131.283  16.362  1.00  0.00     0.086 C 
BRANCH  11  12
ATOM     12  C   UNL     1      44.218 131.246  14.934  1.00  0.00     0.163 C 
ATOM     13  O   UNL     1      43.476 131.745  14.044  1.00  0.00    -0.294 OA
BRANCH  12  14
ATOM     14  C   UNL     1      45.560 130.727  14.549  1.00  0.00     0.017 A 
ATOM     15  C   UNL     1      45.961 129.448  14.984  1.00  0.00     0.012 A 
ATOM     16  C   UNL     1      46.440 131.466  13.730  1.00  0.00     0.012 A 
ATOM     17  C   UNL     1      47.194 128.916  14.594  1.00  0.00     0.001 A 
ATOM     18  C   UNL     1      47.670 130.926  13.341  1.00  0.00     0.001 A 
ATOM     19  C   UNL     1      48.045 129.653  13.770  1.00  0.00     0.000 A 
ENDBRANCH  12  14
ENDBRANCH  11  12
ENDBRANCH   1  11
TORSDOF 4
ENDMDL
MODEL 7
REMARK VINA RESULT:      -9.6      0.962      1.521
REMARK SMILES Cc1cc(F)c(CCC(=O)c2ccccc2)c(F)c1
REMARK SMILES IDX 7 1 6 2 2 3 3 4 19 5 4 6 17 7 1 8 5 9 18 10 8 11 9 12 10 13
REMARK SMILES IDX 11 14 12 15 16 16 13 17 15 18 14 19
REMARK H PARENT
ROOT
ATOM      1  C   UNL     1      45.657 131.138  17.610  1.00  0.00     0.050 C 
ENDROOT
BRANCH   1   2
ATOM      2  C   UNL     1      44.862 131.392  18.871  1.00  0.00     0.024 A 
ATOM      3  C   UNL     1      43.328 131.685  21.215  1.00  0.00    -0.045 A 
ATOM      4  C   UNL     1      42.739 131.869  19.957  1.00  0.00     0.043 A 
ATOM      5  C   UNL     1      44.696 131.390  21.298  1.00  0.00     0.043 A 
ATOM      6  C   UNL     1      43.496 131.718  18.792  1.00  0.00     0.129 A 
ATOM      7  C   UNL     1      45.459 131.239  20.137  1.00  0.00     0.129 A 
ATOM      8  C   UNL     1      42.518 131.867  22.463  1.00  0.00     0.044 C 
ATOM      9  F   UNL     1      42.892 131.870  17.586  1.00  0.00    -0.207 F 
ATOM     10  F   UNL     1      46.773 130.918  20.251  1.00  0.00    -0.207 F 
ENDBRANCH   1   2
BRANCH   1  11
ATOM     11  C   UNL     1      45.731 129.643  17.264  1.00  0.00     0.086 C 
BRANCH  11  12
ATOM     12  C   UNL     1      45.484 129.388  15.796  1.00  0.00     0.163 C 
ATOM     13  O   UNL     1      44.399 128.833  15.469  1.00  0.00    -0.294 OA
BRANCH  12  14
ATOM     14  C   UNL     1      46.418 129.837  14.727  1.00  0.00     0.017 A 
ATOM     15  C   UNL     1      47.599 129.107  14.486  1.00  0.00     0.012 A 
ATOM     16  C   UNL     1      46.145 130.960  13.918  1.00  0.00     0.012 A 
ATOM     17  C   UNL     1      48.468 129.476  13.454  1.00  0.00     0.001 A 
ATOM     18  C   UNL     1      47.016 131.321  12.886  1.00  0.00     0.001 A 
ATOM     19  C   UNL     1      48.174 130.579  12.653  1.00  0.00     0.000 A 
ENDBRANCH  12  14
ENDBRANCH  11  12
ENDBRANCH   1  11
TORSDOF 4
ENDMDL
MODEL 8
REMARK VINA RESULT:      -9.5      1.084      2.441
REMARK SMILES Cc1cc(F)c(CCC(=O)c2ccccc2)c(F)c1
REMARK SMILES IDX 7 1 6 2 2 3 3 4 19 5 4 6 17 7 1 8 5 9 18 10 8 11 9 12 10 13
REMARK SMILES IDX 11 14 12 15 16 16 13 17 15 18 14 19
REMARK H PARENT
ROOT
ATOM      1  C   UNL     1      44.885 131.882  17.186  1.00  0.00     0.050 C 
ENDROOT
BRANCH   1   2
ATOM      2  C   UNL     1      44.363 131.645  18.585  1.00  0.00     0.024 A 
ATOM      3  C   UNL     1      43.453 131.376  21.237  1.00  0.00    -0.045 A 
ATOM      4  C   UNL     1      44.765 131.017  20.900  1.00  0.00     0.043 A 
ATOM      5  C   UNL     1      42.586 131.835  20.235  1.00  0.00     0.043 A 
ATOM      6  C   UNL     1      45.222 131.156  19.586  1.00  0.00     0.129 A 
ATOM      7  C   UNL     1      43.036 131.974  18.919  1.00  0.00     0.129 A 
ATOM      8  C   UNL     1      42.960 131.208  22.643  1.00  0.00     0.044 C 
ATOM      9  F   UNL     1      46.507 130.832  19.295  1.00  0.00    -0.207 F 
ATOM     10  F   UNL     1      42.182 132.455  17.981  1.00  0.00    -0.207 F 
ENDBRANCH   1   2
BRANCH   1  11
ATOM     11  C   UNL     1      44.197 130.978  16.151  1.00  0.00     0.086 C 
BRANCH  11  12
ATOM     12  C   UNL     1      45.100 129.863  15.682  1.00  0.00     0.163 C 
ATOM     13  O   UNL     1      44.844 128.692  16.076  1.00  0.00    -0.294 OA
BRANCH  12  14
ATOM     14  C   UNL     1      46.216 130.074  14.719  1.00  0.00     0.017 A 
ATOM     15  C   UNL     1      47.298 129.171  14.702  1.00  0.00     0.012 A 
ATOM     16  C   UNL     1      46.214 131.139  13.793  1.00  0.00     0.012 A 
ATOM     17  C   UNL     1      48.333 129.316  13.773  1.00  0.00     0.001 A 
ATOM     18  C   UNL     1      47.250 131.276  12.865  1.00  0.00     0.001 A 
ATOM     19  C   UNL     1      48.306 130.365  12.853  1.00  0.00     0.000 A 
ENDBRANCH  12  14
ENDBRANCH  11  12
ENDBRANCH   1  11
TORSDOF 4
ENDMDL
MODEL 9
REMARK VINA RESULT:      -9.4      1.093      2.211
REMARK SMILES Cc1cc(F)c(CCC(=O)c2ccccc2)c(F)c1
REMARK SMILES IDX 7 1 6 2 2 3 3 4 19 5 4 6 17 7 1 8 5 9 18 10 8 11 9 12 10 13
REMARK SMILES IDX 11 14 12 15 16 16 13 17 15 18 14 19
REMARK H PARENT
ROOT
ATOM      1  C   UNL     1      44.906 131.993  17.292  1.00  0.00     0.050 C 
ENDROOT
BRANCH   1   2
ATOM      2  C   UNL     1      44.393 131.679  18.679  1.00  0.00     0.024 A 
ATOM      3  C   UNL     1      43.499 131.264  21.318  1.00  0.00    -0.045 A 
ATOM      4  C   UNL     1      44.811 130.929  20.955  1.00  0.00     0.043 A 
ATOM      5  C   UNL     1      42.625 131.773  20.348  1.00  0.00     0.043 A 
ATOM      6  C   UNL     1      45.259 131.140  19.648  1.00  0.00     0.129 A 
ATOM      7  C   UNL     1      43.066 131.985  19.039  1.00  0.00     0.129 A 
ATOM      8  C   UNL     1      43.016 131.018  22.716  1.00  0.00     0.044 C 
ATOM      9  F   UNL     1      46.544 130.837  19.332  1.00  0.00    -0.207 F 
ATOM     10  F   UNL     1      42.206 132.513  18.132  1.00  0.00    -0.207 F 
ENDBRANCH   1   2
BRANCH   1  11
ATOM     11  C   UNL     1      44.269 131.093  16.223  1.00  0.00     0.086 C 
BRANCH  11  12
ATOM     12  C   UNL     1      45.174 129.949  15.832  1.00  0.00     0.163 C 
ATOM     13  O   UNL     1      44.974 128.827  16.374  1.00  0.00    -0.294 OA
BRANCH  12  14
ATOM     14  C   UNL     1      46.226 130.069  14.785  1.00  0.00     0.017 A 
ATOM     15  C   UNL     1      46.168 131.131  13.861  1.00  0.00     0.012 A 
ATOM     16  C   UNL     1      47.307 129.165  14.703  1.00  0.00     0.012 A 
ATOM     17  C   UNL     1      47.170 131.296  12.900  1.00  0.00     0.001 A 
ATOM     18  C   UNL     1      48.307 129.338  13.742  1.00  0.00     0.001 A 
ATOM     19  C   UNL     1      48.240 130.403  12.844  1.00  0.00     0.000 A 
ENDBRANCH  12  14
ENDBRANCH  11  12
ENDBRANCH   1  11
TORSDOF 4
ENDMDL


