MODEL 1
REMARK VINA RESULT:      -7.8      0.000      0.000
REMARK SMILES N#CC1=CCCC[C@H]1OC(=O)c1cc(F)ccc1Nc1cc2ccccc2[nH]1
REMARK SMILES IDX 10 1 11 2 9 3 8 4 3 5 4 6 5 7 7 8 6 9 2 10 1 11 12 12 13 13
REMARK SMILES IDX 18 14 14 15 17 16 16 17 15 18 19 19 20 21 21 22 28 23 22 24
REMARK SMILES IDX 27 25 23 26 26 27 24 28 25 29
REMARK H PARENT 19 20 28 30
ROOT
ATOM      1  C   UNL     1      45.303 130.778  19.826  1.00  0.00     0.340 C 
ATOM      2  O   UNL     1      46.199 129.972  20.198  1.00  0.00    -0.246 OA
ENDROOT
BRANCH   1   3
ATOM      3  O   UNL     1      45.336 131.298  18.529  1.00  0.00    -0.453 OA
BRANCH   3   4
ATOM      4  C   UNL     1      45.087 130.539  17.344  1.00  0.00     0.217 C 
ATOM      5  C   UNL     1      44.118 131.317  16.473  1.00  0.00     0.066 C 
ATOM      6  C   UNL     1      44.273 131.436  15.144  1.00  0.00    -0.008 C 
ATOM      7  C   UNL     1      45.487 130.930  14.417  1.00  0.00     0.029 C 
ATOM      8  C   UNL     1      46.419 130.231  16.627  1.00  0.00     0.051 C 
ATOM      9  C   UNL     1      46.180 129.802  15.181  1.00  0.00     0.008 C 
BRANCH   5  10
ATOM     10  C   UNL     1      42.929 131.858  17.084  1.00  0.00     0.098 C 
ATOM     11  N   UNL     1      41.976 132.291  17.575  1.00  0.00    -0.193 NA
ENDBRANCH   5  10
ENDBRANCH   3   4
ENDBRANCH   1   3
BRANCH   1  12
ATOM     12  C   UNL     1      44.213 131.163  20.767  1.00  0.00     0.086 A 
ATOM     13  C   UNL     1      43.259 132.115  20.349  1.00  0.00     0.057 A 
ATOM     14  C   UNL     1      44.107 130.630  22.083  1.00  0.00     0.054 A 
ATOM     15  C   UNL     1      42.246 132.541  21.209  1.00  0.00     0.124 A 
ATOM     16  C   UNL     1      43.095 131.087  22.939  1.00  0.00     0.030 A 
ATOM     17  C   UNL     1      42.167 132.033  22.503  1.00  0.00     0.041 A 
ATOM     18  F   UNL     1      41.341 133.459  20.787  1.00  0.00    -0.207 F 
BRANCH  14  19
ATOM     19  N   UNL     1      45.026 129.655  22.591  1.00  0.00    -0.341 N 
ATOM     20  H   UNL     1      45.950 129.989  22.949  1.00  0.00     0.168 HD
BRANCH  19  21
ATOM     21  C   UNL     1      44.648 128.297  22.847  1.00  0.00     0.108 A 
ATOM     22  C   UNL     1      45.342 127.191  22.365  1.00  0.00     0.055 A 
ATOM     23  N   UNL     1      43.516 127.932  23.495  1.00  0.00    -0.341 N 
ATOM     24  C   UNL     1      44.574 126.111  22.740  1.00  0.00     0.002 A 
ATOM     25  C   UNL     1      43.484 126.591  23.421  1.00  0.00     0.047 A 
ATOM     26  C   UNL     1      44.745 124.751  22.490  1.00  0.00     0.010 A 
ATOM     27  C   UNL     1      42.488 125.741  23.899  1.00  0.00     0.027 A 
ATOM     28  C   UNL     1      43.759 123.868  22.966  1.00  0.00     0.001 A 
ATOM     29  C   UNL     1      42.635 124.361  23.666  1.00  0.00     0.002 A 
ATOM     30  H   UNL     1      42.799 128.555  23.929  1.00  0.00     0.168 HD
ENDBRANCH  19  21
ENDBRANCH  14  19
ENDBRANCH   1  12
TORSDOF 6
ENDMDL
MODEL 2
REMARK VINA RESULT:      -7.0      1.929      7.286
REMARK SMILES N#CC1=CCCC[C@H]1OC(=O)c1cc(F)ccc1Nc1cc2ccccc2[nH]1
REMARK SMILES IDX 10 1 11 2 9 3 8 4 3 5 4 6 5 7 7 8 6 9 2 10 1 11 12 12 13 13
REMARK SMILES IDX 18 14 14 15 17 16 16 17 15 18 19 19 20 21 21 22 28 23 22 24
REMARK SMILES IDX 27 25 23 26 26 27 24 28 25 29
REMARK H PARENT 19 20 28 30
ROOT
ATOM      1  C   UNL     1      44.037 129.946  22.363  1.00  0.00     0.340 C 
ATOM      2  O   UNL     1      45.079 129.321  22.023  1.00  0.00    -0.246 OA
ENDROOT
BRANCH   1   3
ATOM      3  O   UNL     1      43.407 129.633  23.571  1.00  0.00    -0.453 OA
BRANCH   3   4
ATOM      4  C   UNL     1      43.724 128.500  24.382  1.00  0.00     0.217 C 
ATOM      5  C   UNL     1      42.709 127.409  24.100  1.00  0.00     0.066 C 
ATOM      6  C   UNL     1      43.054 126.120  23.947  1.00  0.00    -0.008 C 
ATOM      7  C   UNL     1      44.483 125.659  23.906  1.00  0.00     0.029 C 
ATOM      8  C   UNL     1      45.176 128.050  24.112  1.00  0.00     0.051 C 
ATOM      9  C   UNL     1      45.417 126.632  24.624  1.00  0.00     0.008 C 
BRANCH   5  10
ATOM     10  C   UNL     1      41.310 127.757  24.100  1.00  0.00     0.098 C 
ATOM     11  N   UNL     1      40.187 128.036  24.103  1.00  0.00    -0.193 NA
ENDBRANCH   5  10
ENDBRANCH   3   4
ENDBRANCH   1   3
BRANCH   1  12
ATOM     12  C   UNL     1      43.492 131.016  21.480  1.00  0.00     0.086 A 
ATOM     13  C   UNL     1      42.344 131.721  21.898  1.00  0.00     0.057 A 
ATOM     14  C   UNL     1      44.065 131.341  20.219  1.00  0.00     0.054 A 
ATOM     15  C   UNL     1      41.770 132.702  21.088  1.00  0.00     0.124 A 
ATOM     16  C   UNL     1      43.460 132.313  19.410  1.00  0.00     0.030 A 
ATOM     17  C   UNL     1      42.322 132.993  19.843  1.00  0.00     0.041 A 
ATOM     18  F   UNL     1      40.664 133.366  21.508  1.00  0.00    -0.207 F 
BRANCH  14  19
ATOM     19  N   UNL     1      45.234 130.681  19.715  1.00  0.00    -0.341 N 
ATOM     20  H   UNL     1      45.741 130.024  20.350  1.00  0.00     0.168 HD
BRANCH  19  21
ATOM     21  C   UNL     1      45.593 130.700  18.328  1.00  0.00     0.108 A 
ATOM     22  C   UNL     1      45.187 131.683  17.431  1.00  0.00     0.055 A 
ATOM     23  N   UNL     1      46.279 129.710  17.707  1.00  0.00    -0.341 N 
ATOM     24  C   UNL     1      45.648 131.248  16.209  1.00  0.00     0.002 A 
ATOM     25  C   UNL     1      46.304 130.060  16.410  1.00  0.00     0.047 A 
ATOM     26  C   UNL     1      45.498 131.799  14.938  1.00  0.00     0.010 A 
ATOM     27  C   UNL     1      46.855 129.340  15.351  1.00  0.00     0.027 A 
ATOM     28  C   UNL     1      46.049 131.097  13.850  1.00  0.00     0.001 A 
ATOM     29  C   UNL     1      46.724 129.874  14.055  1.00  0.00     0.002 A 
ATOM     30  H   UNL     1      46.674 128.842  18.132  1.00  0.00     0.168 HD
ENDBRANCH  19  21
ENDBRANCH  14  19
ENDBRANCH   1  12
TORSDOF 6
ENDMDL
MODEL 3
REMARK VINA RESULT:      -6.8      1.978      7.268
REMARK SMILES N#CC1=CCCC[C@H]1OC(=O)c1cc(F)ccc1Nc1cc2ccccc2[nH]1
REMARK SMILES IDX 10 1 11 2 9 3 8 4 3 5 4 6 5 7 7 8 6 9 2 10 1 11 12 12 13 13
REMARK SMILES IDX 18 14 14 15 17 16 16 17 15 18 19 19 20 21 21 22 28 23 22 24
REMARK SMILES IDX 27 25 23 26 26 27 24 28 25 29
REMARK H PARENT 19 20 28 30
ROOT
ATOM      1  C   UNL     1      44.103 131.114  22.542  1.00  0.00     0.340 C 
ATOM      2  O   UNL     1      45.352 131.258  22.654  1.00  0.00    -0.246 OA
ENDROOT
BRANCH   1   3
ATOM      3  O   UNL     1      43.407 130.362  23.493  1.00  0.00    -0.453 OA
BRANCH   3   4
ATOM      4  C   UNL     1      42.529 129.277  23.185  1.00  0.00     0.217 C 
ATOM      5  C   UNL     1      43.308 127.981  23.314  1.00  0.00     0.066 C 
ATOM      6  C   UNL     1      42.803 126.888  23.909  1.00  0.00    -0.008 C 
ATOM      7  C   UNL     1      41.481 126.887  24.623  1.00  0.00     0.029 C 
ATOM      8  C   UNL     1      41.292 129.324  24.107  1.00  0.00     0.051 C 
ATOM      9  C   UNL     1      40.554 127.987  24.108  1.00  0.00     0.008 C 
BRANCH   5  10
ATOM     10  C   UNL     1      44.598 127.890  22.677  1.00  0.00     0.098 C 
ATOM     11  N   UNL     1      45.633 127.814  22.165  1.00  0.00    -0.193 NA
ENDBRANCH   5  10
ENDBRANCH   3   4
ENDBRANCH   1   3
BRANCH   1  12
ATOM     12  C   UNL     1      43.381 131.752  21.405  1.00  0.00     0.086 A 
ATOM     13  C   UNL     1      42.176 132.438  21.665  1.00  0.00     0.057 A 
ATOM     14  C   UNL     1      43.842 131.678  20.060  1.00  0.00     0.054 A 
ATOM     15  C   UNL     1      41.440 133.015  20.628  1.00  0.00     0.124 A 
ATOM     16  C   UNL     1      43.077 132.245  19.031  1.00  0.00     0.030 A 
ATOM     17  C   UNL     1      41.886 132.913  19.314  1.00  0.00     0.041 A 
ATOM     18  F   UNL     1      40.282 133.667  20.901  1.00  0.00    -0.207 F 
BRANCH  14  19
ATOM     19  N   UNL     1      45.057 131.008  19.703  1.00  0.00    -0.341 N 
ATOM     20  H   UNL     1      45.533 130.428  20.431  1.00  0.00     0.168 HD
BRANCH  19  21
ATOM     21  C   UNL     1      45.513 130.907  18.348  1.00  0.00     0.108 A 
ATOM     22  C   UNL     1      45.564 131.978  17.461  1.00  0.00     0.055 A 
ATOM     23  N   UNL     1      45.845 129.741  17.742  1.00  0.00    -0.341 N 
ATOM     24  C   UNL     1      45.938 131.416  16.261  1.00  0.00     0.002 A 
ATOM     25  C   UNL     1      46.102 130.070  16.465  1.00  0.00     0.047 A 
ATOM     26  C   UNL     1      46.102 131.995  15.005  1.00  0.00     0.010 A 
ATOM     27  C   UNL     1      46.442 129.208  15.423  1.00  0.00     0.027 A 
ATOM     28  C   UNL     1      46.452 131.151  13.934  1.00  0.00     0.001 A 
ATOM     29  C   UNL     1      46.620 129.764  14.142  1.00  0.00     0.002 A 
ATOM     30  H   UNL     1      45.863 128.786  18.162  1.00  0.00     0.168 HD
ENDBRANCH  19  21
ENDBRANCH  14  19
ENDBRANCH   1  12
TORSDOF 6
ENDMDL
MODEL 4
REMARK VINA RESULT:      -5.6      2.258      7.726
REMARK SMILES N#CC1=CCCC[C@H]1OC(=O)c1cc(F)ccc1Nc1cc2ccccc2[nH]1
REMARK SMILES IDX 10 1 11 2 9 3 8 4 3 5 4 6 5 7 7 8 6 9 2 10 1 11 12 12 13 13
REMARK SMILES IDX 18 14 14 15 17 16 16 17 15 18 19 19 20 21 21 22 28 23 22 24
REMARK SMILES IDX 27 25 23 26 26 27 24 28 25 29
REMARK H PARENT 19 20 28 30
ROOT
ATOM      1  C   UNL     1      44.935 130.637  20.412  1.00  0.00     0.340 C 
ATOM      2  O   UNL     1      46.110 130.214  20.225  1.00  0.00    -0.246 OA
ENDROOT
BRANCH   1   3
ATOM      3  O   UNL     1      44.389 130.612  21.699  1.00  0.00    -0.453 OA
BRANCH   3   4
ATOM      4  C   UNL     1      44.710 129.643  22.699  1.00  0.00     0.217 C 
ATOM      5  C   UNL     1      43.552 129.562  23.675  1.00  0.00     0.066 C 
ATOM      6  C   UNL     1      43.077 128.396  24.142  1.00  0.00    -0.008 C 
ATOM      7  C   UNL     1      43.555 127.062  23.639  1.00  0.00     0.029 C 
ATOM      8  C   UNL     1      45.026 128.287  22.033  1.00  0.00     0.051 C 
ATOM      9  C   UNL     1      44.961 127.147  23.048  1.00  0.00     0.008 C 
BRANCH   5  10
ATOM     10  C   UNL     1      43.011 130.791  24.202  1.00  0.00     0.098 C 
ATOM     11  N   UNL     1      42.579 131.778  24.623  1.00  0.00    -0.193 NA
ENDBRANCH   5  10
ENDBRANCH   3   4
ENDBRANCH   1   3
BRANCH   1  12
ATOM     12  C   UNL     1      44.145 131.166  19.265  1.00  0.00     0.086 A 
ATOM     13  C   UNL     1      43.046 132.010  19.529  1.00  0.00     0.057 A 
ATOM     14  C   UNL     1      44.435 130.834  17.911  1.00  0.00     0.054 A 
ATOM     15  C   UNL     1      42.249 132.496  18.491  1.00  0.00     0.124 A 
ATOM     16  C   UNL     1      43.609 131.314  16.885  1.00  0.00     0.030 A 
ATOM     17  C   UNL     1      42.525 132.143  17.173  1.00  0.00     0.041 A 
ATOM     18  F   UNL     1      41.195 133.304  18.769  1.00  0.00    -0.207 F 
BRANCH  14  19
ATOM     19  N   UNL     1      45.534 129.989  17.548  1.00  0.00    -0.341 N 
ATOM     20  H   UNL     1      45.698 129.124  18.111  1.00  0.00     0.168 HD
BRANCH  19  21
ATOM     21  C   UNL     1      46.260 130.150  16.322  1.00  0.00     0.108 A 
ATOM     22  C   UNL     1      45.930 131.077  15.338  1.00  0.00     0.055 A 
ATOM     23  N   UNL     1      47.281 129.350  15.933  1.00  0.00    -0.341 N 
ATOM     24  C   UNL     1      46.798 130.806  14.304  1.00  0.00     0.002 A 
ATOM     25  C   UNL     1      47.599 129.764  14.695  1.00  0.00     0.047 A 
ATOM     26  C   UNL     1      46.903 131.381  13.039  1.00  0.00     0.010 A 
ATOM     27  C   UNL     1      48.563 129.223  13.844  1.00  0.00     0.027 A 
ATOM     28  C   UNL     1      47.871 130.860  12.161  1.00  0.00     0.001 A 
ATOM     29  C   UNL     1      48.696 129.786  12.562  1.00  0.00     0.002 A 
ATOM     30  H   UNL     1      47.708 128.557  16.460  1.00  0.00     0.168 HD
ENDBRANCH  19  21
ENDBRANCH  14  19
ENDBRANCH   1  12
TORSDOF 6
ENDMDL


