REMARK SMILES O=C(C(=O)[C@@H]1CCc2nc(-c3ccc4[nH]ccc4c3)ncc2[C@H]1F)c1ccccc1
REMARK SMILES IDX 5 1 6 2 7 3 8 4 9 5 10 6 20 7 21 8 22 9 23 10 24 11 3 12
REMARK SMILES IDX 4 13 2 14 1 15 25 16 26 17 30 18 27 19 29 20 28 21 11 22
REMARK SMILES IDX 12 23 19 24 13 25 18 26 14 27 17 28 15 29 16 30
REMARK H PARENT 15 31
ROOT
ATOM      1  C   UNL     1      -1.041   1.832   0.948  1.00  0.00     0.104 C 
ATOM      2  C   UNL     1      -1.884   1.989  -0.329  1.00  0.00     0.022 C 
ATOM      3  C   UNL     1      -1.008   1.799  -1.570  1.00  0.00     0.057 C 
ATOM      4  C   UNL     1      -0.173   0.549  -1.495  1.00  0.00     0.051 A 
ATOM      5  N   UNL     1       0.361   0.053  -2.642  1.00  0.00    -0.233 NA
ATOM      6  C   UNL     1       1.164  -1.045  -2.643  1.00  0.00     0.159 A 
ATOM      7  N   UNL     1       1.444  -1.664  -1.465  1.00  0.00    -0.236 NA
ATOM      8  C   UNL     1       0.949  -1.204  -0.288  1.00  0.00     0.122 A 
ATOM      9  C   UNL     1       0.139  -0.062  -0.264  1.00  0.00     0.027 A 
ATOM     10  C   UNL     1      -0.474   0.402   1.040  1.00  0.00     0.211 C 
ATOM     11  F   UNL     1       0.477   0.356   2.047  1.00  0.00    -0.241 F 
ENDROOT
BRANCH   1  12
ATOM     12  C   UNL     1      -1.861   2.155   2.177  1.00  0.00     0.209 C 
ATOM     13  O   UNL     1      -3.008   1.644   2.305  1.00  0.00    -0.290 OA
BRANCH  12  14
ATOM     14  C   UNL     1      -1.307   2.993   3.265  1.00  0.00     0.228 C 
ATOM     15  O   UNL     1      -0.061   3.179   3.322  1.00  0.00    -0.285 OA
BRANCH  14  16
ATOM     16  C   UNL     1      -2.170   3.600   4.308  1.00  0.00     0.026 A 
ATOM     17  C   UNL     1      -3.478   4.031   4.013  1.00  0.00     0.012 A 
ATOM     18  C   UNL     1      -1.668   3.791   5.609  1.00  0.00     0.012 A 
ATOM     19  C   UNL     1      -4.271   4.615   5.005  1.00  0.00     0.001 A 
ATOM     20  C   UNL     1      -2.466   4.375   6.598  1.00  0.00     0.001 A 
ATOM     21  C   UNL     1      -3.767   4.784   6.297  1.00  0.00     0.000 A 
ENDBRANCH  14  16
ENDBRANCH  12  14
ENDBRANCH   1  12
BRANCH   6  22
ATOM     22  C   UNL     1       1.724  -1.563  -3.915  1.00  0.00     0.020 A 
ATOM     23  C   UNL     1       2.563  -2.712  -3.918  1.00  0.00     0.014 A 
ATOM     24  C   UNL     1       1.429  -0.918  -5.141  1.00  0.00     0.022 A 
ATOM     25  C   UNL     1       3.099  -3.211  -5.119  1.00  0.00     0.027 A 
ATOM     26  C   UNL     1       1.978  -1.441  -6.309  1.00  0.00     0.000 A 
ATOM     27  C   UNL     1       2.784  -2.546  -6.300  1.00  0.00     0.045 A 
ATOM     28  C   UNL     1       1.863  -1.025  -7.618  1.00  0.00     0.028 A 
ATOM     29  N   UNL     1       3.187  -2.854  -7.544  1.00  0.00    -0.361 N 
ATOM     30  C   UNL     1       2.626  -1.926  -8.354  1.00  0.00     0.083 A 
ATOM     31  H   UNL     1       3.805  -3.645  -7.831  1.00  0.00     0.166 HD
ENDBRANCH   6  22
TORSDOF 4


