MODEL 1
REMARK VINA RESULT:      -5.2      0.000      0.000
REMARK SMILES Cc1cc([NH2+]N)c(O)c(-n2nc3ccc(-c4ccc(O)cc4)cc3n2)c1
REMARK SMILES IDX 10 1 11 2 12 3 13 4 14 5 15 6 23 7 24 8 25 9 9 10 2 11 3 12
REMARK SMILES IDX 26 13 4 14 7 15 1 16 5 17 6 20 8 23 16 25 17 26 22 27 18 28
REMARK SMILES IDX 21 29 19 30 20 31
REMARK H PARENT 5 18 5 19 6 21 6 22 8 24 20 32
ROOT
ATOM      1  N   UNL     1      43.657 124.684  23.233  1.00  0.00    -0.146 N 
ATOM      2  N   UNL     1      44.092 123.424  23.252  1.00  0.00    -0.148 NA
ATOM      3  C   UNL     1      45.392 123.500  22.930  1.00  0.00     0.113 A 
ATOM      4  C   UNL     1      46.322 122.476  22.808  1.00  0.00     0.033 A 
ATOM      5  C   UNL     1      47.639 122.835  22.458  1.00  0.00     0.011 A 
ATOM      6  C   UNL     1      47.991 124.199  22.241  1.00  0.00    -0.016 A 
ATOM      7  C   UNL     1      47.000 125.203  22.379  1.00  0.00     0.041 A 
ATOM      8  C   UNL     1      45.714 124.801  22.725  1.00  0.00     0.114 A 
ATOM      9  N   UNL     1      44.621 125.551  22.919  1.00  0.00    -0.148 NA
ENDROOT
BRANCH   1  10
ATOM     10  C   UNL     1      42.302 125.080  23.538  1.00  0.00     0.134 A 
ATOM     11  C   UNL     1      40.739 126.842  24.180  1.00  0.00    -0.043 A 
ATOM     12  C   UNL     1      39.689 125.920  24.158  1.00  0.00     0.077 A 
ATOM     13  C   UNL     1      42.039 126.415  23.891  1.00  0.00     0.038 A 
ATOM     14  C   UNL     1      39.916 124.576  23.819  1.00  0.00     0.193 A 
ATOM     15  C   UNL     1      41.229 124.156  23.483  1.00  0.00     0.207 A 
ATOM     16  C   UNL     1      40.485 128.264  24.587  1.00  0.00     0.044 C 
BRANCH  14  17
ATOM     17  N   UNL     1      38.803 123.657  23.793  1.00  0.00    -0.236 N 
ATOM     18  H   UNL     1      38.593 123.334  22.818  1.00  0.00     0.376 HD
ATOM     19  H   UNL     1      37.944 124.122  24.167  1.00  0.00     0.376 HD
BRANCH  17  20
ATOM     20  N   UNL     1      39.120 122.539  24.591  1.00  0.00    -0.178 NA
ATOM     21  H   UNL     1      38.652 122.664  25.520  1.00  0.00     0.183 HD
ATOM     22  H   UNL     1      38.690 121.688  24.156  1.00  0.00     0.183 HD
ENDBRANCH  17  20
ENDBRANCH  14  17
BRANCH  15  23
ATOM     23  O   UNL     1      41.482 122.841  23.083  1.00  0.00    -0.501 OA
ATOM     24  H   UNL     1      42.329 122.337  23.308  1.00  0.00     0.293 HD
ENDBRANCH  15  23
ENDBRANCH   1  10
BRANCH   6  25
ATOM     25  C   UNL     1      49.382 124.566  21.874  1.00  0.00    -0.018 A 
ATOM     26  C   UNL     1      50.042 123.908  20.819  1.00  0.00     0.012 A 
ATOM     27  C   UNL     1      50.064 125.578  22.576  1.00  0.00     0.012 A 
ATOM     28  C   UNL     1      51.352 124.254  20.476  1.00  0.00     0.047 A 
ATOM     29  C   UNL     1      51.374 125.922  22.229  1.00  0.00     0.047 A 
ATOM     30  C   UNL     1      52.021 125.263  21.180  1.00  0.00     0.115 A 
BRANCH  30  31
ATOM     31  O   UNL     1      53.327 125.616  20.846  1.00  0.00    -0.508 OA
ATOM     32  H   UNL     1      53.526 126.226  20.061  1.00  0.00     0.293 HD
ENDBRANCH  30  31
ENDBRANCH   6  25
TORSDOF 6
ENDMDL
MODEL 2
REMARK VINA RESULT:      -5.0      2.620      3.259
REMARK SMILES Cc1cc([NH2+]N)c(O)c(-n2nc3ccc(-c4ccc(O)cc4)cc3n2)c1
REMARK SMILES IDX 10 1 11 2 12 3 13 4 14 5 15 6 23 7 24 8 25 9 9 10 2 11 3 12
REMARK SMILES IDX 26 13 4 14 7 15 1 16 5 17 6 20 8 23 16 25 17 26 22 27 18 28
REMARK SMILES IDX 21 29 19 30 20 31
REMARK H PARENT 5 18 5 19 6 21 6 22 8 24 20 32
ROOT
ATOM      1  N   UNL     1      44.786 124.935  23.123  1.00  0.00    -0.146 N 
ATOM      2  N   UNL     1      45.221 123.914  23.861  1.00  0.00    -0.148 NA
ATOM      3  C   UNL     1      46.390 123.558  23.309  1.00  0.00     0.113 A 
ATOM      4  C   UNL     1      47.263 122.548  23.689  1.00  0.00     0.033 A 
ATOM      5  C   UNL     1      48.439 122.387  22.930  1.00  0.00     0.011 A 
ATOM      6  C   UNL     1      48.711 123.236  21.817  1.00  0.00    -0.016 A 
ATOM      7  C   UNL     1      47.784 124.251  21.474  1.00  0.00     0.041 A 
ATOM      8  C   UNL     1      46.637 124.371  22.251  1.00  0.00     0.114 A 
ATOM      9  N   UNL     1      45.628 125.243  22.134  1.00  0.00    -0.148 NA
ENDROOT
BRANCH   1  10
ATOM     10  C   UNL     1      43.555 125.650  23.369  1.00  0.00     0.134 A 
ATOM     11  C   UNL     1      41.120 125.613  23.542  1.00  0.00    -0.043 A 
ATOM     12  C   UNL     1      41.118 126.983  23.820  1.00  0.00     0.077 A 
ATOM     13  C   UNL     1      42.333 124.960  23.298  1.00  0.00     0.038 A 
ATOM     14  C   UNL     1      42.320 127.707  23.888  1.00  0.00     0.193 A 
ATOM     15  C   UNL     1      43.551 127.032  23.684  1.00  0.00     0.207 A 
ATOM     16  C   UNL     1      39.824 124.865  23.429  1.00  0.00     0.044 C 
BRANCH  14  17
ATOM     17  N   UNL     1      42.278 129.118  24.191  1.00  0.00    -0.236 N 
ATOM     18  H   UNL     1      43.050 129.394  24.844  1.00  0.00     0.376 HD
ATOM     19  H   UNL     1      41.370 129.359  24.652  1.00  0.00     0.376 HD
BRANCH  17  20
ATOM     20  N   UNL     1      42.405 129.844  22.990  1.00  0.00    -0.178 NA
ATOM     21  H   UNL     1      43.065 129.323  22.368  1.00  0.00     0.183 HD
ATOM     22  H   UNL     1      41.477 129.843  22.503  1.00  0.00     0.183 HD
ENDBRANCH  17  20
ENDBRANCH  14  17
BRANCH  15  23
ATOM     23  O   UNL     1      44.769 127.708  23.804  1.00  0.00    -0.501 OA
ATOM     24  H   UNL     1      44.929 128.468  24.451  1.00  0.00     0.293 HD
ENDBRANCH  15  23
ENDBRANCH   1  10
BRANCH   6  25
ATOM     25  C   UNL     1      49.955 123.058  21.025  1.00  0.00    -0.018 A 
ATOM     26  C   UNL     1      51.118 122.540  21.625  1.00  0.00     0.012 A 
ATOM     27  C   UNL     1      49.991 123.407  19.662  1.00  0.00     0.012 A 
ATOM     28  C   UNL     1      52.288 122.375  20.877  1.00  0.00     0.047 A 
ATOM     29  C   UNL     1      51.162 123.240  18.918  1.00  0.00     0.047 A 
ATOM     30  C   UNL     1      52.312 122.724  19.522  1.00  0.00     0.115 A 
BRANCH  30  31
ATOM     31  O   UNL     1      53.473 122.563  18.767  1.00  0.00    -0.508 OA
ATOM     32  H   UNL     1      53.637 121.725  18.221  1.00  0.00     0.293 HD
ENDBRANCH  30  31
ENDBRANCH   6  25
TORSDOF 6
ENDMDL
MODEL 3
REMARK VINA RESULT:      -4.8      7.817      8.915
REMARK SMILES Cc1cc([NH2+]N)c(O)c(-n2nc3ccc(-c4ccc(O)cc4)cc3n2)c1
REMARK SMILES IDX 10 1 11 2 12 3 13 4 14 5 15 6 23 7 24 8 25 9 9 10 2 11 3 12
REMARK SMILES IDX 26 13 4 14 7 15 1 16 5 17 6 20 8 23 16 25 17 26 22 27 18 28
REMARK SMILES IDX 21 29 19 30 20 31
REMARK H PARENT 5 18 5 19 6 21 6 22 8 24 20 32
ROOT
ATOM      1  N   UNL     1      43.746 131.611  19.739  1.00  0.00    -0.146 N 
ATOM      2  N   UNL     1      42.961 131.928  18.710  1.00  0.00    -0.148 NA
ATOM      3  C   UNL     1      43.685 131.643  17.618  1.00  0.00     0.113 A 
ATOM      4  C   UNL     1      43.340 131.783  16.281  1.00  0.00     0.033 A 
ATOM      5  C   UNL     1      44.297 131.400  15.320  1.00  0.00     0.011 A 
ATOM      6  C   UNL     1      45.566 130.888  15.719  1.00  0.00    -0.016 A 
ATOM      7  C   UNL     1      45.865 130.766  17.099  1.00  0.00     0.041 A 
ATOM      8  C   UNL     1      44.890 131.158  18.009  1.00  0.00     0.114 A 
ATOM      9  N   UNL     1      44.929 131.134  19.348  1.00  0.00    -0.148 NA
ENDROOT
BRANCH   1  10
ATOM     10  C   UNL     1      43.363 131.743  21.125  1.00  0.00     0.134 A 
ATOM     11  C   UNL     1      41.736 132.511  22.776  1.00  0.00    -0.043 A 
ATOM     12  C   UNL     1      42.562 132.049  23.806  1.00  0.00     0.077 A 
ATOM     13  C   UNL     1      42.149 132.374  21.447  1.00  0.00     0.038 A 
ATOM     14  C   UNL     1      43.786 131.422  23.522  1.00  0.00     0.193 A 
ATOM     15  C   UNL     1      44.181 131.246  22.170  1.00  0.00     0.207 A 
ATOM     16  C   UNL     1      40.453 133.218  23.099  1.00  0.00     0.044 C 
BRANCH  14  17
ATOM     17  N   UNL     1      44.604 130.946  24.612  1.00  0.00    -0.236 N 
ATOM     18  H   UNL     1      44.261 131.305  25.535  1.00  0.00     0.376 HD
ATOM     19  H   UNL     1      45.591 131.270  24.490  1.00  0.00     0.376 HD
BRANCH  17  20
ATOM     20  N   UNL     1      44.569 129.537  24.623  1.00  0.00    -0.178 NA
ATOM     21  H   UNL     1      45.556 129.191  24.679  1.00  0.00     0.183 HD
ATOM     22  H   UNL     1      44.096 129.223  25.504  1.00  0.00     0.183 HD
ENDBRANCH  17  20
ENDBRANCH  14  17
BRANCH  15  23
ATOM     23  O   UNL     1      45.363 130.573  21.850  1.00  0.00    -0.501 OA
ATOM     24  H   UNL     1      46.264 130.794  22.253  1.00  0.00     0.293 HD
ENDBRANCH  15  23
ENDBRANCH   1  10
BRANCH   6  25
ATOM     25  C   UNL     1      46.567 130.485  14.698  1.00  0.00    -0.018 A 
ATOM     26  C   UNL     1      46.751 131.255  13.534  1.00  0.00     0.012 A 
ATOM     27  C   UNL     1      47.346 129.327  14.877  1.00  0.00     0.012 A 
ATOM     28  C   UNL     1      47.693 130.873  12.573  1.00  0.00     0.047 A 
ATOM     29  C   UNL     1      48.287 128.949  13.915  1.00  0.00     0.047 A 
ATOM     30  C   UNL     1      48.464 129.720  12.762  1.00  0.00     0.115 A 
BRANCH  30  31
ATOM     31  O   UNL     1      49.406 129.331  11.812  1.00  0.00    -0.508 OA
ATOM     32  H   UNL     1      49.170 129.266  10.828  1.00  0.00     0.293 HD
ENDBRANCH  30  31
ENDBRANCH   6  25
TORSDOF 6
ENDMDL
MODEL 4
REMARK VINA RESULT:      -4.5      1.515      2.308
REMARK SMILES Cc1cc([NH2+]N)c(O)c(-n2nc3ccc(-c4ccc(O)cc4)cc3n2)c1
REMARK SMILES IDX 10 1 11 2 12 3 13 4 14 5 15 6 23 7 24 8 25 9 9 10 2 11 3 12
REMARK SMILES IDX 26 13 4 14 7 15 1 16 5 17 6 20 8 23 16 25 17 26 22 27 18 28
REMARK SMILES IDX 21 29 19 30 20 31
REMARK H PARENT 5 18 5 19 6 21 6 22 8 24 20 32
ROOT
ATOM      1  N   UNL     1      44.760 125.030  22.751  1.00  0.00    -0.146 N 
ATOM      2  N   UNL     1      45.661 125.625  23.532  1.00  0.00    -0.148 NA
ATOM      3  C   UNL     1      46.850 125.309  22.998  1.00  0.00     0.113 A 
ATOM      4  C   UNL     1      48.121 125.672  23.420  1.00  0.00     0.033 A 
ATOM      5  C   UNL     1      49.214 125.202  22.666  1.00  0.00     0.011 A 
ATOM      6  C   UNL     1      49.010 124.386  21.515  1.00  0.00    -0.016 A 
ATOM      7  C   UNL     1      47.689 124.045  21.130  1.00  0.00     0.041 A 
ATOM      8  C   UNL     1      46.642 124.532  21.905  1.00  0.00     0.114 A 
ATOM      9  N   UNL     1      45.324 124.357  21.746  1.00  0.00    -0.148 NA
ENDROOT
BRANCH   1  10
ATOM     10  C   UNL     1      43.332 125.114  22.946  1.00  0.00     0.134 A 
ATOM     11  C   UNL     1      41.373 126.480  23.454  1.00  0.00    -0.043 A 
ATOM     12  C   UNL     1      40.557 125.348  23.356  1.00  0.00     0.077 A 
ATOM     13  C   UNL     1      42.753 126.354  23.269  1.00  0.00     0.038 A 
ATOM     14  C   UNL     1      41.103 124.091  23.045  1.00  0.00     0.193 A 
ATOM     15  C   UNL     1      42.498 123.976  22.815  1.00  0.00     0.207 A 
ATOM     16  C   UNL     1      40.779 127.806  23.830  1.00  0.00     0.044 C 
BRANCH  14  17
ATOM     17  N   UNL     1      40.226 122.949  22.940  1.00  0.00    -0.236 N 
ATOM     18  H   UNL     1      39.758 122.738  23.854  1.00  0.00     0.376 HD
ATOM     19  H   UNL     1      40.772 122.102  22.658  1.00  0.00     0.376 HD
BRANCH  17  20
ATOM     20  N   UNL     1      39.242 123.220  21.968  1.00  0.00    -0.178 NA
ATOM     21  H   UNL     1      38.869 124.182  22.148  1.00  0.00     0.183 HD
ATOM     22  H   UNL     1      39.704 123.254  21.028  1.00  0.00     0.183 HD
ENDBRANCH  17  20
ENDBRANCH  14  17
BRANCH  15  23
ATOM     23  O   UNL     1      43.065 122.753  22.445  1.00  0.00    -0.501 OA
ATOM     24  H   UNL     1      43.356 122.530  21.502  1.00  0.00     0.293 HD
ENDBRANCH  15  23
ENDBRANCH   1  10
BRANCH   6  25
ATOM     25  C   UNL     1      50.169 123.896  20.727  1.00  0.00    -0.018 A 
ATOM     26  C   UNL     1      51.440 124.481  20.883  1.00  0.00     0.012 A 
ATOM     27  C   UNL     1      50.016 122.840  19.809  1.00  0.00     0.012 A 
ATOM     28  C   UNL     1      52.530 124.020  20.139  1.00  0.00     0.047 A 
ATOM     29  C   UNL     1      51.108 122.381  19.067  1.00  0.00     0.047 A 
ATOM     30  C   UNL     1      52.366 122.968  19.230  1.00  0.00     0.115 A 
BRANCH  30  31
ATOM     31  O   UNL     1      53.446 122.500  18.483  1.00  0.00    -0.508 OA
ATOM     32  H   UNL     1      53.310 122.005  17.609  1.00  0.00     0.293 HD
ENDBRANCH  30  31
ENDBRANCH   6  25
TORSDOF 6
ENDMDL
MODEL 5
REMARK VINA RESULT:      -4.5      3.172      9.236
REMARK SMILES Cc1cc([NH2+]N)c(O)c(-n2nc3ccc(-c4ccc(O)cc4)cc3n2)c1
REMARK SMILES IDX 10 1 11 2 12 3 13 4 14 5 15 6 23 7 24 8 25 9 9 10 2 11 3 12
REMARK SMILES IDX 26 13 4 14 7 15 1 16 5 17 6 20 8 23 16 25 17 26 22 27 18 28
REMARK SMILES IDX 21 29 19 30 20 31
REMARK H PARENT 5 18 5 19 6 21 6 22 8 24 20 32
ROOT
ATOM      1  N   UNL     1      48.601 125.136  23.007  1.00  0.00    -0.146 N 
ATOM      2  N   UNL     1      48.289 123.893  22.641  1.00  0.00    -0.148 NA
ATOM      3  C   UNL     1      46.959 123.808  22.791  1.00  0.00     0.113 A 
ATOM      4  C   UNL     1      46.120 122.730  22.548  1.00  0.00     0.033 A 
ATOM      5  C   UNL     1      44.744 122.912  22.787  1.00  0.00     0.011 A 
ATOM      6  C   UNL     1      44.244 124.160  23.259  1.00  0.00    -0.016 A 
ATOM      7  C   UNL     1      45.147 125.228  23.491  1.00  0.00     0.041 A 
ATOM      8  C   UNL     1      46.496 125.001  23.242  1.00  0.00     0.114 A 
ATOM      9  N   UNL     1      47.530 125.842  23.376  1.00  0.00    -0.148 NA
ENDROOT
BRANCH   1  10
ATOM     10  C   UNL     1      49.940 125.678  22.989  1.00  0.00     0.134 A 
ATOM     11  C   UNL     1      51.524 127.349  23.800  1.00  0.00    -0.043 A 
ATOM     12  C   UNL     1      52.523 126.795  22.993  1.00  0.00     0.077 A 
ATOM     13  C   UNL     1      50.237 126.802  23.779  1.00  0.00     0.038 A 
ATOM     14  C   UNL     1      52.258 125.678  22.184  1.00  0.00     0.193 A 
ATOM     15  C   UNL     1      50.963 125.099  22.199  1.00  0.00     0.207 A 
ATOM     16  C   UNL     1      51.813 128.569  24.625  1.00  0.00     0.044 C 
BRANCH  14  17
ATOM     17  N   UNL     1      53.319 125.126  21.375  1.00  0.00    -0.236 N 
ATOM     18  H   UNL     1      53.550 124.145  21.661  1.00  0.00     0.376 HD
ATOM     19  H   UNL     1      54.187 125.701  21.479  1.00  0.00     0.376 HD
BRANCH  17  20
ATOM     20  N   UNL     1      52.910 125.129  20.027  1.00  0.00    -0.178 NA
ATOM     21  H   UNL     1      52.685 124.143  19.756  1.00  0.00     0.183 HD
ATOM     22  H   UNL     1      52.013 125.667  19.953  1.00  0.00     0.183 HD
ENDBRANCH  17  20
ENDBRANCH  14  17
BRANCH  15  23
ATOM     23  O   UNL     1      50.681 123.951  21.452  1.00  0.00    -0.501 OA
ATOM     24  H   UNL     1      50.254 123.119  21.838  1.00  0.00     0.293 HD
ENDBRANCH  15  23
ENDBRANCH   1  10
BRANCH   6  25
ATOM     25  C   UNL     1      42.791 124.342  23.507  1.00  0.00    -0.018 A 
ATOM     26  C   UNL     1      42.219 125.628  23.502  1.00  0.00     0.012 A 
ATOM     27  C   UNL     1      41.962 123.231  23.751  1.00  0.00     0.012 A 
ATOM     28  C   UNL     1      40.851 125.797  23.737  1.00  0.00     0.047 A 
ATOM     29  C   UNL     1      40.594 123.404  23.985  1.00  0.00     0.047 A 
ATOM     30  C   UNL     1      40.035 124.685  23.977  1.00  0.00     0.115 A 
BRANCH  30  31
ATOM     31  O   UNL     1      38.670 124.841  24.211  1.00  0.00    -0.508 OA
ATOM     32  H   UNL     1      38.185 124.285  24.905  1.00  0.00     0.293 HD
ENDBRANCH  30  31
ENDBRANCH   6  25
TORSDOF 6
ENDMDL
MODEL 6
REMARK VINA RESULT:      -4.5      3.202      9.227
REMARK SMILES Cc1cc([NH2+]N)c(O)c(-n2nc3ccc(-c4ccc(O)cc4)cc3n2)c1
REMARK SMILES IDX 10 1 11 2 12 3 13 4 14 5 15 6 23 7 24 8 25 9 9 10 2 11 3 12
REMARK SMILES IDX 26 13 4 14 7 15 1 16 5 17 6 20 8 23 16 25 17 26 22 27 18 28
REMARK SMILES IDX 21 29 19 30 20 31
REMARK H PARENT 5 18 5 19 6 21 6 22 8 24 20 32
ROOT
ATOM      1  N   UNL     1      48.693 125.149  22.892  1.00  0.00    -0.146 N 
ATOM      2  N   UNL     1      48.311 123.910  22.584  1.00  0.00    -0.148 NA
ATOM      3  C   UNL     1      46.987 123.890  22.797  1.00  0.00     0.113 A 
ATOM      4  C   UNL     1      46.091 122.843  22.630  1.00  0.00     0.033 A 
ATOM      5  C   UNL     1      44.737 123.094  22.925  1.00  0.00     0.011 A 
ATOM      6  C   UNL     1      44.314 124.379  23.375  1.00  0.00    -0.016 A 
ATOM      7  C   UNL     1      45.272 125.412  23.529  1.00  0.00     0.041 A 
ATOM      8  C   UNL     1      46.597 125.117  23.227  1.00  0.00     0.114 A 
ATOM      9  N   UNL     1      47.672 125.914  23.284  1.00  0.00    -0.148 NA
ENDROOT
BRANCH   1  10
ATOM     10  C   UNL     1      50.052 125.629  22.795  1.00  0.00     0.134 A 
ATOM     11  C   UNL     1      51.815 127.086  23.649  1.00  0.00    -0.043 A 
ATOM     12  C   UNL     1      52.681 126.621  22.655  1.00  0.00     0.077 A 
ATOM     13  C   UNL     1      50.503 126.604  23.702  1.00  0.00     0.038 A 
ATOM     14  C   UNL     1      52.261 125.654  21.727  1.00  0.00     0.193 A 
ATOM     15  C   UNL     1      50.943 125.136  21.810  1.00  0.00     0.207 A 
ATOM     16  C   UNL     1      52.267 128.150  24.605  1.00  0.00     0.044 C 
BRANCH  14  17
ATOM     17  N   UNL     1      53.190 125.189  20.724  1.00  0.00    -0.236 N 
ATOM     18  H   UNL     1      53.706 124.335  21.044  1.00  0.00     0.376 HD
ATOM     19  H   UNL     1      53.899 125.931  20.518  1.00  0.00     0.376 HD
BRANCH  17  20
ATOM     20  N   UNL     1      52.473 124.883  19.550  1.00  0.00    -0.178 NA
ATOM     21  H   UNL     1      51.705 124.220  19.805  1.00  0.00     0.183 HD
ATOM     22  H   UNL     1      52.007 125.758  19.208  1.00  0.00     0.183 HD
ENDBRANCH  17  20
ENDBRANCH  14  17
BRANCH  15  23
ATOM     23  O   UNL     1      50.511 124.130  20.941  1.00  0.00    -0.501 OA
ATOM     24  H   UNL     1      50.731 124.106  19.955  1.00  0.00     0.293 HD
ENDBRANCH  15  23
ENDBRANCH   1  10
BRANCH   6  25
ATOM     25  C   UNL     1      42.883 124.634  23.682  1.00  0.00    -0.018 A 
ATOM     26  C   UNL     1      41.916 123.635  23.464  1.00  0.00     0.012 A 
ATOM     27  C   UNL     1      42.472 125.878  24.194  1.00  0.00     0.012 A 
ATOM     28  C   UNL     1      40.569 123.877  23.752  1.00  0.00     0.047 A 
ATOM     29  C   UNL     1      41.124 126.116  24.481  1.00  0.00     0.047 A 
ATOM     30  C   UNL     1      40.171 125.118  24.262  1.00  0.00     0.115 A 
BRANCH  30  31
ATOM     31  O   UNL     1      38.831 125.370  24.554  1.00  0.00    -0.508 OA
ATOM     32  H   UNL     1      38.231 125.860  23.901  1.00  0.00     0.293 HD
ENDBRANCH  30  31
ENDBRANCH   6  25
TORSDOF 6
ENDMDL
MODEL 7
REMARK VINA RESULT:      -4.4      1.530      1.717
REMARK SMILES Cc1cc([NH2+]N)c(O)c(-n2nc3ccc(-c4ccc(O)cc4)cc3n2)c1
REMARK SMILES IDX 10 1 11 2 12 3 13 4 14 5 15 6 23 7 24 8 25 9 9 10 2 11 3 12
REMARK SMILES IDX 26 13 4 14 7 15 1 16 5 17 6 20 8 23 16 25 17 26 22 27 18 28
REMARK SMILES IDX 21 29 19 30 20 31
REMARK H PARENT 5 18 5 19 6 21 6 22 8 24 20 32
ROOT
ATOM      1  N   UNL     1      44.675 124.327  23.645  1.00  0.00    -0.146 N 
ATOM      2  N   UNL     1      45.326 123.476  24.438  1.00  0.00    -0.148 NA
ATOM      3  C   UNL     1      46.517 123.293  23.849  1.00  0.00     0.113 A 
ATOM      4  C   UNL     1      47.581 122.502  24.259  1.00  0.00     0.033 A 
ATOM      5  C   UNL     1      48.733 122.493  23.448  1.00  0.00     0.011 A 
ATOM      6  C   UNL     1      48.792 123.271  22.256  1.00  0.00    -0.016 A 
ATOM      7  C   UNL     1      47.675 124.061  21.885  1.00  0.00     0.041 A 
ATOM      8  C   UNL     1      46.561 124.038  22.716  1.00  0.00     0.114 A 
ATOM      9  N   UNL     1      45.400 124.693  22.587  1.00  0.00    -0.148 NA
ENDROOT
BRANCH   1  10
ATOM     10  C   UNL     1      43.342 124.821  23.903  1.00  0.00     0.134 A 
ATOM     11  C   UNL     1      41.842 126.727  24.179  1.00  0.00    -0.043 A 
ATOM     12  C   UNL     1      40.775 125.855  24.415  1.00  0.00     0.077 A 
ATOM     13  C   UNL     1      43.119 126.209  23.945  1.00  0.00     0.038 A 
ATOM     14  C   UNL     1      40.964 124.463  24.390  1.00  0.00     0.193 A 
ATOM     15  C   UNL     1      42.252 123.940  24.109  1.00  0.00     0.207 A 
ATOM     16  C   UNL     1      41.631 128.211  24.253  1.00  0.00     0.044 C 
BRANCH  14  17
ATOM     17  N   UNL     1      39.835 123.594  24.625  1.00  0.00    -0.236 N 
ATOM     18  H   UNL     1      39.855 123.189  25.591  1.00  0.00     0.376 HD
ATOM     19  H   UNL     1      39.845 122.798  23.946  1.00  0.00     0.376 HD
BRANCH  17  20
ATOM     20  N   UNL     1      38.649 124.338  24.461  1.00  0.00    -0.178 NA
ATOM     21  H   UNL     1      38.913 125.297  24.136  1.00  0.00     0.183 HD
ATOM     22  H   UNL     1      38.091 123.906  23.686  1.00  0.00     0.183 HD
ENDBRANCH  17  20
ENDBRANCH  14  17
BRANCH  15  23
ATOM     23  O   UNL     1      42.463 122.561  24.017  1.00  0.00    -0.501 OA
ATOM     24  H   UNL     1      41.834 121.926  23.545  1.00  0.00     0.293 HD
ENDBRANCH  15  23
ENDBRANCH   1  10
BRANCH   6  25
ATOM     25  C   UNL     1      50.012 123.256  21.409  1.00  0.00    -0.018 A 
ATOM     26  C   UNL     1      49.958 123.678  20.067  1.00  0.00     0.012 A 
ATOM     27  C   UNL     1      51.242 122.816  21.933  1.00  0.00     0.012 A 
ATOM     28  C   UNL     1      51.108 123.661  19.271  1.00  0.00     0.047 A 
ATOM     29  C   UNL     1      52.389 122.802  21.135  1.00  0.00     0.047 A 
ATOM     30  C   UNL     1      52.326 123.224  19.804  1.00  0.00     0.115 A 
BRANCH  30  31
ATOM     31  O   UNL     1      53.478 123.204  19.020  1.00  0.00    -0.508 OA
ATOM     32  H   UNL     1      53.472 122.826  18.079  1.00  0.00     0.293 HD
ENDBRANCH  30  31
ENDBRANCH   6  25
TORSDOF 6
ENDMDL
MODEL 8
REMARK VINA RESULT:      -4.3      2.165      2.869
REMARK SMILES Cc1cc([NH2+]N)c(O)c(-n2nc3ccc(-c4ccc(O)cc4)cc3n2)c1
REMARK SMILES IDX 10 1 11 2 12 3 13 4 14 5 15 6 23 7 24 8 25 9 9 10 2 11 3 12
REMARK SMILES IDX 26 13 4 14 7 15 1 16 5 17 6 20 8 23 16 25 17 26 22 27 18 28
REMARK SMILES IDX 21 29 19 30 20 31
REMARK H PARENT 5 18 5 19 6 21 6 22 8 24 20 32
ROOT
ATOM      1  N   UNL     1      44.216 124.770  23.042  1.00  0.00    -0.146 N 
ATOM      2  N   UNL     1      45.083 125.249  23.935  1.00  0.00    -0.148 NA
ATOM      3  C   UNL     1      46.294 124.958  23.435  1.00  0.00     0.113 A 
ATOM      4  C   UNL     1      47.546 125.235  23.966  1.00  0.00     0.033 A 
ATOM      5  C   UNL     1      48.670 124.819  23.226  1.00  0.00     0.011 A 
ATOM      6  C   UNL     1      48.515 124.141  21.981  1.00  0.00    -0.016 A 
ATOM      7  C   UNL     1      47.212 123.885  21.487  1.00  0.00     0.041 A 
ATOM      8  C   UNL     1      46.133 124.313  22.252  1.00  0.00     0.114 A 
ATOM      9  N   UNL     1      44.822 124.197  22.001  1.00  0.00    -0.148 NA
ENDROOT
BRANCH   1  10
ATOM     10  C   UNL     1      42.781 124.874  23.166  1.00  0.00     0.134 A 
ATOM     11  C   UNL     1      40.606 123.766  23.214  1.00  0.00    -0.043 A 
ATOM     12  C   UNL     1      39.978 125.004  23.383  1.00  0.00     0.077 A 
ATOM     13  C   UNL     1      41.998 123.710  23.087  1.00  0.00     0.038 A 
ATOM     14  C   UNL     1      40.729 126.189  23.456  1.00  0.00     0.193 A 
ATOM     15  C   UNL     1      42.144 126.123  23.370  1.00  0.00     0.207 A 
ATOM     16  C   UNL     1      39.786 122.515  23.094  1.00  0.00     0.044 C 
BRANCH  14  17
ATOM     17  N   UNL     1      40.045 127.446  23.644  1.00  0.00    -0.236 N 
ATOM     18  H   UNL     1      40.714 128.252  23.642  1.00  0.00     0.376 HD
ATOM     19  H   UNL     1      39.545 127.450  24.564  1.00  0.00     0.376 HD
BRANCH  17  20
ATOM     20  N   UNL     1      39.113 127.616  22.601  1.00  0.00    -0.178 NA
ATOM     21  H   UNL     1      39.613 127.461  21.694  1.00  0.00     0.183 HD
ATOM     22  H   UNL     1      38.392 126.859  22.673  1.00  0.00     0.183 HD
ENDBRANCH  17  20
ENDBRANCH  14  17
BRANCH  15  23
ATOM     23  O   UNL     1      42.925 127.275  23.500  1.00  0.00    -0.501 OA
ATOM     24  H   UNL     1      43.883 127.272  23.821  1.00  0.00     0.293 HD
ENDBRANCH  15  23
ENDBRANCH   1  10
BRANCH   6  25
ATOM     25  C   UNL     1      49.707 123.708  21.209  1.00  0.00    -0.018 A 
ATOM     26  C   UNL     1      50.629 122.800  21.764  1.00  0.00     0.012 A 
ATOM     27  C   UNL     1      49.936 124.200  19.910  1.00  0.00     0.012 A 
ATOM     28  C   UNL     1      51.751 122.395  21.035  1.00  0.00     0.047 A 
ATOM     29  C   UNL     1      51.059 123.791  19.184  1.00  0.00     0.047 A 
ATOM     30  C   UNL     1      51.968 122.889  19.743  1.00  0.00     0.115 A 
BRANCH  30  31
ATOM     31  O   UNL     1      53.083 122.491  19.007  1.00  0.00    -0.508 OA
ATOM     32  H   UNL     1      53.730 121.795  19.361  1.00  0.00     0.293 HD
ENDBRANCH  30  31
ENDBRANCH   6  25
TORSDOF 6
ENDMDL
MODEL 9
REMARK VINA RESULT:      -4.1      7.613      8.556
REMARK SMILES Cc1cc([NH2+]N)c(O)c(-n2nc3ccc(-c4ccc(O)cc4)cc3n2)c1
REMARK SMILES IDX 10 1 11 2 12 3 13 4 14 5 15 6 23 7 24 8 25 9 9 10 2 11 3 12
REMARK SMILES IDX 26 13 4 14 7 15 1 16 5 17 6 20 8 23 16 25 17 26 22 27 18 28
REMARK SMILES IDX 21 29 19 30 20 31
REMARK H PARENT 5 18 5 19 6 21 6 22 8 24 20 32
ROOT
ATOM      1  N   UNL     1      44.364 130.702  20.421  1.00  0.00    -0.146 N 
ATOM      2  N   UNL     1      43.637 131.454  19.595  1.00  0.00    -0.148 NA
ATOM      3  C   UNL     1      44.237 131.340  18.401  1.00  0.00     0.113 A 
ATOM      4  C   UNL     1      43.887 131.920  17.189  1.00  0.00     0.033 A 
ATOM      5  C   UNL     1      44.696 131.628  16.073  1.00  0.00     0.011 A 
ATOM      6  C   UNL     1      45.826 130.768  16.196  1.00  0.00    -0.016 A 
ATOM      7  C   UNL     1      46.137 130.204  17.458  1.00  0.00     0.041 A 
ATOM      8  C   UNL     1      45.311 130.521  18.530  1.00  0.00     0.114 A 
ATOM      9  N   UNL     1      45.391 130.115  19.804  1.00  0.00    -0.148 NA
ENDROOT
BRANCH   1  10
ATOM     10  C   UNL     1      44.071 130.517  21.823  1.00  0.00     0.134 A 
ATOM     11  C   UNL     1      44.419 129.244  23.877  1.00  0.00    -0.043 A 
ATOM     12  C   UNL     1      43.533 130.089  24.552  1.00  0.00     0.077 A 
ATOM     13  C   UNL     1      44.667 129.450  22.517  1.00  0.00     0.038 A 
ATOM     14  C   UNL     1      42.911 131.160  23.889  1.00  0.00     0.193 A 
ATOM     15  C   UNL     1      43.199 131.391  22.519  1.00  0.00     0.207 A 
ATOM     16  C   UNL     1      45.040 128.079  24.590  1.00  0.00     0.044 C 
BRANCH  14  17
ATOM     17  N   UNL     1      42.013 132.018  24.624  1.00  0.00    -0.236 N 
ATOM     18  H   UNL     1      42.531 132.786  25.116  1.00  0.00     0.376 HD
ATOM     19  H   UNL     1      41.499 131.465  25.349  1.00  0.00     0.376 HD
BRANCH  17  20
ATOM     20  N   UNL     1      41.090 132.587  23.723  1.00  0.00    -0.178 NA
ATOM     21  H   UNL     1      40.603 133.372  24.215  1.00  0.00     0.183 HD
ATOM     22  H   UNL     1      41.624 133.020  22.932  1.00  0.00     0.183 HD
ENDBRANCH  17  20
ENDBRANCH  14  17
BRANCH  15  23
ATOM     23  O   UNL     1      42.646 132.483  21.844  1.00  0.00    -0.501 OA
ATOM     24  H   UNL     1      42.561 133.408  22.243  1.00  0.00     0.293 HD
ENDBRANCH  15  23
ENDBRANCH   1  10
BRANCH   6  25
ATOM     25  C   UNL     1      46.671 130.466  15.012  1.00  0.00    -0.018 A 
ATOM     26  C   UNL     1      47.394 129.260  14.937  1.00  0.00     0.012 A 
ATOM     27  C   UNL     1      46.764 131.381  13.946  1.00  0.00     0.012 A 
ATOM     28  C   UNL     1      48.189 128.978  13.822  1.00  0.00     0.047 A 
ATOM     29  C   UNL     1      47.560 131.095  12.833  1.00  0.00     0.047 A 
ATOM     30  C   UNL     1      48.273 129.895  12.768  1.00  0.00     0.115 A 
BRANCH  30  31
ATOM     31  O   UNL     1      49.062 129.624  11.651  1.00  0.00    -0.508 OA
ATOM     32  H   UNL     1      49.578 130.356  11.177  1.00  0.00     0.293 HD
ENDBRANCH  30  31
ENDBRANCH   6  25
TORSDOF 6
ENDMDL


