REMARK SMILES Nc1c(C(=O)[N-]Cc2ccc[nH]2)cc(-n2[nH+]c3ccccc3[nH+]2)c(O)c1N
REMARK SMILES IDX 4 1 5 2 3 3 2 4 26 5 13 6 24 7 14 8 1 9 27 12 25 15 15 17
REMARK SMILES IDX 16 18 23 19 17 20 22 21 18 22 21 23 19 24 20 25 6 28 7 29
REMARK SMILES IDX 8 30 9 31 12 32 10 33 11 34
REMARK H PARENT 1 10 1 11 27 13 27 14 25 16 16 26 23 27 12 35
ROOT
ATOM      1  C   UNL     1      -1.764   1.442  -1.499  1.00  0.00     0.084 C 
ATOM      2  O   UNL     1      -2.013   2.130  -2.527  1.00  0.00    -0.315 OA
ENDROOT
BRANCH   1   3
ATOM      3  C   UNL     1      -0.386   0.965  -1.234  1.00  0.00     0.027 A 
ATOM      4  C   UNL     1       0.504   0.611  -2.277  1.00  0.00     0.068 A 
ATOM      5  C   UNL     1       1.834   0.224  -1.968  1.00  0.00     0.101 A 
ATOM      6  C   UNL     1       0.048   0.895   0.095  1.00  0.00     0.055 A 
ATOM      7  C   UNL     1       2.268   0.237  -0.620  1.00  0.00     0.176 A 
ATOM      8  C   UNL     1       1.360   0.533   0.410  1.00  0.00     0.212 A 
BRANCH   4   9
ATOM      9  N   UNL     1       0.039   0.582  -3.636  1.00  0.00    -0.396 N 
ATOM     10  H   UNL     1      -0.947   0.326  -3.861  1.00  0.00     0.156 HD
ATOM     11  H   UNL     1       0.650   0.867  -4.431  1.00  0.00     0.156 HD
ENDBRANCH   4   9
BRANCH   5  12
ATOM     12  N   UNL     1       2.713  -0.255  -3.001  1.00  0.00    -0.394 N 
ATOM     13  H   UNL     1       2.489  -0.171  -4.014  1.00  0.00     0.156 HD
ATOM     14  H   UNL     1       3.553  -0.831  -2.781  1.00  0.00     0.156 HD
ENDBRANCH   5  12
BRANCH   7  15
ATOM     15  O   UNL     1       3.603  -0.001  -0.278  1.00  0.00    -0.504 OA
ATOM     16  H   UNL     1       4.355  -0.056  -0.951  1.00  0.00     0.293 HD
ENDBRANCH   7  15
BRANCH   8  17
ATOM     17  N   UNL     1       1.771   0.495   1.788  1.00  0.00     0.083 N 
ATOM     18  N   UNL     1       2.525  -0.466   2.323  1.00  0.00    -0.062 N 
ATOM     19  N   UNL     1       1.399   1.387   2.705  1.00  0.00    -0.062 N 
ATOM     20  C   UNL     1       2.638  -0.168   3.627  1.00  0.00     0.306 A 
ATOM     21  C   UNL     1       1.942   0.981   3.864  1.00  0.00     0.306 A 
ATOM     22  C   UNL     1       3.299  -0.857   4.639  1.00  0.00     0.089 A 
ATOM     23  C   UNL     1       1.852   1.547   5.131  1.00  0.00     0.089 A 
ATOM     24  C   UNL     1       3.232  -0.315   5.939  1.00  0.00     0.007 A 
ATOM     25  C   UNL     1       2.513   0.882   6.183  1.00  0.00     0.007 A 
ATOM     26  H   UNL     1       2.907  -1.302   1.827  1.00  0.00     0.495 HD
ATOM     27  H   UNL     1       0.806   2.231   2.541  1.00  0.00     0.495 HD
ENDBRANCH   8  17
ENDBRANCH   1   3
BRANCH   1  28
ATOM     28  N   UNL     1      -2.809   1.158  -0.562  1.00  0.00    -0.644 NA
BRANCH  28  29
ATOM     29  C   UNL     1      -4.197   1.557  -0.756  1.00  0.00    -0.062 C 
BRANCH  29  30
ATOM     30  C   UNL     1      -4.810   0.772  -1.874  1.00  0.00    -0.003 A 
ATOM     31  C   UNL     1      -5.192   1.280  -3.100  1.00  0.00     0.021 A 
ATOM     32  N   UNL     1      -5.027  -0.556  -1.829  1.00  0.00    -0.366 N 
ATOM     33  C   UNL     1      -5.670   0.208  -3.827  1.00  0.00     0.019 A 
ATOM     34  C   UNL     1      -5.553  -0.904  -3.016  1.00  0.00     0.082 A 
ATOM     35  H   UNL     1      -4.821  -1.196  -1.030  1.00  0.00     0.166 HD
ENDBRANCH  29  30
ENDBRANCH  28  29
ENDBRANCH   1  28
TORSDOF 8


