MODEL 1
REMARK VINA RESULT:      -4.9      0.000      0.000
REMARK SMILES C=C[C@@H]1CN[C@H](c2c[nH+]c3ocnc3c2)N(/C(S)=[NH+]\c2cccc(SC(F)(F)F)c2)C1
REMARK SMILES IDX 19 1 17 3 18 4 16 6 31 7 6 8 3 9 5 10 4 11 7 13 15 14 8 15
REMARK SMILES IDX 14 16 9 17 13 18 10 19 12 20 11 21 2 23 1 24 20 25 21 26
REMARK SMILES IDX 30 27 22 28 24 29 23 30 25 31 26 32 27 33 28 34 29 35
REMARK H PARENT 19 2 18 5 5 12 9 22
ROOT
ATOM      1  N   UNL     1      46.160 129.618  19.704  1.00  0.00    -0.235 N 
ATOM      2  H   UNL     1      46.767 128.766  19.700  1.00  0.00     0.313 HD
ENDROOT
BRANCH   1   3
ATOM      3  C   UNL     1      45.721 130.056  20.856  1.00  0.00     0.309 C 
BRANCH   3   4
ATOM      4  S   UNL     1      46.003 131.780  21.273  1.00  0.00    -0.056 SA
ATOM      5  H   UNL     1      44.730 132.156  20.803  1.00  0.00     0.116 HD
ENDBRANCH   3   4
BRANCH   3   6
ATOM      6  N   UNL     1      45.214 129.161  21.873  1.00  0.00    -0.235 N 
ATOM      7  C   UNL     1      46.027 127.951  22.087  1.00  0.00     0.248 C 
ATOM      8  C   UNL     1      44.492 129.720  23.045  1.00  0.00     0.284 C 
ATOM      9  C   UNL     1      45.281 126.903  22.921  1.00  0.00     0.067 C 
ATOM     10  N   UNL     1      43.795 128.656  23.792  1.00  0.00    -0.274 NA
ATOM     11  C   UNL     1      44.707 127.575  24.171  1.00  0.00     0.097 C 
ATOM     12  H   UNL     1      43.420 129.071  24.678  1.00  0.00     0.127 HD
BRANCH   8  13
ATOM     13  C   UNL     1      43.465 130.760  22.625  1.00  0.00     0.078 A 
ATOM     14  C   UNL     1      43.335 131.139  21.268  1.00  0.00     0.055 A 
ATOM     15  C   UNL     1      42.600 131.351  23.587  1.00  0.00     0.319 A 
ATOM     16  C   UNL     1      42.395 132.112  20.960  1.00  0.00     0.179 A 
ATOM     17  N   UNL     1      41.687 132.300  23.218  1.00  0.00    -0.177 N 
ATOM     18  N   UNL     1      42.096 132.638  19.761  1.00  0.00    -0.209 NA
ATOM     19  C   UNL     1      41.614 132.662  21.917  1.00  0.00     0.399 A 
ATOM     20  C   UNL     1      41.108 133.518  20.082  1.00  0.00     0.316 A 
ATOM     21  O   UNL     1      40.815 133.535  21.373  1.00  0.00    -0.391 OA
ATOM     22  H   UNL     1      41.057 132.736  23.927  1.00  0.00     0.457 HD
ENDBRANCH   8  13
BRANCH   9  23
ATOM     23  C   UNL     1      44.199 126.224  22.110  1.00  0.00    -0.026 C 
ATOM     24  C   UNL     1      43.484 125.213  22.617  1.00  0.00     0.004 C 
ENDBRANCH   9  23
ENDBRANCH   3   6
ENDBRANCH   1   3
BRANCH   1  25
ATOM     25  C   UNL     1      45.831 130.178  18.422  1.00  0.00     0.126 A 
ATOM     26  C   UNL     1      44.885 131.210  18.341  1.00  0.00     0.052 A 
ATOM     27  C   UNL     1      46.371 129.654  17.241  1.00  0.00     0.067 A 
ATOM     28  C   UNL     1      44.522 131.742  17.099  1.00  0.00     0.006 A 
ATOM     29  C   UNL     1      46.000 130.174  15.996  1.00  0.00     0.020 A 
ATOM     30  C   UNL     1      45.081 131.228  15.928  1.00  0.00     0.015 A 
BRANCH  29  31
ATOM     31  S   UNL     1      46.731 129.512  14.497  1.00  0.00    -0.014 SA
BRANCH  31  32
ATOM     32  C   UNL     1      47.009 131.138  13.723  1.00  0.00     0.446 C 
ATOM     33  F   UNL     1      46.020 131.395  12.787  1.00  0.00    -0.160 F 
ATOM     34  F   UNL     1      47.007 132.128  14.686  1.00  0.00    -0.160 F 
ATOM     35  F   UNL     1      48.237 131.131  13.089  1.00  0.00    -0.160 F 
ENDBRANCH  31  32
ENDBRANCH  29  31
ENDBRANCH   1  25
TORSDOF 8
ENDMDL
MODEL 2
REMARK VINA RESULT:      -4.4      3.708      5.984
REMARK SMILES C=C[C@@H]1CN[C@H](c2c[nH+]c3ocnc3c2)N(/C(S)=[NH+]\c2cccc(SC(F)(F)F)c2)C1
REMARK SMILES IDX 19 1 17 3 18 4 16 6 31 7 6 8 3 9 5 10 4 11 7 13 15 14 8 15
REMARK SMILES IDX 14 16 9 17 13 18 10 19 12 20 11 21 2 23 1 24 20 25 21 26
REMARK SMILES IDX 30 27 22 28 24 29 23 30 25 31 26 32 27 33 28 34 29 35
REMARK H PARENT 19 2 18 5 5 12 9 22
ROOT
ATOM      1  N   UNL     1      44.880 127.569  22.032  1.00  0.00    -0.235 N 
ATOM      2  H   UNL     1      44.683 126.887  21.263  1.00  0.00     0.313 HD
ENDROOT
BRANCH   1   3
ATOM      3  C   UNL     1      44.993 127.107  23.251  1.00  0.00     0.309 C 
BRANCH   3   4
ATOM      4  S   UNL     1      44.529 128.181  24.614  1.00  0.00    -0.056 SA
ATOM      5  H   UNL     1      45.848 128.211  25.106  1.00  0.00     0.116 HD
ENDBRANCH   3   4
BRANCH   3   6
ATOM      6  N   UNL     1      45.669 125.860  23.538  1.00  0.00    -0.235 N 
ATOM      7  C   UNL     1      47.138 125.957  23.600  1.00  0.00     0.248 C 
ATOM      8  C   UNL     1      45.009 124.855  24.410  1.00  0.00     0.284 C 
ATOM      9  C   UNL     1      47.802 124.576  23.577  1.00  0.00     0.067 C 
ATOM     10  N   UNL     1      45.698 123.554  24.331  1.00  0.00    -0.274 NA
ATOM     11  C   UNL     1      47.128 123.679  24.620  1.00  0.00     0.097 C 
ATOM     12  H   UNL     1      45.288 122.922  25.061  1.00  0.00     0.127 HD
BRANCH   8  13
ATOM     13  C   UNL     1      43.553 124.649  24.025  1.00  0.00     0.078 A 
ATOM     14  C   UNL     1      43.178 123.597  23.156  1.00  0.00     0.055 A 
ATOM     15  C   UNL     1      42.538 125.495  24.551  1.00  0.00     0.319 A 
ATOM     16  C   UNL     1      41.836 123.483  22.826  1.00  0.00     0.179 A 
ATOM     17  N   UNL     1      41.229 125.326  24.193  1.00  0.00    -0.177 N 
ATOM     18  N   UNL     1      41.243 122.583  22.024  1.00  0.00    -0.209 NA
ATOM     19  C   UNL     1      40.913 124.330  23.334  1.00  0.00     0.399 A 
ATOM     20  C   UNL     1      39.938 122.962  22.097  1.00  0.00     0.316 A 
ATOM     21  O   UNL     1      39.734 124.008  22.882  1.00  0.00    -0.391 OA
ATOM     22  H   UNL     1      40.487 125.952  24.577  1.00  0.00     0.457 HD
ENDBRANCH   8  13
BRANCH   9  23
ATOM     23  C   UNL     1      47.744 123.960  22.196  1.00  0.00    -0.026 C 
ATOM     24  C   UNL     1      48.759 124.091  21.335  1.00  0.00     0.004 C 
ENDBRANCH   9  23
ENDBRANCH   3   6
ENDBRANCH   1   3
BRANCH   1  25
ATOM     25  C   UNL     1      44.944 128.955  21.661  1.00  0.00     0.126 A 
ATOM     26  C   UNL     1      44.493 129.934  22.558  1.00  0.00     0.052 A 
ATOM     27  C   UNL     1      45.368 129.345  20.383  1.00  0.00     0.067 A 
ATOM     28  C   UNL     1      44.511 131.286  22.200  1.00  0.00     0.006 A 
ATOM     29  C   UNL     1      45.374 130.696  20.017  1.00  0.00     0.020 A 
ATOM     30  C   UNL     1      44.955 131.668  20.933  1.00  0.00     0.015 A 
BRANCH  29  31
ATOM     31  S   UNL     1      45.955 131.177  18.389  1.00  0.00    -0.014 SA
BRANCH  31  32
ATOM     32  C   UNL     1      44.293 131.260  17.644  1.00  0.00     0.446 C 
ATOM     33  F   UNL     1      44.294 132.143  16.577  1.00  0.00    -0.160 F 
ATOM     34  F   UNL     1      43.905 130.006  17.211  1.00  0.00    -0.160 F 
ATOM     35  F   UNL     1      43.394 131.704  18.595  1.00  0.00    -0.160 F 
ENDBRANCH  31  32
ENDBRANCH  29  31
ENDBRANCH   1  25
TORSDOF 8
ENDMDL
MODEL 3
REMARK VINA RESULT:      -4.1      4.207      6.180
REMARK SMILES C=C[C@@H]1CN[C@H](c2c[nH+]c3ocnc3c2)N(/C(S)=[NH+]\c2cccc(SC(F)(F)F)c2)C1
REMARK SMILES IDX 19 1 17 3 18 4 16 6 31 7 6 8 3 9 5 10 4 11 7 13 15 14 8 15
REMARK SMILES IDX 14 16 9 17 13 18 10 19 12 20 11 21 2 23 1 24 20 25 21 26
REMARK SMILES IDX 30 27 22 28 24 29 23 30 25 31 26 32 27 33 28 34 29 35
REMARK H PARENT 19 2 18 5 5 12 9 22
ROOT
ATOM      1  N   UNL     1      46.437 132.271  21.051  1.00  0.00    -0.235 N 
ATOM      2  H   UNL     1      46.592 132.545  20.054  1.00  0.00     0.313 HD
ENDROOT
BRANCH   1   3
ATOM      3  C   UNL     1      45.661 131.246  21.295  1.00  0.00     0.309 C 
BRANCH   3   4
ATOM      4  S   UNL     1      46.174 129.631  20.700  1.00  0.00    -0.056 SA
ATOM      5  H   UNL     1      47.468 129.789  21.232  1.00  0.00     0.116 HD
ENDBRANCH   3   4
BRANCH   3   6
ATOM      6  N   UNL     1      44.327 131.407  21.831  1.00  0.00    -0.235 N 
ATOM      7  C   UNL     1      44.234 131.281  23.297  1.00  0.00     0.248 C 
ATOM      8  C   UNL     1      43.375 132.329  21.159  1.00  0.00     0.284 C 
ATOM      9  C   UNL     1      42.782 131.132  23.765  1.00  0.00     0.067 C 
ATOM     10  N   UNL     1      42.002 132.123  21.656  1.00  0.00    -0.274 NA
ATOM     11  C   UNL     1      41.932 132.227  23.114  1.00  0.00     0.097 C 
ATOM     12  H   UNL     1      41.395 132.881  21.261  1.00  0.00     0.127 HD
BRANCH   8  13
ATOM     13  C   UNL     1      43.373 132.130  19.652  1.00  0.00     0.078 A 
ATOM     14  C   UNL     1      44.566 131.797  18.967  1.00  0.00     0.055 A 
ATOM     15  C   UNL     1      42.168 132.250  18.908  1.00  0.00     0.319 A 
ATOM     16  C   UNL     1      44.497 131.655  17.589  1.00  0.00     0.179 A 
ATOM     17  N   UNL     1      42.163 132.089  17.550  1.00  0.00    -0.177 N 
ATOM     18  N   UNL     1      45.481 131.354  16.726  1.00  0.00    -0.209 NA
ATOM     19  C   UNL     1      43.328 131.805  16.924  1.00  0.00     0.399 A 
ATOM     20  C   UNL     1      44.818 131.344  15.538  1.00  0.00     0.316 A 
ATOM     21  O   UNL     1      43.526 131.612  15.651  1.00  0.00    -0.391 OA
ATOM     22  H   UNL     1      41.277 132.183  17.006  1.00  0.00     0.457 HD
ENDBRANCH   8  13
BRANCH   9  23
ATOM     23  C   UNL     1      42.242 129.754  23.454  1.00  0.00    -0.026 C 
ATOM     24  C   UNL     1      41.627 129.022  24.390  1.00  0.00     0.004 C 
ENDBRANCH   9  23
ENDBRANCH   3   6
ENDBRANCH   1   3
BRANCH   1  25
ATOM     25  C   UNL     1      47.057 133.099  22.049  1.00  0.00     0.126 A 
ATOM     26  C   UNL     1      46.458 133.229  23.310  1.00  0.00     0.052 A 
ATOM     27  C   UNL     1      48.204 133.849  21.758  1.00  0.00     0.067 A 
ATOM     28  C   UNL     1      47.026 134.061  24.281  1.00  0.00     0.006 A 
ATOM     29  C   UNL     1      48.766 134.693  22.723  1.00  0.00     0.020 A 
ATOM     30  C   UNL     1      48.180 134.789  23.990  1.00  0.00     0.015 A 
BRANCH  29  31
ATOM     31  S   UNL     1      50.256 135.617  22.342  1.00  0.00    -0.014 SA
BRANCH  31  32
ATOM     32  C   UNL     1      49.473 136.668  21.075  1.00  0.00     0.446 C 
ATOM     33  F   UNL     1      49.813 137.995  21.281  1.00  0.00    -0.160 F 
ATOM     34  F   UNL     1      49.880 136.273  19.815  1.00  0.00    -0.160 F 
ATOM     35  F   UNL     1      48.100 136.537  21.165  1.00  0.00    -0.160 F 
ENDBRANCH  31  32
ENDBRANCH  29  31
ENDBRANCH   1  25
TORSDOF 8
ENDMDL
MODEL 4
REMARK VINA RESULT:      -4.0      1.111      1.213
REMARK SMILES C=C[C@@H]1CN[C@H](c2c[nH+]c3ocnc3c2)N(/C(S)=[NH+]\c2cccc(SC(F)(F)F)c2)C1
REMARK SMILES IDX 19 1 17 3 18 4 16 6 31 7 6 8 3 9 5 10 4 11 7 13 15 14 8 15
REMARK SMILES IDX 14 16 9 17 13 18 10 19 12 20 11 21 2 23 1 24 20 25 21 26
REMARK SMILES IDX 30 27 22 28 24 29 23 30 25 31 26 32 27 33 28 34 29 35
REMARK H PARENT 19 2 18 5 5 12 9 22
ROOT
ATOM      1  N   UNL     1      45.660 129.545  19.107  1.00  0.00    -0.235 N 
ATOM      2  H   UNL     1      45.857 128.536  18.910  1.00  0.00     0.313 HD
ENDROOT
BRANCH   1   3
ATOM      3  C   UNL     1      45.675 129.943  20.353  1.00  0.00     0.309 C 
BRANCH   3   4
ATOM      4  S   UNL     1      46.352 131.567  20.718  1.00  0.00    -0.056 SA
ATOM      5  H   UNL     1      47.171 131.539  19.573  1.00  0.00     0.116 HD
ENDBRANCH   3   4
BRANCH   3   6
ATOM      6  N   UNL     1      45.366 129.049  21.447  1.00  0.00    -0.235 N 
ATOM      7  C   UNL     1      46.219 127.849  21.519  1.00  0.00     0.248 C 
ATOM      8  C   UNL     1      44.855 129.606  22.725  1.00  0.00     0.284 C 
ATOM      9  C   UNL     1      45.644 126.798  22.475  1.00  0.00     0.067 C 
ATOM     10  N   UNL     1      44.314 128.539  23.588  1.00  0.00    -0.274 NA
ATOM     11  C   UNL     1      45.291 127.470  23.805  1.00  0.00     0.097 C 
ATOM     12  H   UNL     1      44.096 128.955  24.525  1.00  0.00     0.127 HD
BRANCH   8  13
ATOM     13  C   UNL     1      43.758 130.632  22.490  1.00  0.00     0.078 A 
ATOM     14  C   UNL     1      43.519 131.148  21.194  1.00  0.00     0.055 A 
ATOM     15  C   UNL     1      42.937 131.073  23.563  1.00  0.00     0.319 A 
ATOM     16  C   UNL     1      42.519 132.099  21.056  1.00  0.00     0.179 A 
ATOM     17  N   UNL     1      41.961 132.009  23.361  1.00  0.00    -0.177 N 
ATOM     18  N   UNL     1      42.115 132.735  19.944  1.00  0.00    -0.209 NA
ATOM     19  C   UNL     1      41.783 132.504  22.115  1.00  0.00     0.399 A 
ATOM     20  C   UNL     1      41.115 133.525  20.422  1.00  0.00     0.316 A 
ATOM     21  O   UNL     1      40.911 133.390  21.723  1.00  0.00    -0.391 OA
ATOM     22  H   UNL     1      41.363 132.334  24.153  1.00  0.00     0.457 HD
ENDBRANCH   8  13
BRANCH   9  23
ATOM     23  C   UNL     1      44.445 126.102  21.871  1.00  0.00    -0.026 C 
ATOM     24  C   UNL     1      44.386 124.768  21.786  1.00  0.00     0.004 C 
ENDBRANCH   9  23
ENDBRANCH   3   6
ENDBRANCH   1   3
BRANCH   1  25
ATOM     25  C   UNL     1      45.335 130.369  17.975  1.00  0.00     0.126 A 
ATOM     26  C   UNL     1      44.084 130.999  17.915  1.00  0.00     0.052 A 
ATOM     27  C   UNL     1      46.211 130.486  16.888  1.00  0.00     0.067 A 
ATOM     28  C   UNL     1      43.735 131.774  16.804  1.00  0.00     0.006 A 
ATOM     29  C   UNL     1      45.858 131.250  15.770  1.00  0.00     0.020 A 
ATOM     30  C   UNL     1      44.621 131.904  15.734  1.00  0.00     0.015 A 
BRANCH  29  31
ATOM     31  S   UNL     1      47.009 131.416  14.403  1.00  0.00    -0.014 SA
BRANCH  31  32
ATOM     32  C   UNL     1      47.349 129.631  14.261  1.00  0.00     0.446 C 
ATOM     33  F   UNL     1      46.166 128.914  14.336  1.00  0.00    -0.160 F 
ATOM     34  F   UNL     1      47.980 129.363  13.061  1.00  0.00    -0.160 F 
ATOM     35  F   UNL     1      48.176 129.245  15.299  1.00  0.00    -0.160 F 
ENDBRANCH  31  32
ENDBRANCH  29  31
ENDBRANCH   1  25
TORSDOF 8
ENDMDL
MODEL 5
REMARK VINA RESULT:      -3.9      2.607      4.480
REMARK SMILES C=C[C@@H]1CN[C@H](c2c[nH+]c3ocnc3c2)N(/C(S)=[NH+]\c2cccc(SC(F)(F)F)c2)C1
REMARK SMILES IDX 19 1 17 3 18 4 16 6 31 7 6 8 3 9 5 10 4 11 7 13 15 14 8 15
REMARK SMILES IDX 14 16 9 17 13 18 10 19 12 20 11 21 2 23 1 24 20 25 21 26
REMARK SMILES IDX 30 27 22 28 24 29 23 30 25 31 26 32 27 33 28 34 29 35
REMARK H PARENT 19 2 18 5 5 12 9 22
ROOT
ATOM      1  N   UNL     1      45.301 130.557  19.096  1.00  0.00    -0.235 N 
ATOM      2  H   UNL     1      45.773 129.688  19.439  1.00  0.00     0.313 HD
ENDROOT
BRANCH   1   3
ATOM      3  C   UNL     1      44.550 131.222  19.935  1.00  0.00     0.309 C 
BRANCH   3   4
ATOM      4  S   UNL     1      42.836 131.522  19.486  1.00  0.00    -0.056 SA
ATOM      5  H   UNL     1      42.365 130.808  20.605  1.00  0.00     0.116 HD
ENDBRANCH   3   4
BRANCH   3   6
ATOM      6  N   UNL     1      45.101 131.893  21.092  1.00  0.00    -0.235 N 
ATOM      7  C   UNL     1      45.665 133.227  20.818  1.00  0.00     0.248 C 
ATOM      8  C   UNL     1      44.493 131.665  22.428  1.00  0.00     0.284 C 
ATOM      9  C   UNL     1      46.514 133.738  21.987  1.00  0.00     0.067 C 
ATOM     10  N   UNL     1      45.367 132.177  23.500  1.00  0.00    -0.274 NA
ATOM     11  C   UNL     1      45.721 133.581  23.288  1.00  0.00     0.097 C 
ATOM     12  H   UNL     1      44.841 132.122  24.405  1.00  0.00     0.127 HD
BRANCH   8  13
ATOM     13  C   UNL     1      44.238 130.189  22.683  1.00  0.00     0.078 A 
ATOM     14  C   UNL     1      45.186 129.214  22.290  1.00  0.00     0.055 A 
ATOM     15  C   UNL     1      43.053 129.762  23.343  1.00  0.00     0.319 A 
ATOM     16  C   UNL     1      44.877 127.884  22.531  1.00  0.00     0.179 A 
ATOM     17  N   UNL     1      42.810 128.434  23.559  1.00  0.00    -0.177 N 
ATOM     18  N   UNL     1      45.603 126.790  22.245  1.00  0.00    -0.209 NA
ATOM     19  C   UNL     1      43.724 127.529  23.140  1.00  0.00     0.399 A 
ATOM     20  C   UNL     1      44.805 125.794  22.719  1.00  0.00     0.316 A 
ATOM     21  O   UNL     1      43.677 126.232  23.257  1.00  0.00    -0.391 OA
ATOM     22  H   UNL     1      41.936 128.124  24.040  1.00  0.00     0.457 HD
ENDBRANCH   8  13
BRANCH   9  23
ATOM     23  C   UNL     1      47.843 133.017  22.059  1.00  0.00    -0.026 C 
ATOM     24  C   UNL     1      48.916 133.593  22.613  1.00  0.00     0.004 C 
ENDBRANCH   9  23
ENDBRANCH   3   6
ENDBRANCH   1   3
BRANCH   1  25
ATOM     25  C   UNL     1      45.492 130.887  17.711  1.00  0.00     0.126 A 
ATOM     26  C   UNL     1      44.972 132.088  17.208  1.00  0.00     0.052 A 
ATOM     27  C   UNL     1      46.112 129.991  16.830  1.00  0.00     0.067 A 
ATOM     28  C   UNL     1      45.113 132.409  15.854  1.00  0.00     0.006 A 
ATOM     29  C   UNL     1      46.243 130.303  15.472  1.00  0.00     0.020 A 
ATOM     30  C   UNL     1      45.751 131.520  14.987  1.00  0.00     0.015 A 
BRANCH  29  31
ATOM     31  S   UNL     1      47.072 129.157  14.369  1.00  0.00    -0.014 SA
BRANCH  31  32
ATOM     32  C   UNL     1      47.890 130.451  13.379  1.00  0.00     0.446 C 
ATOM     33  F   UNL     1      47.291 130.547  12.133  1.00  0.00    -0.160 F 
ATOM     34  F   UNL     1      47.808 131.667  14.029  1.00  0.00    -0.160 F 
ATOM     35  F   UNL     1      49.221 130.119  13.214  1.00  0.00    -0.160 F 
ENDBRANCH  31  32
ENDBRANCH  29  31
ENDBRANCH   1  25
TORSDOF 8
ENDMDL
MODEL 6
REMARK VINA RESULT:      -3.5      2.960      4.621
REMARK SMILES C=C[C@@H]1CN[C@H](c2c[nH+]c3ocnc3c2)N(/C(S)=[NH+]\c2cccc(SC(F)(F)F)c2)C1
REMARK SMILES IDX 19 1 17 3 18 4 16 6 31 7 6 8 3 9 5 10 4 11 7 13 15 14 8 15
REMARK SMILES IDX 14 16 9 17 13 18 10 19 12 20 11 21 2 23 1 24 20 25 21 26
REMARK SMILES IDX 30 27 22 28 24 29 23 30 25 31 26 32 27 33 28 34 29 35
REMARK H PARENT 19 2 18 5 5 12 9 22
ROOT
ATOM      1  N   UNL     1      44.380 132.349  19.907  1.00  0.00    -0.235 N 
ATOM      2  H   UNL     1      43.696 132.985  20.378  1.00  0.00     0.313 HD
ENDROOT
BRANCH   1   3
ATOM      3  C   UNL     1      45.376 131.882  20.615  1.00  0.00     0.309 C 
BRANCH   3   4
ATOM      4  S   UNL     1      45.993 130.239  20.234  1.00  0.00    -0.056 SA
ATOM      5  H   UNL     1      44.860 129.626  20.803  1.00  0.00     0.116 HD
ENDBRANCH   3   4
BRANCH   3   6
ATOM      6  N   UNL     1      45.846 132.550  21.809  1.00  0.00    -0.235 N 
ATOM      7  C   UNL     1      46.811 133.636  21.567  1.00  0.00     0.248 C 
ATOM      8  C   UNL     1      44.935 132.686  22.975  1.00  0.00     0.284 C 
ATOM      9  C   UNL     1      47.511 134.075  22.859  1.00  0.00     0.067 C 
ATOM     10  N   UNL     1      45.679 133.105  24.179  1.00  0.00    -0.274 NA
ATOM     11  C   UNL     1      46.455 134.323  23.940  1.00  0.00     0.097 C 
ATOM     12  H   UNL     1      44.984 133.322  24.933  1.00  0.00     0.127 HD
BRANCH   8  13
ATOM     13  C   UNL     1      44.222 131.380  23.285  1.00  0.00     0.078 A 
ATOM     14  C   UNL     1      44.922 130.295  23.863  1.00  0.00     0.055 A 
ATOM     15  C   UNL     1      42.832 131.235  23.021  1.00  0.00     0.319 A 
ATOM     16  C   UNL     1      44.215 129.125  24.096  1.00  0.00     0.179 A 
ATOM     17  N   UNL     1      42.189 130.056  23.280  1.00  0.00    -0.177 N 
ATOM     18  N   UNL     1      44.654 127.970  24.621  1.00  0.00    -0.209 NA
ATOM     19  C   UNL     1      42.898 129.029  23.803  1.00  0.00     0.399 A 
ATOM     20  C   UNL     1      43.525 127.210  24.610  1.00  0.00     0.316 A 
ATOM     21  O   UNL     1      42.469 127.841  24.121  1.00  0.00    -0.391 OA
ATOM     22  H   UNL     1      41.170 129.951  23.080  1.00  0.00     0.457 HD
ENDBRANCH   8  13
BRANCH   9  23
ATOM     23  C   UNL     1      48.533 133.053  23.306  1.00  0.00    -0.026 C 
ATOM     24  C   UNL     1      49.534 133.387  24.127  1.00  0.00     0.004 C 
ENDBRANCH   9  23
ENDBRANCH   3   6
ENDBRANCH   1   3
BRANCH   1  25
ATOM     25  C   UNL     1      44.172 132.108  18.506  1.00  0.00     0.126 A 
ATOM     26  C   UNL     1      42.874 131.881  18.027  1.00  0.00     0.052 A 
ATOM     27  C   UNL     1      45.253 132.009  17.619  1.00  0.00     0.067 A 
ATOM     28  C   UNL     1      42.656 131.606  16.673  1.00  0.00     0.006 A 
ATOM     29  C   UNL     1      45.039 131.721  16.266  1.00  0.00     0.020 A 
ATOM     30  C   UNL     1      43.735 131.530  15.792  1.00  0.00     0.015 A 
BRANCH  29  31
ATOM     31  S   UNL     1      46.433 131.634  15.141  1.00  0.00    -0.014 SA
BRANCH  31  32
ATOM     32  C   UNL     1      46.645 129.830  15.286  1.00  0.00     0.446 C 
ATOM     33  F   UNL     1      47.401 129.352  14.228  1.00  0.00    -0.160 F 
ATOM     34  F   UNL     1      47.268 129.521  16.480  1.00  0.00    -0.160 F 
ATOM     35  F   UNL     1      45.402 129.226  15.259  1.00  0.00    -0.160 F 
ENDBRANCH  31  32
ENDBRANCH  29  31
ENDBRANCH   1  25
TORSDOF 8
ENDMDL
MODEL 7
REMARK VINA RESULT:      -3.1      2.759      4.435
REMARK SMILES C=C[C@@H]1CN[C@H](c2c[nH+]c3ocnc3c2)N(/C(S)=[NH+]\c2cccc(SC(F)(F)F)c2)C1
REMARK SMILES IDX 19 1 17 3 18 4 16 6 31 7 6 8 3 9 5 10 4 11 7 13 15 14 8 15
REMARK SMILES IDX 14 16 9 17 13 18 10 19 12 20 11 21 2 23 1 24 20 25 21 26
REMARK SMILES IDX 30 27 22 28 24 29 23 30 25 31 26 32 27 33 28 34 29 35
REMARK H PARENT 19 2 18 5 5 12 9 22
ROOT
ATOM      1  N   UNL     1      45.509 131.203  19.456  1.00  0.00    -0.235 N 
ATOM      2  H   UNL     1      46.429 130.773  19.712  1.00  0.00     0.313 HD
ENDROOT
BRANCH   1   3
ATOM      3  C   UNL     1      44.790 131.733  20.411  1.00  0.00     0.309 C 
BRANCH   3   4
ATOM      4  S   UNL     1      43.019 131.891  20.154  1.00  0.00    -0.056 SA
ATOM      5  H   UNL     1      43.205 132.537  18.916  1.00  0.00     0.116 HD
ENDBRANCH   3   4
BRANCH   3   6
ATOM      6  N   UNL     1      45.393 132.377  21.557  1.00  0.00    -0.235 N 
ATOM      7  C   UNL     1      46.151 133.602  21.245  1.00  0.00     0.248 C 
ATOM      8  C   UNL     1      44.715 132.306  22.877  1.00  0.00     0.284 C 
ATOM      9  C   UNL     1      47.026 134.047  22.423  1.00  0.00     0.067 C 
ATOM     10  N   UNL     1      45.618 132.742  23.958  1.00  0.00    -0.274 NA
ATOM     11  C   UNL     1      46.176 134.071  23.696  1.00  0.00     0.097 C 
ATOM     12  H   UNL     1      45.061 132.808  24.843  1.00  0.00     0.127 HD
BRANCH   8  13
ATOM     13  C   UNL     1      44.244 130.895  23.189  1.00  0.00     0.078 A 
ATOM     14  C   UNL     1      44.925 129.773  22.660  1.00  0.00     0.055 A 
ATOM     15  C   UNL     1      43.124 130.677  24.038  1.00  0.00     0.319 A 
ATOM     16  C   UNL     1      44.425 128.515  22.964  1.00  0.00     0.179 A 
ATOM     17  N   UNL     1      42.684 129.410  24.307  1.00  0.00    -0.177 N 
ATOM     18  N   UNL     1      44.886 127.314  22.579  1.00  0.00    -0.209 NA
ATOM     19  C   UNL     1      43.341 128.363  23.757  1.00  0.00     0.399 A 
ATOM     20  C   UNL     1      44.009 126.470  23.188  1.00  0.00     0.316 A 
ATOM     21  O   UNL     1      43.081 127.094  23.896  1.00  0.00    -0.391 OA
ATOM     22  H   UNL     1      41.859 129.254  24.927  1.00  0.00     0.457 HD
ENDBRANCH   8  13
BRANCH   9  23
ATOM     23  C   UNL     1      48.234 133.150  22.580  1.00  0.00    -0.026 C 
ATOM     24  C   UNL     1      49.312 133.552  23.263  1.00  0.00     0.004 C 
ENDBRANCH   9  23
ENDBRANCH   3   6
ENDBRANCH   1   3
BRANCH   1  25
ATOM     25  C   UNL     1      45.116 131.105  18.077  1.00  0.00     0.126 A 
ATOM     26  C   UNL     1      44.088 131.925  17.591  1.00  0.00     0.052 A 
ATOM     27  C   UNL     1      45.681 130.144  17.228  1.00  0.00     0.067 A 
ATOM     28  C   UNL     1      43.664 131.817  16.263  1.00  0.00     0.006 A 
ATOM     29  C   UNL     1      45.250 130.025  15.902  1.00  0.00     0.020 A 
ATOM     30  C   UNL     1      44.247 130.872  15.417  1.00  0.00     0.015 A 
BRANCH  29  31
ATOM     31  S   UNL     1      46.011 128.812  14.821  1.00  0.00    -0.014 SA
BRANCH  31  32
ATOM     32  C   UNL     1      47.481 129.825  14.454  1.00  0.00     0.446 C 
ATOM     33  F   UNL     1      47.122 131.158  14.330  1.00  0.00    -0.160 F 
ATOM     34  F   UNL     1      48.416 129.687  15.462  1.00  0.00    -0.160 F 
ATOM     35  F   UNL     1      48.039 129.397  13.264  1.00  0.00    -0.160 F 
ENDBRANCH  31  32
ENDBRANCH  29  31
ENDBRANCH   1  25
TORSDOF 8
ENDMDL
MODEL 8
REMARK VINA RESULT:      -2.8      5.088      6.802
REMARK SMILES C=C[C@@H]1CN[C@H](c2c[nH+]c3ocnc3c2)N(/C(S)=[NH+]\c2cccc(SC(F)(F)F)c2)C1
REMARK SMILES IDX 19 1 17 3 18 4 16 6 31 7 6 8 3 9 5 10 4 11 7 13 15 14 8 15
REMARK SMILES IDX 14 16 9 17 13 18 10 19 12 20 11 21 2 23 1 24 20 25 21 26
REMARK SMILES IDX 30 27 22 28 24 29 23 30 25 31 26 32 27 33 28 34 29 35
REMARK H PARENT 19 2 18 5 5 12 9 22
ROOT
ATOM      1  N   UNL     1      46.383 133.688  21.080  1.00  0.00    -0.235 N 
ATOM      2  H   UNL     1      45.633 134.267  20.637  1.00  0.00     0.313 HD
ENDROOT
BRANCH   1   3
ATOM      3  C   UNL     1      46.180 132.401  21.196  1.00  0.00     0.309 C 
BRANCH   3   4
ATOM      4  S   UNL     1      47.306 131.283  20.355  1.00  0.00    -0.056 SA
ATOM      5  H   UNL     1      48.075 131.099  21.521  1.00  0.00     0.116 HD
ENDBRANCH   3   4
BRANCH   3   6
ATOM      6  N   UNL     1      44.975 131.867  21.792  1.00  0.00    -0.235 N 
ATOM      7  C   UNL     1      45.001 131.784  23.264  1.00  0.00     0.248 C 
ATOM      8  C   UNL     1      43.663 132.120  21.142  1.00  0.00     0.284 C 
ATOM      9  C   UNL     1      43.856 130.921  23.807  1.00  0.00     0.067 C 
ATOM     10  N   UNL     1      42.615 131.252  21.711  1.00  0.00    -0.274 NA
ATOM     11  C   UNL     1      42.541 131.376  23.168  1.00  0.00     0.097 C 
ATOM     12  H   UNL     1      41.691 131.559  21.325  1.00  0.00     0.127 HD
BRANCH   8  13
ATOM     13  C   UNL     1      43.725 131.874  19.643  1.00  0.00     0.078 A 
ATOM     14  C   UNL     1      44.796 131.144  19.075  1.00  0.00     0.055 A 
ATOM     15  C   UNL     1      42.694 132.353  18.788  1.00  0.00     0.319 A 
ATOM     16  C   UNL     1      44.802 130.980  17.698  1.00  0.00     0.179 A 
ATOM     17  N   UNL     1      42.754 132.151  17.437  1.00  0.00    -0.177 N 
ATOM     18  N   UNL     1      45.704 130.341  16.934  1.00  0.00    -0.209 NA
ATOM     19  C   UNL     1      43.810 131.477  16.926  1.00  0.00     0.399 A 
ATOM     20  C   UNL     1      45.178 130.502  15.689  1.00  0.00     0.316 A 
ATOM     21  O   UNL     1      44.042 131.182  15.678  1.00  0.00    -0.391 OA
ATOM     22  H   UNL     1      41.998 132.508  16.812  1.00  0.00     0.457 HD
ENDBRANCH   8  13
BRANCH   9  23
ATOM     23  C   UNL     1      44.112 129.450  23.562  1.00  0.00    -0.026 C 
ATOM     24  C   UNL     1      43.793 128.528  24.477  1.00  0.00     0.004 C 
ENDBRANCH   9  23
ENDBRANCH   3   6
ENDBRANCH   1   3
BRANCH   1  25
ATOM     25  C   UNL     1      47.536 134.393  21.567  1.00  0.00     0.126 A 
ATOM     26  C   UNL     1      47.940 135.579  20.936  1.00  0.00     0.052 A 
ATOM     27  C   UNL     1      48.319 133.874  22.606  1.00  0.00     0.067 A 
ATOM     28  C   UNL     1      49.082 136.259  21.370  1.00  0.00     0.006 A 
ATOM     29  C   UNL     1      49.470 134.545  23.034  1.00  0.00     0.020 A 
ATOM     30  C   UNL     1      49.844 135.747  22.421  1.00  0.00     0.015 A 
BRANCH  29  31
ATOM     31  S   UNL     1      50.438 133.882  24.391  1.00  0.00    -0.014 SA
BRANCH  31  32
ATOM     32  C   UNL     1      52.019 134.588  23.821  1.00  0.00     0.446 C 
ATOM     33  F   UNL     1      52.379 135.659  24.623  1.00  0.00    -0.160 F 
ATOM     34  F   UNL     1      53.009 133.625  23.858  1.00  0.00    -0.160 F 
ATOM     35  F   UNL     1      51.872 135.031  22.520  1.00  0.00    -0.160 F 
ENDBRANCH  31  32
ENDBRANCH  29  31
ENDBRANCH   1  25
TORSDOF 8
ENDMDL
MODEL 9
REMARK VINA RESULT:      -2.6      3.411      4.716
REMARK SMILES C=C[C@@H]1CN[C@H](c2c[nH+]c3ocnc3c2)N(/C(S)=[NH+]\c2cccc(SC(F)(F)F)c2)C1
REMARK SMILES IDX 19 1 17 3 18 4 16 6 31 7 6 8 3 9 5 10 4 11 7 13 15 14 8 15
REMARK SMILES IDX 14 16 9 17 13 18 10 19 12 20 11 21 2 23 1 24 20 25 21 26
REMARK SMILES IDX 30 27 22 28 24 29 23 30 25 31 26 32 27 33 28 34 29 35
REMARK H PARENT 19 2 18 5 5 12 9 22
ROOT
ATOM      1  N   UNL     1      44.741 132.232  18.698  1.00  0.00    -0.235 N 
ATOM      2  H   UNL     1      44.384 133.203  18.853  1.00  0.00     0.313 HD
ENDROOT
BRANCH   1   3
ATOM      3  C   UNL     1      45.236 131.587  19.723  1.00  0.00     0.309 C 
BRANCH   3   4
ATOM      4  S   UNL     1      46.539 130.387  19.423  1.00  0.00    -0.056 SA
ATOM      5  H   UNL     1      45.627 129.451  18.901  1.00  0.00     0.116 HD
ENDBRANCH   3   4
BRANCH   3   6
ATOM      6  N   UNL     1      44.632 131.654  21.036  1.00  0.00    -0.235 N 
ATOM      7  C   UNL     1      43.446 130.796  21.211  1.00  0.00     0.248 C 
ATOM      8  C   UNL     1      45.490 131.892  22.225  1.00  0.00     0.284 C 
ATOM      9  C   UNL     1      42.669 131.151  22.483  1.00  0.00     0.067 C 
ATOM     10  N   UNL     1      44.674 132.233  23.405  1.00  0.00    -0.274 NA
ATOM     11  C   UNL     1      43.644 131.225  23.662  1.00  0.00     0.097 C 
ATOM     12  H   UNL     1      45.303 132.254  24.243  1.00  0.00     0.127 HD
BRANCH   8  13
ATOM     13  C   UNL     1      46.479 133.021  21.985  1.00  0.00     0.078 A 
ATOM     14  C   UNL     1      47.658 133.125  22.760  1.00  0.00     0.055 A 
ATOM     15  C   UNL     1      46.248 133.979  20.960  1.00  0.00     0.319 A 
ATOM     16  C   UNL     1      48.503 134.195  22.504  1.00  0.00     0.179 A 
ATOM     17  N   UNL     1      47.125 135.008  20.751  1.00  0.00    -0.177 N 
ATOM     18  N   UNL     1      49.662 134.509  23.105  1.00  0.00    -0.209 NA
ATOM     19  C   UNL     1      48.225 135.094  21.534  1.00  0.00     0.399 A 
ATOM     20  C   UNL     1      50.029 135.634  22.432  1.00  0.00     0.316 A 
ATOM     21  O   UNL     1      49.171 135.988  21.488  1.00  0.00    -0.391 OA
ATOM     22  H   UNL     1      46.950 135.713  20.001  1.00  0.00     0.457 HD
ENDBRANCH   8  13
BRANCH   9  23
ATOM     23  C   UNL     1      41.903 132.445  22.317  1.00  0.00    -0.026 C 
ATOM     24  C   UNL     1      41.641 132.946  21.104  1.00  0.00     0.004 C 
ENDBRANCH   9  23
ENDBRANCH   3   6
ENDBRANCH   1   3
BRANCH   1  25
ATOM     25  C   UNL     1      44.698 131.739  17.349  1.00  0.00     0.126 A 
ATOM     26  C   UNL     1      43.527 131.892  16.594  1.00  0.00     0.052 A 
ATOM     27  C   UNL     1      45.776 131.030  16.801  1.00  0.00     0.067 A 
ATOM     28  C   UNL     1      43.453 131.385  15.292  1.00  0.00     0.006 A 
ATOM     29  C   UNL     1      45.699 130.510  15.505  1.00  0.00     0.020 A 
ATOM     30  C   UNL     1      44.538 130.698  14.746  1.00  0.00     0.015 A 
BRANCH  29  31
ATOM     31  S   UNL     1      47.103 129.636  14.809  1.00  0.00    -0.014 SA
BRANCH  31  32
ATOM     32  C   UNL     1      47.470 130.900  13.548  1.00  0.00     0.446 C 
ATOM     33  F   UNL     1      48.724 130.678  13.003  1.00  0.00    -0.160 F 
ATOM     34  F   UNL     1      46.515 130.865  12.550  1.00  0.00    -0.160 F 
ATOM     35  F   UNL     1      47.452 132.148  14.142  1.00  0.00    -0.160 F 
ENDBRANCH  31  32
ENDBRANCH  29  31
ENDBRANCH   1  25
TORSDOF 8
ENDMDL


