REMARK SMILES O=C=Nc1cc(O)c(F)cc1Nc1ccc2cc[nH]c2c1
REMARK SMILES IDX 6 1 5 2 4 3 11 4 10 5 8 6 9 7 7 8 3 10 2 11 1 12 12 13 13 15
REMARK SMILES IDX 14 16 21 17 15 18 20 19 16 20 19 21 17 22 18 23
REMARK H PARENT 7 9 12 14 19 24
ROOT
ATOM      1  C   UNL     1      -0.970   2.094   3.734  1.00  0.00     0.153 A 
ATOM      2  C   UNL     1       0.300   1.571   3.461  1.00  0.00     0.080 A 
ATOM      3  C   UNL     1       0.698   1.296   2.145  1.00  0.00     0.104 A 
ATOM      4  C   UNL     1      -0.229   1.504   1.088  1.00  0.00     0.069 A 
ATOM      5  C   UNL     1      -1.489   2.050   1.371  1.00  0.00     0.071 A 
ATOM      6  C   UNL     1      -1.858   2.342   2.684  1.00  0.00     0.167 A 
ATOM      7  F   UNL     1      -3.088   2.854   2.940  1.00  0.00    -0.203 F 
ENDROOT
BRANCH   1   8
ATOM      8  O   UNL     1      -1.355   2.376   5.043  1.00  0.00    -0.505 OA
ATOM      9  H   UNL     1      -0.733   2.209   5.826  1.00  0.00     0.293 HD
ENDBRANCH   1   8
BRANCH   3  10
ATOM     10  N   UNL     1       2.043   0.826   1.945  1.00  0.00    -0.166 NA
BRANCH  10  11
ATOM     11  C   UNL     1       2.686   0.908   0.850  1.00  0.00     0.240 C 
ATOM     12  O   UNL     1       3.314   0.987  -0.213  1.00  0.00    -0.211 OA
ENDBRANCH  10  11
ENDBRANCH   3  10
BRANCH   4  13
ATOM     13  N   UNL     1       0.067   1.144  -0.269  1.00  0.00    -0.354 N 
ATOM     14  H   UNL     1       0.014   1.901  -0.988  1.00  0.00     0.167 HD
BRANCH  13  15
ATOM     15  C   UNL     1       0.219  -0.217  -0.714  1.00  0.00     0.041 A 
ATOM     16  C   UNL     1      -0.031  -1.317   0.155  1.00  0.00     0.027 A 
ATOM     17  C   UNL     1       0.619  -0.462  -2.046  1.00  0.00     0.052 A 
ATOM     18  C   UNL     1       0.128  -2.639  -0.296  1.00  0.00     0.012 A 
ATOM     19  C   UNL     1       0.767  -1.784  -2.459  1.00  0.00     0.047 A 
ATOM     20  C   UNL     1       0.530  -2.833  -1.613  1.00  0.00    -0.001 A 
ATOM     21  N   UNL     1       1.140  -2.224  -3.672  1.00  0.00    -0.361 N 
ATOM     22  C   UNL     1       0.764  -3.993  -2.319  1.00  0.00     0.028 A 
ATOM     23  C   UNL     1       1.140  -3.574  -3.591  1.00  0.00     0.083 A 
ATOM     24  H   UNL     1       1.382  -1.646  -4.507  1.00  0.00     0.166 HD
ENDBRANCH  13  15
ENDBRANCH   4  13
TORSDOF 5


