REMARK SMILES Cc1n[nH]c2c1ccc1c(NN)cccc12
REMARK SMILES IDX 11 1 10 3 2 4 3 5 6 6 4 7 5 8 7 9 16 10 8 11 15 12 9 13
REMARK SMILES IDX 14 14 13 15 1 16 12 18
REMARK H PARENT 11 2 4 17 12 19 12 20
ROOT
ATOM      1  N   UNL     1      -0.467   0.217   4.500  1.00  0.00    -0.324 N 
ATOM      2  H   UNL     1       0.438  -0.263   4.693  1.00  0.00     0.181 HD
ENDROOT
BRANCH   1   3
ATOM      3  C   UNL     1      -0.784   0.681   3.169  1.00  0.00     0.056 A 
ATOM      4  C   UNL     1       1.325  -1.343  -1.562  1.00  0.00     0.067 A 
ATOM      5  N   UNL     1       0.734  -0.473  -2.413  1.00  0.00    -0.180 NA
ATOM      6  C   UNL     1       0.940  -1.035  -0.275  1.00  0.00     0.023 A 
ATOM      7  N   UNL     1       0.003   0.374  -1.695  1.00  0.00    -0.277 N 
ATOM      8  C   UNL     1       0.116   0.046  -0.392  1.00  0.00     0.073 A 
ATOM      9  C   UNL     1       1.226  -1.622   0.950  1.00  0.00     0.013 A 
ATOM     10  C   UNL     1      -0.486   0.641   0.727  1.00  0.00     0.010 A 
ATOM     11  C   UNL     1       0.650  -1.058   2.100  1.00  0.00     0.012 A 
ATOM     12  C   UNL     1      -1.357   1.732   0.606  1.00  0.00     0.011 A 
ATOM     13  C   UNL     1      -0.196   0.089   2.016  1.00  0.00     0.008 A 
ATOM     14  C   UNL     1      -1.949   2.280   1.740  1.00  0.00     0.003 A 
ATOM     15  C   UNL     1      -1.669   1.764   3.004  1.00  0.00     0.028 A 
ATOM     16  C   UNL     1       2.196  -2.479  -1.989  1.00  0.00     0.069 C 
ATOM     17  H   UNL     1      -0.559   1.149  -2.109  1.00  0.00     0.190 HD
ENDBRANCH   1   3
BRANCH   1  18
ATOM     18  N   UNL     1      -1.335   0.396   5.590  1.00  0.00    -0.250 NA
ATOM     19  H   UNL     1      -2.291   0.087   5.299  1.00  0.00     0.143 HD
ATOM     20  H   UNL     1      -1.365   1.414   5.821  1.00  0.00     0.143 HD
ENDBRANCH   1  18
TORSDOF 2


