REMARK SMILES CC(=O)Oc1ccc([NH2+]c2ccc3cc[nH]c3c2)c(F)c1
REMARK SMILES IDX 5 1 6 2 7 3 8 4 19 5 20 6 21 7 4 8 2 9 1 10 3 11 9 12 10 15
REMARK SMILES IDX 11 16 18 17 12 18 17 19 13 20 16 21 14 22 15 23
REMARK H PARENT 9 13 9 14 16 24
ROOT
ATOM      1  C   UNL     1      -1.895  -0.150  -1.906  1.00  0.00     0.134 A 
ATOM      2  C   UNL     1      -0.838  -1.060  -2.012  1.00  0.00     0.053 A 
ATOM      3  C   UNL     1      -0.137  -1.469  -0.875  1.00  0.00     0.075 A 
ATOM      4  C   UNL     1      -0.495  -0.987   0.397  1.00  0.00     0.170 A 
ATOM      5  C   UNL     1      -1.570  -0.083   0.505  1.00  0.00     0.187 A 
ATOM      6  F   UNL     1      -1.951   0.393   1.717  1.00  0.00    -0.200 F 
ATOM      7  C   UNL     1      -2.268   0.325  -0.636  1.00  0.00     0.093 A 
ENDROOT
BRANCH   1   8
ATOM      8  O   UNL     1      -2.573   0.224  -3.076  1.00  0.00    -0.427 OA
BRANCH   8   9
ATOM      9  C   UNL     1      -3.236   1.442  -3.273  1.00  0.00     0.308 C 
ATOM     10  C   UNL     1      -4.145   1.595  -4.445  1.00  0.00     0.139 C 
ATOM     11  O   UNL     1      -3.001   2.438  -2.537  1.00  0.00    -0.252 OA
ENDBRANCH   8   9
ENDBRANCH   1   8
BRANCH   4  12
ATOM     12  N   UNL     1       0.255  -1.390   1.562  1.00  0.00    -0.279 N 
ATOM     13  H   UNL     1       0.608  -2.369   1.440  1.00  0.00     0.358 HD
ATOM     14  H   UNL     1      -0.361  -1.399   2.408  1.00  0.00     0.358 HD
BRANCH  12  15
ATOM     15  C   UNL     1       1.364  -0.491   1.760  1.00  0.00     0.136 A 
ATOM     16  C   UNL     1       1.220   0.654   2.589  1.00  0.00     0.069 A 
ATOM     17  C   UNL     1       2.594  -0.722   1.098  1.00  0.00     0.094 A 
ATOM     18  C   UNL     1       2.286   1.554   2.764  1.00  0.00     0.016 A 
ATOM     19  C   UNL     1       3.628   0.191   1.294  1.00  0.00     0.051 A 
ATOM     20  C   UNL     1       3.478   1.288   2.098  1.00  0.00    -0.000 A 
ATOM     21  N   UNL     1       4.861   0.153   0.763  1.00  0.00    -0.361 N 
ATOM     22  C   UNL     1       4.670   1.980   2.078  1.00  0.00     0.028 A 
ATOM     23  C   UNL     1       5.502   1.245   1.239  1.00  0.00     0.083 A 
ATOM     24  H   UNL     1       5.248  -0.567   0.114  1.00  0.00     0.166 HD
ENDBRANCH  12  15
ENDBRANCH   4  12
TORSDOF 4


