MODEL 1
REMARK VINA RESULT:      -9.2      0.000      0.000
REMARK SMILES CC(=O)c1ccc(-c2cc(N)c(O)c(Nc3ccc(C)c(F)c3)c2)c(F)[nH+]1
REMARK SMILES IDX 8 1 9 2 10 3 12 4 14 5 24 6 7 7 4 8 5 9 27 10 6 11 25 12
REMARK SMILES IDX 26 14 2 15 1 16 3 17 11 18 15 21 16 23 17 24 23 25 18 26
REMARK SMILES IDX 21 27 19 28 22 29 20 30 13 31
REMARK H PARENT 27 13 11 19 11 20 15 22 13 32
ROOT
ATOM      1  C   UNL     1      44.576 131.324  17.846  1.00  0.00    -0.005 A 
ATOM      2  C   UNL     1      43.287 131.856  17.704  1.00  0.00     0.038 A 
ATOM      3  C   UNL     1      42.487 132.123  18.824  1.00  0.00     0.077 A 
ATOM      4  C   UNL     1      42.986 131.841  20.119  1.00  0.00     0.162 A 
ATOM      5  C   UNL     1      44.303 131.359  20.266  1.00  0.00     0.084 A 
ATOM      6  C   UNL     1      45.076 131.082  19.134  1.00  0.00     0.039 A 
ENDROOT
BRANCH   1   7
ATOM      7  C   UNL     1      45.409 131.046  16.650  1.00  0.00     0.086 A 
ATOM      8  C   UNL     1      46.989 130.517  14.400  1.00  0.00     0.249 A 
ATOM      9  C   UNL     1      46.704 131.844  14.763  1.00  0.00     0.084 A 
ATOM     10  N   UNL     1      46.479 129.499  15.158  1.00  0.00    -0.176 N 
ATOM     11  C   UNL     1      45.917 132.103  15.883  1.00  0.00     0.025 A 
ATOM     12  C   UNL     1      45.708 129.730  16.255  1.00  0.00     0.366 A 
ATOM     13  H   UNL     1      46.667 128.504  14.905  1.00  0.00     0.457 HD
ATOM     14  F   UNL     1      45.202 128.674  16.944  1.00  0.00    -0.136 F 
BRANCH   8  15
ATOM     15  C   UNL     1      47.831 130.239  13.206  1.00  0.00     0.223 C 
ATOM     16  C   UNL     1      47.707 131.044  11.949  1.00  0.00     0.100 C 
ATOM     17  O   UNL     1      48.677 129.303  13.239  1.00  0.00    -0.288 OA
ENDBRANCH   8  15
ENDBRANCH   1   7
BRANCH   3  18
ATOM     18  N   UNL     1      41.184 132.687  18.621  1.00  0.00    -0.396 N 
ATOM     19  H   UNL     1      40.481 132.268  17.976  1.00  0.00     0.156 HD
ATOM     20  H   UNL     1      40.864 133.495  19.201  1.00  0.00     0.156 HD
ENDBRANCH   3  18
BRANCH   5  21
ATOM     21  N   UNL     1      44.852 131.081  21.565  1.00  0.00    -0.352 N 
ATOM     22  H   UNL     1      45.379 131.847  22.043  1.00  0.00     0.167 HD
BRANCH  21  23
ATOM     23  C   UNL     1      44.632 129.856  22.289  1.00  0.00     0.041 A 
ATOM     24  C   UNL     1      43.765 129.854  23.390  1.00  0.00     0.026 A 
ATOM     25  C   UNL     1      45.226 128.648  21.883  1.00  0.00     0.065 A 
ATOM     26  C   UNL     1      43.521 128.676  24.099  1.00  0.00     0.008 A 
ATOM     27  C   UNL     1      44.983 127.466  22.591  1.00  0.00     0.128 A 
ATOM     28  C   UNL     1      44.140 127.476  23.715  1.00  0.00    -0.015 A 
ATOM     29  F   UNL     1      45.563 126.312  22.175  1.00  0.00    -0.207 F 
ATOM     30  C   UNL     1      43.854 126.204  24.458  1.00  0.00     0.047 C 
ENDBRANCH  21  23
ENDBRANCH   5  21
BRANCH   4  31
ATOM     31  O   UNL     1      42.199 131.991  21.264  1.00  0.00    -0.504 OA
ATOM     32  H   UNL     1      41.530 132.735  21.397  1.00  0.00     0.293 HD
ENDBRANCH   4  31
TORSDOF 6
ENDMDL
MODEL 2
REMARK VINA RESULT:      -9.1      1.306      1.564
REMARK SMILES CC(=O)c1ccc(-c2cc(N)c(O)c(Nc3ccc(C)c(F)c3)c2)c(F)[nH+]1
REMARK SMILES IDX 8 1 9 2 10 3 12 4 14 5 24 6 7 7 4 8 5 9 27 10 6 11 25 12
REMARK SMILES IDX 26 14 2 15 1 16 3 17 11 18 15 21 16 23 17 24 23 25 18 26
REMARK SMILES IDX 21 27 19 28 22 29 20 30 13 31
REMARK H PARENT 27 13 11 19 11 20 15 22 13 32
ROOT
ATOM      1  C   UNL     1      44.719 131.231  18.295  1.00  0.00    -0.005 A 
ATOM      2  C   UNL     1      43.522 131.960  18.261  1.00  0.00     0.038 A 
ATOM      3  C   UNL     1      42.790 132.202  19.432  1.00  0.00     0.077 A 
ATOM      4  C   UNL     1      43.262 131.694  20.666  1.00  0.00     0.162 A 
ATOM      5  C   UNL     1      44.494 131.010  20.710  1.00  0.00     0.084 A 
ATOM      6  C   UNL     1      45.199 130.763  19.526  1.00  0.00     0.039 A 
ENDROOT
BRANCH   1   7
ATOM      7  C   UNL     1      45.482 130.983  17.046  1.00  0.00     0.086 A 
ATOM      8  C   UNL     1      46.913 130.519  14.685  1.00  0.00     0.249 A 
ATOM      9  C   UNL     1      46.571 129.445  15.522  1.00  0.00     0.084 A 
ATOM     10  N   UNL     1      46.542 131.785  15.046  1.00  0.00    -0.176 N 
ATOM     11  C   UNL     1      45.861 129.680  16.697  1.00  0.00     0.025 A 
ATOM     12  C   UNL     1      45.846 132.036  16.189  1.00  0.00     0.366 A 
ATOM     13  H   UNL     1      46.791 132.603  14.448  1.00  0.00     0.457 HD
ATOM     14  F   UNL     1      45.539 133.320  16.509  1.00  0.00    -0.136 F 
BRANCH   8  15
ATOM     15  C   UNL     1      47.671 130.270  13.430  1.00  0.00     0.223 C 
ATOM     16  C   UNL     1      48.779 129.264  13.364  1.00  0.00     0.100 C 
ATOM     17  O   UNL     1      47.383 130.916  12.385  1.00  0.00    -0.288 OA
ENDBRANCH   8  15
ENDBRANCH   1   7
BRANCH   3  18
ATOM     18  N   UNL     1      41.583 132.972  19.341  1.00  0.00    -0.396 N 
ATOM     19  H   UNL     1      40.680 132.657  19.754  1.00  0.00     0.156 HD
ATOM     20  H   UNL     1      41.602 133.935  18.936  1.00  0.00     0.156 HD
ENDBRANCH   3  18
BRANCH   5  21
ATOM     21  N   UNL     1      45.017 130.498  21.947  1.00  0.00    -0.352 N 
ATOM     22  H   UNL     1      45.581 131.148  22.540  1.00  0.00     0.167 HD
BRANCH  21  23
ATOM     23  C   UNL     1      44.724 129.188  22.466  1.00  0.00     0.041 A 
ATOM     24  C   UNL     1      43.758 129.046  23.472  1.00  0.00     0.026 A 
ATOM     25  C   UNL     1      45.347 128.037  21.948  1.00  0.00     0.065 A 
ATOM     26  C   UNL     1      43.443 127.784  23.980  1.00  0.00     0.008 A 
ATOM     27  C   UNL     1      45.032 126.772  22.455  1.00  0.00     0.128 A 
ATOM     28  C   UNL     1      44.088 126.640  23.488  1.00  0.00    -0.015 A 
ATOM     29  F   UNL     1      45.642 125.678  21.934  1.00  0.00    -0.207 F 
ATOM     30  C   UNL     1      43.728 125.280  24.013  1.00  0.00     0.047 C 
ENDBRANCH  21  23
ENDBRANCH   5  21
BRANCH   4  31
ATOM     31  O   UNL     1      42.526 131.817  21.847  1.00  0.00    -0.504 OA
ATOM     32  H   UNL     1      42.188 131.034  22.388  1.00  0.00     0.293 HD
ENDBRANCH   4  31
TORSDOF 6
ENDMDL
MODEL 3
REMARK VINA RESULT:      -8.9      1.569      1.872
REMARK SMILES CC(=O)c1ccc(-c2cc(N)c(O)c(Nc3ccc(C)c(F)c3)c2)c(F)[nH+]1
REMARK SMILES IDX 8 1 9 2 10 3 12 4 14 5 24 6 7 7 4 8 5 9 27 10 6 11 25 12
REMARK SMILES IDX 26 14 2 15 1 16 3 17 11 18 15 21 16 23 17 24 23 25 18 26
REMARK SMILES IDX 21 27 19 28 22 29 20 30 13 31
REMARK H PARENT 27 13 11 19 11 20 15 22 13 32
ROOT
ATOM      1  C   UNL     1      44.129 131.360  19.134  1.00  0.00    -0.005 A 
ATOM      2  C   UNL     1      43.021 132.214  19.224  1.00  0.00     0.038 A 
ATOM      3  C   UNL     1      42.387 132.451  20.452  1.00  0.00     0.077 A 
ATOM      4  C   UNL     1      42.869 131.808  21.619  1.00  0.00     0.162 A 
ATOM      5  C   UNL     1      44.017 130.994  21.540  1.00  0.00     0.084 A 
ATOM      6  C   UNL     1      44.621 130.756  20.300  1.00  0.00     0.039 A 
ENDROOT
BRANCH   1   7
ATOM      7  C   UNL     1      44.787 131.119  17.827  1.00  0.00     0.086 A 
ATOM      8  C   UNL     1      46.021 130.660  15.356  1.00  0.00     0.249 A 
ATOM      9  C   UNL     1      46.656 130.261  16.543  1.00  0.00     0.084 A 
ATOM     10  N   UNL     1      44.802 131.277  15.430  1.00  0.00    -0.176 N 
ATOM     11  C   UNL     1      46.040 130.493  17.771  1.00  0.00     0.025 A 
ATOM     12  C   UNL     1      44.183 131.512  16.620  1.00  0.00     0.366 A 
ATOM     13  H   UNL     1      44.313 131.592  14.564  1.00  0.00     0.457 HD
ATOM     14  F   UNL     1      42.990 132.161  16.627  1.00  0.00    -0.136 F 
BRANCH   8  15
ATOM     15  C   UNL     1      46.677 130.413  14.044  1.00  0.00     0.223 C 
ATOM     16  C   UNL     1      47.811 129.445  13.900  1.00  0.00     0.100 C 
ATOM     17  O   UNL     1      46.277 131.027  13.017  1.00  0.00    -0.288 OA
ENDBRANCH   8  15
ENDBRANCH   1   7
BRANCH   3  18
ATOM     18  N   UNL     1      41.271 133.350  20.488  1.00  0.00    -0.396 N 
ATOM     19  H   UNL     1      40.407 133.157  21.037  1.00  0.00     0.156 HD
ATOM     20  H   UNL     1      41.338 134.289  20.034  1.00  0.00     0.156 HD
ENDBRANCH   3  18
BRANCH   5  21
ATOM     21  N   UNL     1      44.548 130.342  22.705  1.00  0.00    -0.352 N 
ATOM     22  H   UNL     1      45.031 130.937  23.416  1.00  0.00     0.167 HD
BRANCH  21  23
ATOM     23  C   UNL     1      44.363 128.946  23.004  1.00  0.00     0.041 A 
ATOM     24  C   UNL     1      43.353 128.562  23.897  1.00  0.00     0.026 A 
ATOM     25  C   UNL     1      45.138 127.953  22.379  1.00  0.00     0.065 A 
ATOM     26  C   UNL     1      43.141 127.212  24.190  1.00  0.00     0.008 A 
ATOM     27  C   UNL     1      44.927 126.601  22.670  1.00  0.00     0.128 A 
ATOM     28  C   UNL     1      43.937 126.223  23.592  1.00  0.00    -0.015 A 
ATOM     29  F   UNL     1      45.684 125.662  22.048  1.00  0.00    -0.207 F 
ATOM     30  C   UNL     1      43.689 124.772  23.884  1.00  0.00     0.047 C 
ENDBRANCH  21  23
ENDBRANCH   5  21
BRANCH   4  31
ATOM     31  O   UNL     1      42.218 131.926  22.850  1.00  0.00    -0.504 OA
ATOM     32  H   UNL     1      42.695 131.997  23.737  1.00  0.00     0.293 HD
ENDBRANCH   4  31
TORSDOF 6
ENDMDL
MODEL 4
REMARK VINA RESULT:      -8.9      1.589      2.055
REMARK SMILES CC(=O)c1ccc(-c2cc(N)c(O)c(Nc3ccc(C)c(F)c3)c2)c(F)[nH+]1
REMARK SMILES IDX 8 1 9 2 10 3 12 4 14 5 24 6 7 7 4 8 5 9 27 10 6 11 25 12
REMARK SMILES IDX 26 14 2 15 1 16 3 17 11 18 15 21 16 23 17 24 23 25 18 26
REMARK SMILES IDX 21 27 19 28 22 29 20 30 13 31
REMARK H PARENT 27 13 11 19 11 20 15 22 13 32
ROOT
ATOM      1  C   UNL     1      44.731 131.200  18.443  1.00  0.00    -0.005 A 
ATOM      2  C   UNL     1      43.571 131.988  18.458  1.00  0.00     0.038 A 
ATOM      3  C   UNL     1      42.857 132.202  19.646  1.00  0.00     0.077 A 
ATOM      4  C   UNL     1      43.311 131.604  20.848  1.00  0.00     0.162 A 
ATOM      5  C   UNL     1      44.508 130.859  20.844  1.00  0.00     0.084 A 
ATOM      6  C   UNL     1      45.193 130.643  19.644  1.00  0.00     0.039 A 
ENDROOT
BRANCH   1   7
ATOM      7  C   UNL     1      45.473 130.983  17.177  1.00  0.00     0.086 A 
ATOM      8  C   UNL     1      46.867 130.578  14.783  1.00  0.00     0.249 A 
ATOM      9  C   UNL     1      46.550 129.485  15.605  1.00  0.00     0.084 A 
ATOM     10  N   UNL     1      46.489 131.834  15.174  1.00  0.00    -0.176 N 
ATOM     11  C   UNL     1      45.858 129.691  16.796  1.00  0.00     0.025 A 
ATOM     12  C   UNL     1      45.812 132.056  16.334  1.00  0.00     0.366 A 
ATOM     13  H   UNL     1      46.720 132.665  14.587  1.00  0.00     0.457 HD
ATOM     14  F   UNL     1      45.499 133.331  16.683  1.00  0.00    -0.136 F 
BRANCH   8  15
ATOM     15  C   UNL     1      47.605 130.361  13.510  1.00  0.00     0.223 C 
ATOM     16  C   UNL     1      48.655 129.301  13.379  1.00  0.00     0.100 C 
ATOM     17  O   UNL     1      47.349 131.080  12.505  1.00  0.00    -0.288 OA
ENDBRANCH   8  15
ENDBRANCH   1   7
BRANCH   3  18
ATOM     18  N   UNL     1      41.690 133.034  19.607  1.00  0.00    -0.396 N 
ATOM     19  H   UNL     1      41.641 133.914  19.052  1.00  0.00     0.156 HD
ATOM     20  H   UNL     1      40.805 132.720  20.066  1.00  0.00     0.156 HD
ENDBRANCH   3  18
BRANCH   5  21
ATOM     21  N   UNL     1      45.011 130.255  22.047  1.00  0.00    -0.352 N 
ATOM     22  H   UNL     1      45.565 130.858  22.697  1.00  0.00     0.167 HD
BRANCH  21  23
ATOM     23  C   UNL     1      44.711 128.910  22.462  1.00  0.00     0.041 A 
ATOM     24  C   UNL     1      45.519 127.855  22.014  1.00  0.00     0.026 A 
ATOM     25  C   UNL     1      43.656 128.634  23.350  1.00  0.00     0.065 A 
ATOM     26  C   UNL     1      45.259 126.543  22.415  1.00  0.00     0.008 A 
ATOM     27  C   UNL     1      43.394 127.321  23.754  1.00  0.00     0.128 A 
ATOM     28  C   UNL     1      44.186 126.263  23.275  1.00  0.00    -0.015 A 
ATOM     29  F   UNL     1      42.375 127.082  24.617  1.00  0.00    -0.207 F 
ATOM     30  C   UNL     1      43.926 124.857  23.730  1.00  0.00     0.047 C 
ENDBRANCH  21  23
ENDBRANCH   5  21
BRANCH   4  31
ATOM     31  O   UNL     1      42.587 131.699  22.039  1.00  0.00    -0.504 OA
ATOM     32  H   UNL     1      42.396 130.917  22.649  1.00  0.00     0.293 HD
ENDBRANCH   4  31
TORSDOF 6
ENDMDL
MODEL 5
REMARK VINA RESULT:      -8.7      1.398      1.659
REMARK SMILES CC(=O)c1ccc(-c2cc(N)c(O)c(Nc3ccc(C)c(F)c3)c2)c(F)[nH+]1
REMARK SMILES IDX 8 1 9 2 10 3 12 4 14 5 24 6 7 7 4 8 5 9 27 10 6 11 25 12
REMARK SMILES IDX 26 14 2 15 1 16 3 17 11 18 15 21 16 23 17 24 23 25 18 26
REMARK SMILES IDX 21 27 19 28 22 29 20 30 13 31
REMARK H PARENT 27 13 11 19 11 20 15 22 13 32
ROOT
ATOM      1  C   UNL     1      44.007 131.441  19.128  1.00  0.00    -0.005 A 
ATOM      2  C   UNL     1      42.897 132.293  19.193  1.00  0.00     0.038 A 
ATOM      3  C   UNL     1      42.253 132.550  20.412  1.00  0.00     0.077 A 
ATOM      4  C   UNL     1      42.727 131.930  21.594  1.00  0.00     0.162 A 
ATOM      5  C   UNL     1      43.878 131.118  21.539  1.00  0.00     0.084 A 
ATOM      6  C   UNL     1      44.492 130.860  20.309  1.00  0.00     0.039 A 
ENDROOT
BRANCH   1   7
ATOM      7  C   UNL     1      44.677 131.179  17.830  1.00  0.00     0.086 A 
ATOM      8  C   UNL     1      45.949 130.690  15.385  1.00  0.00     0.249 A 
ATOM      9  C   UNL     1      44.781 131.469  15.426  1.00  0.00     0.084 A 
ATOM     10  N   UNL     1      46.444 130.175  16.552  1.00  0.00    -0.176 N 
ATOM     11  C   UNL     1      44.150 131.708  16.644  1.00  0.00     0.025 A 
ATOM     12  C   UNL     1      45.843 130.398  17.752  1.00  0.00     0.366 A 
ATOM     13  H   UNL     1      47.305 129.585  16.548  1.00  0.00     0.457 HD
ATOM     14  F   UNL     1      46.365 129.828  18.870  1.00  0.00    -0.136 F 
BRANCH   8  15
ATOM     15  C   UNL     1      46.625 130.433  14.085  1.00  0.00     0.223 C 
ATOM     16  C   UNL     1      47.864 129.597  13.992  1.00  0.00     0.100 C 
ATOM     17  O   UNL     1      46.152 130.926  13.024  1.00  0.00    -0.288 OA
ENDBRANCH   8  15
ENDBRANCH   1   7
BRANCH   3  18
ATOM     18  N   UNL     1      41.134 133.448  20.424  1.00  0.00    -0.396 N 
ATOM     19  H   UNL     1      40.891 134.058  19.616  1.00  0.00     0.156 HD
ATOM     20  H   UNL     1      40.461 133.439  21.223  1.00  0.00     0.156 HD
ENDBRANCH   3  18
BRANCH   5  21
ATOM     21  N   UNL     1      44.401 130.489  22.720  1.00  0.00    -0.352 N 
ATOM     22  H   UNL     1      44.994 131.069  23.356  1.00  0.00     0.167 HD
BRANCH  21  23
ATOM     23  C   UNL     1      44.074 129.149  23.133  1.00  0.00     0.041 A 
ATOM     24  C   UNL     1      43.141 128.954  24.161  1.00  0.00     0.026 A 
ATOM     25  C   UNL     1      44.630 128.027  22.491  1.00  0.00     0.065 A 
ATOM     26  C   UNL     1      42.794 127.664  24.568  1.00  0.00     0.008 A 
ATOM     27  C   UNL     1      44.283 126.735  22.897  1.00  0.00     0.128 A 
ATOM     28  C   UNL     1      43.374 126.545  23.951  1.00  0.00    -0.015 A 
ATOM     29  F   UNL     1      44.829 125.669  22.258  1.00  0.00    -0.207 F 
ATOM     30  C   UNL     1      42.978 125.159  24.369  1.00  0.00     0.047 C 
ENDBRANCH  21  23
ENDBRANCH   5  21
BRANCH   4  31
ATOM     31  O   UNL     1      42.066 132.068  22.818  1.00  0.00    -0.504 OA
ATOM     32  H   UNL     1      41.291 131.491  23.111  1.00  0.00     0.293 HD
ENDBRANCH   4  31
TORSDOF 6
ENDMDL


