REMARK SMILES COc1cccc(-c2cc3cc(F)ccc3[nH]2)n1
REMARK SMILES IDX 3 1 4 2 5 3 6 4 7 5 18 6 2 7 1 8 8 9 9 10 17 11 10 12 16 13
REMARK SMILES IDX 11 14 15 15 12 16 14 17 13 19
REMARK H PARENT 17 18
ROOT
ATOM      1  C   UNL     1       2.466  -2.881   0.622  1.00  0.00     0.213 A 
ATOM      2  C   UNL     1       3.285  -2.254   1.562  1.00  0.00     0.068 A 
ATOM      3  C   UNL     1       3.141  -0.885   1.791  1.00  0.00     0.008 A 
ATOM      4  C   UNL     1       2.184  -0.156   1.082  1.00  0.00     0.031 A 
ATOM      5  C   UNL     1       1.372  -0.813   0.141  1.00  0.00     0.091 A 
ATOM      6  N   UNL     1       1.539  -2.150  -0.059  1.00  0.00    -0.212 NA
ENDROOT
BRANCH   1   7
ATOM      7  O   UNL     1       2.608  -4.252   0.390  1.00  0.00    -0.481 OA
ATOM      8  C   UNL     1       1.810  -4.959  -0.552  1.00  0.00     0.280 C 
ENDBRANCH   1   7
BRANCH   5   9
ATOM      9  C   UNL     1       0.341  -0.095  -0.640  1.00  0.00     0.065 A 
ATOM     10  C   UNL     1       0.040   1.268  -0.561  1.00  0.00     0.038 A 
ATOM     11  N   UNL     1      -0.454  -0.706  -1.554  1.00  0.00    -0.353 N 
ATOM     12  C   UNL     1      -0.978   1.463  -1.469  1.00  0.00     0.003 A 
ATOM     13  C   UNL     1      -1.251   0.254  -2.050  1.00  0.00     0.046 A 
ATOM     14  C   UNL     1      -1.673   2.620  -1.817  1.00  0.00     0.049 A 
ATOM     15  C   UNL     1      -2.241   0.114  -3.021  1.00  0.00     0.030 A 
ATOM     16  C   UNL     1      -2.679   2.512  -2.795  1.00  0.00     0.123 A 
ATOM     17  C   UNL     1      -2.961   1.264  -3.395  1.00  0.00     0.041 A 
ATOM     18  H   UNL     1      -0.452  -1.716  -1.821  1.00  0.00     0.167 HD
ATOM     19  F   UNL     1      -3.381   3.611  -3.164  1.00  0.00    -0.207 F 
ENDBRANCH   5   9
TORSDOF 2


