MODEL 1
REMARK VINA RESULT:      -6.6      0.000      0.000
REMARK SMILES C[C@H](CCO)C(=O)N(N)c1ccccc1-c1[nH]c2ccccc2[nH+]1
REMARK SMILES IDX 1 1 2 2 3 3 4 4 5 5 6 7 7 8 8 9 9 10 10 13 11 14 15 15 12 16
REMARK SMILES IDX 14 17 13 18 16 19 17 20 24 21 18 22 23 23 19 24 22 25 20 26
REMARK SMILES IDX 21 27
REMARK H PARENT 5 6 9 11 9 12 17 28 24 29
ROOT
ATOM      1  C   UNL     1      44.542 130.259  23.715  1.00  0.00     0.018 C 
ATOM      2  C   UNL     1      44.503 129.140  22.667  1.00  0.00     0.079 C 
ENDROOT
BRANCH   2   3
ATOM      3  C   UNL     1      44.991 127.779  23.233  1.00  0.00     0.041 C 
BRANCH   3   4
ATOM      4  C   UNL     1      44.046 126.596  22.976  1.00  0.00     0.157 C 
BRANCH   4   5
ATOM      5  O   UNL     1      44.353 126.020  21.736  1.00  0.00    -0.396 OA
ATOM      6  H   UNL     1      43.961 126.619  21.049  1.00  0.00     0.210 HD
ENDBRANCH   4   5
ENDBRANCH   3   4
ENDBRANCH   2   3
BRANCH   2   7
ATOM      7  C   UNL     1      45.227 129.561  21.403  1.00  0.00     0.244 C 
ATOM      8  O   UNL     1      45.875 128.710  20.734  1.00  0.00    -0.273 OA
BRANCH   7   9
ATOM      9  N   UNL     1      45.200 130.935  20.962  1.00  0.00    -0.247 N 
BRANCH   9  10
ATOM     10  N   UNL     1      46.400 131.669  20.904  1.00  0.00    -0.241 NA
ATOM     11  H   UNL     1      46.984 131.265  20.138  1.00  0.00     0.144 HD
ATOM     12  H   UNL     1      46.913 131.532  21.806  1.00  0.00     0.144 HD
ENDBRANCH   9  10
BRANCH   9  13
ATOM     13  C   UNL     1      43.941 131.607  20.758  1.00  0.00     0.076 A 
ATOM     14  C   UNL     1      43.199 132.028  21.874  1.00  0.00     0.029 A 
ATOM     15  C   UNL     1      43.413 131.807  19.457  1.00  0.00     0.089 A 
ATOM     16  C   UNL     1      41.941 132.612  21.710  1.00  0.00     0.002 A 
ATOM     17  C   UNL     1      42.139 132.379  19.311  1.00  0.00     0.019 A 
ATOM     18  C   UNL     1      41.409 132.780  20.432  1.00  0.00     0.001 A 
BRANCH  15  19
ATOM     19  C   UNL     1      44.182 131.451  18.245  1.00  0.00     0.287 A 
ATOM     20  N   UNL     1      43.843 131.864  16.996  1.00  0.00    -0.236 N 
ATOM     21  N   UNL     1      45.302 130.683  18.258  1.00  0.00    -0.236 N 
ATOM     22  C   UNL     1      44.780 131.319  16.205  1.00  0.00     0.172 A 
ATOM     23  C   UNL     1      45.662 130.608  16.967  1.00  0.00     0.172 A 
ATOM     24  C   UNL     1      44.903 131.406  14.821  1.00  0.00     0.056 A 
ATOM     25  C   UNL     1      46.741 129.928  16.408  1.00  0.00     0.056 A 
ATOM     26  C   UNL     1      45.983 130.729  14.220  1.00  0.00     0.005 A 
ATOM     27  C   UNL     1      46.898 129.994  15.010  1.00  0.00     0.005 A 
ATOM     28  H   UNL     1      43.028 132.452  16.709  1.00  0.00     0.312 HD
ATOM     29  H   UNL     1      45.789 130.263  19.079  1.00  0.00     0.312 HD
ENDBRANCH  15  19
ENDBRANCH   9  13
ENDBRANCH   7   9
ENDBRANCH   2   7
TORSDOF 8
ENDMDL
MODEL 2
REMARK VINA RESULT:      -6.6      0.854      1.469
REMARK SMILES C[C@H](CCO)C(=O)N(N)c1ccccc1-c1[nH]c2ccccc2[nH+]1
REMARK SMILES IDX 1 1 2 2 3 3 4 4 5 5 6 7 7 8 8 9 9 10 10 13 11 14 15 15 12 16
REMARK SMILES IDX 14 17 13 18 16 19 17 20 24 21 18 22 23 23 19 24 22 25 20 26
REMARK SMILES IDX 21 27
REMARK H PARENT 5 6 9 11 9 12 17 28 24 29
ROOT
ATOM      1  C   UNL     1      44.774 130.660  23.503  1.00  0.00     0.018 C 
ATOM      2  C   UNL     1      44.495 129.600  22.430  1.00  0.00     0.079 C 
ENDROOT
BRANCH   2   3
ATOM      3  C   UNL     1      44.826 128.163  22.915  1.00  0.00     0.041 C 
BRANCH   3   4
ATOM      4  C   UNL     1      44.304 127.819  24.318  1.00  0.00     0.157 C 
BRANCH   4   5
ATOM      5  O   UNL     1      44.517 126.457  24.569  1.00  0.00    -0.396 OA
ATOM      6  H   UNL     1      45.034 126.111  23.795  1.00  0.00     0.210 HD
ENDBRANCH   4   5
ENDBRANCH   3   4
ENDBRANCH   2   3
BRANCH   2   7
ATOM      7  C   UNL     1      45.173 129.966  21.123  1.00  0.00     0.244 C 
ATOM      8  O   UNL     1      45.845 129.100  20.498  1.00  0.00    -0.273 OA
BRANCH   7   9
ATOM      9  N   UNL     1      45.074 131.304  20.591  1.00  0.00    -0.247 N 
BRANCH   9  10
ATOM     10  N   UNL     1      46.215 132.129  20.572  1.00  0.00    -0.241 NA
ATOM     11  H   UNL     1      47.052 131.512  20.470  1.00  0.00     0.144 HD
ATOM     12  H   UNL     1      46.284 132.616  21.494  1.00  0.00     0.144 HD
ENDBRANCH   9  10
BRANCH   9  13
ATOM     13  C   UNL     1      43.786 131.858  20.254  1.00  0.00     0.076 A 
ATOM     14  C   UNL     1      42.945 132.315  21.282  1.00  0.00     0.029 A 
ATOM     15  C   UNL     1      43.331 131.902  18.912  1.00  0.00     0.089 A 
ATOM     16  C   UNL     1      41.662 132.785  20.992  1.00  0.00     0.002 A 
ATOM     17  C   UNL     1      42.032 132.360  18.640  1.00  0.00     0.019 A 
ATOM     18  C   UNL     1      41.204 132.800  19.675  1.00  0.00     0.001 A 
BRANCH  15  19
ATOM     19  C   UNL     1      44.200 131.503  17.784  1.00  0.00     0.287 A 
ATOM     20  N   UNL     1      45.235 130.632  17.909  1.00  0.00    -0.236 N 
ATOM     21  N   UNL     1      44.049 131.959  16.513  1.00  0.00    -0.236 N 
ATOM     22  C   UNL     1      45.752 130.558  16.672  1.00  0.00     0.172 A 
ATOM     23  C   UNL     1      45.035 131.358  15.830  1.00  0.00     0.172 A 
ATOM     24  C   UNL     1      46.848 129.819  16.234  1.00  0.00     0.056 A 
ATOM     25  C   UNL     1      45.351 131.481  14.479  1.00  0.00     0.056 A 
ATOM     26  C   UNL     1      47.199 129.920  14.874  1.00  0.00     0.005 A 
ATOM     27  C   UNL     1      46.453 130.748  14.001  1.00  0.00     0.005 A 
ATOM     28  H   UNL     1      45.570 130.146  18.771  1.00  0.00     0.312 HD
ATOM     29  H   UNL     1      43.323 132.610  16.142  1.00  0.00     0.312 HD
ENDBRANCH  15  19
ENDBRANCH   9  13
ENDBRANCH   7   9
ENDBRANCH   2   7
TORSDOF 8
ENDMDL
MODEL 3
REMARK VINA RESULT:      -5.5      1.530      2.200
REMARK SMILES C[C@H](CCO)C(=O)N(N)c1ccccc1-c1[nH]c2ccccc2[nH+]1
REMARK SMILES IDX 1 1 2 2 3 3 4 4 5 5 6 7 7 8 8 9 9 10 10 13 11 14 15 15 12 16
REMARK SMILES IDX 14 17 13 18 16 19 17 20 24 21 18 22 23 23 19 24 22 25 20 26
REMARK SMILES IDX 21 27
REMARK H PARENT 5 6 9 11 9 12 17 28 24 29
ROOT
ATOM      1  C   UNL     1      44.495 128.493  22.048  1.00  0.00     0.018 C 
ATOM      2  C   UNL     1      45.151 129.878  22.118  1.00  0.00     0.079 C 
ENDROOT
BRANCH   2   3
ATOM      3  C   UNL     1      44.309 130.893  22.937  1.00  0.00     0.041 C 
BRANCH   3   4
ATOM      4  C   UNL     1      43.034 130.314  23.568  1.00  0.00     0.157 C 
BRANCH   4   5
ATOM      5  O   UNL     1      42.620 131.144  24.617  1.00  0.00    -0.396 OA
ATOM      6  H   UNL     1      42.519 130.556  25.411  1.00  0.00     0.210 HD
ENDBRANCH   4   5
ENDBRANCH   3   4
ENDBRANCH   2   3
BRANCH   2   7
ATOM      7  C   UNL     1      45.509 130.373  20.730  1.00  0.00     0.244 C 
ATOM      8  O   UNL     1      46.085 129.602  19.915  1.00  0.00    -0.273 OA
BRANCH   7   9
ATOM      9  N   UNL     1      45.213 131.728  20.332  1.00  0.00    -0.247 N 
BRANCH   9  10
ATOM     10  N   UNL     1      46.178 132.734  20.525  1.00  0.00    -0.241 NA
ATOM     11  H   UNL     1      47.102 132.267  20.670  1.00  0.00     0.144 HD
ATOM     12  H   UNL     1      45.941 133.255  21.400  1.00  0.00     0.144 HD
ENDBRANCH   9  10
BRANCH   9  13
ATOM     13  C   UNL     1      43.880 132.088  19.913  1.00  0.00     0.076 A 
ATOM     14  C   UNL     1      42.968 132.570  20.867  1.00  0.00     0.029 A 
ATOM     15  C   UNL     1      43.458 131.917  18.571  1.00  0.00     0.089 A 
ATOM     16  C   UNL     1      41.649 132.852  20.506  1.00  0.00     0.002 A 
ATOM     17  C   UNL     1      42.123 132.188  18.229  1.00  0.00     0.019 A 
ATOM     18  C   UNL     1      41.226 132.655  19.192  1.00  0.00     0.001 A 
BRANCH  15  19
ATOM     19  C   UNL     1      44.394 131.483  17.512  1.00  0.00     0.287 A 
ATOM     20  N   UNL     1      44.829 130.203  17.375  1.00  0.00    -0.236 N 
ATOM     21  N   UNL     1      44.908 132.315  16.568  1.00  0.00    -0.236 N 
ATOM     22  C   UNL     1      45.654 130.248  16.317  1.00  0.00     0.172 A 
ATOM     23  C   UNL     1      45.700 131.522  15.830  1.00  0.00     0.172 A 
ATOM     24  C   UNL     1      46.390 129.213  15.748  1.00  0.00     0.056 A 
ATOM     25  C   UNL     1      46.483 131.865  14.730  1.00  0.00     0.056 A 
ATOM     26  C   UNL     1      47.197 129.523  14.636  1.00  0.00     0.005 A 
ATOM     27  C   UNL     1      47.242 130.844  14.129  1.00  0.00     0.005 A 
ATOM     28  H   UNL     1      44.595 129.375  17.968  1.00  0.00     0.312 HD
ATOM     29  H   UNL     1      44.719 133.332  16.431  1.00  0.00     0.312 HD
ENDBRANCH  15  19
ENDBRANCH   9  13
ENDBRANCH   7   9
ENDBRANCH   2   7
TORSDOF 8
ENDMDL
MODEL 4
REMARK VINA RESULT:      -5.5      1.763      2.588
REMARK SMILES C[C@H](CCO)C(=O)N(N)c1ccccc1-c1[nH]c2ccccc2[nH+]1
REMARK SMILES IDX 1 1 2 2 3 3 4 4 5 5 6 7 7 8 8 9 9 10 10 13 11 14 15 15 12 16
REMARK SMILES IDX 14 17 13 18 16 19 17 20 24 21 18 22 23 23 19 24 22 25 20 26
REMARK SMILES IDX 21 27
REMARK H PARENT 5 6 9 11 9 12 17 28 24 29
ROOT
ATOM      1  C   UNL     1      45.715 132.142  22.266  1.00  0.00     0.018 C 
ATOM      2  C   UNL     1      44.758 131.009  21.874  1.00  0.00     0.079 C 
ENDROOT
BRANCH   2   3
ATOM      3  C   UNL     1      44.374 130.113  23.082  1.00  0.00     0.041 C 
BRANCH   3   4
ATOM      4  C   UNL     1      42.863 129.937  23.300  1.00  0.00     0.157 C 
BRANCH   4   5
ATOM      5  O   UNL     1      42.432 130.828  24.291  1.00  0.00    -0.396 OA
ATOM      6  H   UNL     1      42.846 131.703  24.075  1.00  0.00     0.210 HD
ENDBRANCH   4   5
ENDBRANCH   3   4
ENDBRANCH   2   3
BRANCH   2   7
ATOM      7  C   UNL     1      45.306 130.227  20.695  1.00  0.00     0.244 C 
ATOM      8  O   UNL     1      45.810 129.085  20.876  1.00  0.00    -0.273 OA
BRANCH   7   9
ATOM      9  N   UNL     1      45.272 130.782  19.364  1.00  0.00    -0.247 N 
BRANCH   9  10
ATOM     10  N   UNL     1      46.466 130.886  18.625  1.00  0.00    -0.241 NA
ATOM     11  H   UNL     1      46.291 130.480  17.678  1.00  0.00     0.144 HD
ATOM     12  H   UNL     1      47.195 130.302  19.096  1.00  0.00     0.144 HD
ENDBRANCH   9  10
BRANCH   9  13
ATOM     13  C   UNL     1      44.066 131.395  18.862  1.00  0.00     0.076 A 
ATOM     14  C   UNL     1      43.082 131.818  19.771  1.00  0.00     0.029 A 
ATOM     15  C   UNL     1      43.833 131.532  17.471  1.00  0.00     0.089 A 
ATOM     16  C   UNL     1      41.872 132.343  19.311  1.00  0.00     0.002 A 
ATOM     17  C   UNL     1      42.604 132.046  17.026  1.00  0.00     0.019 A 
ATOM     18  C   UNL     1      41.631 132.449  17.943  1.00  0.00     0.001 A 
BRANCH  15  19
ATOM     19  C   UNL     1      44.863 131.173  16.472  1.00  0.00     0.287 A 
ATOM     20  N   UNL     1      45.268 129.897  16.241  1.00  0.00    -0.236 N 
ATOM     21  N   UNL     1      45.500 132.076  15.683  1.00  0.00    -0.236 N 
ATOM     22  C   UNL     1      46.202 130.018  15.284  1.00  0.00     0.172 A 
ATOM     23  C   UNL     1      46.340 131.333  14.947  1.00  0.00     0.172 A 
ATOM     24  C   UNL     1      46.962 129.017  14.684  1.00  0.00     0.056 A 
ATOM     25  C   UNL     1      47.247 131.756  13.978  1.00  0.00     0.056 A 
ATOM     26  C   UNL     1      47.891 129.407  13.701  1.00  0.00     0.005 A 
ATOM     27  C   UNL     1      48.033 130.771  13.349  1.00  0.00     0.005 A 
ATOM     28  H   UNL     1      44.946 129.022  16.713  1.00  0.00     0.312 HD
ATOM     29  H   UNL     1      45.360 133.109  15.639  1.00  0.00     0.312 HD
ENDBRANCH  15  19
ENDBRANCH   9  13
ENDBRANCH   7   9
ENDBRANCH   2   7
TORSDOF 8
ENDMDL
MODEL 5
REMARK VINA RESULT:      -5.4      1.415      1.762
REMARK SMILES C[C@H](CCO)C(=O)N(N)c1ccccc1-c1[nH]c2ccccc2[nH+]1
REMARK SMILES IDX 1 1 2 2 3 3 4 4 5 5 6 7 7 8 8 9 9 10 10 13 11 14 15 15 12 16
REMARK SMILES IDX 14 17 13 18 16 19 17 20 24 21 18 22 23 23 19 24 22 25 20 26
REMARK SMILES IDX 21 27
REMARK H PARENT 5 6 9 11 9 12 17 28 24 29
ROOT
ATOM      1  C   UNL     1      44.795 128.294  23.606  1.00  0.00     0.018 C 
ATOM      2  C   UNL     1      44.992 129.758  23.192  1.00  0.00     0.079 C 
ENDROOT
BRANCH   2   3
ATOM      3  C   UNL     1      43.942 130.703  23.835  1.00  0.00     0.041 C 
BRANCH   3   4
ATOM      4  C   UNL     1      42.729 129.994  24.455  1.00  0.00     0.157 C 
BRANCH   4   5
ATOM      5  O   UNL     1      41.621 130.851  24.413  1.00  0.00    -0.396 OA
ATOM      6  H   UNL     1      40.864 130.308  24.072  1.00  0.00     0.210 HD
ENDBRANCH   4   5
ENDBRANCH   3   4
ENDBRANCH   2   3
BRANCH   2   7
ATOM      7  C   UNL     1      45.072 129.884  21.683  1.00  0.00     0.244 C 
ATOM      8  O   UNL     1      45.190 128.849  20.970  1.00  0.00    -0.273 OA
BRANCH   7   9
ATOM      9  N   UNL     1      45.030 131.179  21.048  1.00  0.00    -0.247 N 
BRANCH   9  10
ATOM     10  N   UNL     1      46.206 131.949  20.968  1.00  0.00    -0.241 NA
ATOM     11  H   UNL     1      46.882 131.437  20.358  1.00  0.00     0.144 HD
ATOM     12  H   UNL     1      46.623 132.015  21.925  1.00  0.00     0.144 HD
ENDBRANCH   9  10
BRANCH   9  13
ATOM     13  C   UNL     1      43.768 131.761  20.666  1.00  0.00     0.076 A 
ATOM     14  C   UNL     1      42.871 132.173  21.665  1.00  0.00     0.029 A 
ATOM     15  C   UNL     1      43.393 131.878  19.303  1.00  0.00     0.089 A 
ATOM     16  C   UNL     1      41.610 132.668  21.325  1.00  0.00     0.002 A 
ATOM     17  C   UNL     1      42.114 132.361  18.981  1.00  0.00     0.019 A 
ATOM     18  C   UNL     1      41.230 132.755  19.987  1.00  0.00     0.001 A 
BRANCH  15  19
ATOM     19  C   UNL     1      44.324 131.529  18.209  1.00  0.00     0.287 A 
ATOM     20  N   UNL     1      44.522 132.311  17.116  1.00  0.00    -0.236 N 
ATOM     21  N   UNL     1      45.077 130.398  18.188  1.00  0.00    -0.236 N 
ATOM     22  C   UNL     1      45.419 131.631  16.385  1.00  0.00     0.172 A 
ATOM     23  C   UNL     1      45.755 130.478  17.033  1.00  0.00     0.172 A 
ATOM     24  C   UNL     1      45.966 131.971  15.150  1.00  0.00     0.056 A 
ATOM     25  C   UNL     1      46.668 129.570  16.501  1.00  0.00     0.056 A 
ATOM     26  C   UNL     1      46.892 131.075  14.580  1.00  0.00     0.005 A 
ATOM     27  C   UNL     1      47.241 129.880  15.254  1.00  0.00     0.005 A 
ATOM     28  H   UNL     1      44.066 133.222  16.883  1.00  0.00     0.312 HD
ATOM     29  H   UNL     1      45.136 129.646  18.909  1.00  0.00     0.312 HD
ENDBRANCH  15  19
ENDBRANCH   9  13
ENDBRANCH   7   9
ENDBRANCH   2   7
TORSDOF 8
ENDMDL
MODEL 6
REMARK VINA RESULT:      -5.0      2.169      2.815
REMARK SMILES C[C@H](CCO)C(=O)N(N)c1ccccc1-c1[nH]c2ccccc2[nH+]1
REMARK SMILES IDX 1 1 2 2 3 3 4 4 5 5 6 7 7 8 8 9 9 10 10 13 11 14 15 15 12 16
REMARK SMILES IDX 14 17 13 18 16 19 17 20 24 21 18 22 23 23 19 24 22 25 20 26
REMARK SMILES IDX 21 27
REMARK H PARENT 5 6 9 11 9 12 17 28 24 29
ROOT
ATOM      1  C   UNL     1      45.937 129.335  21.400  1.00  0.00     0.018 C 
ATOM      2  C   UNL     1      45.405 130.713  21.812  1.00  0.00     0.079 C 
ENDROOT
BRANCH   2   3
ATOM      3  C   UNL     1      43.952 130.652  22.352  1.00  0.00     0.041 C 
BRANCH   3   4
ATOM      4  C   UNL     1      43.565 131.798  23.299  1.00  0.00     0.157 C 
BRANCH   4   5
ATOM      5  O   UNL     1      43.714 131.373  24.625  1.00  0.00    -0.396 OA
ATOM      6  H   UNL     1      42.874 131.621  25.090  1.00  0.00     0.210 HD
ENDBRANCH   4   5
ENDBRANCH   3   4
ENDBRANCH   2   3
BRANCH   2   7
ATOM      7  C   UNL     1      45.589 131.717  20.689  1.00  0.00     0.244 C 
ATOM      8  O   UNL     1      46.027 132.873  20.943  1.00  0.00    -0.273 OA
BRANCH   7   9
ATOM      9  N   UNL     1      45.251 131.372  19.330  1.00  0.00    -0.247 N 
BRANCH   9  10
ATOM     10  N   UNL     1      46.233 130.803  18.495  1.00  0.00    -0.241 NA
ATOM     11  H   UNL     1      46.909 131.557  18.239  1.00  0.00     0.144 HD
ATOM     12  H   UNL     1      45.768 130.476  17.617  1.00  0.00     0.144 HD
ENDBRANCH   9  10
BRANCH   9  13
ATOM     13  C   UNL     1      43.983 131.771  18.772  1.00  0.00     0.076 A 
ATOM     14  C   UNL     1      42.968 132.227  19.630  1.00  0.00     0.029 A 
ATOM     15  C   UNL     1      43.723 131.665  17.382  1.00  0.00     0.089 A 
ATOM     16  C   UNL     1      41.705 132.546  19.127  1.00  0.00     0.002 A 
ATOM     17  C   UNL     1      42.442 131.973  16.896  1.00  0.00     0.019 A 
ATOM     18  C   UNL     1      41.441 132.412  17.765  1.00  0.00     0.001 A 
BRANCH  15  19
ATOM     19  C   UNL     1      44.774 131.261  16.424  1.00  0.00     0.287 A 
ATOM     20  N   UNL     1      45.441 132.140  15.631  1.00  0.00    -0.236 N 
ATOM     21  N   UNL     1      45.183 129.978  16.245  1.00  0.00    -0.236 N 
ATOM     22  C   UNL     1      46.283 131.369  14.924  1.00  0.00     0.172 A 
ATOM     23  C   UNL     1      46.128 130.065  15.296  1.00  0.00     0.172 A 
ATOM     24  C   UNL     1      47.193 131.754  13.943  1.00  0.00     0.056 A 
ATOM     25  C   UNL     1      46.873 129.038  14.721  1.00  0.00     0.056 A 
ATOM     26  C   UNL     1      47.964 130.742  13.337  1.00  0.00     0.005 A 
ATOM     27  C   UNL     1      47.804 129.390  13.725  1.00  0.00     0.005 A 
ATOM     28  H   UNL     1      45.316 133.175  15.566  1.00  0.00     0.312 HD
ATOM     29  H   UNL     1      44.857 129.120  16.741  1.00  0.00     0.312 HD
ENDBRANCH  15  19
ENDBRANCH   9  13
ENDBRANCH   7   9
ENDBRANCH   2   7
TORSDOF 8
ENDMDL
MODEL 7
REMARK VINA RESULT:      -4.9      1.326      1.537
REMARK SMILES C[C@H](CCO)C(=O)N(N)c1ccccc1-c1[nH]c2ccccc2[nH+]1
REMARK SMILES IDX 1 1 2 2 3 3 4 4 5 5 6 7 7 8 8 9 9 10 10 13 11 14 15 15 12 16
REMARK SMILES IDX 14 17 13 18 16 19 17 20 24 21 18 22 23 23 19 24 22 25 20 26
REMARK SMILES IDX 21 27
REMARK H PARENT 5 6 9 11 9 12 17 28 24 29
ROOT
ATOM      1  C   UNL     1      42.887 129.230  22.866  1.00  0.00     0.018 C 
ATOM      2  C   UNL     1      44.253 129.043  22.193  1.00  0.00     0.079 C 
ENDROOT
BRANCH   2   3
ATOM      3  C   UNL     1      45.212 128.157  23.032  1.00  0.00     0.041 C 
BRANCH   3   4
ATOM      4  C   UNL     1      45.416 126.734  22.489  1.00  0.00     0.157 C 
BRANCH   4   5
ATOM      5  O   UNL     1      45.917 125.917  23.511  1.00  0.00    -0.396 OA
ATOM      6  H   UNL     1      45.638 126.340  24.364  1.00  0.00     0.210 HD
ENDBRANCH   4   5
ENDBRANCH   3   4
ENDBRANCH   2   3
BRANCH   2   7
ATOM      7  C   UNL     1      44.851 130.384  21.810  1.00  0.00     0.244 C 
ATOM      8  O   UNL     1      45.458 131.072  22.676  1.00  0.00    -0.273 OA
BRANCH   7   9
ATOM      9  N   UNL     1      44.722 130.892  20.467  1.00  0.00    -0.247 N 
BRANCH   9  10
ATOM     10  N   UNL     1      45.805 130.776  19.574  1.00  0.00    -0.241 NA
ATOM     11  H   UNL     1      45.451 130.987  18.614  1.00  0.00     0.144 HD
ATOM     12  H   UNL     1      46.134 129.783  19.584  1.00  0.00     0.144 HD
ENDBRANCH   9  10
BRANCH   9  13
ATOM     13  C   UNL     1      43.569 131.674  20.093  1.00  0.00     0.076 A 
ATOM     14  C   UNL     1      42.715 132.160  21.097  1.00  0.00     0.029 A 
ATOM     15  C   UNL     1      43.255 131.920  18.733  1.00  0.00     0.089 A 
ATOM     16  C   UNL     1      41.550 132.853  20.762  1.00  0.00     0.002 A 
ATOM     17  C   UNL     1      42.070 132.603  18.413  1.00  0.00     0.019 A 
ATOM     18  C   UNL     1      41.225 133.068  19.423  1.00  0.00     0.001 A 
BRANCH  15  19
ATOM     19  C   UNL     1      44.155 131.497  17.639  1.00  0.00     0.287 A 
ATOM     20  N   UNL     1      44.229 130.219  17.183  1.00  0.00    -0.236 N 
ATOM     21  N   UNL     1      44.990 132.339  16.978  1.00  0.00    -0.236 N 
ATOM     22  C   UNL     1      45.157 130.271  16.213  1.00  0.00     0.172 A 
ATOM     23  C   UNL     1      45.614 131.551  16.089  1.00  0.00     0.172 A 
ATOM     24  C   UNL     1      45.640 129.233  15.420  1.00  0.00     0.056 A 
ATOM     25  C   UNL     1      46.591 131.900  15.159  1.00  0.00     0.056 A 
ATOM     26  C   UNL     1      46.630 129.548  14.469  1.00  0.00     0.005 A 
ATOM     27  C   UNL     1      47.102 130.876  14.339  1.00  0.00     0.005 A 
ATOM     28  H   UNL     1      43.704 129.382  17.520  1.00  0.00     0.312 HD
ATOM     29  H   UNL     1      45.110 133.367  17.110  1.00  0.00     0.312 HD
ENDBRANCH  15  19
ENDBRANCH   9  13
ENDBRANCH   7   9
ENDBRANCH   2   7
TORSDOF 8
ENDMDL
MODEL 8
REMARK VINA RESULT:      -4.7      1.403      1.972
REMARK SMILES C[C@H](CCO)C(=O)N(N)c1ccccc1-c1[nH]c2ccccc2[nH+]1
REMARK SMILES IDX 1 1 2 2 3 3 4 4 5 5 6 7 7 8 8 9 9 10 10 13 11 14 15 15 12 16
REMARK SMILES IDX 14 17 13 18 16 19 17 20 24 21 18 22 23 23 19 24 22 25 20 26
REMARK SMILES IDX 21 27
REMARK H PARENT 5 6 9 11 9 12 17 28 24 29
ROOT
ATOM      1  C   UNL     1      45.629 128.476  20.579  1.00  0.00     0.018 C 
ATOM      2  C   UNL     1      45.478 129.381  21.809  1.00  0.00     0.079 C 
ENDROOT
BRANCH   2   3
ATOM      3  C   UNL     1      44.419 128.850  22.811  1.00  0.00     0.041 C 
BRANCH   3   4
ATOM      4  C   UNL     1      44.680 127.429  23.334  1.00  0.00     0.157 C 
BRANCH   4   5
ATOM      5  O   UNL     1      43.526 126.951  23.969  1.00  0.00    -0.396 OA
ATOM      6  H   UNL     1      43.806 126.150  24.483  1.00  0.00     0.210 HD
ENDBRANCH   4   5
ENDBRANCH   3   4
ENDBRANCH   2   3
BRANCH   2   7
ATOM      7  C   UNL     1      45.243 130.820  21.390  1.00  0.00     0.244 C 
ATOM      8  O   UNL     1      45.185 131.729  22.264  1.00  0.00    -0.273 OA
BRANCH   7   9
ATOM      9  N   UNL     1      45.069 131.164  20.000  1.00  0.00    -0.247 N 
BRANCH   9  10
ATOM     10  N   UNL     1      46.171 131.100  19.126  1.00  0.00    -0.241 NA
ATOM     11  H   UNL     1      45.815 131.235  18.153  1.00  0.00     0.144 HD
ATOM     12  H   UNL     1      46.584 130.141  19.187  1.00  0.00     0.144 HD
ENDBRANCH   9  10
BRANCH   9  13
ATOM     13  C   UNL     1      43.829 131.743  19.545  1.00  0.00     0.076 A 
ATOM     14  C   UNL     1      42.908 132.225  20.490  1.00  0.00     0.029 A 
ATOM     15  C   UNL     1      43.499 131.790  18.167  1.00  0.00     0.089 A 
ATOM     16  C   UNL     1      41.668 132.720  20.083  1.00  0.00     0.002 A 
ATOM     17  C   UNL     1      42.240 132.274  17.776  1.00  0.00     0.019 A 
ATOM     18  C   UNL     1      41.332 132.737  18.730  1.00  0.00     0.001 A 
BRANCH  15  19
ATOM     19  C   UNL     1      44.458 131.364  17.124  1.00  0.00     0.287 A 
ATOM     20  N   UNL     1      44.754 130.064  16.865  1.00  0.00    -0.236 N 
ATOM     21  N   UNL     1      45.132 132.226  16.319  1.00  0.00    -0.236 N 
ATOM     22  C   UNL     1      45.656 130.125  15.873  1.00  0.00     0.172 A 
ATOM     23  C   UNL     1      45.883 131.429  15.543  1.00  0.00     0.172 A 
ATOM     24  C   UNL     1      46.312 129.076  15.233  1.00  0.00     0.056 A 
ATOM     25  C   UNL     1      46.782 131.794  14.543  1.00  0.00     0.056 A 
ATOM     26  C   UNL     1      47.230 129.406  14.217  1.00  0.00     0.005 A 
ATOM     27  C   UNL     1      47.463 130.760  13.874  1.00  0.00     0.005 A 
ATOM     28  H   UNL     1      44.384 129.211  17.341  1.00  0.00     0.312 HD
ATOM     29  H   UNL     1      45.071 133.267  16.291  1.00  0.00     0.312 HD
ENDBRANCH  15  19
ENDBRANCH   9  13
ENDBRANCH   7   9
ENDBRANCH   2   7
TORSDOF 8
ENDMDL
MODEL 9
REMARK VINA RESULT:      -4.2      2.602      6.657
REMARK SMILES C[C@H](CCO)C(=O)N(N)c1ccccc1-c1[nH]c2ccccc2[nH+]1
REMARK SMILES IDX 1 1 2 2 3 3 4 4 5 5 6 7 7 8 8 9 9 10 10 13 11 14 15 15 12 16
REMARK SMILES IDX 14 17 13 18 16 19 17 20 24 21 18 22 23 23 19 24 22 25 20 26
REMARK SMILES IDX 21 27
REMARK H PARENT 5 6 9 11 9 12 17 28 24 29
ROOT
ATOM      1  C   UNL     1      45.948 129.745  18.060  1.00  0.00     0.018 C 
ATOM      2  C   UNL     1      45.049 130.738  18.809  1.00  0.00     0.079 C 
ENDROOT
BRANCH   2   3
ATOM      3  C   UNL     1      44.845 132.062  18.025  1.00  0.00     0.041 C 
BRANCH   3   4
ATOM      4  C   UNL     1      45.492 132.095  16.633  1.00  0.00     0.157 C 
BRANCH   4   5
ATOM      5  O   UNL     1      44.502 131.919  15.658  1.00  0.00    -0.396 OA
ATOM      6  H   UNL     1      43.696 132.391  15.995  1.00  0.00     0.210 HD
ENDBRANCH   4   5
ENDBRANCH   3   4
ENDBRANCH   2   3
BRANCH   2   7
ATOM      7  C   UNL     1      45.545 130.948  20.227  1.00  0.00     0.244 C 
ATOM      8  O   UNL     1      46.258 131.951  20.503  1.00  0.00    -0.273 OA
BRANCH   7   9
ATOM      9  N   UNL     1      45.223 130.001  21.267  1.00  0.00    -0.247 N 
BRANCH   9  10
ATOM     10  N   UNL     1      45.789 128.712  21.230  1.00  0.00    -0.241 NA
ATOM     11  H   UNL     1      45.971 128.415  22.215  1.00  0.00     0.144 HD
ATOM     12  H   UNL     1      46.709 128.770  20.736  1.00  0.00     0.144 HD
ENDBRANCH   9  10
BRANCH   9  13
ATOM     13  C   UNL     1      44.194 130.302  22.232  1.00  0.00     0.076 A 
ATOM     14  C   UNL     1      43.493 131.515  22.131  1.00  0.00     0.029 A 
ATOM     15  C   UNL     1      43.912 129.423  23.307  1.00  0.00     0.089 A 
ATOM     16  C   UNL     1      42.546 131.869  23.095  1.00  0.00     0.002 A 
ATOM     17  C   UNL     1      42.970 129.803  24.278  1.00  0.00     0.019 A 
ATOM     18  C   UNL     1      42.291 131.018  24.169  1.00  0.00     0.001 A 
BRANCH  15  19
ATOM     19  C   UNL     1      44.567 128.102  23.423  1.00  0.00     0.287 A 
ATOM     20  N   UNL     1      44.143 126.996  22.756  1.00  0.00    -0.236 N 
ATOM     21  N   UNL     1      45.656 127.862  24.198  1.00  0.00    -0.236 N 
ATOM     22  C   UNL     1      44.994 126.034  23.146  1.00  0.00     0.172 A 
ATOM     23  C   UNL     1      45.907 126.557  24.015  1.00  0.00     0.172 A 
ATOM     24  C   UNL     1      45.007 124.690  22.781  1.00  0.00     0.056 A 
ATOM     25  C   UNL     1      46.913 125.781  24.586  1.00  0.00     0.056 A 
ATOM     26  C   UNL     1      46.009 123.874  23.340  1.00  0.00     0.005 A 
ATOM     27  C   UNL     1      46.958 124.417  24.239  1.00  0.00     0.005 A 
ATOM     28  H   UNL     1      43.330 126.906  22.107  1.00  0.00     0.312 HD
ATOM     29  H   UNL     1      46.192 128.537  24.787  1.00  0.00     0.312 HD
ENDBRANCH  15  19
ENDBRANCH   9  13
ENDBRANCH   7   9
ENDBRANCH   2   7
TORSDOF 8
ENDMDL


