MODEL 1
REMARK VINA RESULT:     -10.4      0.000      0.000
REMARK SMILES O=C1Cc2ccc(-c3cnc4[nH]ccc4c3)cc2[N-]1
REMARK SMILES IDX 1 1 2 2 3 3 4 4 5 5 6 6 7 7 17 8 18 9 19 10 8 11 9 12 16 13
REMARK SMILES IDX 10 14 15 15 11 16 14 17 12 18 13 19
REMARK H PARENT 12 20
ROOT
ATOM      1  O   UNL     1      48.609 129.480  13.326  1.00  0.00    -0.320 OA
ATOM      2  C   UNL     1      47.641 129.951  13.978  1.00  0.00     0.059 C 
ATOM      3  C   UNL     1      46.483 130.664  13.350  1.00  0.00     0.089 C 
ATOM      4  C   UNL     1      45.692 130.973  14.571  1.00  0.00    -0.057 A 
ATOM      5  C   UNL     1      44.472 131.640  14.662  1.00  0.00     0.003 A 
ATOM      6  C   UNL     1      43.898 131.820  15.930  1.00  0.00     0.009 A 
ATOM      7  C   UNL     1      44.546 131.334  17.094  1.00  0.00    -0.018 A 
ATOM      8  C   UNL     1      45.783 130.663  16.966  1.00  0.00    -0.007 A 
ATOM      9  C   UNL     1      46.329 130.498  15.695  1.00  0.00    -0.130 A 
ATOM     10  N   UNL     1      47.553 129.846  15.398  1.00  0.00    -0.626 NA
ENDROOT
BRANCH   7  11
ATOM     11  C   UNL     1      43.932 131.528  18.433  1.00  0.00     0.001 A 
ATOM     12  C   UNL     1      42.606 132.027  18.558  1.00  0.00     0.122 A 
ATOM     13  C   UNL     1      44.658 131.220  19.608  1.00  0.00     0.022 A 
ATOM     14  N   UNL     1      42.038 132.207  19.789  1.00  0.00    -0.238 NA
ATOM     15  C   UNL     1      44.029 131.424  20.829  1.00  0.00     0.019 A 
ATOM     16  C   UNL     1      42.757 131.905  20.896  1.00  0.00     0.137 A 
ATOM     17  C   UNL     1      44.461 131.229  22.122  1.00  0.00     0.030 A 
ATOM     18  N   UNL     1      42.344 132.029  22.167  1.00  0.00    -0.346 N 
ATOM     19  C   UNL     1      43.387 131.616  22.924  1.00  0.00     0.085 A 
ATOM     20  H   UNL     1      41.417 132.372  22.502  1.00  0.00     0.167 HD
ENDBRANCH   7  11
TORSDOF 1
ENDMDL
MODEL 2
REMARK VINA RESULT:      -9.7      3.078      7.024
REMARK SMILES O=C1Cc2ccc(-c3cnc4[nH]ccc4c3)cc2[N-]1
REMARK SMILES IDX 1 1 2 2 3 3 4 4 5 5 6 6 7 7 17 8 18 9 19 10 8 11 9 12 16 13
REMARK SMILES IDX 10 14 15 15 11 16 14 17 12 18 13 19
REMARK H PARENT 12 20
ROOT
ATOM      1  O   UNL     1      43.894 131.361  23.817  1.00  0.00    -0.320 OA
ATOM      2  C   UNL     1      43.881 131.422  22.559  1.00  0.00     0.059 C 
ATOM      3  C   UNL     1      42.661 131.753  21.755  1.00  0.00     0.089 C 
ATOM      4  C   UNL     1      43.240 131.679  20.387  1.00  0.00    -0.057 A 
ATOM      5  C   UNL     1      42.601 131.893  19.167  1.00  0.00     0.003 A 
ATOM      6  C   UNL     1      43.350 131.772  17.986  1.00  0.00     0.009 A 
ATOM      7  C   UNL     1      44.728 131.438  18.033  1.00  0.00    -0.018 A 
ATOM      8  C   UNL     1      45.344 131.226  19.287  1.00  0.00    -0.007 A 
ATOM      9  C   UNL     1      44.577 131.354  20.443  1.00  0.00    -0.130 A 
ATOM     10  N   UNL     1      45.044 131.180  21.770  1.00  0.00    -0.626 NA
ENDROOT
BRANCH   7  11
ATOM     11  C   UNL     1      45.514 131.311  16.779  1.00  0.00     0.001 A 
ATOM     12  C   UNL     1      45.690 132.428  15.917  1.00  0.00     0.122 A 
ATOM     13  C   UNL     1      46.100 130.074  16.421  1.00  0.00     0.022 A 
ATOM     14  N   UNL     1      46.414 132.314  14.762  1.00  0.00    -0.238 NA
ATOM     15  C   UNL     1      46.822 130.019  15.236  1.00  0.00     0.019 A 
ATOM     16  C   UNL     1      46.962 131.118  14.444  1.00  0.00     0.137 A 
ATOM     17  C   UNL     1      47.494 128.984  14.622  1.00  0.00     0.030 A 
ATOM     18  N   UNL     1      47.692 130.846  13.350  1.00  0.00    -0.346 N 
ATOM     19  C   UNL     1      48.020 129.537  13.455  1.00  0.00     0.085 A 
ATOM     20  H   UNL     1      47.951 131.503  12.581  1.00  0.00     0.167 HD
ENDBRANCH   7  11
TORSDOF 1
ENDMDL
MODEL 3
REMARK VINA RESULT:      -9.6      1.181      1.656
REMARK SMILES O=C1Cc2ccc(-c3cnc4[nH]ccc4c3)cc2[N-]1
REMARK SMILES IDX 1 1 2 2 3 3 4 4 5 5 6 6 7 7 17 8 18 9 19 10 8 11 9 12 16 13
REMARK SMILES IDX 10 14 15 15 11 16 14 17 12 18 13 19
REMARK H PARENT 12 20
ROOT
ATOM      1  O   UNL     1      48.565 129.375  12.719  1.00  0.00    -0.320 OA
ATOM      2  C   UNL     1      47.801 129.866  13.591  1.00  0.00     0.059 C 
ATOM      3  C   UNL     1      46.780 130.923  13.301  1.00  0.00     0.089 C 
ATOM      4  C   UNL     1      46.207 131.091  14.664  1.00  0.00    -0.057 A 
ATOM      5  C   UNL     1      45.187 131.949  15.071  1.00  0.00     0.003 A 
ATOM      6  C   UNL     1      44.800 131.941  16.420  1.00  0.00     0.009 A 
ATOM      7  C   UNL     1      45.434 131.077  17.350  1.00  0.00    -0.018 A 
ATOM      8  C   UNL     1      46.466 130.220  16.904  1.00  0.00    -0.007 A 
ATOM      9  C   UNL     1      46.829 130.250  15.559  1.00  0.00    -0.130 A 
ATOM     10  N   UNL     1      47.835 129.454  14.956  1.00  0.00    -0.626 NA
ENDROOT
BRANCH   7  11
ATOM     11  C   UNL     1      45.019 131.074  18.776  1.00  0.00     0.001 A 
ATOM     12  C   UNL     1      45.810 130.419  19.760  1.00  0.00     0.122 A 
ATOM     13  C   UNL     1      43.828 131.723  19.179  1.00  0.00     0.022 A 
ATOM     14  N   UNL     1      45.430 130.414  21.074  1.00  0.00    -0.238 NA
ATOM     15  C   UNL     1      43.494 131.684  20.527  1.00  0.00     0.019 A 
ATOM     16  C   UNL     1      44.285 131.043  21.431  1.00  0.00     0.137 A 
ATOM     17  C   UNL     1      42.422 132.204  21.218  1.00  0.00     0.030 A 
ATOM     18  N   UNL     1      43.779 131.124  22.672  1.00  0.00    -0.346 N 
ATOM     19  C   UNL     1      42.635 131.836  22.546  1.00  0.00     0.085 A 
ATOM     20  H   UNL     1      44.181 130.723  23.548  1.00  0.00     0.167 HD
ENDBRANCH   7  11
TORSDOF 1
ENDMDL
MODEL 4
REMARK VINA RESULT:      -9.4      3.127      7.238
REMARK SMILES O=C1Cc2ccc(-c3cnc4[nH]ccc4c3)cc2[N-]1
REMARK SMILES IDX 1 1 2 2 3 3 4 4 5 5 6 6 7 7 17 8 18 9 19 10 8 11 9 12 16 13
REMARK SMILES IDX 10 14 15 15 11 16 14 17 12 18 13 19
REMARK H PARENT 12 20
ROOT
ATOM      1  O   UNL     1      41.957 132.118  23.392  1.00  0.00    -0.320 OA
ATOM      2  C   UNL     1      42.765 131.776  22.489  1.00  0.00     0.059 C 
ATOM      3  C   UNL     1      43.992 130.953  22.739  1.00  0.00     0.089 C 
ATOM      4  C   UNL     1      44.523 130.875  21.352  1.00  0.00    -0.057 A 
ATOM      5  C   UNL     1      45.673 130.227  20.904  1.00  0.00     0.003 A 
ATOM      6  C   UNL     1      45.985 130.282  19.537  1.00  0.00     0.009 A 
ATOM      7  C   UNL     1      45.148 130.982  18.630  1.00  0.00    -0.018 A 
ATOM      8  C   UNL     1      43.990 131.629  19.118  1.00  0.00    -0.007 A 
ATOM      9  C   UNL     1      43.705 131.558  20.480  1.00  0.00    -0.130 A 
ATOM     10  N   UNL     1      42.585 132.145  21.123  1.00  0.00    -0.626 NA
ENDROOT
BRANCH   7  11
ATOM     11  C   UNL     1      45.485 131.035  17.184  1.00  0.00     0.001 A 
ATOM     12  C   UNL     1      44.798 131.924  16.311  1.00  0.00     0.122 A 
ATOM     13  C   UNL     1      46.496 130.202  16.651  1.00  0.00     0.022 A 
ATOM     14  N   UNL     1      45.106 131.976  14.980  1.00  0.00    -0.238 NA
ATOM     15  C   UNL     1      46.764 130.298  15.291  1.00  0.00     0.019 A 
ATOM     16  C   UNL     1      46.078 131.165  14.497  1.00  0.00     0.137 A 
ATOM     17  C   UNL     1      47.665 129.634  14.489  1.00  0.00     0.030 A 
ATOM     18  N   UNL     1      46.490 131.097  13.222  1.00  0.00    -0.346 N 
ATOM     19  C   UNL     1      47.465 130.157  13.211  1.00  0.00     0.085 A 
ATOM     20  H   UNL     1      46.136 131.648  12.409  1.00  0.00     0.167 HD
ENDBRANCH   7  11
TORSDOF 1
ENDMDL
MODEL 5
REMARK VINA RESULT:      -8.8      3.015      7.115
REMARK SMILES O=C1Cc2ccc(-c3cnc4[nH]ccc4c3)cc2[N-]1
REMARK SMILES IDX 1 1 2 2 3 3 4 4 5 5 6 6 7 7 17 8 18 9 19 10 8 11 9 12 16 13
REMARK SMILES IDX 10 14 15 15 11 16 14 17 12 18 13 19
REMARK H PARENT 12 20
ROOT
ATOM      1  O   UNL     1      42.978 132.218  23.333  1.00  0.00    -0.320 OA
ATOM      2  C   UNL     1      43.117 132.080  22.089  1.00  0.00     0.059 C 
ATOM      3  C   UNL     1      42.076 132.476  21.086  1.00  0.00     0.089 C 
ATOM      4  C   UNL     1      42.782 132.091  19.834  1.00  0.00    -0.057 A 
ATOM      5  C   UNL     1      42.334 132.211  18.520  1.00  0.00     0.003 A 
ATOM      6  C   UNL     1      43.174 131.782  17.482  1.00  0.00     0.009 A 
ATOM      7  C   UNL     1      44.454 131.237  17.764  1.00  0.00    -0.018 A 
ATOM      8  C   UNL     1      44.877 131.128  19.108  1.00  0.00    -0.007 A 
ATOM      9  C   UNL     1      44.021 131.563  20.119  1.00  0.00    -0.130 A 
ATOM     10  N   UNL     1      44.297 131.527  21.509  1.00  0.00    -0.626 NA
ENDROOT
BRANCH   7  11
ATOM     11  C   UNL     1      45.338 130.784  16.660  1.00  0.00     0.001 A 
ATOM     12  C   UNL     1      45.690 129.413  16.527  1.00  0.00     0.122 A 
ATOM     13  C   UNL     1      45.846 131.713  15.720  1.00  0.00     0.022 A 
ATOM     14  N   UNL     1      46.503 128.993  15.511  1.00  0.00    -0.238 NA
ATOM     15  C   UNL     1      46.668 131.228  14.711  1.00  0.00     0.019 A 
ATOM     16  C   UNL     1      46.976 129.904  14.627  1.00  0.00     0.137 A 
ATOM     17  C   UNL     1      47.310 131.863  13.671  1.00  0.00     0.030 A 
ATOM     18  N   UNL     1      47.783 129.651  13.585  1.00  0.00    -0.346 N 
ATOM     19  C   UNL     1      47.991 130.851  12.994  1.00  0.00     0.085 A 
ATOM     20  H   UNL     1      48.170 128.727  13.291  1.00  0.00     0.167 HD
ENDBRANCH   7  11
TORSDOF 1
ENDMDL
MODEL 6
REMARK VINA RESULT:      -8.5      3.053      7.276
REMARK SMILES O=C1Cc2ccc(-c3cnc4[nH]ccc4c3)cc2[N-]1
REMARK SMILES IDX 1 1 2 2 3 3 4 4 5 5 6 6 7 7 17 8 18 9 19 10 8 11 9 12 16 13
REMARK SMILES IDX 10 14 15 15 11 16 14 17 12 18 13 19
REMARK H PARENT 12 20
ROOT
ATOM      1  O   UNL     1      40.665 133.464  21.231  1.00  0.00    -0.320 OA
ATOM      2  C   UNL     1      41.668 132.904  20.716  1.00  0.00     0.059 C 
ATOM      3  C   UNL     1      42.786 132.304  21.513  1.00  0.00     0.089 C 
ATOM      4  C   UNL     1      43.643 131.809  20.401  1.00  0.00    -0.057 A 
ATOM      5  C   UNL     1      44.860 131.137  20.485  1.00  0.00     0.003 A 
ATOM      6  C   UNL     1      45.501 130.758  19.295  1.00  0.00     0.009 A 
ATOM      7  C   UNL     1      44.922 131.053  18.034  1.00  0.00    -0.018 A 
ATOM      8  C   UNL     1      43.687 131.737  17.986  1.00  0.00    -0.007 A 
ATOM      9  C   UNL     1      43.073 132.101  19.183  1.00  0.00    -0.130 A 
ATOM     10  N   UNL     1      41.836 132.784  19.304  1.00  0.00    -0.626 NA
ENDROOT
BRANCH   7  11
ATOM     11  C   UNL     1      45.607 130.649  16.780  1.00  0.00     0.001 A 
ATOM     12  C   UNL     1      45.742 129.275  16.437  1.00  0.00     0.122 A 
ATOM     13  C   UNL     1      46.135 131.626  15.903  1.00  0.00     0.022 A 
ATOM     14  N   UNL     1      46.372 128.900  15.283  1.00  0.00    -0.238 NA
ATOM     15  C   UNL     1      46.764 131.184  14.746  1.00  0.00     0.019 A 
ATOM     16  C   UNL     1      46.869 129.856  14.463  1.00  0.00     0.137 A 
ATOM     17  C   UNL     1      47.372 131.870  13.718  1.00  0.00     0.030 A 
ATOM     18  N   UNL     1      47.513 129.649  13.304  1.00  0.00    -0.346 N 
ATOM     19  C   UNL     1      47.824 130.883  12.842  1.00  0.00     0.085 A 
ATOM     20  H   UNL     1      47.729 128.733  12.853  1.00  0.00     0.167 HD
ENDBRANCH   7  11
TORSDOF 1
ENDMDL
MODEL 7
REMARK VINA RESULT:      -8.4      1.198      1.522
REMARK SMILES O=C1Cc2ccc(-c3cnc4[nH]ccc4c3)cc2[N-]1
REMARK SMILES IDX 1 1 2 2 3 3 4 4 5 5 6 6 7 7 17 8 18 9 19 10 8 11 9 12 16 13
REMARK SMILES IDX 10 14 15 15 11 16 14 17 12 18 13 19
REMARK H PARENT 12 20
ROOT
ATOM      1  O   UNL     1      48.312 131.575  12.274  1.00  0.00    -0.320 OA
ATOM      2  C   UNL     1      47.643 131.222  13.280  1.00  0.00     0.059 C 
ATOM      3  C   UNL     1      47.440 129.793  13.684  1.00  0.00     0.089 C 
ATOM      4  C   UNL     1      46.604 129.996  14.897  1.00  0.00    -0.057 A 
ATOM      5  C   UNL     1      46.075 129.030  15.751  1.00  0.00     0.003 A 
ATOM      6  C   UNL     1      45.308 129.452  16.848  1.00  0.00     0.009 A 
ATOM      7  C   UNL     1      45.077 130.832  17.084  1.00  0.00    -0.018 A 
ATOM      8  C   UNL     1      45.627 131.785  16.197  1.00  0.00    -0.007 A 
ATOM      9  C   UNL     1      46.384 131.337  15.116  1.00  0.00    -0.130 A 
ATOM     10  N   UNL     1      47.006 132.162  14.144  1.00  0.00    -0.626 NA
ENDROOT
BRANCH   7  11
ATOM     11  C   UNL     1      44.264 131.270  18.247  1.00  0.00     0.001 A 
ATOM     12  C   UNL     1      43.003 131.899  18.056  1.00  0.00     0.122 A 
ATOM     13  C   UNL     1      44.733 131.069  19.567  1.00  0.00     0.022 A 
ATOM     14  N   UNL     1      42.253 132.303  19.125  1.00  0.00    -0.238 NA
ATOM     15  C   UNL     1      43.928 131.502  20.613  1.00  0.00     0.019 A 
ATOM     16  C   UNL     1      42.727 132.100  20.377  1.00  0.00     0.137 A 
ATOM     17  C   UNL     1      44.101 131.456  21.978  1.00  0.00     0.030 A 
ATOM     18  N   UNL     1      42.115 132.441  21.522  1.00  0.00    -0.346 N 
ATOM     19  C   UNL     1      42.955 132.048  22.508  1.00  0.00     0.085 A 
ATOM     20  H   UNL     1      41.189 132.910  21.630  1.00  0.00     0.167 HD
ENDBRANCH   7  11
TORSDOF 1
ENDMDL
MODEL 8
REMARK VINA RESULT:      -8.3      3.035      7.236
REMARK SMILES O=C1Cc2ccc(-c3cnc4[nH]ccc4c3)cc2[N-]1
REMARK SMILES IDX 1 1 2 2 3 3 4 4 5 5 6 6 7 7 17 8 18 9 19 10 8 11 9 12 16 13
REMARK SMILES IDX 10 14 15 15 11 16 14 17 12 18 13 19
REMARK H PARENT 12 20
ROOT
ATOM      1  O   UNL     1      40.941 133.072  21.695  1.00  0.00    -0.320 OA
ATOM      2  C   UNL     1      41.909 132.598  21.046  1.00  0.00     0.059 C 
ATOM      3  C   UNL     1      42.986 131.753  21.656  1.00  0.00     0.089 C 
ATOM      4  C   UNL     1      43.816 131.500  20.448  1.00  0.00    -0.057 A 
ATOM      5  C   UNL     1      44.990 130.756  20.348  1.00  0.00     0.003 A 
ATOM      6  C   UNL     1      45.612 130.647  19.095  1.00  0.00     0.009 A 
ATOM      7  C   UNL     1      45.056 131.280  17.953  1.00  0.00    -0.018 A 
ATOM      8  C   UNL     1      43.864 132.027  18.089  1.00  0.00    -0.007 A 
ATOM      9  C   UNL     1      43.269 132.119  19.346  1.00  0.00    -0.130 A 
ATOM     10  N   UNL     1      42.075 132.822  19.647  1.00  0.00    -0.626 NA
ENDROOT
BRANCH   7  11
ATOM     11  C   UNL     1      45.719 131.159  16.629  1.00  0.00     0.001 A 
ATOM     12  C   UNL     1      45.649 132.219  15.683  1.00  0.00     0.122 A 
ATOM     13  C   UNL     1      46.434 129.987  16.288  1.00  0.00     0.022 A 
ATOM     14  N   UNL     1      46.259 132.111  14.464  1.00  0.00    -0.238 NA
ATOM     15  C   UNL     1      47.032 129.935  15.035  1.00  0.00     0.019 A 
ATOM     16  C   UNL     1      46.935 130.976  14.163  1.00  0.00     0.137 A 
ATOM     17  C   UNL     1      47.776 128.954  14.418  1.00  0.00     0.030 A 
ATOM     18  N   UNL     1      47.579 130.719  13.015  1.00  0.00    -0.346 N 
ATOM     19  C   UNL     1      48.097 129.477  13.166  1.00  0.00     0.085 A 
ATOM     20  H   UNL     1      47.663 131.341  12.181  1.00  0.00     0.167 HD
ENDBRANCH   7  11
TORSDOF 1
ENDMDL
MODEL 9
REMARK VINA RESULT:      -7.9      3.227      6.988
REMARK SMILES O=C1Cc2ccc(-c3cnc4[nH]ccc4c3)cc2[N-]1
REMARK SMILES IDX 1 1 2 2 3 3 4 4 5 5 6 6 7 7 17 8 18 9 19 10 8 11 9 12 16 13
REMARK SMILES IDX 10 14 15 15 11 16 14 17 12 18 13 19
REMARK H PARENT 12 20
ROOT
ATOM      1  O   UNL     1      44.660 128.981  24.124  1.00  0.00    -0.320 OA
ATOM      2  C   UNL     1      44.619 129.568  23.011  1.00  0.00     0.059 C 
ATOM      3  C   UNL     1      43.835 130.820  22.760  1.00  0.00     0.089 C 
ATOM      4  C   UNL     1      44.163 131.032  21.324  1.00  0.00    -0.057 A 
ATOM      5  C   UNL     1      43.735 132.057  20.484  1.00  0.00     0.003 A 
ATOM      6  C   UNL     1      44.175 132.062  19.151  1.00  0.00     0.009 A 
ATOM      7  C   UNL     1      45.038 131.044  18.669  1.00  0.00    -0.018 A 
ATOM      8  C   UNL     1      45.452 130.018  19.548  1.00  0.00    -0.007 A 
ATOM      9  C   UNL     1      45.000 130.038  20.866  1.00  0.00    -0.130 A 
ATOM     10  N   UNL     1      45.327 129.090  21.868  1.00  0.00    -0.626 NA
ENDROOT
BRANCH   7  11
ATOM     11  C   UNL     1      45.499 131.055  17.258  1.00  0.00     0.001 A 
ATOM     12  C   UNL     1      45.029 132.043  16.349  1.00  0.00     0.122 A 
ATOM     13  C   UNL     1      46.416 130.082  16.794  1.00  0.00     0.022 A 
ATOM     14  N   UNL     1      45.452 132.056  15.048  1.00  0.00    -0.238 NA
ATOM     15  C   UNL     1      46.809 130.146  15.463  1.00  0.00     0.019 A 
ATOM     16  C   UNL     1      46.329 131.112  14.631  1.00  0.00     0.137 A 
ATOM     17  C   UNL     1      47.664 129.359  14.724  1.00  0.00     0.030 A 
ATOM     18  N   UNL     1      46.832 130.989  13.393  1.00  0.00    -0.346 N 
ATOM     19  C   UNL     1      47.653 129.914  13.445  1.00  0.00     0.085 A 
ATOM     20  H   UNL     1      46.634 131.593  12.565  1.00  0.00     0.167 HD
ENDBRANCH   7  11
TORSDOF 1
ENDMDL


