REMARK SMILES Cc1ccc([NH2+]c2cc(-c3c[nH+]c4c(c3)C(=O)NC4)cc(N)c2[O-])cc1F
REMARK SMILES IDX 7 1 8 2 9 3 20 4 21 5 23 6 24 7 6 8 5 11 2 12 3 13 26 14
REMARK SMILES IDX 4 15 25 16 1 17 27 18 10 19 11 20 15 21 12 22 14 23 13 24
REMARK SMILES IDX 16 25 19 26 18 27 17 29 22 31
REMARK H PARENT 6 9 6 10 12 28 18 30 22 32 22 33
ROOT
ATOM      1  C   UNL     1      -2.152  -0.606   0.107  1.00  0.00     0.129 A 
ATOM      2  C   UNL     1      -1.070   0.283   0.236  1.00  0.00     0.076 A 
ATOM      3  C   UNL     1      -0.643   1.065  -0.849  1.00  0.00    -0.004 A 
ATOM      4  C   UNL     1      -1.314   0.951  -2.077  1.00  0.00     0.034 A 
ATOM      5  C   UNL     1      -2.392   0.069  -2.226  1.00  0.00     0.030 A 
ATOM      6  C   UNL     1      -2.810  -0.712  -1.135  1.00  0.00    -0.021 A 
ATOM      7  O   UNL     1      -3.880  -1.590  -1.285  1.00  0.00    -0.867 OA
ENDROOT
BRANCH   1   8
ATOM      8  N   UNL     1      -2.543  -1.427   1.229  1.00  0.00    -0.282 N 
ATOM      9  H   UNL     1      -2.393  -0.904   2.124  1.00  0.00     0.358 HD
ATOM     10  H   UNL     1      -3.566  -1.648   1.188  1.00  0.00     0.358 HD
BRANCH   8  11
ATOM     11  C   UNL     1      -1.768  -2.644   1.239  1.00  0.00     0.137 A 
ATOM     12  C   UNL     1      -0.218  -4.998   1.197  1.00  0.00    -0.015 A 
ATOM     13  C   UNL     1      -1.472  -4.964   0.570  1.00  0.00     0.012 A 
ATOM     14  C   UNL     1       0.251  -3.854   1.863  1.00  0.00     0.132 A 
ATOM     15  C   UNL     1      -2.239  -3.795   0.585  1.00  0.00     0.068 A 
ATOM     16  C   UNL     1      -0.515  -2.685   1.876  1.00  0.00     0.107 A 
ATOM     17  C   UNL     1       0.592  -6.263   1.204  1.00  0.00     0.047 C 
ATOM     18  F   UNL     1       1.450  -3.869   2.499  1.00  0.00    -0.206 F 
ENDBRANCH   8  11
ENDBRANCH   1   8
BRANCH   3  19
ATOM     19  C   UNL     1       0.506   1.996  -0.701  1.00  0.00     0.047 A 
ATOM     20  C   UNL     1       1.463   2.136  -1.740  1.00  0.00     0.315 A 
ATOM     21  C   UNL     1       0.669   2.754   0.479  1.00  0.00     0.035 A 
ATOM     22  N   UNL     1       2.523   2.989  -1.605  1.00  0.00    -0.212 N 
ATOM     23  C   UNL     1       1.765   3.603   0.563  1.00  0.00     0.109 A 
ATOM     24  C   UNL     1       2.667   3.711  -0.465  1.00  0.00     0.211 A 
ATOM     25  C   UNL     1       2.206   4.494   1.606  1.00  0.00     0.258 C 
ATOM     26  C   UNL     1       3.758   4.689  -0.142  1.00  0.00     0.225 C 
ATOM     27  N   UNL     1       3.400   5.153   1.202  1.00  0.00    -0.342 N 
ATOM     28  H   UNL     1       3.221   3.081  -2.376  1.00  0.00     0.453 HD
ATOM     29  O   UNL     1       1.637   4.677   2.714  1.00  0.00    -0.269 OA
ATOM     30  H   UNL     1       3.927   5.857   1.764  1.00  0.00     0.164 HD
ENDBRANCH   3  19
BRANCH   5  31
ATOM     31  N   UNL     1      -3.058  -0.028  -3.490  1.00  0.00    -0.399 N 
ATOM     32  H   UNL     1      -3.863  -0.677  -3.634  1.00  0.00     0.156 HD
ATOM     33  H   UNL     1      -2.747   0.551  -4.303  1.00  0.00     0.156 HD
ENDBRANCH   5  31
TORSDOF 4


