REMARK SMILES CC(=O)O/C(=C\Cc1c(F)cccc1F)c1ccccc1
REMARK SMILES IDX 6 1 5 2 4 3 2 4 3 5 1 6 16 7 17 8 21 9 18 10 20 11 19 12
REMARK SMILES IDX 7 13 8 14 9 15 14 16 11 17 13 18 12 19 10 20 15 21
REMARK H PARENT
ROOT
ATOM      1  C   UNL     1       2.220  -0.784  -0.433  1.00  0.00     0.026 C 
ENDROOT
BRANCH   1   2
ATOM      2  C   UNL     1       1.431  -0.401   0.589  1.00  0.00     0.134 C 
BRANCH   2   3
ATOM      3  O   UNL     1       0.111  -0.002   0.349  1.00  0.00    -0.426 OA
BRANCH   3   4
ATOM      4  C   UNL     1      -0.217   1.258  -0.164  1.00  0.00     0.308 C 
ATOM      5  O   UNL     1       0.679   2.114  -0.395  1.00  0.00    -0.252 OA
ATOM      6  C   UNL     1      -1.649   1.612  -0.378  1.00  0.00     0.139 C 
ENDBRANCH   3   4
ENDBRANCH   2   3
BRANCH   2   7
ATOM      7  C   UNL     1       1.922  -0.400   1.992  1.00  0.00     0.017 A 
ATOM      8  C   UNL     1       1.371   0.505   2.918  1.00  0.00     0.012 A 
ATOM      9  C   UNL     1       2.901  -1.313   2.437  1.00  0.00     0.012 A 
ATOM     10  C   UNL     1       1.806   0.516   4.247  1.00  0.00     0.001 A 
ATOM     11  C   UNL     1       3.332  -1.297   3.767  1.00  0.00     0.001 A 
ATOM     12  C   UNL     1       2.788  -0.382   4.670  1.00  0.00     0.000 A 
ENDBRANCH   2   7
ENDBRANCH   1   2
BRANCH   1  13
ATOM     13  C   UNL     1       1.736  -0.899  -1.853  1.00  0.00     0.073 C 
BRANCH  13  14
ATOM     14  C   UNL     1       0.714  -2.003  -2.002  1.00  0.00     0.027 A 
ATOM     15  C   UNL     1      -0.596  -1.720  -2.440  1.00  0.00     0.129 A 
ATOM     16  C   UNL     1       1.067  -3.337  -1.720  1.00  0.00     0.129 A 
ATOM     17  C   UNL     1      -1.533  -2.750  -2.567  1.00  0.00     0.040 A 
ATOM     18  C   UNL     1       0.123  -4.360  -1.851  1.00  0.00     0.040 A 
ATOM     19  C   UNL     1      -1.176  -4.066  -2.270  1.00  0.00     0.006 A 
ATOM     20  F   UNL     1      -0.965  -0.454  -2.760  1.00  0.00    -0.207 F 
ATOM     21  F   UNL     1       2.326  -3.649  -1.319  1.00  0.00    -0.207 F 
ENDBRANCH  13  14
ENDBRANCH   1  13
TORSDOF 6


