MODEL 1
REMARK VINA RESULT:      -7.6      0.000      0.000
REMARK SMILES Nc1cc(F)c(-c2cnc3c(c2)C(=O)[N-]C3)cc1C=O
REMARK SMILES IDX 2 1 3 2 4 3 5 4 6 5 17 6 18 7 1 8 19 11 20 12 7 13 8 14
REMARK SMILES IDX 12 15 9 16 11 17 10 18 13 19 16 20 15 21 14 22
REMARK H PARENT 1 9 1 10
ROOT
ATOM      1  C   UNL     1      45.939 130.879  14.184  1.00  0.00     0.045 A 
ATOM      2  C   UNL     1      44.835 131.596  14.668  1.00  0.00     0.066 A 
ATOM      3  C   UNL     1      44.541 131.630  16.031  1.00  0.00     0.133 A 
ATOM      4  F   UNL     1      43.434 132.295  16.448  1.00  0.00    -0.206 F 
ATOM      5  C   UNL     1      45.353 130.940  16.947  1.00  0.00     0.020 A 
ATOM      6  C   UNL     1      46.469 130.231  16.471  1.00  0.00     0.025 A 
ATOM      7  C   UNL     1      46.788 130.211  15.103  1.00  0.00     0.038 A 
ENDROOT
BRANCH   1   8
ATOM      8  N   UNL     1      46.135 130.800  12.766  1.00  0.00    -0.398 N 
ATOM      9  H   UNL     1      45.886 131.587  12.129  1.00  0.00     0.156 HD
ATOM     10  H   UNL     1      46.684 130.013  12.353  1.00  0.00     0.156 HD
ENDBRANCH   1   8
BRANCH   7  11
ATOM     11  C   UNL     1      48.032 129.516  14.702  1.00  0.00     0.262 C 
ATOM     12  O   UNL     1      48.574 129.720  13.585  1.00  0.00    -0.298 OA
ENDBRANCH   7  11
BRANCH   5  13
ATOM     13  C   UNL     1      45.053 130.958  18.399  1.00  0.00     0.004 A 
ATOM     14  C   UNL     1      45.914 130.306  19.320  1.00  0.00     0.120 A 
ATOM     15  C   UNL     1      43.920 131.639  18.892  1.00  0.00     0.022 A 
ATOM     16  N   UNL     1      45.647 130.326  20.659  1.00  0.00    -0.262 NA
ATOM     17  C   UNL     1      43.699 131.626  20.265  1.00  0.00     0.020 A 
ATOM     18  C   UNL     1      44.550 130.980  21.118  1.00  0.00     0.032 A 
ATOM     19  C   UNL     1      42.665 132.214  21.075  1.00  0.00     0.084 C 
ATOM     20  C   UNL     1      44.108 131.115  22.543  1.00  0.00    -0.059 C 
ATOM     21  N   UNL     1      42.884 131.922  22.451  1.00  0.00    -0.644 NA
ATOM     22  O   UNL     1      41.696 132.895  20.648  1.00  0.00    -0.315 OA
ENDBRANCH   5  13
TORSDOF 3
ENDMDL
MODEL 2
REMARK VINA RESULT:      -7.3      2.211      6.614
REMARK SMILES Nc1cc(F)c(-c2cnc3c(c2)C(=O)[N-]C3)cc1C=O
REMARK SMILES IDX 2 1 3 2 4 3 5 4 6 5 17 6 18 7 1 8 19 11 20 12 7 13 8 14
REMARK SMILES IDX 12 15 9 16 11 17 10 18 13 19 16 20 15 21 14 22
REMARK H PARENT 1 9 1 10
ROOT
ATOM      1  C   UNL     1      42.577 131.898  22.188  1.00  0.00     0.045 A 
ATOM      2  C   UNL     1      42.066 132.445  21.002  1.00  0.00     0.066 A 
ATOM      3  C   UNL     1      42.685 132.205  19.775  1.00  0.00     0.133 A 
ATOM      4  F   UNL     1      42.184 132.796  18.660  1.00  0.00    -0.206 F 
ATOM      5  C   UNL     1      43.839 131.406  19.710  1.00  0.00     0.020 A 
ATOM      6  C   UNL     1      44.349 130.844  20.893  1.00  0.00     0.025 A 
ATOM      7  C   UNL     1      43.719 131.059  22.130  1.00  0.00     0.038 A 
ENDROOT
BRANCH   1   8
ATOM      8  N   UNL     1      41.957 132.259  23.430  1.00  0.00    -0.398 N 
ATOM      9  H   UNL     1      42.460 132.808  24.160  1.00  0.00     0.156 HD
ATOM     10  H   UNL     1      40.931 132.122  23.566  1.00  0.00     0.156 HD
ENDBRANCH   1   8
BRANCH   7  11
ATOM     11  C   UNL     1      44.271 130.355  23.308  1.00  0.00     0.262 C 
ATOM     12  O   UNL     1      44.773 129.204  23.217  1.00  0.00    -0.298 OA
ENDBRANCH   7  11
BRANCH   5  13
ATOM     13  C   UNL     1      44.515 131.145  18.416  1.00  0.00     0.004 A 
ATOM     14  C   UNL     1      45.786 130.514  18.383  1.00  0.00     0.120 A 
ATOM     15  C   UNL     1      43.900 131.501  17.197  1.00  0.00     0.022 A 
ATOM     16  N   UNL     1      46.410 130.263  17.194  1.00  0.00    -0.262 NA
ATOM     17  C   UNL     1      44.583 131.221  16.018  1.00  0.00     0.020 A 
ATOM     18  C   UNL     1      45.809 130.616  16.030  1.00  0.00     0.032 A 
ATOM     19  C   UNL     1      44.241 131.443  14.638  1.00  0.00     0.084 C 
ATOM     20  C   UNL     1      46.335 130.414  14.642  1.00  0.00    -0.059 C 
ATOM     21  N   UNL     1      45.279 130.968  13.786  1.00  0.00    -0.644 NA
ATOM     22  O   UNL     1      43.181 131.979  14.220  1.00  0.00    -0.315 OA
ENDBRANCH   5  13
TORSDOF 3
ENDMDL
MODEL 3
REMARK VINA RESULT:      -6.8      2.495      3.267
REMARK SMILES Nc1cc(F)c(-c2cnc3c(c2)C(=O)[N-]C3)cc1C=O
REMARK SMILES IDX 2 1 3 2 4 3 5 4 6 5 17 6 18 7 1 8 19 11 20 12 7 13 8 14
REMARK SMILES IDX 12 15 9 16 11 17 10 18 13 19 16 20 15 21 14 22
REMARK H PARENT 1 9 1 10
ROOT
ATOM      1  C   UNL     1      45.618 130.820  15.746  1.00  0.00     0.045 A 
ATOM      2  C   UNL     1      46.249 130.368  16.914  1.00  0.00     0.066 A 
ATOM      3  C   UNL     1      45.677 130.580  18.168  1.00  0.00     0.133 A 
ATOM      4  F   UNL     1      46.349 130.169  19.274  1.00  0.00    -0.206 F 
ATOM      5  C   UNL     1      44.451 131.257  18.281  1.00  0.00     0.020 A 
ATOM      6  C   UNL     1      43.807 131.701  17.114  1.00  0.00     0.025 A 
ATOM      7  C   UNL     1      44.362 131.471  15.844  1.00  0.00     0.038 A 
ENDROOT
BRANCH   1   8
ATOM      8  N   UNL     1      46.300 130.661  14.495  1.00  0.00    -0.398 N 
ATOM      9  H   UNL     1      46.752 131.463  14.005  1.00  0.00     0.156 HD
ATOM     10  H   UNL     1      46.502 129.706  14.123  1.00  0.00     0.156 HD
ENDBRANCH   1   8
BRANCH   7  11
ATOM     11  C   UNL     1      43.571 131.892  14.667  1.00  0.00     0.262 C 
ATOM     12  O   UNL     1      43.234 131.077  13.769  1.00  0.00    -0.298 OA
ENDBRANCH   7  11
BRANCH   5  13
ATOM     13  C   UNL     1      43.830 131.498  19.606  1.00  0.00     0.004 A 
ATOM     14  C   UNL     1      42.775 132.436  19.746  1.00  0.00     0.120 A 
ATOM     15  C   UNL     1      44.264 130.787  20.745  1.00  0.00     0.022 A 
ATOM     16  N   UNL     1      42.194 132.657  20.962  1.00  0.00    -0.262 NA
ATOM     17  C   UNL     1      43.636 131.053  21.957  1.00  0.00     0.020 A 
ATOM     18  C   UNL     1      42.625 131.970  22.050  1.00  0.00     0.032 A 
ATOM     19  C   UNL     1      43.828 130.510  23.275  1.00  0.00     0.084 C 
ATOM     20  C   UNL     1      42.105 132.074  23.450  1.00  0.00    -0.059 C 
ATOM     21  N   UNL     1      42.921 131.107  24.196  1.00  0.00    -0.644 NA
ATOM     22  O   UNL     1      44.673 129.632  23.592  1.00  0.00    -0.315 OA
ENDBRANCH   5  13
TORSDOF 3
ENDMDL
MODEL 4
REMARK VINA RESULT:      -6.7      1.753      6.774
REMARK SMILES Nc1cc(F)c(-c2cnc3c(c2)C(=O)[N-]C3)cc1C=O
REMARK SMILES IDX 2 1 3 2 4 3 5 4 6 5 17 6 18 7 1 8 19 11 20 12 7 13 8 14
REMARK SMILES IDX 12 15 9 16 11 17 10 18 13 19 16 20 15 21 14 22
REMARK H PARENT 1 9 1 10
ROOT
ATOM      1  C   UNL     1      42.844 131.867  21.092  1.00  0.00     0.045 A 
ATOM      2  C   UNL     1      42.081 132.279  19.990  1.00  0.00     0.066 A 
ATOM      3  C   UNL     1      42.559 132.127  18.688  1.00  0.00     0.133 A 
ATOM      4  F   UNL     1      41.808 132.587  17.655  1.00  0.00    -0.206 F 
ATOM      5  C   UNL     1      43.822 131.555  18.460  1.00  0.00     0.020 A 
ATOM      6  C   UNL     1      44.586 131.128  19.560  1.00  0.00     0.025 A 
ATOM      7  C   UNL     1      44.104 131.254  20.873  1.00  0.00     0.038 A 
ENDROOT
BRANCH   1   8
ATOM      8  N   UNL     1      42.345 132.138  22.408  1.00  0.00    -0.398 N 
ATOM      9  H   UNL     1      42.973 132.179  23.240  1.00  0.00     0.156 HD
ATOM     10  H   UNL     1      41.362 132.463  22.543  1.00  0.00     0.156 HD
ENDBRANCH   1   8
BRANCH   7  11
ATOM     11  C   UNL     1      44.935 130.694  21.962  1.00  0.00     0.262 C 
ATOM     12  O   UNL     1      44.515 129.773  22.710  1.00  0.00    -0.298 OA
ENDBRANCH   7  11
BRANCH   5  13
ATOM     13  C   UNL     1      44.350 131.391  17.084  1.00  0.00     0.004 A 
ATOM     14  C   UNL     1      43.629 131.900  15.973  1.00  0.00     0.120 A 
ATOM     15  C   UNL     1      45.585 130.746  16.858  1.00  0.00     0.022 A 
ATOM     16  N   UNL     1      44.115 131.760  14.704  1.00  0.00    -0.262 NA
ATOM     17  C   UNL     1      46.028 130.632  15.545  1.00  0.00     0.020 A 
ATOM     18  C   UNL     1      45.300 131.132  14.500  1.00  0.00     0.032 A 
ATOM     19  C   UNL     1      47.218 130.051  14.982  1.00  0.00     0.084 C 
ATOM     20  C   UNL     1      45.986 130.896  13.190  1.00  0.00    -0.059 C 
ATOM     21  N   UNL     1      47.220 130.194  13.566  1.00  0.00    -0.644 NA
ATOM     22  O   UNL     1      48.140 129.492  15.632  1.00  0.00    -0.315 OA
ENDBRANCH   5  13
TORSDOF 3
ENDMDL
MODEL 5
REMARK VINA RESULT:      -6.6      2.123      6.924
REMARK SMILES Nc1cc(F)c(-c2cnc3c(c2)C(=O)[N-]C3)cc1C=O
REMARK SMILES IDX 2 1 3 2 4 3 5 4 6 5 17 6 18 7 1 8 19 11 20 12 7 13 8 14
REMARK SMILES IDX 12 15 9 16 11 17 10 18 13 19 16 20 15 21 14 22
REMARK H PARENT 1 9 1 10
ROOT
ATOM      1  C   UNL     1      42.967 131.817  21.924  1.00  0.00     0.045 A 
ATOM      2  C   UNL     1      44.103 130.996  21.868  1.00  0.00     0.066 A 
ATOM      3  C   UNL     1      44.728 130.716  20.653  1.00  0.00     0.133 A 
ATOM      4  F   UNL     1      45.794 129.876  20.642  1.00  0.00    -0.206 F 
ATOM      5  C   UNL     1      44.225 131.257  19.458  1.00  0.00     0.020 A 
ATOM      6  C   UNL     1      43.096 132.091  19.508  1.00  0.00     0.025 A 
ATOM      7  C   UNL     1      42.473 132.399  20.729  1.00  0.00     0.038 A 
ENDROOT
BRANCH   1   8
ATOM      8  N   UNL     1      42.310 131.990  23.186  1.00  0.00    -0.398 N 
ATOM      9  H   UNL     1      41.689 131.256  23.591  1.00  0.00     0.156 HD
ATOM     10  H   UNL     1      42.565 132.788  23.808  1.00  0.00     0.156 HD
ENDBRANCH   1   8
BRANCH   7  11
ATOM     11  C   UNL     1      41.347 133.358  20.697  1.00  0.00     0.262 C 
ATOM     12  O   UNL     1      40.457 133.364  21.587  1.00  0.00    -0.298 OA
ENDBRANCH   7  11
BRANCH   5  13
ATOM     13  C   UNL     1      44.873 130.965  18.155  1.00  0.00     0.004 A 
ATOM     14  C   UNL     1      46.086 130.230  18.105  1.00  0.00     0.120 A 
ATOM     15  C   UNL     1      44.285 131.394  16.946  1.00  0.00     0.022 A 
ATOM     16  N   UNL     1      46.682 129.951  16.908  1.00  0.00    -0.262 NA
ATOM     17  C   UNL     1      44.938 131.081  15.759  1.00  0.00     0.020 A 
ATOM     18  C   UNL     1      46.110 130.376  15.753  1.00  0.00     0.032 A 
ATOM     19  C   UNL     1      44.612 131.357  14.385  1.00  0.00     0.084 C 
ATOM     20  C   UNL     1      46.612 130.156  14.360  1.00  0.00    -0.059 C 
ATOM     21  N   UNL     1      45.603 130.813  13.520  1.00  0.00    -0.644 NA
ATOM     22  O   UNL     1      43.599 131.987  13.983  1.00  0.00    -0.315 OA
ENDBRANCH   5  13
TORSDOF 3
ENDMDL
MODEL 6
REMARK VINA RESULT:      -6.5      1.712      6.783
REMARK SMILES Nc1cc(F)c(-c2cnc3c(c2)C(=O)[N-]C3)cc1C=O
REMARK SMILES IDX 2 1 3 2 4 3 5 4 6 5 17 6 18 7 1 8 19 11 20 12 7 13 8 14
REMARK SMILES IDX 12 15 9 16 11 17 10 18 13 19 16 20 15 21 14 22
REMARK H PARENT 1 9 1 10
ROOT
ATOM      1  C   UNL     1      43.009 131.647  20.404  1.00  0.00     0.045 A 
ATOM      2  C   UNL     1      42.404 131.875  19.159  1.00  0.00     0.066 A 
ATOM      3  C   UNL     1      43.147 131.824  17.979  1.00  0.00     0.133 A 
ATOM      4  F   UNL     1      42.530 132.101  16.802  1.00  0.00    -0.206 F 
ATOM      5  C   UNL     1      44.523 131.542  18.021  1.00  0.00     0.020 A 
ATOM      6  C   UNL     1      45.132 131.299  19.264  1.00  0.00     0.025 A 
ATOM      7  C   UNL     1      44.389 131.324  20.455  1.00  0.00     0.038 A 
ENDROOT
BRANCH   1   8
ATOM      8  N   UNL     1      42.218 131.810  21.588  1.00  0.00    -0.398 N 
ATOM      9  H   UNL     1      41.531 132.588  21.692  1.00  0.00     0.156 HD
ATOM     10  H   UNL     1      42.192 131.057  22.312  1.00  0.00     0.156 HD
ENDBRANCH   1   8
BRANCH   7  11
ATOM     11  C   UNL     1      45.093 130.966  21.707  1.00  0.00     0.262 C 
ATOM     12  O   UNL     1      44.870 131.570  22.788  1.00  0.00    -0.298 OA
ENDBRANCH   7  11
BRANCH   5  13
ATOM     13  C   UNL     1      45.330 131.490  16.778  1.00  0.00     0.004 A 
ATOM     14  C   UNL     1      45.609 132.677  16.052  1.00  0.00     0.120 A 
ATOM     15  C   UNL     1      45.851 130.266  16.308  1.00  0.00     0.022 A 
ATOM     16  N   UNL     1      46.359 132.636  14.911  1.00  0.00    -0.262 NA
ATOM     17  C   UNL     1      46.607 130.286  15.141  1.00  0.00     0.020 A 
ATOM     18  C   UNL     1      46.848 131.451  14.467  1.00  0.00     0.032 A 
ATOM     19  C   UNL     1      47.274 129.239  14.413  1.00  0.00     0.084 C 
ATOM     20  C   UNL     1      47.691 131.219  13.251  1.00  0.00    -0.059 C 
ATOM     21  N   UNL     1      47.934 129.771  13.269  1.00  0.00    -0.644 NA
ATOM     22  O   UNL     1      47.285 128.019  14.725  1.00  0.00    -0.315 OA
ENDBRANCH   5  13
TORSDOF 3
ENDMDL
MODEL 7
REMARK VINA RESULT:      -6.3      1.824      2.390
REMARK SMILES Nc1cc(F)c(-c2cnc3c(c2)C(=O)[N-]C3)cc1C=O
REMARK SMILES IDX 2 1 3 2 4 3 5 4 6 5 17 6 18 7 1 8 19 11 20 12 7 13 8 14
REMARK SMILES IDX 12 15 9 16 11 17 10 18 13 19 16 20 15 21 14 22
REMARK H PARENT 1 9 1 10
ROOT
ATOM      1  C   UNL     1      45.628 130.858  14.662  1.00  0.00     0.045 A 
ATOM      2  C   UNL     1      46.494 130.277  15.598  1.00  0.00     0.066 A 
ATOM      3  C   UNL     1      46.219 130.334  16.965  1.00  0.00     0.133 A 
ATOM      4  F   UNL     1      47.112 129.802  17.837  1.00  0.00    -0.206 F 
ATOM      5  C   UNL     1      45.060 130.981  17.426  1.00  0.00     0.020 A 
ATOM      6  C   UNL     1      44.181 131.554  16.492  1.00  0.00     0.025 A 
ATOM      7  C   UNL     1      44.436 131.481  15.113  1.00  0.00     0.038 A 
ENDROOT
BRANCH   1   8
ATOM      8  N   UNL     1      46.011 130.854  13.280  1.00  0.00    -0.398 N 
ATOM      9  H   UNL     1      45.491 130.303  12.564  1.00  0.00     0.156 HD
ATOM     10  H   UNL     1      46.723 131.533  12.929  1.00  0.00     0.156 HD
ENDBRANCH   1   8
BRANCH   7  11
ATOM     11  C   UNL     1      43.410 132.030  14.199  1.00  0.00     0.262 C 
ATOM     12  O   UNL     1      42.845 131.316  13.331  1.00  0.00    -0.298 OA
ENDBRANCH   7  11
BRANCH   5  13
ATOM     13  C   UNL     1      44.754 131.059  18.876  1.00  0.00     0.004 A 
ATOM     14  C   UNL     1      45.619 130.456  19.826  1.00  0.00     0.120 A 
ATOM     15  C   UNL     1      43.612 131.748  19.335  1.00  0.00     0.022 A 
ATOM     16  N   UNL     1      45.346 130.531  21.162  1.00  0.00    -0.262 NA
ATOM     17  C   UNL     1      43.386 131.790  20.706  1.00  0.00     0.020 A 
ATOM     18  C   UNL     1      44.241 131.191  21.590  1.00  0.00     0.032 A 
ATOM     19  C   UNL     1      42.343 132.402  21.487  1.00  0.00     0.084 C 
ATOM     20  C   UNL     1      43.792 131.382  23.005  1.00  0.00    -0.059 C 
ATOM     21  N   UNL     1      42.560 132.171  22.875  1.00  0.00    -0.644 NA
ATOM     22  O   UNL     1      41.368 133.052  21.028  1.00  0.00    -0.315 OA
ENDBRANCH   5  13
TORSDOF 3
ENDMDL
MODEL 8
REMARK VINA RESULT:      -6.1      1.945      7.199
REMARK SMILES Nc1cc(F)c(-c2cnc3c(c2)C(=O)[N-]C3)cc1C=O
REMARK SMILES IDX 2 1 3 2 4 3 5 4 6 5 17 6 18 7 1 8 19 11 20 12 7 13 8 14
REMARK SMILES IDX 12 15 9 16 11 17 10 18 13 19 16 20 15 21 14 22
REMARK H PARENT 1 9 1 10
ROOT
ATOM      1  C   UNL     1      44.268 131.233  22.486  1.00  0.00     0.045 A 
ATOM      2  C   UNL     1      45.420 130.786  21.823  1.00  0.00     0.066 A 
ATOM      3  C   UNL     1      45.493 130.787  20.430  1.00  0.00     0.133 A 
ATOM      4  F   UNL     1      46.609 130.298  19.831  1.00  0.00    -0.206 F 
ATOM      5  C   UNL     1      44.404 131.238  19.665  1.00  0.00     0.020 A 
ATOM      6  C   UNL     1      43.252 131.700  20.324  1.00  0.00     0.025 A 
ATOM      7  C   UNL     1      43.178 131.727  21.726  1.00  0.00     0.038 A 
ENDROOT
BRANCH   1   8
ATOM      8  N   UNL     1      44.213 131.117  23.914  1.00  0.00    -0.398 N 
ATOM      9  H   UNL     1      44.194 130.191  24.394  1.00  0.00     0.156 HD
ATOM     10  H   UNL     1      44.356 131.958  24.517  1.00  0.00     0.156 HD
ENDBRANCH   1   8
BRANCH   7  11
ATOM     11  C   UNL     1      41.963 132.314  22.334  1.00  0.00     0.262 C 
ATOM     12  O   UNL     1      41.628 132.062  23.521  1.00  0.00    -0.298 OA
ENDBRANCH   7  11
BRANCH   5  13
ATOM     13  C   UNL     1      44.460 131.240  18.183  1.00  0.00     0.004 A 
ATOM     14  C   UNL     1      43.382 131.763  17.423  1.00  0.00     0.120 A 
ATOM     15  C   UNL     1      45.592 130.741  17.504  1.00  0.00     0.022 A 
ATOM     16  N   UNL     1      43.432 131.775  16.058  1.00  0.00    -0.262 NA
ATOM     17  C   UNL     1      45.586 130.778  16.114  1.00  0.00     0.020 A 
ATOM     18  C   UNL     1      44.523 131.286  15.419  1.00  0.00     0.032 A 
ATOM     19  C   UNL     1      46.562 130.366  15.140  1.00  0.00     0.084 C 
ATOM     20  C   UNL     1      44.755 131.227  13.940  1.00  0.00    -0.059 C 
ATOM     21  N   UNL     1      46.088 130.623  13.822  1.00  0.00    -0.644 NA
ATOM     22  O   UNL     1      47.681 129.850  15.395  1.00  0.00    -0.315 OA
ENDBRANCH   5  13
TORSDOF 3
ENDMDL
MODEL 9
REMARK VINA RESULT:      -6.1      1.810      2.335
REMARK SMILES Nc1cc(F)c(-c2cnc3c(c2)C(=O)[N-]C3)cc1C=O
REMARK SMILES IDX 2 1 3 2 4 3 5 4 6 5 17 6 18 7 1 8 19 11 20 12 7 13 8 14
REMARK SMILES IDX 12 15 9 16 11 17 10 18 13 19 16 20 15 21 14 22
REMARK H PARENT 1 9 1 10
ROOT
ATOM      1  C   UNL     1      44.528 131.180  15.786  1.00  0.00     0.045 A 
ATOM      2  C   UNL     1      43.447 131.755  16.469  1.00  0.00     0.066 A 
ATOM      3  C   UNL     1      43.439 131.841  17.861  1.00  0.00     0.133 A 
ATOM      4  F   UNL     1      42.349 132.360  18.481  1.00  0.00    -0.206 F 
ATOM      5  C   UNL     1      44.524 131.347  18.606  1.00  0.00     0.020 A 
ATOM      6  C   UNL     1      45.617 130.782  17.927  1.00  0.00     0.025 A 
ATOM      7  C   UNL     1      45.645 130.713  16.524  1.00  0.00     0.038 A 
ENDROOT
BRANCH   1   8
ATOM      8  N   UNL     1      44.436 131.030  14.363  1.00  0.00    -0.398 N 
ATOM      9  H   UNL     1      43.838 130.299  13.921  1.00  0.00     0.156 HD
ATOM     10  H   UNL     1      44.840 131.756  13.730  1.00  0.00     0.156 HD
ENDBRANCH   1   8
BRANCH   7  11
ATOM     11  C   UNL     1      46.875 130.186  15.891  1.00  0.00     0.262 C 
ATOM     12  O   UNL     1      47.164 130.441  14.694  1.00  0.00    -0.298 OA
ENDBRANCH   7  11
BRANCH   5  13
ATOM     13  C   UNL     1      44.532 131.423  20.087  1.00  0.00     0.004 A 
ATOM     14  C   UNL     1      45.442 132.280  20.758  1.00  0.00     0.120 A 
ATOM     15  C   UNL     1      43.623 130.662  20.852  1.00  0.00     0.022 A 
ATOM     16  N   UNL     1      45.448 132.360  22.122  1.00  0.00    -0.262 NA
ATOM     17  C   UNL     1      43.676 130.785  22.236  1.00  0.00     0.020 A 
ATOM     18  C   UNL     1      44.573 131.618  22.845  1.00  0.00     0.032 A 
ATOM     19  C   UNL     1      42.904 130.169  23.283  1.00  0.00     0.084 C 
ATOM     20  C   UNL     1      44.430 131.585  24.335  1.00  0.00    -0.059 C 
ATOM     21  N   UNL     1      43.336 130.631  24.558  1.00  0.00    -0.644 NA
ATOM     22  O   UNL     1      41.973 129.338  23.117  1.00  0.00    -0.315 OA
ENDBRANCH   5  13
TORSDOF 3
ENDMDL


