MODEL 1
REMARK VINA RESULT:      -4.3      0.000      0.000
REMARK SMILES C=C(C)C(=O)Oc1c(NN)cc(C)cc1-n1nc2ccccc2n1
REMARK SMILES IDX 7 1 8 2 11 3 12 4 13 5 14 6 15 7 6 8 4 9 5 10 2 11 1 12 3 13
REMARK SMILES IDX 9 14 10 16 16 19 17 20 24 21 18 22 23 23 19 24 22 25 20 26
REMARK SMILES IDX 21 27
REMARK H PARENT 9 15 10 17 10 18
ROOT
ATOM      1  C   UNL     1      44.655 124.952  22.224  1.00  0.00     0.183 A 
ATOM      2  C   UNL     1      45.130 123.625  22.203  1.00  0.00     0.094 A 
ATOM      3  C   UNL     1      46.456 123.360  22.586  1.00  0.00     0.034 A 
ATOM      4  C   UNL     1      47.307 124.399  22.983  1.00  0.00    -0.047 A 
ATOM      5  C   UNL     1      48.712 124.099  23.416  1.00  0.00     0.044 C 
ATOM      6  C   UNL     1      46.815 125.707  23.053  1.00  0.00     0.037 A 
ATOM      7  C   UNL     1      45.489 125.995  22.695  1.00  0.00     0.131 A 
ENDROOT
BRANCH   1   8
ATOM      8  O   UNL     1      43.354 125.215  21.775  1.00  0.00    -0.419 OA
BRANCH   8   9
ATOM      9  C   UNL     1      42.208 124.710  22.403  1.00  0.00     0.338 C 
ATOM     10  O   UNL     1      41.227 124.318  21.710  1.00  0.00    -0.246 OA
BRANCH   9  11
ATOM     11  C   UNL     1      42.160 124.639  23.880  1.00  0.00     0.027 C 
ATOM     12  C   UNL     1      42.156 125.754  24.622  1.00  0.00     0.020 C 
ATOM     13  C   UNL     1      42.211 123.295  24.550  1.00  0.00     0.051 C 
ENDBRANCH   9  11
ENDBRANCH   8   9
ENDBRANCH   1   8
BRANCH   2  14
ATOM     14  N   UNL     1      44.267 122.558  21.766  1.00  0.00    -0.321 N 
ATOM     15  H   UNL     1      44.034 121.778  22.422  1.00  0.00     0.181 HD
BRANCH  14  16
ATOM     16  N   UNL     1      43.694 122.555  20.483  1.00  0.00    -0.250 NA
ATOM     17  H   UNL     1      43.735 123.531  20.113  1.00  0.00     0.143 HD
ATOM     18  H   UNL     1      42.681 122.325  20.599  1.00  0.00     0.143 HD
ENDBRANCH  14  16
ENDBRANCH   2  14
BRANCH   7  19
ATOM     19  N   UNL     1      44.990 127.334  22.861  1.00  0.00    -0.146 N 
ATOM     20  N   UNL     1      44.419 127.770  23.985  1.00  0.00    -0.148 NA
ATOM     21  N   UNL     1      45.014 128.257  21.901  1.00  0.00    -0.148 NA
ATOM     22  C   UNL     1      44.080 129.040  23.725  1.00  0.00     0.113 A 
ATOM     23  C   UNL     1      44.445 129.339  22.451  1.00  0.00     0.113 A 
ATOM     24  C   UNL     1      43.461 129.968  24.556  1.00  0.00     0.032 A 
ATOM     25  C   UNL     1      44.228 130.593  21.889  1.00  0.00     0.032 A 
ATOM     26  C   UNL     1      43.220 131.251  24.026  1.00  0.00     0.002 A 
ATOM     27  C   UNL     1      43.603 131.563  22.698  1.00  0.00     0.002 A 
ENDBRANCH   7  19
TORSDOF 6
ENDMDL
MODEL 2
REMARK VINA RESULT:      -4.0      2.232      4.395
REMARK SMILES C=C(C)C(=O)Oc1c(NN)cc(C)cc1-n1nc2ccccc2n1
REMARK SMILES IDX 7 1 8 2 11 3 12 4 13 5 14 6 15 7 6 8 4 9 5 10 2 11 1 12 3 13
REMARK SMILES IDX 9 14 10 16 16 19 17 20 24 21 18 22 23 23 19 24 22 25 20 26
REMARK SMILES IDX 21 27
REMARK H PARENT 9 15 10 17 10 18
ROOT
ATOM      1  C   UNL     1      46.251 124.995  22.493  1.00  0.00     0.183 A 
ATOM      2  C   UNL     1      46.425 123.597  22.432  1.00  0.00     0.094 A 
ATOM      3  C   UNL     1      45.326 122.754  22.667  1.00  0.00     0.034 A 
ATOM      4  C   UNL     1      44.065 123.287  22.963  1.00  0.00    -0.047 A 
ATOM      5  C   UNL     1      42.894 122.376  23.183  1.00  0.00     0.044 C 
ATOM      6  C   UNL     1      43.887 124.675  22.969  1.00  0.00     0.037 A 
ATOM      7  C   UNL     1      44.964 125.539  22.719  1.00  0.00     0.131 A 
ENDROOT
BRANCH   1   8
ATOM      8  O   UNL     1      47.367 125.825  22.326  1.00  0.00    -0.419 OA
BRANCH   8   9
ATOM      9  C   UNL     1      48.342 126.012  23.315  1.00  0.00     0.338 C 
ATOM     10  O   UNL     1      47.998 126.281  24.500  1.00  0.00    -0.246 OA
BRANCH   9  11
ATOM     11  C   UNL     1      49.772 125.889  22.957  1.00  0.00     0.027 C 
ATOM     12  C   UNL     1      50.147 125.317  21.806  1.00  0.00     0.020 C 
ATOM     13  C   UNL     1      50.814 126.330  23.947  1.00  0.00     0.051 C 
ENDBRANCH   9  11
ENDBRANCH   8   9
ENDBRANCH   1   8
BRANCH   2  14
ATOM     14  N   UNL     1      47.727 123.045  22.158  1.00  0.00    -0.321 N 
ATOM     15  H   UNL     1      48.475 123.095  22.886  1.00  0.00     0.181 HD
BRANCH  14  16
ATOM     16  N   UNL     1      48.012 122.403  20.941  1.00  0.00    -0.250 NA
ATOM     17  H   UNL     1      47.942 123.116  20.180  1.00  0.00     0.143 HD
ATOM     18  H   UNL     1      47.246 121.712  20.770  1.00  0.00     0.143 HD
ENDBRANCH  14  16
ENDBRANCH   2  14
BRANCH   7  19
ATOM     19  N   UNL     1      44.728 126.956  22.647  1.00  0.00    -0.146 N 
ATOM     20  N   UNL     1      45.359 127.762  21.791  1.00  0.00    -0.148 NA
ATOM     21  N   UNL     1      43.888 127.608  23.449  1.00  0.00    -0.148 NA
ATOM     22  C   UNL     1      44.879 128.985  22.057  1.00  0.00     0.113 A 
ATOM     23  C   UNL     1      43.978 128.891  23.070  1.00  0.00     0.113 A 
ATOM     24  C   UNL     1      45.189 130.197  21.450  1.00  0.00     0.032 A 
ATOM     25  C   UNL     1      43.302 129.999  23.570  1.00  0.00     0.032 A 
ATOM     26  C   UNL     1      44.526 131.347  21.927  1.00  0.00     0.002 A 
ATOM     27  C   UNL     1      43.586 131.247  22.983  1.00  0.00     0.002 A 
ENDBRANCH   7  19
TORSDOF 6
ENDMDL
MODEL 3
REMARK VINA RESULT:      -3.9      4.832      7.568
REMARK SMILES C=C(C)C(=O)Oc1c(NN)cc(C)cc1-n1nc2ccccc2n1
REMARK SMILES IDX 7 1 8 2 11 3 12 4 13 5 14 6 15 7 6 8 4 9 5 10 2 11 1 12 3 13
REMARK SMILES IDX 9 14 10 16 16 19 17 20 24 21 18 22 23 23 19 24 22 25 20 26
REMARK SMILES IDX 21 27
REMARK H PARENT 9 15 10 17 10 18
ROOT
ATOM      1  C   UNL     1      44.164 131.271  20.994  1.00  0.00     0.183 A 
ATOM      2  C   UNL     1      43.890 131.079  22.364  1.00  0.00     0.094 A 
ATOM      3  C   UNL     1      44.307 129.892  22.991  1.00  0.00     0.034 A 
ATOM      4  C   UNL     1      44.986 128.902  22.271  1.00  0.00    -0.047 A 
ATOM      5  C   UNL     1      45.452 127.653  22.960  1.00  0.00     0.044 C 
ATOM      6  C   UNL     1      45.302 129.122  20.925  1.00  0.00     0.037 A 
ATOM      7  C   UNL     1      44.915 130.306  20.280  1.00  0.00     0.131 A 
ENDROOT
BRANCH   1   8
ATOM      8  O   UNL     1      43.684 132.425  20.362  1.00  0.00    -0.419 OA
BRANCH   8   9
ATOM      9  C   UNL     1      42.348 132.590  19.973  1.00  0.00     0.338 C 
ATOM     10  O   UNL     1      41.570 133.304  20.666  1.00  0.00    -0.246 OA
BRANCH   9  11
ATOM     11  C   UNL     1      41.860 131.922  18.746  1.00  0.00     0.027 C 
ATOM     12  C   UNL     1      42.164 132.404  17.534  1.00  0.00     0.020 C 
ATOM     13  C   UNL     1      40.936 130.743  18.872  1.00  0.00     0.051 C 
ENDBRANCH   9  11
ENDBRANCH   8   9
ENDBRANCH   1   8
BRANCH   2  14
ATOM     14  N   UNL     1      43.164 132.081  23.100  1.00  0.00    -0.321 N 
ATOM     15  H   UNL     1      43.601 133.014  23.275  1.00  0.00     0.181 HD
BRANCH  14  16
ATOM     16  N   UNL     1      41.858 131.850  23.565  1.00  0.00    -0.250 NA
ATOM     17  H   UNL     1      41.353 132.765  23.562  1.00  0.00     0.143 HD
ATOM     18  H   UNL     1      41.935 131.558  24.566  1.00  0.00     0.143 HD
ENDBRANCH  14  16
ENDBRANCH   2  14
BRANCH   7  19
ATOM     19  N   UNL     1      45.331 130.538  18.923  1.00  0.00    -0.146 N 
ATOM     20  N   UNL     1      45.166 131.702  18.294  1.00  0.00    -0.148 NA
ATOM     21  N   UNL     1      45.886 129.606  18.150  1.00  0.00    -0.148 NA
ATOM     22  C   UNL     1      45.658 131.499  17.064  1.00  0.00     0.113 A 
ATOM     23  C   UNL     1      46.100 130.216  16.976  1.00  0.00     0.113 A 
ATOM     24  C   UNL     1      45.745 132.388  15.998  1.00  0.00     0.032 A 
ATOM     25  C   UNL     1      46.672 129.705  15.816  1.00  0.00     0.032 A 
ATOM     26  C   UNL     1      46.318 131.910  14.802  1.00  0.00     0.002 A 
ATOM     27  C   UNL     1      46.780 130.573  14.712  1.00  0.00     0.002 A 
ENDBRANCH   7  19
TORSDOF 6
ENDMDL
MODEL 4
REMARK VINA RESULT:      -3.6      4.847      7.649
REMARK SMILES C=C(C)C(=O)Oc1c(NN)cc(C)cc1-n1nc2ccccc2n1
REMARK SMILES IDX 7 1 8 2 11 3 12 4 13 5 14 6 15 7 6 8 4 9 5 10 2 11 1 12 3 13
REMARK SMILES IDX 9 14 10 16 16 19 17 20 24 21 18 22 23 23 19 24 22 25 20 26
REMARK SMILES IDX 21 27
REMARK H PARENT 9 15 10 17 10 18
ROOT
ATOM      1  C   UNL     1      44.154 131.317  20.976  1.00  0.00     0.183 A 
ATOM      2  C   UNL     1      43.898 131.138  22.351  1.00  0.00     0.094 A 
ATOM      3  C   UNL     1      44.317 129.954  22.983  1.00  0.00     0.034 A 
ATOM      4  C   UNL     1      44.980 128.954  22.262  1.00  0.00    -0.047 A 
ATOM      5  C   UNL     1      45.446 127.708  22.954  1.00  0.00     0.044 C 
ATOM      6  C   UNL     1      45.278 129.160  20.910  1.00  0.00     0.037 A 
ATOM      7  C   UNL     1      44.889 130.341  20.260  1.00  0.00     0.131 A 
ENDROOT
BRANCH   1   8
ATOM      8  O   UNL     1      43.673 132.469  20.341  1.00  0.00    -0.419 OA
BRANCH   8   9
ATOM      9  C   UNL     1      42.338 132.630  19.949  1.00  0.00     0.338 C 
ATOM     10  O   UNL     1      41.573 133.393  20.604  1.00  0.00    -0.246 OA
BRANCH   9  11
ATOM     11  C   UNL     1      41.835 131.902  18.764  1.00  0.00     0.027 C 
ATOM     12  C   UNL     1      41.079 130.805  18.900  1.00  0.00     0.020 C 
ATOM     13  C   UNL     1      42.262 132.351  17.394  1.00  0.00     0.051 C 
ENDBRANCH   9  11
ENDBRANCH   8   9
ENDBRANCH   1   8
BRANCH   2  14
ATOM     14  N   UNL     1      43.190 132.151  23.089  1.00  0.00    -0.321 N 
ATOM     15  H   UNL     1      42.483 132.748  22.602  1.00  0.00     0.181 HD
BRANCH  14  16
ATOM     16  N   UNL     1      43.397 132.338  24.466  1.00  0.00    -0.250 NA
ATOM     17  H   UNL     1      43.213 131.427  24.943  1.00  0.00     0.143 HD
ATOM     18  H   UNL     1      42.662 133.001  24.801  1.00  0.00     0.143 HD
ENDBRANCH  14  16
ENDBRANCH   2  14
BRANCH   7  19
ATOM     19  N   UNL     1      45.288 130.558  18.896  1.00  0.00    -0.146 N 
ATOM     20  N   UNL     1      45.861 129.621  18.140  1.00  0.00    -0.148 NA
ATOM     21  N   UNL     1      45.158 131.724  18.263  1.00  0.00    -0.148 NA
ATOM     22  C   UNL     1      46.091 130.222  16.965  1.00  0.00     0.113 A 
ATOM     23  C   UNL     1      45.660 131.509  17.039  1.00  0.00     0.113 A 
ATOM     24  C   UNL     1      46.664 129.697  15.811  1.00  0.00     0.032 A 
ATOM     25  C   UNL     1      45.759 132.390  15.968  1.00  0.00     0.032 A 
ATOM     26  C   UNL     1      46.785 130.557  14.701  1.00  0.00     0.002 A 
ATOM     27  C   UNL     1      46.333 131.898  14.779  1.00  0.00     0.002 A 
ENDBRANCH   7  19
TORSDOF 6
ENDMDL
MODEL 5
REMARK VINA RESULT:      -3.1      4.366      7.110
REMARK SMILES C=C(C)C(=O)Oc1c(NN)cc(C)cc1-n1nc2ccccc2n1
REMARK SMILES IDX 7 1 8 2 11 3 12 4 13 5 14 6 15 7 6 8 4 9 5 10 2 11 1 12 3 13
REMARK SMILES IDX 9 14 10 16 16 19 17 20 24 21 18 22 23 23 19 24 22 25 20 26
REMARK SMILES IDX 21 27
REMARK H PARENT 9 15 10 17 10 18
ROOT
ATOM      1  C   UNL     1      44.595 131.549  22.170  1.00  0.00     0.183 A 
ATOM      2  C   UNL     1      44.713 132.098  23.463  1.00  0.00     0.094 A 
ATOM      3  C   UNL     1      45.759 132.995  23.740  1.00  0.00     0.034 A 
ATOM      4  C   UNL     1      46.683 133.345  22.748  1.00  0.00    -0.047 A 
ATOM      5  C   UNL     1      47.778 134.326  23.048  1.00  0.00     0.044 C 
ATOM      6  C   UNL     1      46.529 132.839  21.452  1.00  0.00     0.037 A 
ATOM      7  C   UNL     1      45.483 131.957  21.144  1.00  0.00     0.131 A 
ENDROOT
BRANCH   1   8
ATOM      8  O   UNL     1      43.592 130.603  21.923  1.00  0.00    -0.419 OA
BRANCH   8   9
ATOM      9  C   UNL     1      43.381 129.477  22.729  1.00  0.00     0.338 C 
ATOM     10  O   UNL     1      42.238 129.253  23.217  1.00  0.00    -0.246 OA
BRANCH   9  11
ATOM     11  C   UNL     1      44.507 128.556  22.999  1.00  0.00     0.027 C 
ATOM     12  C   UNL     1      44.856 128.246  24.254  1.00  0.00     0.020 C 
ATOM     13  C   UNL     1      45.324 128.041  21.847  1.00  0.00     0.051 C 
ENDBRANCH   9  11
ENDBRANCH   8   9
ENDBRANCH   1   8
BRANCH   2  14
ATOM     14  N   UNL     1      43.783 131.717  24.494  1.00  0.00    -0.321 N 
ATOM     15  H   UNL     1      44.124 131.193  25.332  1.00  0.00     0.181 HD
BRANCH  14  16
ATOM     16  N   UNL     1      42.423 132.062  24.422  1.00  0.00    -0.250 NA
ATOM     17  H   UNL     1      42.364 133.094  24.262  1.00  0.00     0.143 HD
ATOM     18  H   UNL     1      42.010 131.885  25.366  1.00  0.00     0.143 HD
ENDBRANCH  14  16
ENDBRANCH   2  14
BRANCH   7  19
ATOM     19  N   UNL     1      45.302 131.524  19.785  1.00  0.00    -0.146 N 
ATOM     20  N   UNL     1      46.023 130.553  19.222  1.00  0.00    -0.148 NA
ATOM     21  N   UNL     1      44.426 132.072  18.943  1.00  0.00    -0.148 NA
ATOM     22  C   UNL     1      45.567 130.474  17.964  1.00  0.00     0.113 A 
ATOM     23  C   UNL     1      44.589 131.402  17.794  1.00  0.00     0.113 A 
ATOM     24  C   UNL     1      45.963 129.618  16.941  1.00  0.00     0.032 A 
ATOM     25  C   UNL     1      43.915 131.561  16.587  1.00  0.00     0.032 A 
ATOM     26  C   UNL     1      45.307 129.746  15.701  1.00  0.00     0.002 A 
ATOM     27  C   UNL     1      44.286 130.714  15.525  1.00  0.00     0.002 A 
ENDBRANCH   7  19
TORSDOF 6
ENDMDL
MODEL 6
REMARK VINA RESULT:      -2.8      1.972      5.698
REMARK SMILES C=C(C)C(=O)Oc1c(NN)cc(C)cc1-n1nc2ccccc2n1
REMARK SMILES IDX 7 1 8 2 11 3 12 4 13 5 14 6 15 7 6 8 4 9 5 10 2 11 1 12 3 13
REMARK SMILES IDX 9 14 10 16 16 19 17 20 24 21 18 22 23 23 19 24 22 25 20 26
REMARK SMILES IDX 21 27
REMARK H PARENT 9 15 10 17 10 18
ROOT
ATOM      1  C   UNL     1      44.362 127.010  23.088  1.00  0.00     0.183 A 
ATOM      2  C   UNL     1      43.406 128.047  23.104  1.00  0.00     0.094 A 
ATOM      3  C   UNL     1      43.678 129.246  22.424  1.00  0.00     0.034 A 
ATOM      4  C   UNL     1      44.885 129.421  21.735  1.00  0.00    -0.047 A 
ATOM      5  C   UNL     1      45.150 130.695  20.989  1.00  0.00     0.044 C 
ATOM      6  C   UNL     1      45.805 128.369  21.678  1.00  0.00     0.037 A 
ATOM      7  C   UNL     1      45.550 127.154  22.332  1.00  0.00     0.131 A 
ENDROOT
BRANCH   1   8
ATOM      8  O   UNL     1      44.112 125.846  23.826  1.00  0.00    -0.419 OA
BRANCH   8   9
ATOM      9  C   UNL     1      43.214 124.852  23.414  1.00  0.00     0.338 C 
ATOM     10  O   UNL     1      42.176 125.166  22.767  1.00  0.00    -0.246 OA
BRANCH   9  11
ATOM     11  C   UNL     1      43.496 123.437  23.742  1.00  0.00     0.027 C 
ATOM     12  C   UNL     1      42.661 122.463  23.357  1.00  0.00     0.020 C 
ATOM     13  C   UNL     1      44.686 123.108  24.598  1.00  0.00     0.051 C 
ENDBRANCH   9  11
ENDBRANCH   8   9
ENDBRANCH   1   8
BRANCH   2  14
ATOM     14  N   UNL     1      42.178 127.883  23.837  1.00  0.00    -0.321 N 
ATOM     15  H   UNL     1      41.953 126.959  24.272  1.00  0.00     0.181 HD
BRANCH  14  16
ATOM     16  N   UNL     1      41.280 128.948  24.016  1.00  0.00    -0.250 NA
ATOM     17  H   UNL     1      40.692 128.733  24.853  1.00  0.00     0.143 HD
ATOM     18  H   UNL     1      40.634 128.948  23.194  1.00  0.00     0.143 HD
ENDBRANCH  14  16
ENDBRANCH   2  14
BRANCH   7  19
ATOM     19  N   UNL     1      46.476 126.064  22.181  1.00  0.00    -0.146 N 
ATOM     20  N   UNL     1      47.739 126.110  22.606  1.00  0.00    -0.148 NA
ATOM     21  N   UNL     1      46.177 124.918  21.570  1.00  0.00    -0.148 NA
ATOM     22  C   UNL     1      48.260 124.925  22.260  1.00  0.00     0.113 A 
ATOM     23  C   UNL     1      47.304 124.194  21.628  1.00  0.00     0.113 A 
ATOM     24  C   UNL     1      49.545 124.437  22.473  1.00  0.00     0.032 A 
ATOM     25  C   UNL     1      47.542 122.910  21.151  1.00  0.00     0.032 A 
ATOM     26  C   UNL     1      49.830 123.139  22.005  1.00  0.00     0.002 A 
ATOM     27  C   UNL     1      48.832 122.378  21.347  1.00  0.00     0.002 A 
ENDBRANCH   7  19
TORSDOF 6
ENDMDL
MODEL 7
REMARK VINA RESULT:      -2.3      4.131      6.977
REMARK SMILES C=C(C)C(=O)Oc1c(NN)cc(C)cc1-n1nc2ccccc2n1
REMARK SMILES IDX 7 1 8 2 11 3 12 4 13 5 14 6 15 7 6 8 4 9 5 10 2 11 1 12 3 13
REMARK SMILES IDX 9 14 10 16 16 19 17 20 24 21 18 22 23 23 19 24 22 25 20 26
REMARK SMILES IDX 21 27
REMARK H PARENT 9 15 10 17 10 18
ROOT
ATOM      1  C   UNL     1      44.503 131.359  22.314  1.00  0.00     0.183 A 
ATOM      2  C   UNL     1      44.513 131.870  23.628  1.00  0.00     0.094 A 
ATOM      3  C   UNL     1      45.470 132.836  23.985  1.00  0.00     0.034 A 
ATOM      4  C   UNL     1      46.410 133.291  23.053  1.00  0.00    -0.047 A 
ATOM      5  C   UNL     1      47.407 134.343  23.439  1.00  0.00     0.044 C 
ATOM      6  C   UNL     1      46.360 132.819  21.736  1.00  0.00     0.037 A 
ATOM      7  C   UNL     1      45.404 131.869  21.348  1.00  0.00     0.131 A 
ENDROOT
BRANCH   1   8
ATOM      8  O   UNL     1      43.591 130.347  21.987  1.00  0.00    -0.419 OA
BRANCH   8   9
ATOM      9  C   UNL     1      43.337 129.244  22.814  1.00  0.00     0.338 C 
ATOM     10  O   UNL     1      42.169 129.032  23.245  1.00  0.00    -0.246 OA
BRANCH   9  11
ATOM     11  C   UNL     1      44.447 128.333  23.171  1.00  0.00     0.027 C 
ATOM     12  C   UNL     1      45.024 128.393  24.378  1.00  0.00     0.020 C 
ATOM     13  C   UNL     1      44.989 127.396  22.129  1.00  0.00     0.051 C 
ENDBRANCH   9  11
ENDBRANCH   8   9
ENDBRANCH   1   8
BRANCH   2  14
ATOM     14  N   UNL     1      43.568 131.382  24.598  1.00  0.00    -0.321 N 
ATOM     15  H   UNL     1      43.875 130.691  25.320  1.00  0.00     0.181 HD
BRANCH  14  16
ATOM     16  N   UNL     1      42.239 131.838  24.625  1.00  0.00    -0.250 NA
ATOM     17  H   UNL     1      42.185 132.696  24.030  1.00  0.00     0.143 HD
ATOM     18  H   UNL     1      42.038 132.144  25.604  1.00  0.00     0.143 HD
ENDBRANCH  14  16
ENDBRANCH   2  14
BRANCH   7  19
ATOM     19  N   UNL     1      45.324 131.472  19.969  1.00  0.00    -0.146 N 
ATOM     20  N   UNL     1      44.503 132.043  19.086  1.00  0.00    -0.148 NA
ATOM     21  N   UNL     1      46.033 130.473  19.445  1.00  0.00    -0.148 NA
ATOM     22  C   UNL     1      44.717 131.380  17.941  1.00  0.00     0.113 A 
ATOM     23  C   UNL     1      45.654 130.420  18.160  1.00  0.00     0.113 A 
ATOM     24  C   UNL     1      44.130 131.573  16.695  1.00  0.00     0.032 A 
ATOM     25  C   UNL     1      46.093 129.566  17.154  1.00  0.00     0.032 A 
ATOM     26  C   UNL     1      44.545 130.727  15.647  1.00  0.00     0.002 A 
ATOM     27  C   UNL     1      45.524 129.728  15.876  1.00  0.00     0.002 A 
ENDBRANCH   7  19
TORSDOF 6
ENDMDL
MODEL 8
REMARK VINA RESULT:      -2.3      5.794      8.558
REMARK SMILES C=C(C)C(=O)Oc1c(NN)cc(C)cc1-n1nc2ccccc2n1
REMARK SMILES IDX 7 1 8 2 11 3 12 4 13 5 14 6 15 7 6 8 4 9 5 10 2 11 1 12 3 13
REMARK SMILES IDX 9 14 10 16 16 19 17 20 24 21 18 22 23 23 19 24 22 25 20 26
REMARK SMILES IDX 21 27
REMARK H PARENT 9 15 10 17 10 18
ROOT
ATOM      1  C   UNL     1      45.003 132.357  21.989  1.00  0.00     0.183 A 
ATOM      2  C   UNL     1      44.788 132.392  23.382  1.00  0.00     0.094 A 
ATOM      3  C   UNL     1      43.886 131.485  23.965  1.00  0.00     0.034 A 
ATOM      4  C   UNL     1      43.200 130.553  23.177  1.00  0.00    -0.047 A 
ATOM      5  C   UNL     1      42.262 129.572  23.815  1.00  0.00     0.044 C 
ATOM      6  C   UNL     1      43.457 130.488  21.803  1.00  0.00     0.037 A 
ATOM      7  C   UNL     1      44.368 131.368  21.199  1.00  0.00     0.131 A 
ENDROOT
BRANCH   1   8
ATOM      8  O   UNL     1      45.851 133.310  21.409  1.00  0.00    -0.419 OA
BRANCH   8   9
ATOM      9  C   UNL     1      47.248 133.203  21.419  1.00  0.00     0.338 C 
ATOM     10  O   UNL     1      47.804 132.135  21.041  1.00  0.00    -0.246 OA
BRANCH   9  11
ATOM     11  C   UNL     1      48.061 134.353  21.874  1.00  0.00     0.027 C 
ATOM     12  C   UNL     1      47.832 135.586  21.405  1.00  0.00     0.020 C 
ATOM     13  C   UNL     1      49.216 134.109  22.804  1.00  0.00     0.051 C 
ENDBRANCH   9  11
ENDBRANCH   8   9
ENDBRANCH   1   8
BRANCH   2  14
ATOM     14  N   UNL     1      45.469 133.370  24.191  1.00  0.00    -0.321 N 
ATOM     15  H   UNL     1      44.966 134.235  24.492  1.00  0.00     0.181 HD
BRANCH  14  16
ATOM     16  N   UNL     1      46.792 133.175  24.622  1.00  0.00    -0.250 NA
ATOM     17  H   UNL     1      46.902 132.165  24.871  1.00  0.00     0.143 HD
ATOM     18  H   UNL     1      46.909 133.712  25.511  1.00  0.00     0.143 HD
ENDBRANCH  14  16
ENDBRANCH   2  14
BRANCH   7  19
ATOM     19  N   UNL     1      44.674 131.217  19.803  1.00  0.00    -0.146 N 
ATOM     20  N   UNL     1      45.672 130.458  19.348  1.00  0.00    -0.148 NA
ATOM     21  N   UNL     1      44.018 131.847  18.829  1.00  0.00    -0.148 NA
ATOM     22  C   UNL     1      45.633 130.604  18.016  1.00  0.00     0.113 A 
ATOM     23  C   UNL     1      44.620 131.452  17.698  1.00  0.00     0.113 A 
ATOM     24  C   UNL     1      46.447 130.024  17.049  1.00  0.00     0.032 A 
ATOM     25  C   UNL     1      44.325 131.798  16.384  1.00  0.00     0.032 A 
ATOM     26  C   UNL     1      46.182 130.349  15.703  1.00  0.00     0.002 A 
ATOM     27  C   UNL     1      45.125 131.232  15.372  1.00  0.00     0.002 A 
ENDBRANCH   7  19
TORSDOF 6
ENDMDL
MODEL 9
REMARK VINA RESULT:      -2.2      1.221      1.887
REMARK SMILES C=C(C)C(=O)Oc1c(NN)cc(C)cc1-n1nc2ccccc2n1
REMARK SMILES IDX 7 1 8 2 11 3 12 4 13 5 14 6 15 7 6 8 4 9 5 10 2 11 1 12 3 13
REMARK SMILES IDX 9 14 10 16 16 19 17 20 24 21 18 22 23 23 19 24 22 25 20 26
REMARK SMILES IDX 21 27
REMARK H PARENT 9 15 10 17 10 18
ROOT
ATOM      1  C   UNL     1      45.371 125.807  22.117  1.00  0.00     0.183 A 
ATOM      2  C   UNL     1      46.226 124.687  22.071  1.00  0.00     0.094 A 
ATOM      3  C   UNL     1      47.543 124.804  22.548  1.00  0.00     0.034 A 
ATOM      4  C   UNL     1      48.012 126.019  23.063  1.00  0.00    -0.047 A 
ATOM      5  C   UNL     1      49.411 126.123  23.595  1.00  0.00     0.044 C 
ATOM      6  C   UNL     1      47.142 127.111  23.155  1.00  0.00     0.037 A 
ATOM      7  C   UNL     1      45.817 127.015  22.704  1.00  0.00     0.131 A 
ENDROOT
BRANCH   1   8
ATOM      8  O   UNL     1      44.083 125.699  21.576  1.00  0.00    -0.419 OA
BRANCH   8   9
ATOM      9  C   UNL     1      43.098 124.849  22.097  1.00  0.00     0.338 C 
ATOM     10  O   UNL     1      42.520 124.015  21.346  1.00  0.00    -0.246 OA
BRANCH   9  11
ATOM     11  C   UNL     1      42.747 124.938  23.531  1.00  0.00     0.027 C 
ATOM     12  C   UNL     1      43.510 124.353  24.464  1.00  0.00     0.020 C 
ATOM     13  C   UNL     1      41.466 125.616  23.931  1.00  0.00     0.051 C 
ENDBRANCH   9  11
ENDBRANCH   8   9
ENDBRANCH   1   8
BRANCH   2  14
ATOM     14  N   UNL     1      45.757 123.444  21.514  1.00  0.00    -0.321 N 
ATOM     15  H   UNL     1      44.742 123.327  21.291  1.00  0.00     0.181 HD
BRANCH  14  16
ATOM     16  N   UNL     1      46.638 122.389  21.226  1.00  0.00    -0.250 NA
ATOM     17  H   UNL     1      47.049 122.565  20.281  1.00  0.00     0.143 HD
ATOM     18  H   UNL     1      46.061 121.521  21.140  1.00  0.00     0.143 HD
ENDBRANCH  14  16
ENDBRANCH   2  14
BRANCH   7  19
ATOM     19  N   UNL     1      44.926 128.128  22.892  1.00  0.00    -0.146 N 
ATOM     20  N   UNL     1      44.755 129.092  21.987  1.00  0.00    -0.148 NA
ATOM     21  N   UNL     1      44.214 128.326  24.001  1.00  0.00    -0.148 NA
ATOM     22  C   UNL     1      43.876 129.935  22.547  1.00  0.00     0.113 A 
ATOM     23  C   UNL     1      43.543 129.465  23.779  1.00  0.00     0.113 A 
ATOM     24  C   UNL     1      43.337 131.109  22.031  1.00  0.00     0.032 A 
ATOM     25  C   UNL     1      42.641 130.124  24.607  1.00  0.00     0.032 A 
ATOM     26  C   UNL     1      42.419 131.809  22.839  1.00  0.00     0.002 A 
ATOM     27  C   UNL     1      42.072 131.318  24.122  1.00  0.00     0.002 A 
ENDBRANCH   7  19
TORSDOF 6
ENDMDL


