REMARK SMILES O=Cc1cc(F)c(F)cc1Nc1cc2ccccc2[nH]1
REMARK SMILES IDX 3 1 4 2 5 3 6 4 7 5 8 6 9 7 10 8 2 9 1 10 11 11 12 13 13 14
REMARK SMILES IDX 20 15 14 16 19 17 15 18 18 19 16 20 17 21
REMARK H PARENT 11 12 20 22
ROOT
ATOM      1  C   UNL     1      -1.635   1.254   1.040  1.00  0.00     0.041 A 
ATOM      2  C   UNL     1      -2.518   1.460   2.114  1.00  0.00     0.056 A 
ATOM      3  C   UNL     1      -2.178   1.049   3.405  1.00  0.00     0.159 A 
ATOM      4  F   UNL     1      -3.039   1.265   4.431  1.00  0.00    -0.204 F 
ATOM      5  C   UNL     1      -0.951   0.429   3.642  1.00  0.00     0.160 A 
ATOM      6  F   UNL     1      -0.617   0.038   4.897  1.00  0.00    -0.204 F 
ATOM      7  C   UNL     1      -0.068   0.202   2.584  1.00  0.00     0.069 A 
ATOM      8  C   UNL     1      -0.405   0.587   1.279  1.00  0.00     0.053 A 
ENDROOT
BRANCH   1   9
ATOM      9  C   UNL     1      -2.021   1.783  -0.287  1.00  0.00     0.262 C 
ATOM     10  O   UNL     1      -1.188   1.893  -1.226  1.00  0.00    -0.298 OA
ENDBRANCH   1   9
BRANCH   8  11
ATOM     11  N   UNL     1       0.509   0.277   0.219  1.00  0.00    -0.341 N 
ATOM     12  H   UNL     1       1.495   0.610   0.305  1.00  0.00     0.168 HD
BRANCH  11  13
ATOM     13  C   UNL     1       0.210  -0.692  -0.795  1.00  0.00     0.108 A 
ATOM     14  C   UNL     1      -0.968  -1.434  -0.889  1.00  0.00     0.055 A 
ATOM     15  N   UNL     1       1.074  -1.007  -1.788  1.00  0.00    -0.341 N 
ATOM     16  C   UNL     1      -0.790  -2.225  -2.003  1.00  0.00     0.002 A 
ATOM     17  C   UNL     1       0.449  -1.944  -2.520  1.00  0.00     0.047 A 
ATOM     18  C   UNL     1      -1.633  -3.169  -2.587  1.00  0.00     0.010 A 
ATOM     19  C   UNL     1       0.930  -2.587  -3.660  1.00  0.00     0.027 A 
ATOM     20  C   UNL     1      -1.175  -3.834  -3.739  1.00  0.00     0.001 A 
ATOM     21  C   UNL     1       0.101  -3.545  -4.272  1.00  0.00     0.002 A 
ATOM     22  H   UNL     1       2.024  -0.605  -1.950  1.00  0.00     0.168 HD
ENDBRANCH  11  13
ENDBRANCH   8  11
TORSDOF 3


