MODEL 1
REMARK VINA RESULT:      -4.4      0.000      0.000
REMARK SMILES COC[N-]/C(O)=N/c1c(N)cc(C)cc1-n1nc2ccccc2[nH+]1
REMARK SMILES IDX 5 1 6 2 7 4 8 5 9 6 15 7 11 8 14 9 12 10 13 11 10 12 16 15
REMARK SMILES IDX 17 16 24 17 18 18 23 19 19 20 22 21 20 22 21 23 4 25 3 26
REMARK SMILES IDX 2 27 1 28
REMARK H PARENT 6 3 10 13 10 14 24 24
ROOT
ATOM      1  C   UNL     1      47.252 132.011  20.968  1.00  0.00     0.095 C 
ENDROOT
BRANCH   1   2
ATOM      2  O   UNL     1      48.595 131.735  20.717  1.00  0.00    -0.516 OA
ATOM      3  H   UNL     1      49.128 132.300  20.066  1.00  0.00     0.292 HD
ENDBRANCH   1   2
BRANCH   1   4
ATOM      4  N   UNL     1      46.330 131.162  20.618  1.00  0.00    -0.402 NA
BRANCH   4   5
ATOM      5  C   UNL     1      44.935 131.492  20.529  1.00  0.00     0.016 A 
ATOM      6  C   UNL     1      44.161 131.701  21.696  1.00  0.00     0.037 A 
ATOM      7  C   UNL     1      44.339 131.658  19.260  1.00  0.00     0.133 A 
ATOM      8  C   UNL     1      42.835 132.142  21.580  1.00  0.00     0.029 A 
ATOM      9  C   UNL     1      43.014 132.112  19.169  1.00  0.00     0.038 A 
ATOM     10  C   UNL     1      42.257 132.346  20.322  1.00  0.00    -0.047 A 
ATOM     11  C   UNL     1      40.851 132.859  20.211  1.00  0.00     0.044 C 
BRANCH   6  12
ATOM     12  N   UNL     1      44.693 131.436  23.001  1.00  0.00    -0.398 N 
ATOM     13  H   UNL     1      44.388 130.612  23.563  1.00  0.00     0.156 HD
ATOM     14  H   UNL     1      45.349 132.111  23.453  1.00  0.00     0.156 HD
ENDBRANCH   6  12
BRANCH   7  15
ATOM     15  N   UNL     1      45.071 131.394  18.054  1.00  0.00    -0.013 N 
ATOM     16  N   UNL     1      45.115 132.241  17.025  1.00  0.00     0.054 NA
ATOM     17  N   UNL     1      45.697 130.248  17.791  1.00  0.00    -0.161 N 
ATOM     18  C   UNL     1      45.819 131.597  16.076  1.00  0.00     0.249 A 
ATOM     19  C   UNL     1      46.171 130.368  16.544  1.00  0.00     0.198 A 
ATOM     20  C   UNL     1      46.151 132.023  14.795  1.00  0.00     0.064 A 
ATOM     21  C   UNL     1      46.876 129.449  15.772  1.00  0.00     0.058 A 
ATOM     22  C   UNL     1      46.877 131.129  13.984  1.00  0.00     0.005 A 
ATOM     23  C   UNL     1      47.238 129.847  14.469  1.00  0.00     0.005 A 
ATOM     24  H   UNL     1      45.755 129.416  18.420  1.00  0.00     0.340 HD
ENDBRANCH   7  15
ENDBRANCH   4   5
ENDBRANCH   1   4
BRANCH   1  25
ATOM     25  N   UNL     1      46.905 133.241  21.613  1.00  0.00    -0.410 NA
BRANCH  25  26
ATOM     26  C   UNL     1      47.834 134.332  21.891  1.00  0.00     0.167 C 
BRANCH  26  27
ATOM     27  O   UNL     1      48.583 134.045  23.055  1.00  0.00    -0.385 OA
ATOM     28  C   UNL     1      49.805 134.745  23.027  1.00  0.00     0.194 C 
ENDBRANCH  26  27
ENDBRANCH  25  26
ENDBRANCH   1  25
TORSDOF 8
ENDMDL
MODEL 2
REMARK VINA RESULT:      -3.4      2.626      3.450
REMARK SMILES COC[N-]/C(O)=N/c1c(N)cc(C)cc1-n1nc2ccccc2[nH+]1
REMARK SMILES IDX 5 1 6 2 7 4 8 5 9 6 15 7 11 8 14 9 12 10 13 11 10 12 16 15
REMARK SMILES IDX 17 16 24 17 18 18 23 19 19 20 22 21 20 22 21 23 4 25 3 26
REMARK SMILES IDX 2 27 1 28
REMARK H PARENT 6 3 10 13 10 14 24 24
ROOT
ATOM      1  C   UNL     1      45.791 129.739  20.418  1.00  0.00     0.095 C 
ENDROOT
BRANCH   1   2
ATOM      2  O   UNL     1      45.986 129.331  19.099  1.00  0.00    -0.516 OA
ATOM      3  H   UNL     1      45.889 129.987  18.334  1.00  0.00     0.292 HD
ENDBRANCH   1   2
BRANCH   1   4
ATOM      4  N   UNL     1      45.568 130.991  20.693  1.00  0.00    -0.402 NA
BRANCH   4   5
ATOM      5  C   UNL     1      44.256 131.541  20.897  1.00  0.00     0.016 A 
ATOM      6  C   UNL     1      43.734 131.712  22.202  1.00  0.00     0.037 A 
ATOM      7  C   UNL     1      43.496 131.958  19.783  1.00  0.00     0.133 A 
ATOM      8  C   UNL     1      42.505 132.363  22.377  1.00  0.00     0.029 A 
ATOM      9  C   UNL     1      42.274 132.618  19.984  1.00  0.00     0.038 A 
ATOM     10  C   UNL     1      41.771 132.813  21.275  1.00  0.00    -0.047 A 
ATOM     11  C   UNL     1      40.476 133.546  21.478  1.00  0.00     0.044 C 
BRANCH   6  12
ATOM     12  N   UNL     1      44.422 131.203  23.352  1.00  0.00    -0.398 N 
ATOM     13  H   UNL     1      45.343 131.586  23.656  1.00  0.00     0.156 HD
ATOM     14  H   UNL     1      44.049 130.377  23.871  1.00  0.00     0.156 HD
ENDBRANCH   6  12
BRANCH   7  15
ATOM     15  N   UNL     1      43.961 131.744  18.442  1.00  0.00    -0.013 N 
ATOM     16  N   UNL     1      45.250 131.769  18.102  1.00  0.00     0.054 NA
ATOM     17  N   UNL     1      43.164 131.599  17.384  1.00  0.00    -0.161 N 
ATOM     18  C   UNL     1      45.259 131.616  16.766  1.00  0.00     0.249 A 
ATOM     19  C   UNL     1      43.975 131.518  16.322  1.00  0.00     0.198 A 
ATOM     20  C   UNL     1      46.345 131.582  15.897  1.00  0.00     0.064 A 
ATOM     21  C   UNL     1      43.659 131.390  14.973  1.00  0.00     0.058 A 
ATOM     22  C   UNL     1      46.071 131.440  14.523  1.00  0.00     0.005 A 
ATOM     23  C   UNL     1      44.733 131.346  14.062  1.00  0.00     0.005 A 
ATOM     24  H   UNL     1      42.119 131.601  17.392  1.00  0.00     0.340 HD
ENDBRANCH   7  15
ENDBRANCH   4   5
ENDBRANCH   1   4
BRANCH   1  25
ATOM     25  N   UNL     1      45.844 128.761  21.462  1.00  0.00    -0.410 NA
BRANCH  25  26
ATOM     26  C   UNL     1      44.730 128.410  22.338  1.00  0.00     0.167 C 
BRANCH  26  27
ATOM     27  O   UNL     1      44.759 127.026  22.626  1.00  0.00    -0.385 OA
ATOM     28  C   UNL     1      45.964 126.694  23.274  1.00  0.00     0.194 C 
ENDBRANCH  26  27
ENDBRANCH  25  26
ENDBRANCH   1  25
TORSDOF 8
ENDMDL
MODEL 3
REMARK VINA RESULT:      -3.4      7.891      9.918
REMARK SMILES COC[N-]/C(O)=N/c1c(N)cc(C)cc1-n1nc2ccccc2[nH+]1
REMARK SMILES IDX 5 1 6 2 7 4 8 5 9 6 15 7 11 8 14 9 12 10 13 11 10 12 16 15
REMARK SMILES IDX 17 16 24 17 18 18 23 19 19 20 22 21 20 22 21 23 4 25 3 26
REMARK SMILES IDX 2 27 1 28
REMARK H PARENT 6 3 10 13 10 14 24 24
ROOT
ATOM      1  C   UNL     1      51.647 125.717  23.615  1.00  0.00     0.095 C 
ENDROOT
BRANCH   1   2
ATOM      2  O   UNL     1      52.905 125.452  24.155  1.00  0.00    -0.516 OA
ATOM      3  H   UNL     1      53.730 125.441  23.568  1.00  0.00     0.292 HD
ENDBRANCH   1   2
BRANCH   1   4
ATOM      4  N   UNL     1      50.998 124.790  22.973  1.00  0.00    -0.402 NA
BRANCH   4   5
ATOM      5  C   UNL     1      51.213 124.481  21.587  1.00  0.00     0.016 A 
ATOM      6  C   UNL     1      52.509 124.539  21.020  1.00  0.00     0.037 A 
ATOM      7  C   UNL     1      50.123 124.068  20.789  1.00  0.00     0.133 A 
ATOM      8  C   UNL     1      52.708 124.114  19.699  1.00  0.00     0.029 A 
ATOM      9  C   UNL     1      50.349 123.636  19.474  1.00  0.00     0.038 A 
ATOM     10  C   UNL     1      51.635 123.667  18.922  1.00  0.00    -0.047 A 
ATOM     11  C   UNL     1      51.868 123.174  17.523  1.00  0.00     0.044 C 
BRANCH   6  12
ATOM     12  N   UNL     1      53.622 125.058  21.759  1.00  0.00    -0.398 N 
ATOM     13  H   UNL     1      54.275 125.760  21.349  1.00  0.00     0.156 HD
ATOM     14  H   UNL     1      53.851 124.684  22.707  1.00  0.00     0.156 HD
ENDBRANCH   6  12
BRANCH   7  15
ATOM     15  N   UNL     1      48.784 124.056  21.308  1.00  0.00    -0.013 N 
ATOM     16  N   UNL     1      47.989 122.988  21.256  1.00  0.00     0.054 NA
ATOM     17  N   UNL     1      48.160 125.125  21.801  1.00  0.00    -0.161 N 
ATOM     18  C   UNL     1      46.813 123.406  21.757  1.00  0.00     0.249 A 
ATOM     19  C   UNL     1      46.916 124.724  22.086  1.00  0.00     0.198 A 
ATOM     20  C   UNL     1      45.629 122.694  21.919  1.00  0.00     0.064 A 
ATOM     21  C   UNL     1      45.844 125.451  22.596  1.00  0.00     0.058 A 
ATOM     22  C   UNL     1      44.523 123.389  22.446  1.00  0.00     0.005 A 
ATOM     23  C   UNL     1      44.629 124.762  22.782  1.00  0.00     0.005 A 
ATOM     24  H   UNL     1      48.559 126.086  21.893  1.00  0.00     0.340 HD
ENDBRANCH   7  15
ENDBRANCH   4   5
ENDBRANCH   1   4
BRANCH   1  25
ATOM     25  N   UNL     1      51.085 127.024  23.775  1.00  0.00    -0.410 NA
BRANCH  25  26
ATOM     26  C   UNL     1      51.646 128.081  24.611  1.00  0.00     0.167 C 
BRANCH  26  27
ATOM     27  O   UNL     1      52.487 128.914  23.839  1.00  0.00    -0.385 OA
ATOM     28  C   UNL     1      53.559 129.379  24.625  1.00  0.00     0.194 C 
ENDBRANCH  26  27
ENDBRANCH  25  26
ENDBRANCH   1  25
TORSDOF 8
ENDMDL
MODEL 4
REMARK VINA RESULT:      -3.3      2.618      3.467
REMARK SMILES COC[N-]/C(O)=N/c1c(N)cc(C)cc1-n1nc2ccccc2[nH+]1
REMARK SMILES IDX 5 1 6 2 7 4 8 5 9 6 15 7 11 8 14 9 12 10 13 11 10 12 16 15
REMARK SMILES IDX 17 16 24 17 18 18 23 19 19 20 22 21 20 22 21 23 4 25 3 26
REMARK SMILES IDX 2 27 1 28
REMARK H PARENT 6 3 10 13 10 14 24 24
ROOT
ATOM      1  C   UNL     1      45.885 129.725  20.444  1.00  0.00     0.095 C 
ENDROOT
BRANCH   1   2
ATOM      2  O   UNL     1      46.028 129.222  19.152  1.00  0.00    -0.516 OA
ATOM      3  H   UNL     1      45.217 128.947  18.610  1.00  0.00     0.292 HD
ENDBRANCH   1   2
BRANCH   1   4
ATOM      4  N   UNL     1      45.639 130.989  20.634  1.00  0.00    -0.402 NA
BRANCH   4   5
ATOM      5  C   UNL     1      44.317 131.532  20.774  1.00  0.00     0.016 A 
ATOM      6  C   UNL     1      43.732 131.702  22.052  1.00  0.00     0.037 A 
ATOM      7  C   UNL     1      43.609 131.944  19.624  1.00  0.00     0.133 A 
ATOM      8  C   UNL     1      42.492 132.347  22.167  1.00  0.00     0.029 A 
ATOM      9  C   UNL     1      42.376 132.598  19.765  1.00  0.00     0.038 A 
ATOM     10  C   UNL     1      41.810 132.792  21.030  1.00  0.00    -0.047 A 
ATOM     11  C   UNL     1      40.503 133.519  21.169  1.00  0.00     0.044 C 
BRANCH   6  12
ATOM     12  N   UNL     1      44.366 131.198  23.235  1.00  0.00    -0.398 N 
ATOM     13  H   UNL     1      45.297 130.730  23.202  1.00  0.00     0.156 HD
ATOM     14  H   UNL     1      43.870 131.220  24.153  1.00  0.00     0.156 HD
ENDBRANCH   6  12
BRANCH   7  15
ATOM     15  N   UNL     1      44.140 131.731  18.307  1.00  0.00    -0.013 N 
ATOM     16  N   UNL     1      43.842 130.667  17.562  1.00  0.00     0.054 NA
ATOM     17  N   UNL     1      45.055 132.509  17.731  1.00  0.00    -0.161 N 
ATOM     18  C   UNL     1      44.597 130.795  16.457  1.00  0.00     0.249 A 
ATOM     19  C   UNL     1      45.349 131.925  16.563  1.00  0.00     0.198 A 
ATOM     20  C   UNL     1      44.684 129.950  15.355  1.00  0.00     0.064 A 
ATOM     21  C   UNL     1      46.264 132.308  15.587  1.00  0.00     0.058 A 
ATOM     22  C   UNL     1      45.589 130.308  14.336  1.00  0.00     0.005 A 
ATOM     23  C   UNL     1      46.377 131.481  14.451  1.00  0.00     0.005 A 
ATOM     24  H   UNL     1      45.482 133.369  18.142  1.00  0.00     0.340 HD
ENDBRANCH   7  15
ENDBRANCH   4   5
ENDBRANCH   1   4
BRANCH   1  25
ATOM     25  N   UNL     1      46.014 128.831  21.554  1.00  0.00    -0.410 NA
BRANCH  25  26
ATOM     26  C   UNL     1      45.005 127.861  21.972  1.00  0.00     0.167 C 
BRANCH  26  27
ATOM     27  O   UNL     1      45.119 127.611  23.358  1.00  0.00    -0.385 OA
ATOM     28  C   UNL     1      44.448 126.419  23.690  1.00  0.00     0.194 C 
ENDBRANCH  26  27
ENDBRANCH  25  26
ENDBRANCH   1  25
TORSDOF 8
ENDMDL
MODEL 5
REMARK VINA RESULT:      -3.3      1.837      2.705
REMARK SMILES COC[N-]/C(O)=N/c1c(N)cc(C)cc1-n1nc2ccccc2[nH+]1
REMARK SMILES IDX 5 1 6 2 7 4 8 5 9 6 15 7 11 8 14 9 12 10 13 11 10 12 16 15
REMARK SMILES IDX 17 16 24 17 18 18 23 19 19 20 22 21 20 22 21 23 4 25 3 26
REMARK SMILES IDX 2 27 1 28
REMARK H PARENT 6 3 10 13 10 14 24 24
ROOT
ATOM      1  C   UNL     1      47.181 133.259  21.751  1.00  0.00     0.095 C 
ENDROOT
BRANCH   1   2
ATOM      2  O   UNL     1      48.021 132.282  21.218  1.00  0.00    -0.516 OA
ATOM      3  H   UNL     1      47.669 131.601  20.555  1.00  0.00     0.292 HD
ENDBRANCH   1   2
BRANCH   1   4
ATOM      4  N   UNL     1      45.892 133.170  21.602  1.00  0.00    -0.402 NA
BRANCH   4   5
ATOM      5  C   UNL     1      45.077 132.198  22.277  1.00  0.00     0.016 A 
ATOM      6  C   UNL     1      44.905 132.241  23.681  1.00  0.00     0.037 A 
ATOM      7  C   UNL     1      44.401 131.213  21.523  1.00  0.00     0.133 A 
ATOM      8  C   UNL     1      44.008 131.358  24.298  1.00  0.00     0.029 A 
ATOM      9  C   UNL     1      43.499 130.348  22.161  1.00  0.00     0.038 A 
ATOM     10  C   UNL     1      43.307 130.409  23.546  1.00  0.00    -0.047 A 
ATOM     11  C   UNL     1      42.318 129.498  24.212  1.00  0.00     0.044 C 
BRANCH   6  12
ATOM     12  N   UNL     1      45.657 133.150  24.496  1.00  0.00    -0.398 N 
ATOM     13  H   UNL     1      46.448 133.710  24.109  1.00  0.00     0.156 HD
ATOM     14  H   UNL     1      45.476 133.217  25.522  1.00  0.00     0.156 HD
ENDBRANCH   6  12
BRANCH   7  15
ATOM     15  N   UNL     1      44.598 131.096  20.106  1.00  0.00    -0.013 N 
ATOM     16  N   UNL     1      45.603 130.411  19.561  1.00  0.00     0.054 NA
ATOM     17  N   UNL     1      43.867 131.731  19.191  1.00  0.00    -0.161 N 
ATOM     18  C   UNL     1      45.486 130.616  18.237  1.00  0.00     0.249 A 
ATOM     19  C   UNL     1      44.421 131.434  18.009  1.00  0.00     0.198 A 
ATOM     20  C   UNL     1      46.287 130.140  17.205  1.00  0.00     0.064 A 
ATOM     21  C   UNL     1      44.068 131.861  16.732  1.00  0.00     0.058 A 
ATOM     22  C   UNL     1      45.956 130.537  15.894  1.00  0.00     0.005 A 
ATOM     23  C   UNL     1      44.853 131.394  15.658  1.00  0.00     0.005 A 
ATOM     24  H   UNL     1      43.060 132.368  19.377  1.00  0.00     0.340 HD
ENDBRANCH   7  15
ENDBRANCH   4   5
ENDBRANCH   1   4
BRANCH   1  25
ATOM     25  N   UNL     1      47.760 134.359  22.461  1.00  0.00    -0.410 NA
BRANCH  25  26
ATOM     26  C   UNL     1      48.956 135.088  22.048  1.00  0.00     0.167 C 
BRANCH  26  27
ATOM     27  O   UNL     1      49.886 135.133  23.111  1.00  0.00    -0.385 OA
ATOM     28  C   UNL     1      49.966 133.873  23.735  1.00  0.00     0.194 C 
ENDBRANCH  26  27
ENDBRANCH  25  26
ENDBRANCH   1  25
TORSDOF 8
ENDMDL
MODEL 6
REMARK VINA RESULT:      -3.3      6.479      9.334
REMARK SMILES COC[N-]/C(O)=N/c1c(N)cc(C)cc1-n1nc2ccccc2[nH+]1
REMARK SMILES IDX 5 1 6 2 7 4 8 5 9 6 15 7 11 8 14 9 12 10 13 11 10 12 16 15
REMARK SMILES IDX 17 16 24 17 18 18 23 19 19 20 22 21 20 22 21 23 4 25 3 26
REMARK SMILES IDX 2 27 1 28
REMARK H PARENT 6 3 10 13 10 14 24 24
ROOT
ATOM      1  C   UNL     1      41.751 125.669  23.713  1.00  0.00     0.095 C 
ENDROOT
BRANCH   1   2
ATOM      2  O   UNL     1      41.638 126.411  22.538  1.00  0.00    -0.516 OA
ATOM      3  H   UNL     1      41.759 125.971  21.633  1.00  0.00     0.292 HD
ENDBRANCH   1   2
BRANCH   1   4
ATOM      4  N   UNL     1      42.794 125.806  24.479  1.00  0.00    -0.402 NA
BRANCH   4   5
ATOM      5  C   UNL     1      44.140 125.553  24.045  1.00  0.00     0.016 A 
ATOM      6  C   UNL     1      44.667 124.240  24.037  1.00  0.00     0.037 A 
ATOM      7  C   UNL     1      44.932 126.624  23.576  1.00  0.00     0.133 A 
ATOM      8  C   UNL     1      45.938 124.005  23.493  1.00  0.00     0.029 A 
ATOM      9  C   UNL     1      46.196 126.363  23.026  1.00  0.00     0.038 A 
ATOM     10  C   UNL     1      46.707 125.061  22.991  1.00  0.00    -0.047 A 
ATOM     11  C   UNL     1      48.048 124.792  22.373  1.00  0.00     0.044 C 
BRANCH   6  12
ATOM     12  N   UNL     1      43.941 123.142  24.606  1.00  0.00    -0.398 N 
ATOM     13  H   UNL     1      42.905 123.170  24.721  1.00  0.00     0.156 HD
ATOM     14  H   UNL     1      44.447 122.314  24.991  1.00  0.00     0.156 HD
ENDBRANCH   6  12
BRANCH   7  15
ATOM     15  N   UNL     1      44.458 127.978  23.626  1.00  0.00    -0.013 N 
ATOM     16  N   UNL     1      43.529 128.460  22.800  1.00  0.00     0.054 NA
ATOM     17  N   UNL     1      44.957 128.919  24.426  1.00  0.00    -0.161 N 
ATOM     18  C   UNL     1      43.432 129.765  23.110  1.00  0.00     0.249 A 
ATOM     19  C   UNL     1      44.316 130.050  24.106  1.00  0.00     0.198 A 
ATOM     20  C   UNL     1      42.618 130.739  22.542  1.00  0.00     0.064 A 
ATOM     21  C   UNL     1      44.476 131.335  24.616  1.00  0.00     0.058 A 
ATOM     22  C   UNL     1      42.738 132.052  23.039  1.00  0.00     0.005 A 
ATOM     23  C   UNL     1      43.664 132.350  24.071  1.00  0.00     0.005 A 
ATOM     24  H   UNL     1      45.728 128.796  25.120  1.00  0.00     0.340 HD
ENDBRANCH   7  15
ENDBRANCH   4   5
ENDBRANCH   1   4
BRANCH   1  25
ATOM     25  N   UNL     1      40.704 124.757  24.061  1.00  0.00    -0.410 NA
BRANCH  25  26
ATOM     26  C   UNL     1      40.262 123.635  23.237  1.00  0.00     0.167 C 
BRANCH  26  27
ATOM     27  O   UNL     1      41.355 122.786  22.949  1.00  0.00    -0.385 OA
ATOM     28  C   UNL     1      41.642 122.821  21.571  1.00  0.00     0.194 C 
ENDBRANCH  26  27
ENDBRANCH  25  26
ENDBRANCH   1  25
TORSDOF 8
ENDMDL
MODEL 7
REMARK VINA RESULT:      -3.1      4.840      6.599
REMARK SMILES COC[N-]/C(O)=N/c1c(N)cc(C)cc1-n1nc2ccccc2[nH+]1
REMARK SMILES IDX 5 1 6 2 7 4 8 5 9 6 15 7 11 8 14 9 12 10 13 11 10 12 16 15
REMARK SMILES IDX 17 16 24 17 18 18 23 19 19 20 22 21 20 22 21 23 4 25 3 26
REMARK SMILES IDX 2 27 1 28
REMARK H PARENT 6 3 10 13 10 14 24 24
ROOT
ATOM      1  C   UNL     1      44.944 130.960  21.556  1.00  0.00     0.095 C 
ENDROOT
BRANCH   1   2
ATOM      2  O   UNL     1      45.294 132.013  22.400  1.00  0.00    -0.516 OA
ATOM      3  H   UNL     1      46.231 132.398  22.388  1.00  0.00     0.292 HD
ENDBRANCH   1   2
BRANCH   1   4
ATOM      4  N   UNL     1      44.854 129.748  22.019  1.00  0.00    -0.402 NA
BRANCH   4   5
ATOM      5  C   UNL     1      43.721 129.257  22.753  1.00  0.00     0.016 A 
ATOM      6  C   UNL     1      42.661 130.122  23.119  1.00  0.00     0.037 A 
ATOM      7  C   UNL     1      43.640 127.884  23.072  1.00  0.00     0.133 A 
ATOM      8  C   UNL     1      41.513 129.594  23.724  1.00  0.00     0.029 A 
ATOM      9  C   UNL     1      42.476 127.377  23.667  1.00  0.00     0.038 A 
ATOM     10  C   UNL     1      41.416 128.226  24.004  1.00  0.00    -0.047 A 
ATOM     11  C   UNL     1      40.163 127.666  24.614  1.00  0.00     0.044 C 
BRANCH   6  12
ATOM     12  N   UNL     1      42.751 131.538  22.914  1.00  0.00    -0.398 N 
ATOM     13  H   UNL     1      43.075 132.183  23.668  1.00  0.00     0.156 HD
ATOM     14  H   UNL     1      42.419 131.967  22.022  1.00  0.00     0.156 HD
ENDBRANCH   6  12
BRANCH   7  15
ATOM     15  N   UNL     1      44.721 126.986  22.775  1.00  0.00    -0.013 N 
ATOM     16  N   UNL     1      44.538 125.727  22.379  1.00  0.00     0.054 NA
ATOM     17  N   UNL     1      46.008 127.276  22.955  1.00  0.00    -0.161 N 
ATOM     18  C   UNL     1      45.775 125.207  22.293  1.00  0.00     0.249 A 
ATOM     19  C   UNL     1      46.681 126.158  22.654  1.00  0.00     0.198 A 
ATOM     20  C   UNL     1      46.159 123.919  21.934  1.00  0.00     0.064 A 
ATOM     21  C   UNL     1      48.048 125.906  22.702  1.00  0.00     0.058 A 
ATOM     22  C   UNL     1      47.537 123.625  21.956  1.00  0.00     0.005 A 
ATOM     23  C   UNL     1      48.478 124.613  22.339  1.00  0.00     0.005 A 
ATOM     24  H   UNL     1      46.396 128.179  23.309  1.00  0.00     0.340 HD
ENDBRANCH   7  15
ENDBRANCH   4   5
ENDBRANCH   1   4
BRANCH   1  25
ATOM     25  N   UNL     1      44.689 131.234  20.174  1.00  0.00    -0.410 NA
BRANCH  25  26
ATOM     26  C   UNL     1      45.377 130.601  19.052  1.00  0.00     0.167 C 
BRANCH  26  27
ATOM     27  O   UNL     1      44.759 130.970  17.836  1.00  0.00    -0.385 OA
ATOM     28  C   UNL     1      45.713 130.999  16.800  1.00  0.00     0.194 C 
ENDBRANCH  26  27
ENDBRANCH  25  26
ENDBRANCH   1  25
TORSDOF 8
ENDMDL
MODEL 8
REMARK VINA RESULT:      -3.0      4.657      6.742
REMARK SMILES COC[N-]/C(O)=N/c1c(N)cc(C)cc1-n1nc2ccccc2[nH+]1
REMARK SMILES IDX 5 1 6 2 7 4 8 5 9 6 15 7 11 8 14 9 12 10 13 11 10 12 16 15
REMARK SMILES IDX 17 16 24 17 18 18 23 19 19 20 22 21 20 22 21 23 4 25 3 26
REMARK SMILES IDX 2 27 1 28
REMARK H PARENT 6 3 10 13 10 14 24 24
ROOT
ATOM      1  C   UNL     1      45.475 129.751  20.711  1.00  0.00     0.095 C 
ENDROOT
BRANCH   1   2
ATOM      2  O   UNL     1      46.026 128.584  20.185  1.00  0.00    -0.516 OA
ATOM      3  H   UNL     1      45.917 128.355  19.204  1.00  0.00     0.292 HD
ENDBRANCH   1   2
BRANCH   1   4
ATOM      4  N   UNL     1      45.352 129.899  21.998  1.00  0.00    -0.402 NA
BRANCH   4   5
ATOM      5  C   UNL     1      44.175 129.531  22.734  1.00  0.00     0.016 A 
ATOM      6  C   UNL     1      43.071 130.412  22.828  1.00  0.00     0.037 A 
ATOM      7  C   UNL     1      44.099 128.254  23.332  1.00  0.00     0.133 A 
ATOM      8  C   UNL     1      41.889 129.980  23.446  1.00  0.00     0.029 A 
ATOM      9  C   UNL     1      42.902 127.840  23.934  1.00  0.00     0.038 A 
ATOM     10  C   UNL     1      41.800 128.700  24.003  1.00  0.00    -0.047 A 
ATOM     11  C   UNL     1      40.515 128.233  24.625  1.00  0.00     0.044 C 
BRANCH   6  12
ATOM     12  N   UNL     1      43.145 131.755  22.333  1.00  0.00    -0.398 N 
ATOM     13  H   UNL     1      42.304 132.370  22.282  1.00  0.00     0.156 HD
ATOM     14  H   UNL     1      44.038 132.127  21.938  1.00  0.00     0.156 HD
ENDBRANCH   6  12
BRANCH   7  15
ATOM     15  N   UNL     1      45.219 127.356  23.313  1.00  0.00    -0.013 N 
ATOM     16  N   UNL     1      45.992 127.128  24.375  1.00  0.00     0.054 NA
ATOM     17  N   UNL     1      45.666 126.736  22.222  1.00  0.00    -0.161 N 
ATOM     18  C   UNL     1      46.962 126.311  23.929  1.00  0.00     0.249 A 
ATOM     19  C   UNL     1      46.766 126.075  22.602  1.00  0.00     0.198 A 
ATOM     20  C   UNL     1      48.041 125.774  24.624  1.00  0.00     0.064 A 
ATOM     21  C   UNL     1      47.635 125.292  21.848  1.00  0.00     0.058 A 
ATOM     22  C   UNL     1      48.938 124.964  23.901  1.00  0.00     0.005 A 
ATOM     23  C   UNL     1      48.737 124.724  22.518  1.00  0.00     0.005 A 
ATOM     24  H   UNL     1      45.259 126.802  21.262  1.00  0.00     0.340 HD
ENDBRANCH   7  15
ENDBRANCH   4   5
ENDBRANCH   1   4
BRANCH   1  25
ATOM     25  N   UNL     1      45.045 130.780  19.814  1.00  0.00    -0.410 NA
BRANCH  25  26
ATOM     26  C   UNL     1      45.436 130.887  18.411  1.00  0.00     0.167 C 
BRANCH  26  27
ATOM     27  O   UNL     1      44.480 131.645  17.698  1.00  0.00    -0.385 OA
ATOM     28  C   UNL     1      45.003 132.027  16.448  1.00  0.00     0.194 C 
ENDBRANCH  26  27
ENDBRANCH  25  26
ENDBRANCH   1  25
TORSDOF 8
ENDMDL
MODEL 9
REMARK VINA RESULT:      -2.9      1.970      2.975
REMARK SMILES COC[N-]/C(O)=N/c1c(N)cc(C)cc1-n1nc2ccccc2[nH+]1
REMARK SMILES IDX 5 1 6 2 7 4 8 5 9 6 15 7 11 8 14 9 12 10 13 11 10 12 16 15
REMARK SMILES IDX 17 16 24 17 18 18 23 19 19 20 22 21 20 22 21 23 4 25 3 26
REMARK SMILES IDX 2 27 1 28
REMARK H PARENT 6 3 10 13 10 14 24 24
ROOT
ATOM      1  C   UNL     1      47.724 133.819  21.783  1.00  0.00     0.095 C 
ENDROOT
BRANCH   1   2
ATOM      2  O   UNL     1      48.759 132.954  22.136  1.00  0.00    -0.516 OA
ATOM      3  H   UNL     1      48.570 131.986  22.364  1.00  0.00     0.292 HD
ENDBRANCH   1   2
BRANCH   1   4
ATOM      4  N   UNL     1      46.584 133.347  21.370  1.00  0.00    -0.402 NA
BRANCH   4   5
ATOM      5  C   UNL     1      45.681 132.602  22.203  1.00  0.00     0.016 A 
ATOM      6  C   UNL     1      45.631 132.824  23.601  1.00  0.00     0.037 A 
ATOM      7  C   UNL     1      44.799 131.671  21.614  1.00  0.00     0.133 A 
ATOM      8  C   UNL     1      44.657 132.174  24.372  1.00  0.00     0.029 A 
ATOM      9  C   UNL     1      43.825 131.042  22.404  1.00  0.00     0.038 A 
ATOM     10  C   UNL     1      43.756 131.281  23.781  1.00  0.00    -0.047 A 
ATOM     11  C   UNL     1      42.690 130.624  24.609  1.00  0.00     0.044 C 
BRANCH   6  12
ATOM     12  N   UNL     1      46.581 133.676  24.255  1.00  0.00    -0.398 N 
ATOM     13  H   UNL     1      47.101 134.417  23.737  1.00  0.00     0.156 HD
ATOM     14  H   UNL     1      46.831 133.522  25.257  1.00  0.00     0.156 HD
ENDBRANCH   6  12
BRANCH   7  15
ATOM     15  N   UNL     1      44.861 131.371  20.211  1.00  0.00    -0.013 N 
ATOM     16  N   UNL     1      45.790 130.584  19.672  1.00  0.00     0.054 NA
ATOM     17  N   UNL     1      44.068 131.919  19.291  1.00  0.00    -0.161 N 
ATOM     18  C   UNL     1      45.558 130.629  18.348  1.00  0.00     0.249 A 
ATOM     19  C   UNL     1      44.502 131.457  18.112  1.00  0.00     0.198 A 
ATOM     20  C   UNL     1      46.246 129.996  17.317  1.00  0.00     0.064 A 
ATOM     21  C   UNL     1      44.046 131.737  16.827  1.00  0.00     0.058 A 
ATOM     22  C   UNL     1      45.808 130.242  16.001  1.00  0.00     0.005 A 
ATOM     23  C   UNL     1      44.713 131.109  15.756  1.00  0.00     0.005 A 
ATOM     24  H   UNL     1      43.302 132.608  19.465  1.00  0.00     0.340 HD
ENDBRANCH   7  15
ENDBRANCH   4   5
ENDBRANCH   1   4
BRANCH   1  25
ATOM     25  N   UNL     1      47.937 135.232  21.880  1.00  0.00    -0.410 NA
BRANCH  25  26
ATOM     26  C   UNL     1      47.897 136.165  20.758  1.00  0.00     0.167 C 
BRANCH  26  27
ATOM     27  O   UNL     1      48.912 137.137  20.901  1.00  0.00    -0.385 OA
ATOM     28  C   UNL     1      50.033 136.573  21.541  1.00  0.00     0.194 C 
ENDBRANCH  26  27
ENDBRANCH  25  26
ENDBRANCH   1  25
TORSDOF 8
ENDMDL


