REMARK SMILES C[C@@](O)(CCl)C(=O)[N-]c1cc(F)c[nH]/c1=N\c1c[nH]c2[nH+]ccc-2c1
REMARK SMILES IDX 8 1 6 2 7 3 2 4 1 5 3 6 4 8 5 9 9 10 10 11 15 12 11 13 14 14
REMARK SMILES IDX 13 15 12 16 16 18 17 19 25 20 18 21 24 22 19 23 23 24 20 25
REMARK SMILES IDX 22 26 21 27
REMARK H PARENT 3 7 14 17 19 28 21 29
ROOT
ATOM      1  N   UNL     1       2.051  -1.032   0.368  1.00  0.00    -0.621 NA
ENDROOT
BRANCH   1   2
ATOM      2  C   UNL     1       3.287  -1.343   1.026  1.00  0.00     0.088 C 
ATOM      3  O   UNL     1       3.542  -2.528   1.375  1.00  0.00    -0.317 OA
BRANCH   2   4
ATOM      4  C   UNL     1       4.293  -0.243   1.302  1.00  0.00     0.117 C 
ATOM      5  C   UNL     1       4.782  -0.327   2.762  1.00  0.00     0.050 C 
BRANCH   4   6
ATOM      6  O   UNL     1       3.714   1.022   1.079  1.00  0.00    -0.383 OA
ATOM      7  H   UNL     1       2.962   1.133   1.719  1.00  0.00     0.211 HD
ENDBRANCH   4   6
BRANCH   4   8
ATOM      8  C   UNL     1       5.497  -0.399   0.354  1.00  0.00     0.150 C 
ATOM      9  Cl  UNL     1       5.021  -0.228  -1.361  1.00  0.00    -0.123 Cl
ENDBRANCH   4   8
ENDBRANCH   2   4
ENDBRANCH   1   2
BRANCH   1  10
ATOM     10  C   UNL     1       1.147  -1.969  -0.241  1.00  0.00    -0.087 A 
ATOM     11  C   UNL     1       1.598  -3.193  -0.760  1.00  0.00     0.028 A 
ATOM     12  C   UNL     1      -0.214  -1.633  -0.371  1.00  0.00     0.116 A 
ATOM     13  C   UNL     1       0.699  -4.067  -1.367  1.00  0.00     0.138 A 
ATOM     14  N   UNL     1      -1.069  -2.505  -0.996  1.00  0.00    -0.345 N 
ATOM     15  C   UNL     1      -0.641  -3.703  -1.477  1.00  0.00     0.123 A 
ATOM     16  F   UNL     1       1.130  -5.250  -1.871  1.00  0.00    -0.205 F 
ATOM     17  H   UNL     1      -2.071  -2.262  -1.157  1.00  0.00     0.168 HD
BRANCH  12  18
ATOM     18  N   UNL     1      -0.622  -0.479   0.084  1.00  0.00    -0.229 NA
BRANCH  18  19
ATOM     19  C   UNL     1      -1.971   0.004   0.145  1.00  0.00     0.105 A 
ATOM     20  C   UNL     1      -2.247   1.310  -0.310  1.00  0.00     0.049 A 
ATOM     21  C   UNL     1      -2.998  -0.769   0.763  1.00  0.00     0.226 A 
ATOM     22  C   UNL     1      -3.549   1.767  -0.184  1.00  0.00     0.070 A 
ATOM     23  N   UNL     1      -4.276  -0.292   0.878  1.00  0.00    -0.245 N 
ATOM     24  C   UNL     1      -4.168   2.952  -0.509  1.00  0.00     0.060 A 
ATOM     25  C   UNL     1      -4.551   0.947   0.409  1.00  0.00     0.284 A 
ATOM     26  C   UNL     1      -5.500   2.805  -0.107  1.00  0.00     0.198 A 
ATOM     27  N   UNL     1      -5.727   1.589   0.451  1.00  0.00    -0.247 N 
ATOM     28  H   UNL     1      -5.020  -0.870   1.329  1.00  0.00     0.312 HD
ATOM     29  H   UNL     1      -6.629   1.232   0.838  1.00  0.00     0.311 HD
ENDBRANCH  18  19
ENDBRANCH  12  18
ENDBRANCH   1  10
TORSDOF 7


