MODEL 1
REMARK VINA RESULT:      -7.0      0.000      0.000
REMARK SMILES N#C[C@H]1c2ccccc2C[C@@H]1NC(O)=C1CCCC1
REMARK SMILES IDX 12 1 11 3 3 4 4 5 5 6 9 7 10 8 6 9 8 10 7 11 2 12 1 13 13 14
REMARK SMILES IDX 14 15 15 17 16 18 19 19 17 20 18 21
REMARK H PARENT 12 2 14 16
ROOT
ATOM      1  N   UNL     1      45.084 130.903  18.184  1.00  0.00    -0.352 N 
ATOM      2  H   UNL     1      45.372 129.920  18.385  1.00  0.00     0.163 HD
ENDROOT
BRANCH   1   3
ATOM      3  C   UNL     1      45.021 131.851  19.306  1.00  0.00     0.108 C 
ATOM      4  C   UNL     1      45.823 131.294  20.517  1.00  0.00     0.145 C 
ATOM      5  C   UNL     1      44.766 130.852  21.462  1.00  0.00    -0.025 A 
ATOM      6  C   UNL     1      44.943 130.115  22.638  1.00  0.00     0.005 A 
ATOM      7  C   UNL     1      43.516 131.254  21.061  1.00  0.00    -0.041 A 
ATOM      8  C   UNL     1      43.561 132.031  19.801  1.00  0.00     0.062 C 
ATOM      9  C   UNL     1      43.817 129.798  23.411  1.00  0.00     0.000 A 
ATOM     10  C   UNL     1      42.382 130.956  21.820  1.00  0.00     0.004 A 
ATOM     11  C   UNL     1      42.537 130.218  23.004  1.00  0.00     0.000 A 
BRANCH   4  12
ATOM     12  C   UNL     1      46.645 132.343  21.140  1.00  0.00     0.073 C 
ATOM     13  N   UNL     1      47.292 133.167  21.631  1.00  0.00    -0.198 NA
ENDBRANCH   4  12
ENDBRANCH   1   3
BRANCH   1  14
ATOM     14  C   UNL     1      44.764 131.272  16.824  1.00  0.00     0.183 C 
BRANCH  14  15
ATOM     15  O   UNL     1      43.580 131.953  16.530  1.00  0.00    -0.495 OA
ATOM     16  H   UNL     1      43.168 132.641  17.147  1.00  0.00     0.295 HD
ENDBRANCH  14  15
BRANCH  14  17
ATOM     17  C   UNL     1      45.594 130.970  15.809  1.00  0.00    -0.011 C 
ATOM     18  C   UNL     1      46.347 131.967  14.995  1.00  0.00     0.036 C 
ATOM     19  C   UNL     1      45.858 129.573  15.367  1.00  0.00     0.036 C 
ATOM     20  C   UNL     1      46.993 131.150  13.883  1.00  0.00     0.005 C 
ATOM     21  C   UNL     1      46.985 129.696  14.348  1.00  0.00     0.005 C 
ENDBRANCH  14  17
ENDBRANCH   1  14
TORSDOF 5
ENDMDL
MODEL 2
REMARK VINA RESULT:      -6.6      1.698      2.433
REMARK SMILES N#C[C@H]1c2ccccc2C[C@@H]1NC(O)=C1CCCC1
REMARK SMILES IDX 12 1 11 3 3 4 4 5 5 6 9 7 10 8 6 9 8 10 7 11 2 12 1 13 13 14
REMARK SMILES IDX 14 15 15 17 16 18 19 19 17 20 18 21
REMARK H PARENT 12 2 14 16
ROOT
ATOM      1  N   UNL     1      46.080 129.663  17.404  1.00  0.00    -0.352 N 
ATOM      2  H   UNL     1      46.375 128.848  17.986  1.00  0.00     0.163 HD
ENDROOT
BRANCH   1   3
ATOM      3  C   UNL     1      46.014 130.985  18.044  1.00  0.00     0.108 C 
ATOM      4  C   UNL     1      45.630 130.830  19.543  1.00  0.00     0.145 C 
ATOM      5  C   UNL     1      44.214 131.273  19.588  1.00  0.00    -0.025 A 
ATOM      6  C   UNL     1      43.332 131.167  20.670  1.00  0.00     0.005 A 
ATOM      7  C   UNL     1      43.812 131.835  18.401  1.00  0.00    -0.041 A 
ATOM      8  C   UNL     1      44.904 131.859  17.402  1.00  0.00     0.062 C 
ATOM      9  C   UNL     1      42.025 131.654  20.525  1.00  0.00     0.000 A 
ATOM     10  C   UNL     1      42.517 132.334  18.239  1.00  0.00     0.004 A 
ATOM     11  C   UNL     1      41.618 132.238  19.312  1.00  0.00     0.000 A 
BRANCH   4  12
ATOM     12  C   UNL     1      46.454 131.699  20.398  1.00  0.00     0.073 C 
ATOM     13  N   UNL     1      47.104 132.382  21.069  1.00  0.00    -0.198 NA
ENDBRANCH   4  12
ENDBRANCH   1   3
BRANCH   1  14
ATOM     14  C   UNL     1      45.754 129.446  16.013  1.00  0.00     0.183 C 
BRANCH  14  15
ATOM     15  O   UNL     1      44.596 128.753  15.651  1.00  0.00    -0.495 OA
ATOM     16  H   UNL     1      43.944 128.374  16.324  1.00  0.00     0.295 HD
ENDBRANCH  14  15
BRANCH  14  17
ATOM     17  C   UNL     1      46.555 129.904  15.033  1.00  0.00    -0.011 C 
ATOM     18  C   UNL     1      46.567 131.305  14.523  1.00  0.00     0.036 C 
ATOM     19  C   UNL     1      47.539 129.041  14.322  1.00  0.00     0.036 C 
ATOM     20  C   UNL     1      47.503 131.272  13.320  1.00  0.00     0.005 C 
ATOM     21  C   UNL     1      48.343 130.005  13.456  1.00  0.00     0.005 C 
ENDBRANCH  14  17
ENDBRANCH   1  14
TORSDOF 5
ENDMDL
MODEL 3
REMARK VINA RESULT:      -6.3      1.060      1.060
REMARK SMILES N#C[C@H]1c2ccccc2C[C@@H]1NC(O)=C1CCCC1
REMARK SMILES IDX 12 1 11 3 3 4 4 5 5 6 9 7 10 8 6 9 8 10 7 11 2 12 1 13 13 14
REMARK SMILES IDX 14 15 15 17 16 18 19 19 17 20 18 21
REMARK H PARENT 12 2 14 16
ROOT
ATOM      1  N   UNL     1      44.435 131.521  18.203  1.00  0.00    -0.352 N 
ATOM      2  H   UNL     1      43.561 131.665  17.650  1.00  0.00     0.163 HD
ENDROOT
BRANCH   1   3
ATOM      3  C   UNL     1      44.567 132.223  19.487  1.00  0.00     0.108 C 
ATOM      4  C   UNL     1      45.542 131.446  20.418  1.00  0.00     0.145 C 
ATOM      5  C   UNL     1      44.642 130.807  21.410  1.00  0.00    -0.025 A 
ATOM      6  C   UNL     1      44.991 129.851  22.371  1.00  0.00     0.005 A 
ATOM      7  C   UNL     1      43.351 131.262  21.303  1.00  0.00    -0.041 A 
ATOM      8  C   UNL     1      43.208 132.277  20.234  1.00  0.00     0.062 C 
ATOM      9  C   UNL     1      43.997 129.367  23.234  1.00  0.00     0.000 A 
ATOM     10  C   UNL     1      42.348 130.800  22.158  1.00  0.00     0.004 A 
ATOM     11  C   UNL     1      42.677 129.842  23.129  1.00  0.00     0.000 A 
BRANCH   4  12
ATOM     12  C   UNL     1      46.471 132.361  21.100  1.00  0.00     0.073 C 
ATOM     13  N   UNL     1      47.203 133.078  21.636  1.00  0.00    -0.198 NA
ENDBRANCH   4  12
ENDBRANCH   1   3
BRANCH   1  14
ATOM     14  C   UNL     1      45.457 130.645  17.676  1.00  0.00     0.183 C 
BRANCH  14  15
ATOM     15  O   UNL     1      46.098 129.719  18.503  1.00  0.00    -0.495 OA
ATOM     16  H   UNL     1      45.649 128.882  18.850  1.00  0.00     0.295 HD
ENDBRANCH  14  15
BRANCH  14  17
ATOM     17  C   UNL     1      45.818 130.700  16.381  1.00  0.00    -0.011 C 
ATOM     18  C   UNL     1      46.028 131.954  15.603  1.00  0.00     0.036 C 
ATOM     19  C   UNL     1      46.048 129.483  15.552  1.00  0.00     0.036 C 
ATOM     20  C   UNL     1      46.248 131.489  14.169  1.00  0.00     0.005 C 
ATOM     21  C   UNL     1      46.620 130.010  14.242  1.00  0.00     0.005 C 
ENDBRANCH  14  17
ENDBRANCH   1  14
TORSDOF 5
ENDMDL
MODEL 4
REMARK VINA RESULT:      -6.2      1.577      2.152
REMARK SMILES N#C[C@H]1c2ccccc2C[C@@H]1NC(O)=C1CCCC1
REMARK SMILES IDX 12 1 11 3 3 4 4 5 5 6 9 7 10 8 6 9 8 10 7 11 2 12 1 13 13 14
REMARK SMILES IDX 14 15 15 17 16 18 19 19 17 20 18 21
REMARK H PARENT 12 2 14 16
ROOT
ATOM      1  N   UNL     1      42.606 131.394  19.452  1.00  0.00    -0.352 N 
ATOM      2  H   UNL     1      42.019 130.549  19.628  1.00  0.00     0.163 HD
ENDROOT
BRANCH   1   3
ATOM      3  C   UNL     1      43.375 131.952  20.574  1.00  0.00     0.108 C 
ATOM      4  C   UNL     1      44.575 131.021  20.909  1.00  0.00     0.145 C 
ATOM      5  C   UNL     1      44.154 130.346  22.162  1.00  0.00    -0.025 A 
ATOM      6  C   UNL     1      44.794 129.277  22.799  1.00  0.00     0.005 A 
ATOM      7  C   UNL     1      43.009 130.895  22.683  1.00  0.00    -0.041 A 
ATOM      8  C   UNL     1      42.510 132.020  21.860  1.00  0.00     0.062 C 
ATOM      9  C   UNL     1      44.249 128.775  23.990  1.00  0.00     0.000 A 
ATOM     10  C   UNL     1      42.453 130.417  23.872  1.00  0.00     0.004 A 
ATOM     11  C   UNL     1      43.080 129.345  24.527  1.00  0.00     0.000 A 
BRANCH   4  12
ATOM     12  C   UNL     1      45.803 131.798  21.145  1.00  0.00     0.073 C 
ATOM     13  N   UNL     1      46.768 132.407  21.331  1.00  0.00    -0.198 NA
ENDBRANCH   4  12
ENDBRANCH   1   3
BRANCH   1  14
ATOM     14  C   UNL     1      42.629 131.963  18.123  1.00  0.00     0.183 C 
BRANCH  14  15
ATOM     15  O   UNL     1      41.627 132.845  17.708  1.00  0.00    -0.495 OA
ATOM     16  H   UNL     1      40.705 132.870  18.122  1.00  0.00     0.295 HD
ENDBRANCH  14  15
BRANCH  14  17
ATOM     17  C   UNL     1      43.612 131.661  17.255  1.00  0.00    -0.011 C 
ATOM     18  C   UNL     1      43.460 131.620  15.772  1.00  0.00     0.036 C 
ATOM     19  C   UNL     1      44.996 131.318  17.686  1.00  0.00     0.036 C 
ATOM     20  C   UNL     1      44.785 131.067  15.263  1.00  0.00     0.005 C 
ATOM     21  C   UNL     1      45.797 131.249  16.391  1.00  0.00     0.005 C 
ENDBRANCH  14  17
ENDBRANCH   1  14
TORSDOF 5
ENDMDL
MODEL 5
REMARK VINA RESULT:      -6.0      2.042      7.089
REMARK SMILES N#C[C@H]1c2ccccc2C[C@@H]1NC(O)=C1CCCC1
REMARK SMILES IDX 12 1 11 3 3 4 4 5 5 6 9 7 10 8 6 9 8 10 7 11 2 12 1 13 13 14
REMARK SMILES IDX 14 15 15 17 16 18 19 19 17 20 18 21
REMARK H PARENT 12 2 14 16
ROOT
ATOM      1  N   UNL     1      45.719 131.617  17.633  1.00  0.00    -0.352 N 
ATOM      2  H   UNL     1      46.375 132.423  17.524  1.00  0.00     0.163 HD
ENDROOT
BRANCH   1   3
ATOM      3  C   UNL     1      45.168 131.002  16.417  1.00  0.00     0.108 C 
ATOM      4  C   UNL     1      45.900 129.661  16.122  1.00  0.00     0.145 C 
ATOM      5  C   UNL     1      46.782 129.991  14.974  1.00  0.00    -0.025 A 
ATOM      6  C   UNL     1      47.786 129.185  14.425  1.00  0.00     0.005 A 
ATOM      7  C   UNL     1      46.512 131.234  14.458  1.00  0.00    -0.041 A 
ATOM      8  C   UNL     1      45.407 131.906  15.178  1.00  0.00     0.062 C 
ATOM      9  C   UNL     1      48.513 129.667  13.327  1.00  0.00     0.000 A 
ATOM     10  C   UNL     1      47.219 131.730  13.360  1.00  0.00     0.004 A 
ATOM     11  C   UNL     1      48.230 130.938  12.794  1.00  0.00     0.000 A 
BRANCH   4  12
ATOM     12  C   UNL     1      44.948 128.607  15.737  1.00  0.00     0.073 C 
ATOM     13  N   UNL     1      44.202 127.777  15.435  1.00  0.00    -0.198 NA
ENDBRANCH   4  12
ENDBRANCH   1   3
BRANCH   1  14
ATOM     14  C   UNL     1      45.393 131.158  18.963  1.00  0.00     0.183 C 
BRANCH  14  15
ATOM     15  O   UNL     1      46.235 130.269  19.637  1.00  0.00    -0.495 OA
ATOM     16  H   UNL     1      46.216 129.269  19.491  1.00  0.00     0.295 HD
ENDBRANCH  14  15
BRANCH  14  17
ATOM     17  C   UNL     1      44.274 131.572  19.586  1.00  0.00    -0.011 C 
ATOM     18  C   UNL     1      43.030 132.023  18.900  1.00  0.00     0.036 C 
ATOM     19  C   UNL     1      44.149 131.635  21.069  1.00  0.00     0.036 C 
ATOM     20  C   UNL     1      42.137 132.545  20.019  1.00  0.00     0.005 C 
ATOM     21  C   UNL     1      42.681 131.959  21.320  1.00  0.00     0.005 C 
ENDBRANCH  14  17
ENDBRANCH   1  14
TORSDOF 5
ENDMDL
MODEL 6
REMARK VINA RESULT:      -5.9      2.553      3.422
REMARK SMILES N#C[C@H]1c2ccccc2C[C@@H]1NC(O)=C1CCCC1
REMARK SMILES IDX 12 1 11 3 3 4 4 5 5 6 9 7 10 8 6 9 8 10 7 11 2 12 1 13 13 14
REMARK SMILES IDX 14 15 15 17 16 18 19 19 17 20 18 21
REMARK H PARENT 12 2 14 16
ROOT
ATOM      1  N   UNL     1      44.809 131.810  15.792  1.00  0.00    -0.352 N 
ATOM      2  H   UNL     1      45.204 132.753  16.004  1.00  0.00     0.163 HD
ENDROOT
BRANCH   1   3
ATOM      3  C   UNL     1      44.101 131.097  16.865  1.00  0.00     0.108 C 
ATOM      4  C   UNL     1      43.636 132.106  17.955  1.00  0.00     0.145 C 
ATOM      5  C   UNL     1      44.579 131.866  19.076  1.00  0.00    -0.025 A 
ATOM      6  C   UNL     1      44.713 132.630  20.241  1.00  0.00     0.005 A 
ATOM      7  C   UNL     1      45.360 130.757  18.865  1.00  0.00    -0.041 A 
ATOM      8  C   UNL     1      45.043 130.093  17.580  1.00  0.00     0.062 C 
ATOM      9  C   UNL     1      45.660 132.239  21.199  1.00  0.00     0.000 A 
ATOM     10  C   UNL     1      46.303 130.346  19.810  1.00  0.00     0.004 A 
ATOM     11  C   UNL     1      46.453 131.097  20.985  1.00  0.00     0.000 A 
BRANCH   4  12
ATOM     12  C   UNL     1      42.259 131.824  18.389  1.00  0.00     0.073 C 
ATOM     13  N   UNL     1      41.176 131.601  18.729  1.00  0.00    -0.198 NA
ENDBRANCH   4  12
ENDBRANCH   1   3
BRANCH   1  14
ATOM     14  C   UNL     1      44.981 131.264  14.465  1.00  0.00     0.183 C 
BRANCH  14  15
ATOM     15  O   UNL     1      43.935 131.299  13.539  1.00  0.00    -0.495 OA
ATOM     16  H   UNL     1      44.058 131.576  12.574  1.00  0.00     0.295 HD
ENDBRANCH  14  15
BRANCH  14  17
ATOM     17  C   UNL     1      46.147 130.709  14.088  1.00  0.00    -0.011 C 
ATOM     18  C   UNL     1      47.118 131.322  13.138  1.00  0.00     0.036 C 
ATOM     19  C   UNL     1      46.610 129.382  14.584  1.00  0.00     0.036 C 
ATOM     20  C   UNL     1      48.170 130.243  12.910  1.00  0.00     0.005 C 
ATOM     21  C   UNL     1      48.036 129.252  14.063  1.00  0.00     0.005 C 
ENDBRANCH  14  17
ENDBRANCH   1  14
TORSDOF 5
ENDMDL
MODEL 7
REMARK VINA RESULT:      -5.6      4.542      6.577
REMARK SMILES N#C[C@H]1c2ccccc2C[C@@H]1NC(O)=C1CCCC1
REMARK SMILES IDX 12 1 11 3 3 4 4 5 5 6 9 7 10 8 6 9 8 10 7 11 2 12 1 13 13 14
REMARK SMILES IDX 14 15 15 17 16 18 19 19 17 20 18 21
REMARK H PARENT 12 2 14 16
ROOT
ATOM      1  N   UNL     1      44.944 128.367  22.476  1.00  0.00    -0.352 N 
ATOM      2  H   UNL     1      45.281 128.137  21.515  1.00  0.00     0.163 HD
ENDROOT
BRANCH   1   3
ATOM      3  C   UNL     1      44.823 127.273  23.450  1.00  0.00     0.108 C 
ATOM      4  C   UNL     1      44.960 125.902  22.727  1.00  0.00     0.145 C 
ATOM      5  C   UNL     1      43.570 125.383  22.696  1.00  0.00    -0.025 A 
ATOM      6  C   UNL     1      43.105 124.260  22.002  1.00  0.00     0.005 A 
ATOM      7  C   UNL     1      42.719 126.146  23.458  1.00  0.00    -0.041 A 
ATOM      8  C   UNL     1      43.420 127.272  24.113  1.00  0.00     0.062 C 
ATOM      9  C   UNL     1      41.749 123.918  22.103  1.00  0.00     0.000 A 
ATOM     10  C   UNL     1      41.366 125.818  23.578  1.00  0.00     0.004 A 
ATOM     11  C   UNL     1      40.880 124.695  22.891  1.00  0.00     0.000 A 
BRANCH   4  12
ATOM     12  C   UNL     1      45.822 124.982  23.486  1.00  0.00     0.073 C 
ATOM     13  N   UNL     1      46.499 124.261  24.085  1.00  0.00    -0.198 NA
ENDBRANCH   4  12
ENDBRANCH   1   3
BRANCH   1  14
ATOM     14  C   UNL     1      44.618 129.739  22.791  1.00  0.00     0.183 C 
BRANCH  14  15
ATOM     15  O   UNL     1      44.645 130.193  24.112  1.00  0.00    -0.495 OA
ATOM     16  H   UNL     1      45.358 130.814  24.470  1.00  0.00     0.295 HD
ENDBRANCH  14  15
BRANCH  14  17
ATOM     17  C   UNL     1      44.280 130.613  21.824  1.00  0.00    -0.011 C 
ATOM     18  C   UNL     1      45.156 131.006  20.683  1.00  0.00     0.036 C 
ATOM     19  C   UNL     1      42.964 131.309  21.785  1.00  0.00     0.036 C 
ATOM     20  C   UNL     1      44.399 132.128  19.984  1.00  0.00     0.005 C 
ATOM     21  C   UNL     1      42.947 132.027  20.441  1.00  0.00     0.005 C 
ENDBRANCH  14  17
ENDBRANCH   1  14
TORSDOF 5
ENDMDL
MODEL 8
REMARK VINA RESULT:      -5.3      1.811      7.015
REMARK SMILES N#C[C@H]1c2ccccc2C[C@@H]1NC(O)=C1CCCC1
REMARK SMILES IDX 12 1 11 3 3 4 4 5 5 6 9 7 10 8 6 9 8 10 7 11 2 12 1 13 13 14
REMARK SMILES IDX 14 15 15 17 16 18 19 19 17 20 18 21
REMARK H PARENT 12 2 14 16
ROOT
ATOM      1  N   UNL     1      44.898 131.734  17.102  1.00  0.00    -0.352 N 
ATOM      2  H   UNL     1      45.797 132.265  17.125  1.00  0.00     0.163 HD
ENDROOT
BRANCH   1   3
ATOM      3  C   UNL     1      44.631 130.871  15.942  1.00  0.00     0.108 C 
ATOM      4  C   UNL     1      45.600 129.654  15.953  1.00  0.00     0.145 C 
ATOM      5  C   UNL     1      46.575 129.974  14.881  1.00  0.00    -0.025 A 
ATOM      6  C   UNL     1      47.761 129.291  14.590  1.00  0.00     0.005 A 
ATOM      7  C   UNL     1      46.191 131.068  14.146  1.00  0.00    -0.041 A 
ATOM      8  C   UNL     1      44.902 131.626  14.613  1.00  0.00     0.062 C 
ATOM      9  C   UNL     1      48.555 129.739  13.524  1.00  0.00     0.000 A 
ATOM     10  C   UNL     1      46.963 131.527  13.075  1.00  0.00     0.004 A 
ATOM     11  C   UNL     1      48.156 130.856  12.767  1.00  0.00     0.000 A 
BRANCH   4  12
ATOM     12  C   UNL     1      44.890 128.406  15.629  1.00  0.00     0.073 C 
ATOM     13  N   UNL     1      44.333 127.425  15.373  1.00  0.00    -0.198 NA
ENDBRANCH   4  12
ENDBRANCH   1   3
BRANCH   1  14
ATOM     14  C   UNL     1      43.974 131.878  18.204  1.00  0.00     0.183 C 
BRANCH  14  15
ATOM     15  O   UNL     1      42.707 132.432  18.003  1.00  0.00    -0.495 OA
ATOM     16  H   UNL     1      42.091 132.695  18.761  1.00  0.00     0.295 HD
ENDBRANCH  14  15
BRANCH  14  17
ATOM     17  C   UNL     1      44.308 131.484  19.446  1.00  0.00    -0.011 C 
ATOM     18  C   UNL     1      45.593 130.825  19.818  1.00  0.00     0.036 C 
ATOM     19  C   UNL     1      43.409 131.659  20.620  1.00  0.00     0.036 C 
ATOM     20  C   UNL     1      45.415 130.427  21.278  1.00  0.00     0.005 C 
ATOM     21  C   UNL     1      44.259 131.263  21.821  1.00  0.00     0.005 C 
ENDBRANCH  14  17
ENDBRANCH   1  14
TORSDOF 5
ENDMDL


