REMARK SMILES N#Cc1[nH+]c2cnc(/N=C3\[CH]C=CC3)cc2cc1-c1ccc([O-])cc1
REMARK SMILES IDX 8 1 7 2 6 3 5 4 16 5 15 6 17 7 18 8 3 9 4 10 9 12 10 13
REMARK SMILES IDX 11 14 12 15 13 16 14 17 19 18 20 19 25 20 21 21 24 22 22 23
REMARK SMILES IDX 23 24 2 25 1 26
REMARK H PARENT 4 11
ROOT
ATOM      1  C   UNL     1      -1.137  -2.343   0.713  1.00  0.00     0.152 A 
ATOM      2  N   UNL     1      -1.456  -1.772   1.908  1.00  0.00    -0.230 NA
ATOM      3  C   UNL     1      -0.914  -0.595   2.317  1.00  0.00     0.193 A 
ATOM      4  C   UNL     1       0.004   0.077   1.498  1.00  0.00     0.230 A 
ATOM      5  C   UNL     1       0.348  -0.488   0.257  1.00  0.00     0.052 A 
ATOM      6  C   UNL     1      -0.228  -1.703  -0.137  1.00  0.00     0.064 A 
ATOM      7  C   UNL     1       1.262   0.179  -0.564  1.00  0.00     0.031 A 
ATOM      8  C   UNL     1       1.822   1.399  -0.155  1.00  0.00     0.066 A 
ATOM      9  C   UNL     1       1.456   1.925   1.106  1.00  0.00     0.290 A 
ATOM     10  N   UNL     1       0.562   1.258   1.892  1.00  0.00    -0.194 N 
ATOM     11  H   UNL     1       0.304   1.660   2.823  1.00  0.00     0.455 HD
ENDROOT
BRANCH   1  12
ATOM     12  N   UNL     1      -1.728  -3.583   0.291  1.00  0.00    -0.237 NA
BRANCH  12  13
ATOM     13  C   UNL     1      -2.530  -4.349   0.973  1.00  0.00     0.032 C 
ATOM     14  C   UNL     1      -3.001  -4.105   2.370  1.00  0.00     0.069 C 
ATOM     15  C   UNL     1      -3.895  -5.277   2.589  1.00  0.00    -0.020 C 
ATOM     16  C   UNL     1      -3.946  -6.084   1.533  1.00  0.00    -0.025 C 
ATOM     17  C   UNL     1      -3.100  -5.601   0.407  1.00  0.00     0.079 C 
ENDBRANCH  12  13
ENDBRANCH   1  12
BRANCH   8  18
ATOM     18  C   UNL     1       2.778   2.090  -1.054  1.00  0.00    -0.011 A 
ATOM     19  C   UNL     1       2.553   3.419  -1.453  1.00  0.00     0.008 A 
ATOM     20  C   UNL     1       3.907   1.409  -1.542  1.00  0.00     0.008 A 
ATOM     21  C   UNL     1       3.451   4.060  -2.311  1.00  0.00    -0.008 A 
ATOM     22  C   UNL     1       4.803   2.054  -2.401  1.00  0.00    -0.008 A 
ATOM     23  C   UNL     1       4.577   3.379  -2.784  1.00  0.00    -0.109 A 
ATOM     24  O   UNL     1       5.469   4.018  -3.637  1.00  0.00    -0.872 OA
ENDBRANCH   8  18
BRANCH   9  25
ATOM     25  C   UNL     1       2.049   3.143   1.608  1.00  0.00     0.170 C 
ATOM     26  N   UNL     1       2.523   4.119   2.010  1.00  0.00    -0.186 NA
ENDBRANCH   9  25
TORSDOF 4


