REMARK SMILES CC(=O)c1ccc(-c2[nH+]ccc(C)c2F)cc1
REMARK SMILES IDX 4 1 5 2 6 3 7 4 16 5 17 6 2 7 1 8 3 9 8 10 9 11 14 12 10 13
REMARK SMILES IDX 12 14 11 15 15 17 13 18
REMARK H PARENT 9 16
ROOT
ATOM      1  C   UNL     1       1.087   0.433  -2.158  1.00  0.00     0.017 A 
ATOM      2  C   UNL     1       1.423   0.564  -0.796  1.00  0.00     0.012 A 
ATOM      3  C   UNL     1       0.431   0.540   0.188  1.00  0.00     0.016 A 
ATOM      4  C   UNL     1      -0.920   0.388  -0.165  1.00  0.00     0.049 A 
ATOM      5  C   UNL     1      -1.258   0.247  -1.519  1.00  0.00     0.016 A 
ATOM      6  C   UNL     1      -0.267   0.273  -2.505  1.00  0.00     0.012 A 
ENDROOT
BRANCH   1   7
ATOM      7  C   UNL     1       2.130   0.458  -3.219  1.00  0.00     0.159 C 
ATOM      8  C   UNL     1       3.584   0.630  -2.897  1.00  0.00     0.093 C 
ATOM      9  O   UNL     1       1.795   0.331  -4.428  1.00  0.00    -0.295 OA
ENDBRANCH   1   7
BRANCH   4  10
ATOM     10  C   UNL     1      -1.977   0.350   0.874  1.00  0.00     0.247 A 
ATOM     11  N   UNL     1      -2.946  -0.612   0.821  1.00  0.00    -0.209 N 
ATOM     12  C   UNL     1      -2.005   1.303   1.911  1.00  0.00     0.198 A 
ATOM     13  C   UNL     1      -3.938  -0.681   1.749  1.00  0.00     0.307 A 
ATOM     14  C   UNL     1      -3.013   1.239   2.885  1.00  0.00    -0.002 A 
ATOM     15  C   UNL     1      -3.992   0.242   2.793  1.00  0.00     0.077 A 
ATOM     16  H   UNL     1      -2.930  -1.331   0.063  1.00  0.00     0.453 HD
ATOM     17  F   UNL     1      -1.089   2.306   1.952  1.00  0.00    -0.199 F 
ATOM     18  C   UNL     1      -3.078   2.266   3.978  1.00  0.00     0.048 C 
ENDBRANCH   4  10
TORSDOF 2


