REMARK SMILES Cn1nnc2cc(/N=C(\O)c3cc(F)c[nH]3)c(C=O)cc21
REMARK SMILES IDX 8 1 9 2 10 3 11 5 12 6 16 7 13 8 15 9 14 11 7 12 17 13 6 14
REMARK SMILES IDX 20 15 5 16 21 17 4 18 2 19 3 20 1 21 18 22 19 23
REMARK H PARENT 10 4 16 10
ROOT
ATOM      1  N   UNL     1      -0.563  -0.998   0.234  1.00  0.00    -0.212 NA
ENDROOT
BRANCH   1   2
ATOM      2  C   UNL     1      -1.764  -0.504   0.263  1.00  0.00     0.235 C 
BRANCH   2   3
ATOM      3  O   UNL     1      -1.954   0.849   0.558  1.00  0.00    -0.492 OA
ATOM      4  H   UNL     1      -2.871   1.276   0.591  1.00  0.00     0.295 HD
ENDBRANCH   2   3
BRANCH   2   5
ATOM      5  C   UNL     1      -2.912  -1.387  -0.029  1.00  0.00     0.104 A 
ATOM      6  C   UNL     1      -4.248  -1.019  -0.042  1.00  0.00     0.072 A 
ATOM      7  N   UNL     1      -2.790  -2.699  -0.326  1.00  0.00    -0.355 N 
ATOM      8  C   UNL     1      -4.946  -2.164  -0.360  1.00  0.00     0.141 A 
ATOM      9  C   UNL     1      -4.030  -3.178  -0.528  1.00  0.00     0.122 A 
ATOM     10  H   UNL     1      -1.904  -3.250  -0.388  1.00  0.00     0.166 HD
ATOM     11  F   UNL     1      -6.291  -2.273  -0.483  1.00  0.00    -0.205 F 
ENDBRANCH   2   5
ENDBRANCH   1   2
BRANCH   1  12
ATOM     12  C   UNL     1       0.622  -0.244   0.526  1.00  0.00     0.080 A 
ATOM     13  C   UNL     1       0.864   0.309   1.828  1.00  0.00     0.042 A 
ATOM     14  C   UNL     1       1.573  -0.079  -0.503  1.00  0.00     0.061 A 
ATOM     15  C   UNL     1       2.038   1.069   2.055  1.00  0.00     0.044 A 
ATOM     16  C   UNL     1       2.709   0.669  -0.223  1.00  0.00     0.115 A 
ATOM     17  C   UNL     1       2.926   1.222   0.996  1.00  0.00     0.089 A 
ATOM     18  N   UNL     1       3.743   0.967  -1.032  1.00  0.00    -0.130 NA
ATOM     19  N   UNL     1       4.101   1.866   0.936  1.00  0.00    -0.248 N 
ATOM     20  N   UNL     1       4.578   1.698  -0.294  1.00  0.00    -0.066 NA
ATOM     21  C   UNL     1       4.778   2.593   2.001  1.00  0.00     0.176 C 
BRANCH  13  22
ATOM     22  C   UNL     1      -0.066   0.056   2.950  1.00  0.00     0.262 C 
ATOM     23  O   UNL     1       0.096   0.618   4.066  1.00  0.00    -0.298 OA
ENDBRANCH  13  22
ENDBRANCH   1  12
TORSDOF 5


