REMARK SMILES Cc1cc(N)c([O-])c(-n2nc3ccccc3n2)c1
REMARK SMILES IDX 1 1 2 2 3 3 4 4 6 5 7 6 8 7 18 8 5 9 9 12 10 13 17 14 11 15
REMARK SMILES IDX 16 16 12 17 15 18 13 19 14 20
REMARK H PARENT 5 10 5 11
ROOT
ATOM      1  C   UNL     1      -3.718  -0.297  -2.267  1.00  0.00     0.044 C 
ATOM      2  C   UNL     1      -2.926  -0.015  -1.023  1.00  0.00    -0.047 A 
ATOM      3  C   UNL     1      -3.583   0.292   0.174  1.00  0.00     0.028 A 
ATOM      4  C   UNL     1      -2.854   0.521   1.347  1.00  0.00     0.026 A 
ATOM      5  C   UNL     1      -1.450   0.429   1.327  1.00  0.00    -0.057 A 
ATOM      6  O   UNL     1      -0.738   0.663   2.499  1.00  0.00    -0.870 OA
ATOM      7  C   UNL     1      -0.774   0.099   0.128  1.00  0.00     0.080 A 
ATOM      8  C   UNL     1      -1.530  -0.126  -1.037  1.00  0.00     0.033 A 
ENDROOT
BRANCH   4   9
ATOM      9  N   UNL     1      -3.548   0.845   2.557  1.00  0.00    -0.399 N 
ATOM     10  H   UNL     1      -4.590   0.913   2.572  1.00  0.00     0.156 HD
ATOM     11  H   UNL     1      -3.035   1.020   3.450  1.00  0.00     0.156 HD
ENDBRANCH   4   9
BRANCH   7  12
ATOM     12  N   UNL     1       0.665  -0.013   0.077  1.00  0.00    -0.151 N 
ATOM     13  N   UNL     1       1.338  -0.300  -1.039  1.00  0.00    -0.148 NA
ATOM     14  N   UNL     1       1.469   0.154   1.127  1.00  0.00    -0.148 NA
ATOM     15  C   UNL     1       2.628  -0.314  -0.674  1.00  0.00     0.113 A 
ATOM     16  C   UNL     1       2.708  -0.035   0.653  1.00  0.00     0.113 A 
ATOM     17  C   UNL     1       3.756  -0.560  -1.452  1.00  0.00     0.032 A 
ATOM     18  C   UNL     1       3.924   0.022   1.328  1.00  0.00     0.032 A 
ATOM     19  C   UNL     1       5.008  -0.512  -0.806  1.00  0.00     0.002 A 
ATOM     20  C   UNL     1       5.091  -0.222   0.577  1.00  0.00     0.002 A 
ENDBRANCH   7  12
TORSDOF 2


