REMARK SMILES CC(=O)c1ccc([C@H]2[C@H](F)[C@H](C)CCN2C(=S)[NH2+]c2[nH+]c3ccccc3s2)cc1F
REMARK SMILES IDX 8 1 9 2 10 3 11 4 12 5 13 6 14 7 15 8 7 9 4 10 5 11 29 12
REMARK SMILES IDX 6 13 28 14 30 15 2 16 1 17 3 18 16 19 17 20 18 21 19 24
REMARK SMILES IDX 20 25 27 26 21 27 26 28 22 29 25 30 23 31 24 32
REMARK H PARENT 18 22 18 23 20 33
ROOT
ATOM      1  C   UNL     1       2.760   0.245   0.994  1.00  0.00     0.153 C 
ATOM      2  C   UNL     1       3.797  -0.902   0.939  1.00  0.00     0.196 C 
ATOM      3  F   UNL     1       3.942  -1.469   2.196  1.00  0.00    -0.245 F 
ATOM      4  C   UNL     1       5.157  -0.397   0.416  1.00  0.00     0.024 C 
ATOM      5  C   UNL     1       5.820   0.595   1.389  1.00  0.00     0.011 C 
ATOM      6  C   UNL     1       5.026   0.216  -1.004  1.00  0.00     0.028 C 
ATOM      7  C   UNL     1       3.595   0.650  -1.378  1.00  0.00     0.124 C 
ATOM      8  N   UNL     1       2.849   1.113  -0.198  1.00  0.00    -0.308 N 
ENDROOT
BRANCH   1   9
ATOM      9  C   UNL     1       1.349  -0.286   1.165  1.00  0.00    -0.019 A 
ATOM     10  C   UNL     1      -1.273  -1.293   1.531  1.00  0.00     0.053 A 
ATOM     11  C   UNL     1      -0.719  -0.374   2.440  1.00  0.00     0.015 A 
ATOM     12  C   UNL     1      -0.501  -1.685   0.415  1.00  0.00     0.134 A 
ATOM     13  C   UNL     1       0.576   0.117   2.264  1.00  0.00     0.007 A 
ATOM     14  C   UNL     1       0.785  -1.169   0.229  1.00  0.00     0.046 A 
ATOM     15  F   UNL     1      -0.990  -2.534  -0.522  1.00  0.00    -0.206 F 
BRANCH  10  16
ATOM     16  C   UNL     1      -2.650  -1.807   1.767  1.00  0.00     0.162 C 
ATOM     17  C   UNL     1      -3.154  -3.073   1.144  1.00  0.00     0.093 C 
ATOM     18  O   UNL     1      -3.434  -1.158   2.511  1.00  0.00    -0.294 OA
ENDBRANCH  10  16
ENDBRANCH   1   9
BRANCH   8  19
ATOM     19  C   UNL     1       2.215   2.412  -0.200  1.00  0.00     0.280 C 
ATOM     20  S   UNL     1       2.357   3.394   1.113  1.00  0.00     0.004 S 
BRANCH  19  21
ATOM     21  N   UNL     1       1.364   2.817  -1.290  1.00  0.00    -0.191 N 
ATOM     22  H   UNL     1       1.212   3.852  -1.270  1.00  0.00     0.366 HD
ATOM     23  H   UNL     1       1.798   2.582  -2.209  1.00  0.00     0.366 HD
BRANCH  21  24
ATOM     24  C   UNL     1       0.092   2.165  -1.174  1.00  0.00     0.433 A 
ATOM     25  N   UNL     1      -0.302   1.149  -1.980  1.00  0.00    -0.146 N 
ATOM     26  S   UNL     1      -1.101   2.586  -0.043  1.00  0.00    -0.000 S 
ATOM     27  C   UNL     1      -1.559   0.736  -1.677  1.00  0.00     0.227 A 
ATOM     28  C   UNL     1      -2.158   1.415  -0.625  1.00  0.00     0.111 A 
ATOM     29  C   UNL     1      -2.243  -0.291  -2.333  1.00  0.00     0.081 A 
ATOM     30  C   UNL     1      -3.440   1.106  -0.180  1.00  0.00     0.026 A 
ATOM     31  C   UNL     1      -3.539  -0.621  -1.902  1.00  0.00     0.007 A 
ATOM     32  C   UNL     1      -4.135   0.073  -0.830  1.00  0.00     0.002 A 
ATOM     33  H   UNL     1       0.286   0.738  -2.740  1.00  0.00     0.461 HD
ENDBRANCH  21  24
ENDBRANCH  19  21
ENDBRANCH   8  19
TORSDOF 5


