REMARK SMILES CC(=O)c1ccc(-c2cc3ccccc3[nH]2)c[nH+]1
REMARK SMILES IDX 4 1 5 2 6 3 7 4 17 5 18 6 2 8 1 9 3 10 8 11 9 12 16 13 10 14
REMARK SMILES IDX 15 15 11 16 14 17 12 18 13 19
REMARK H PARENT 18 7 16 20
ROOT
ATOM      1  C   UNL     1      -0.887  -2.576  -0.177  1.00  0.00     0.246 A 
ATOM      2  C   UNL     1       0.237  -2.027  -0.815  1.00  0.00     0.084 A 
ATOM      3  C   UNL     1       0.305  -0.653  -1.043  1.00  0.00     0.023 A 
ATOM      4  C   UNL     1      -0.744   0.184  -0.636  1.00  0.00     0.062 A 
ATOM      5  C   UNL     1      -1.852  -0.400  -0.003  1.00  0.00     0.317 A 
ATOM      6  N   UNL     1      -1.901  -1.744   0.210  1.00  0.00    -0.208 N 
ATOM      7  H   UNL     1      -2.751  -2.123   0.682  1.00  0.00     0.454 HD
ENDROOT
BRANCH   1   8
ATOM      8  C   UNL     1      -0.961  -4.041   0.068  1.00  0.00     0.223 C 
ATOM      9  C   UNL     1      -2.139  -4.668   0.749  1.00  0.00     0.100 C 
ATOM     10  O   UNL     1      -0.014  -4.788  -0.304  1.00  0.00    -0.288 OA
ENDBRANCH   1   8
BRANCH   4  11
ATOM     11  C   UNL     1      -0.685   1.649  -0.872  1.00  0.00     0.052 A 
ATOM     12  C   UNL     1       0.120   2.286  -1.821  1.00  0.00     0.037 A 
ATOM     13  N   UNL     1      -1.416   2.561  -0.181  1.00  0.00    -0.354 N 
ATOM     14  C   UNL     1      -0.151   3.629  -1.682  1.00  0.00     0.000 A 
ATOM     15  C   UNL     1      -1.080   3.760  -0.685  1.00  0.00     0.046 A 
ATOM     16  C   UNL     1       0.357   4.732  -2.364  1.00  0.00     0.010 A 
ATOM     17  C   UNL     1      -1.565   5.008  -0.295  1.00  0.00     0.026 A 
ATOM     18  C   UNL     1      -0.114   6.005  -1.995  1.00  0.00     0.001 A 
ATOM     19  C   UNL     1      -1.071   6.143  -0.964  1.00  0.00     0.002 A 
ATOM     20  H   UNL     1      -2.087   2.386   0.599  1.00  0.00     0.167 HD
ENDBRANCH   4  11
TORSDOF 2


