REMARK SMILES Cc1cc[nH+]c(F)c1-c1cc2c(C)c(F)cc(Nc3cccc(N)c3[O-])c2[nH]1
REMARK SMILES IDX 18 1 17 3 9 4 10 5 28 6 11 7 27 8 12 9 14 10 16 11 13 13
REMARK SMILES IDX 15 14 8 15 2 16 3 17 4 18 6 19 5 20 1 21 7 22 19 24 20 25
REMARK SMILES IDX 25 26 21 27 23 28 22 29 26 30 24 31
REMARK H PARENT 18 2 28 12 5 23 24 32 24 33
ROOT
ATOM      1  N   UNL     1       0.846  -2.637  -0.343  1.00  0.00    -0.354 N 
ATOM      2  H   UNL     1       0.981  -3.571   0.106  1.00  0.00     0.167 HD
ENDROOT
BRANCH   1   3
ATOM      3  C   UNL     1       1.792  -1.603  -0.028  1.00  0.00     0.066 A 
ATOM      4  C   UNL     1       0.290   1.553   0.450  1.00  0.00     0.056 A 
ATOM      5  C   UNL     1       1.629   1.890   0.626  1.00  0.00     0.037 A 
ATOM      6  N   UNL     1       0.157   0.231   0.197  1.00  0.00    -0.353 N 
ATOM      7  C   UNL     1       2.326   0.710   0.455  1.00  0.00     0.008 A 
ATOM      8  C   UNL     1       1.405  -0.272   0.183  1.00  0.00     0.070 A 
ATOM      9  C   UNL     1       3.697   0.438   0.551  1.00  0.00    -0.006 A 
ATOM     10  C   UNL     1       4.104  -0.907   0.392  1.00  0.00     0.128 A 
ATOM     11  C   UNL     1       3.158  -1.914   0.107  1.00  0.00     0.067 A 
ATOM     12  H   UNL     1      -0.738  -0.294   0.091  1.00  0.00     0.167 HD
ATOM     13  C   UNL     1       4.682   1.521   0.888  1.00  0.00     0.048 C 
ATOM     14  F   UNL     1       5.412  -1.249   0.512  1.00  0.00    -0.207 F 
BRANCH   4  15
ATOM     15  C   UNL     1      -0.849   2.493   0.552  1.00  0.00     0.105 A 
ATOM     16  C   UNL     1      -1.869   2.542  -0.430  1.00  0.00    -0.026 A 
ATOM     17  C   UNL     1      -2.946   3.421  -0.251  1.00  0.00     0.075 A 
ATOM     18  C   UNL     1      -2.983   4.257   0.863  1.00  0.00     0.309 A 
ATOM     19  C   UNL     1      -0.930   3.366   1.653  1.00  0.00     0.367 A 
ATOM     20  N   UNL     1      -1.982   4.219   1.781  1.00  0.00    -0.186 N 
ATOM     21  C   UNL     1      -1.845   1.672  -1.661  1.00  0.00     0.045 C 
ATOM     22  F   UNL     1       0.022   3.345   2.621  1.00  0.00    -0.135 F 
ATOM     23  H   UNL     1      -2.029   4.853   2.609  1.00  0.00     0.456 HD
ENDBRANCH   4  15
ENDBRANCH   1   3
BRANCH   1  24
ATOM     24  C   UNL     1      -0.191  -2.498  -1.333  1.00  0.00     0.033 A 
ATOM     25  C   UNL     1      -0.043  -1.607  -2.413  1.00  0.00     0.025 A 
ATOM     26  C   UNL     1      -1.359  -3.276  -1.240  1.00  0.00    -0.061 A 
ATOM     27  C   UNL     1      -1.055  -1.477  -3.365  1.00  0.00     0.004 A 
ATOM     28  C   UNL     1      -2.378  -3.145  -2.202  1.00  0.00     0.025 A 
ATOM     29  C   UNL     1      -2.219  -2.239  -3.259  1.00  0.00     0.025 A 
ATOM     30  O   UNL     1      -1.512  -4.169  -0.183  1.00  0.00    -0.870 OA
BRANCH  28  31
ATOM     31  N   UNL     1      -3.575  -3.925  -2.111  1.00  0.00    -0.399 N 
ATOM     32  H   UNL     1      -4.331  -3.825  -2.824  1.00  0.00     0.156 HD
ATOM     33  H   UNL     1      -3.722  -4.607  -1.334  1.00  0.00     0.156 HD
ENDBRANCH  28  31
ENDBRANCH   1  24
TORSDOF 4


