REMARK SMILES CC(=O)c1ccc(-c2cc(N)c([O-])c([NH2+]c3ccc(C)c(F)c3)c2)c(F)n1
REMARK SMILES IDX 8 1 9 2 10 3 12 4 13 5 14 6 24 7 7 8 4 9 5 10 27 11 6 12
REMARK SMILES IDX 25 13 26 14 2 15 1 16 3 17 11 18 15 21 16 24 17 25 23 26
REMARK SMILES IDX 18 27 21 28 19 29 22 30 20 31
REMARK H PARENT 11 19 11 20 15 22 15 23
ROOT
ATOM      1  C   UNL     1       0.783  -1.810   0.053  1.00  0.00    -0.006 A 
ATOM      2  C   UNL     1       2.014  -2.336  -0.369  1.00  0.00     0.034 A 
ATOM      3  C   UNL     1       3.170  -2.159   0.402  1.00  0.00     0.030 A 
ATOM      4  C   UNL     1       3.101  -1.443   1.609  1.00  0.00    -0.021 A 
ATOM      5  O   UNL     1       4.250  -1.266   2.373  1.00  0.00    -0.867 OA
ATOM      6  C   UNL     1       1.872  -0.907   2.047  1.00  0.00     0.129 A 
ATOM      7  C   UNL     1       0.723  -1.094   1.259  1.00  0.00     0.076 A 
ENDROOT
BRANCH   1   8
ATOM      8  C   UNL     1      -0.435  -1.983  -0.774  1.00  0.00     0.037 A 
ATOM      9  C   UNL     1      -2.727  -2.315  -2.341  1.00  0.00     0.109 A 
ATOM     10  C   UNL     1      -2.420  -1.050  -1.816  1.00  0.00     0.033 A 
ATOM     11  N   UNL     1      -1.903  -3.365  -2.071  1.00  0.00    -0.216 NA
ATOM     12  C   UNL     1      -1.276  -0.890  -1.033  1.00  0.00     0.016 A 
ATOM     13  C   UNL     1      -0.782  -3.235  -1.314  1.00  0.00     0.221 A 
ATOM     14  F   UNL     1      -0.029  -4.335  -1.061  1.00  0.00    -0.184 F 
BRANCH   9  15
ATOM     15  C   UNL     1      -3.930  -2.523  -3.175  1.00  0.00     0.178 C 
ATOM     16  C   UNL     1      -4.249  -3.878  -3.728  1.00  0.00     0.095 C 
ATOM     17  O   UNL     1      -4.702  -1.559  -3.430  1.00  0.00    -0.293 OA
ENDBRANCH   9  15
ENDBRANCH   1   8
BRANCH   3  18
ATOM     18  N   UNL     1       4.414  -2.704  -0.054  1.00  0.00    -0.399 N 
ATOM     19  H   UNL     1       5.294  -2.586   0.496  1.00  0.00     0.156 HD
ATOM     20  H   UNL     1       4.467  -3.234  -0.952  1.00  0.00     0.156 HD
ENDBRANCH   3  18
BRANCH   6  21
ATOM     21  N   UNL     1       1.788  -0.135   3.265  1.00  0.00    -0.282 N 
ATOM     22  H   UNL     1       2.496  -0.466   3.962  1.00  0.00     0.358 HD
ATOM     23  H   UNL     1       0.851  -0.273   3.712  1.00  0.00     0.358 HD
BRANCH  21  24
ATOM     24  C   UNL     1       1.988   1.262   2.971  1.00  0.00     0.137 A 
ATOM     25  C   UNL     1       3.270   1.833   3.048  1.00  0.00     0.068 A 
ATOM     26  C   UNL     1       0.906   2.066   2.568  1.00  0.00     0.107 A 
ATOM     27  C   UNL     1       3.466   3.180   2.732  1.00  0.00     0.012 A 
ATOM     28  C   UNL     1       1.102   3.414   2.251  1.00  0.00     0.132 A 
ATOM     29  C   UNL     1       2.386   3.977   2.321  1.00  0.00    -0.015 A 
ATOM     30  F   UNL     1       0.038   4.169   1.875  1.00  0.00    -0.206 F 
ATOM     31  C   UNL     1       2.593   5.430   2.005  1.00  0.00     0.047 C 
ENDBRANCH  21  24
ENDBRANCH   6  21
TORSDOF 5


