REMARK SMILES C=Cc1ccc(-c2cc(F)cc(F)c2[O-])[nH+]c1
REMARK SMILES IDX 3 1 4 2 5 3 6 4 16 5 17 6 2 8 1 9 7 10 8 11 14 12 9 13 12 14
REMARK SMILES IDX 11 15 15 16 10 17 13 18
REMARK H PARENT 16 7
ROOT
ATOM      1  C   UNL     1      -2.716   1.061  -1.119  1.00  0.00     0.038 A 
ATOM      2  C   UNL     1      -1.555   1.812  -0.862  1.00  0.00     0.021 A 
ATOM      3  C   UNL     1      -0.484   1.234  -0.181  1.00  0.00     0.080 A 
ATOM      4  C   UNL     1      -0.564  -0.102   0.237  1.00  0.00     0.210 A 
ATOM      5  N   UNL     1      -1.696  -0.818  -0.025  1.00  0.00    -0.211 N 
ATOM      6  C   UNL     1      -2.752  -0.273  -0.688  1.00  0.00     0.314 A 
ATOM      7  H   UNL     1      -1.778  -1.806   0.305  1.00  0.00     0.453 HD
ENDROOT
BRANCH   1   8
ATOM      8  C   UNL     1      -3.889   1.609  -1.846  1.00  0.00     0.006 C 
ATOM      9  C   UNL     1      -4.104   2.909  -2.053  1.00  0.00     0.009 C 
ENDBRANCH   1   8
BRANCH   4  10
ATOM     10  C   UNL     1       0.569  -0.726   0.962  1.00  0.00     0.044 A 
ATOM     11  C   UNL     1       1.167  -0.050   2.041  1.00  0.00     0.053 A 
ATOM     12  C   UNL     1       1.064  -1.992   0.586  1.00  0.00    -0.058 A 
ATOM     13  C   UNL     1       2.228  -0.632   2.741  1.00  0.00     0.126 A 
ATOM     14  C   UNL     1       2.125  -2.570   1.296  1.00  0.00     0.119 A 
ATOM     15  C   UNL     1       2.704  -1.891   2.370  1.00  0.00     0.077 A 
ATOM     16  O   UNL     1       0.525  -2.672  -0.501  1.00  0.00    -0.870 OA
ATOM     17  F   UNL     1       2.792   0.025   3.784  1.00  0.00    -0.207 F 
ATOM     18  F   UNL     1       2.600  -3.788   0.936  1.00  0.00    -0.208 F 
ENDBRANCH   4  10
TORSDOF 2


