REMARK SMILES C[N-]S(=O)(=O)c1ccc(/N=C(\O)N(N)c2ccccc2-c2nc3ccccc3[n-]2)cc1
REMARK SMILES IDX 10 1 11 2 12 3 13 5 15 6 16 7 20 8 17 9 19 10 18 11 21 12
REMARK SMILES IDX 22 13 29 14 23 15 28 16 24 17 27 18 25 19 26 20 14 21 9 24
REMARK SMILES IDX 8 25 30 26 7 27 31 28 6 29 3 30 4 31 5 32 2 33 1 34
REMARK H PARENT 12 4 14 22 14 23
ROOT
ATOM      1  N   UNL     1       0.742   1.726   0.700  1.00  0.00    -0.196 NA
ENDROOT
BRANCH   1   2
ATOM      2  C   UNL     1       2.028   1.930   0.700  1.00  0.00     0.309 C 
BRANCH   2   3
ATOM      3  O   UNL     1       2.638   2.578  -0.376  1.00  0.00    -0.479 OA
ATOM      4  H   UNL     1       3.639   2.723  -0.421  1.00  0.00     0.297 HD
ENDBRANCH   2   3
BRANCH   2   5
ATOM      5  N   UNL     1       2.829   1.434   1.792  1.00  0.00    -0.231 N 
BRANCH   5   6
ATOM      6  C   UNL     1       2.224   0.718   2.889  1.00  0.00     0.069 A 
ATOM      7  C   UNL     1       2.254   1.291   4.171  1.00  0.00     0.028 A 
ATOM      8  C   UNL     1       1.569  -0.527   2.696  1.00  0.00    -0.001 A 
ATOM      9  C   UNL     1       1.625   0.661   5.246  1.00  0.00     0.002 A 
ATOM     10  C   UNL     1       0.926  -1.137   3.790  1.00  0.00     0.010 A 
ATOM     11  C   UNL     1       0.957  -0.547   5.054  1.00  0.00     0.001 A 
BRANCH   8  12
ATOM     12  C   UNL     1       1.550  -1.216   1.384  1.00  0.00    -0.049 A 
ATOM     13  N   UNL     1       2.511  -1.043   0.437  1.00  0.00    -0.435 NA
ATOM     14  N   UNL     1       0.562  -2.080   1.024  1.00  0.00    -0.435 NA
ATOM     15  C   UNL     1       2.087  -1.829  -0.562  1.00  0.00    -0.038 A 
ATOM     16  C   UNL     1       0.927  -2.446  -0.212  1.00  0.00    -0.038 A 
ATOM     17  C   UNL     1       2.686  -2.029  -1.803  1.00  0.00     0.004 A 
ATOM     18  C   UNL     1       0.266  -3.319  -1.073  1.00  0.00     0.004 A 
ATOM     19  C   UNL     1       2.047  -2.906  -2.701  1.00  0.00     0.000 A 
ATOM     20  C   UNL     1       0.841  -3.549  -2.338  1.00  0.00     0.000 A 
ENDBRANCH   8  12
ENDBRANCH   5   6
BRANCH   5  21
ATOM     21  N   UNL     1       4.187   1.794   1.861  1.00  0.00    -0.239 NA
ATOM     22  H   UNL     1       4.267   2.614   2.503  1.00  0.00     0.144 HD
ATOM     23  H   UNL     1       4.717   0.999   2.287  1.00  0.00     0.144 HD
ENDBRANCH   5  21
ENDBRANCH   2   5
ENDBRANCH   1   2
BRANCH   1  24
ATOM     24  C   UNL     1      -0.189   2.158  -0.303  1.00  0.00     0.069 A 
ATOM     25  C   UNL     1      -1.269   1.324  -0.618  1.00  0.00     0.030 A 
ATOM     26  C   UNL     1      -0.089   3.417  -0.922  1.00  0.00     0.030 A 
ATOM     27  C   UNL     1      -2.211   1.715  -1.573  1.00  0.00     0.021 A 
ATOM     28  C   UNL     1      -1.033   3.808  -1.877  1.00  0.00     0.021 A 
ATOM     29  C   UNL     1      -2.092   2.956  -2.213  1.00  0.00     0.048 A 
BRANCH  29  30
ATOM     30  S   UNL     1      -3.283   3.471  -3.405  1.00  0.00     0.101 S 
ATOM     31  O   UNL     1      -4.153   2.312  -3.807  1.00  0.00    -0.244 OA
ATOM     32  O   UNL     1      -2.565   3.973  -4.626  1.00  0.00    -0.244 OA
BRANCH  30  33
ATOM     33  N   UNL     1      -4.269   4.746  -2.759  1.00  0.00    -0.547 NA
ATOM     34  C   UNL     1      -4.990   4.264  -1.586  1.00  0.00    -0.153 C 
ENDBRANCH  30  33
ENDBRANCH  29  30
ENDBRANCH   1  24
TORSDOF 9


