MODEL 1
REMARK VINA RESULT:      -7.3      0.000      0.000
REMARK SMILES Cc1ccc(N[C@H]2CC[C@@H]3[N+](C)=NN[C@]3([NH3+])[C@@H]2O)cc1
REMARK SMILES IDX 7 1 8 2 9 3 10 4 11 5 12 6 13 7 14 8 15 9 17 10 6 12 5 14
REMARK SMILES IDX 2 15 3 16 20 17 4 18 19 19 1 20 18 21 16 23
REMARK H PARENT 14 11 6 13 18 22 16 24 16 25 16 26
ROOT
ATOM      1  C   UNL     1      43.644 131.405  17.864  1.00  0.00     0.119 C 
ATOM      2  C   UNL     1      45.013 131.340  18.597  1.00  0.00     0.033 C 
ATOM      3  C   UNL     1      45.148 132.330  19.761  1.00  0.00     0.066 C 
ATOM      4  C   UNL     1      43.925 132.298  20.698  1.00  0.00     0.310 C 
ATOM      5  N   UNL     1      43.792 131.000  21.364  1.00  0.00    -0.158 N 
ATOM      6  C   UNL     1      44.771 130.410  22.270  1.00  0.00     0.320 C 
ATOM      7  N   UNL     1      42.674 130.451  21.140  1.00  0.00     0.083 NA
ATOM      8  N   UNL     1      41.872 131.223  20.306  1.00  0.00    -0.121 N 
ATOM      9  C   UNL     1      42.563 132.453  19.942  1.00  0.00     0.318 C 
ATOM     10  C   UNL     1      42.731 132.538  18.396  1.00  0.00     0.251 C 
ATOM     11  H   UNL     1      40.905 130.952  20.019  1.00  0.00     0.342 HD
ENDROOT
BRANCH   1  12
ATOM     12  N   UNL     1      43.851 131.559  16.415  1.00  0.00    -0.379 N 
ATOM     13  H   UNL     1      43.136 132.091  15.869  1.00  0.00     0.160 HD
BRANCH  12  14
ATOM     14  C   UNL     1      44.977 131.022  15.690  1.00  0.00     0.034 A 
ATOM     15  C   UNL     1      47.208 130.046  14.267  1.00  0.00    -0.051 A 
ATOM     16  C   UNL     1      46.961 131.423  14.339  1.00  0.00     0.005 A 
ATOM     17  C   UNL     1      46.321 129.156  14.886  1.00  0.00     0.005 A 
ATOM     18  C   UNL     1      45.860 131.906  15.049  1.00  0.00     0.026 A 
ATOM     19  C   UNL     1      45.217 129.636  15.597  1.00  0.00     0.026 A 
ATOM     20  C   UNL     1      48.369 129.526  13.471  1.00  0.00     0.044 C 
ENDBRANCH  12  14
ENDBRANCH   1  12
BRANCH  10  21
ATOM     21  O   UNL     1      41.475 132.442  17.767  1.00  0.00    -0.380 OA
ATOM     22  H   UNL     1      41.093 131.558  18.005  1.00  0.00     0.211 HD
ENDBRANCH  10  21
BRANCH   9  23
ATOM     23  N   UNL     1      41.813 133.611  20.452  1.00  0.00    -0.310 N 
ATOM     24  H   UNL     1      40.846 133.327  20.729  1.00  0.00     0.348 HD
ATOM     25  H   UNL     1      41.755 134.354  19.718  1.00  0.00     0.348 HD
ATOM     26  H   UNL     1      42.287 134.005  21.298  1.00  0.00     0.348 HD
ENDBRANCH   9  23
TORSDOF 4
ENDMDL
MODEL 2
REMARK VINA RESULT:      -7.2      0.048      1.084
REMARK SMILES Cc1ccc(N[C@H]2CC[C@@H]3[N+](C)=NN[C@]3([NH3+])[C@@H]2O)cc1
REMARK SMILES IDX 7 1 8 2 9 3 10 4 11 5 12 6 13 7 14 8 15 9 17 10 6 12 5 14
REMARK SMILES IDX 2 15 3 16 20 17 4 18 19 19 1 20 18 21 16 23
REMARK H PARENT 14 11 6 13 18 22 16 24 16 25 16 26
ROOT
ATOM      1  C   UNL     1      43.606 131.393  17.832  1.00  0.00     0.119 C 
ATOM      2  C   UNL     1      44.986 131.331  18.546  1.00  0.00     0.033 C 
ATOM      3  C   UNL     1      45.138 132.328  19.702  1.00  0.00     0.066 C 
ATOM      4  C   UNL     1      43.929 132.303  20.657  1.00  0.00     0.310 C 
ATOM      5  N   UNL     1      43.804 131.009  21.333  1.00  0.00    -0.158 N 
ATOM      6  C   UNL     1      44.796 130.424  22.228  1.00  0.00     0.320 C 
ATOM      7  N   UNL     1      42.683 130.460  21.129  1.00  0.00     0.083 NA
ATOM      8  N   UNL     1      41.869 131.228  20.302  1.00  0.00    -0.121 N 
ATOM      9  C   UNL     1      42.557 132.455  19.919  1.00  0.00     0.318 C 
ATOM     10  C   UNL     1      42.702 132.530  18.371  1.00  0.00     0.251 C 
ATOM     11  H   UNL     1      40.898 130.956  20.031  1.00  0.00     0.342 HD
ENDROOT
BRANCH   1  12
ATOM     12  N   UNL     1      43.792 131.537  16.380  1.00  0.00    -0.379 N 
ATOM     13  H   UNL     1      43.042 132.018  15.833  1.00  0.00     0.160 HD
BRANCH  12  14
ATOM     14  C   UNL     1      44.942 131.058  15.653  1.00  0.00     0.034 A 
ATOM     15  C   UNL     1      47.162 130.046  14.236  1.00  0.00    -0.051 A 
ATOM     16  C   UNL     1      46.263 129.172  14.862  1.00  0.00     0.005 A 
ATOM     17  C   UNL     1      46.963 131.429  14.344  1.00  0.00     0.005 A 
ATOM     18  C   UNL     1      45.160 129.674  15.558  1.00  0.00     0.026 A 
ATOM     19  C   UNL     1      45.861 131.934  15.041  1.00  0.00     0.026 A 
ATOM     20  C   UNL     1      48.366 129.508  13.522  1.00  0.00     0.044 C 
ENDBRANCH  12  14
ENDBRANCH   1  12
BRANCH  10  21
ATOM     21  O   UNL     1      41.437 132.432  17.761  1.00  0.00    -0.380 OA
ATOM     22  H   UNL     1      40.904 133.213  18.060  1.00  0.00     0.211 HD
ENDBRANCH  10  21
BRANCH   9  23
ATOM     23  N   UNL     1      41.816 133.616  20.433  1.00  0.00    -0.310 N 
ATOM     24  H   UNL     1      40.787 133.475  20.315  1.00  0.00     0.348 HD
ATOM     25  H   UNL     1      42.105 134.483  19.922  1.00  0.00     0.348 HD
ATOM     26  H   UNL     1      42.007 133.745  21.454  1.00  0.00     0.348 HD
ENDBRANCH   9  23
TORSDOF 4
ENDMDL
MODEL 3
REMARK VINA RESULT:      -5.8      1.444      1.765
REMARK SMILES Cc1ccc(N[C@H]2CC[C@@H]3[N+](C)=NN[C@]3([NH3+])[C@@H]2O)cc1
REMARK SMILES IDX 7 1 8 2 9 3 10 4 11 5 12 6 13 7 14 8 15 9 17 10 6 12 5 14
REMARK SMILES IDX 2 15 3 16 20 17 4 18 19 19 1 20 18 21 16 23
REMARK H PARENT 14 11 6 13 18 22 16 24 16 25 16 26
ROOT
ATOM      1  C   UNL     1      43.821 131.211  19.332  1.00  0.00     0.119 C 
ATOM      2  C   UNL     1      45.207 130.600  19.680  1.00  0.00     0.033 C 
ATOM      3  C   UNL     1      45.760 131.038  21.043  1.00  0.00     0.066 C 
ATOM      4  C   UNL     1      44.712 130.911  22.165  1.00  0.00     0.310 C 
ATOM      5  N   UNL     1      44.324 129.516  22.384  1.00  0.00    -0.158 N 
ATOM      6  C   UNL     1      45.220 128.445  22.806  1.00  0.00     0.320 C 
ATOM      7  N   UNL     1      43.080 129.330  22.248  1.00  0.00     0.083 NA
ATOM      8  N   UNL     1      42.411 130.502  21.911  1.00  0.00    -0.121 N 
ATOM      9  C   UNL     1      43.354 131.611  21.824  1.00  0.00     0.318 C 
ATOM     10  C   UNL     1      43.328 132.226  20.393  1.00  0.00     0.251 C 
ATOM     11  H   UNL     1      41.378 130.561  21.775  1.00  0.00     0.342 HD
ENDROOT
BRANCH   1  12
ATOM     12  N   UNL     1      43.864 131.845  18.005  1.00  0.00    -0.379 N 
ATOM     13  H   UNL     1      43.252 132.675  17.835  1.00  0.00     0.160 HD
BRANCH  12  14
ATOM     14  C   UNL     1      44.695 131.397  16.914  1.00  0.00     0.034 A 
ATOM     15  C   UNL     1      46.359 130.591  14.784  1.00  0.00    -0.051 A 
ATOM     16  C   UNL     1      46.378 131.918  15.234  1.00  0.00     0.005 A 
ATOM     17  C   UNL     1      45.486 129.675  15.384  1.00  0.00     0.005 A 
ATOM     18  C   UNL     1      45.558 132.315  16.294  1.00  0.00     0.026 A 
ATOM     19  C   UNL     1      44.663 130.069  16.443  1.00  0.00     0.026 A 
ATOM     20  C   UNL     1      47.211 130.175  13.621  1.00  0.00     0.044 C 
ENDBRANCH  12  14
ENDBRANCH   1  12
BRANCH  10  21
ATOM     21  O   UNL     1      42.021 132.629  20.064  1.00  0.00    -0.380 OA
ATOM     22  H   UNL     1      42.049 132.998  19.143  1.00  0.00     0.211 HD
ENDBRANCH  10  21
BRANCH   9  23
ATOM     23  N   UNL     1      43.021 132.624  22.836  1.00  0.00    -0.310 N 
ATOM     24  H   UNL     1      42.573 132.176  23.668  1.00  0.00     0.348 HD
ATOM     25  H   UNL     1      42.367 133.334  22.433  1.00  0.00     0.348 HD
ATOM     26  H   UNL     1      43.890 133.109  23.162  1.00  0.00     0.348 HD
ENDBRANCH   9  23
TORSDOF 4
ENDMDL
MODEL 4
REMARK VINA RESULT:      -5.7      1.758      2.535
REMARK SMILES Cc1ccc(N[C@H]2CC[C@@H]3[N+](C)=NN[C@]3([NH3+])[C@@H]2O)cc1
REMARK SMILES IDX 7 1 8 2 9 3 10 4 11 5 12 6 13 7 14 8 15 9 17 10 6 12 5 14
REMARK SMILES IDX 2 15 3 16 20 17 4 18 19 19 1 20 18 21 16 23
REMARK H PARENT 14 11 6 13 18 22 16 24 16 25 16 26
ROOT
ATOM      1  C   UNL     1      43.446 131.261  19.943  1.00  0.00     0.119 C 
ATOM      2  C   UNL     1      44.838 130.590  20.111  1.00  0.00     0.033 C 
ATOM      3  C   UNL     1      45.517 130.884  21.456  1.00  0.00     0.066 C 
ATOM      4  C   UNL     1      44.564 130.675  22.648  1.00  0.00     0.310 C 
ATOM      5  N   UNL     1      44.154 129.273  22.770  1.00  0.00    -0.158 N 
ATOM      6  C   UNL     1      45.049 128.148  23.012  1.00  0.00     0.320 C 
ATOM      7  N   UNL     1      42.897 129.129  22.725  1.00  0.00     0.083 NA
ATOM      8  N   UNL     1      42.238 130.342  22.558  1.00  0.00    -0.121 N 
ATOM      9  C   UNL     1      43.203 131.433  22.492  1.00  0.00     0.318 C 
ATOM     10  C   UNL     1      43.076 132.182  21.132  1.00  0.00     0.251 C 
ATOM     11  H   UNL     1      41.199 130.437  22.517  1.00  0.00     0.342 HD
ENDROOT
BRANCH   1  12
ATOM     12  N   UNL     1      43.397 132.016  18.682  1.00  0.00    -0.379 N 
ATOM     13  H   UNL     1      42.813 132.883  18.649  1.00  0.00     0.160 HD
BRANCH  12  14
ATOM     14  C   UNL     1      44.100 131.642  17.478  1.00  0.00     0.034 A 
ATOM     15  C   UNL     1      45.532 130.880  15.171  1.00  0.00    -0.051 A 
ATOM     16  C   UNL     1      46.136 130.811  16.434  1.00  0.00     0.005 A 
ATOM     17  C   UNL     1      44.219 131.357  15.062  1.00  0.00     0.005 A 
ATOM     18  C   UNL     1      45.423 131.183  17.577  1.00  0.00     0.026 A 
ATOM     19  C   UNL     1      43.504 131.731  16.204  1.00  0.00     0.026 A 
ATOM     20  C   UNL     1      46.310 130.518  13.940  1.00  0.00     0.044 C 
ENDBRANCH  12  14
ENDBRANCH   1  12
BRANCH  10  21
ATOM     21  O   UNL     1      41.758 132.643  20.956  1.00  0.00    -0.380 OA
ATOM     22  H   UNL     1      41.586 133.321  21.659  1.00  0.00     0.211 HD
ENDBRANCH  10  21
BRANCH   9  23
ATOM     23  N   UNL     1      42.987 132.353  23.619  1.00  0.00    -0.310 N 
ATOM     24  H   UNL     1      43.751 133.065  23.662  1.00  0.00     0.348 HD
ATOM     25  H   UNL     1      42.963 131.820  24.519  1.00  0.00     0.348 HD
ATOM     26  H   UNL     1      42.080 132.862  23.501  1.00  0.00     0.348 HD
ENDBRANCH   9  23
TORSDOF 4
ENDMDL
MODEL 5
REMARK VINA RESULT:      -5.6      1.737      2.361
REMARK SMILES Cc1ccc(N[C@H]2CC[C@@H]3[N+](C)=NN[C@]3([NH3+])[C@@H]2O)cc1
REMARK SMILES IDX 7 1 8 2 9 3 10 4 11 5 12 6 13 7 14 8 15 9 17 10 6 12 5 14
REMARK SMILES IDX 2 15 3 16 20 17 4 18 19 19 1 20 18 21 16 23
REMARK H PARENT 14 11 6 13 18 22 16 24 16 25 16 26
ROOT
ATOM      1  C   UNL     1      43.697 131.297  20.051  1.00  0.00     0.119 C 
ATOM      2  C   UNL     1      45.096 130.910  20.606  1.00  0.00     0.033 C 
ATOM      3  C   UNL     1      45.348 131.370  22.048  1.00  0.00     0.066 C 
ATOM      4  C   UNL     1      44.176 131.021  22.985  1.00  0.00     0.310 C 
ATOM      5  N   UNL     1      44.003 129.572  23.113  1.00  0.00    -0.158 N 
ATOM      6  C   UNL     1      44.992 128.647  23.654  1.00  0.00     0.320 C 
ATOM      7  N   UNL     1      42.845 129.188  22.775  1.00  0.00     0.083 NA
ATOM      8  N   UNL     1      42.046 130.248  22.357  1.00  0.00    -0.121 N 
ATOM      9  C   UNL     1      42.788 131.500  22.442  1.00  0.00     0.318 C 
ATOM     10  C   UNL     1      42.879 132.167  21.038  1.00  0.00     0.251 C 
ATOM     11  H   UNL     1      41.052 130.141  22.057  1.00  0.00     0.342 HD
ENDROOT
BRANCH   1  12
ATOM     12  N   UNL     1      43.836 131.989  18.761  1.00  0.00    -0.379 N 
ATOM     13  H   UNL     1      43.395 132.931  18.656  1.00  0.00     0.160 HD
BRANCH  12  14
ATOM     14  C   UNL     1      44.542 131.455  17.621  1.00  0.00     0.034 A 
ATOM     15  C   UNL     1      45.876 130.457  15.344  1.00  0.00    -0.051 A 
ATOM     16  C   UNL     1      44.716 131.232  15.203  1.00  0.00     0.005 A 
ATOM     17  C   UNL     1      46.351 130.159  16.629  1.00  0.00     0.005 A 
ATOM     18  C   UNL     1      44.060 131.731  16.331  1.00  0.00     0.026 A 
ATOM     19  C   UNL     1      45.695 130.656  17.759  1.00  0.00     0.026 A 
ATOM     20  C   UNL     1      46.557 129.888  14.135  1.00  0.00     0.044 C 
ENDBRANCH  12  14
ENDBRANCH   1  12
BRANCH  10  21
ATOM     21  O   UNL     1      41.589 132.362  20.511  1.00  0.00    -0.380 OA
ATOM     22  H   UNL     1      41.594 133.233  20.034  1.00  0.00     0.211 HD
ENDBRANCH  10  21
BRANCH   9  23
ATOM     23  N   UNL     1      42.133 132.397  23.407  1.00  0.00    -0.310 N 
ATOM     24  H   UNL     1      41.109 132.192  23.460  1.00  0.00     0.348 HD
ATOM     25  H   UNL     1      42.270 133.394  23.121  1.00  0.00     0.348 HD
ATOM     26  H   UNL     1      42.538 132.259  24.362  1.00  0.00     0.348 HD
ENDBRANCH   9  23
TORSDOF 4
ENDMDL
MODEL 6
REMARK VINA RESULT:      -5.5      2.021      2.838
REMARK SMILES Cc1ccc(N[C@H]2CC[C@@H]3[N+](C)=NN[C@]3([NH3+])[C@@H]2O)cc1
REMARK SMILES IDX 7 1 8 2 9 3 10 4 11 5 12 6 13 7 14 8 15 9 17 10 6 12 5 14
REMARK SMILES IDX 2 15 3 16 20 17 4 18 19 19 1 20 18 21 16 23
REMARK H PARENT 14 11 6 13 18 22 16 24 16 25 16 26
ROOT
ATOM      1  C   UNL     1      44.241 131.769  18.852  1.00  0.00     0.119 C 
ATOM      2  C   UNL     1      42.997 131.937  19.768  1.00  0.00     0.033 C 
ATOM      3  C   UNL     1      42.871 130.865  20.858  1.00  0.00     0.066 C 
ATOM      4  C   UNL     1      44.194 130.649  21.619  1.00  0.00     0.310 C 
ATOM      5  N   UNL     1      44.589 131.849  22.361  1.00  0.00    -0.158 N 
ATOM      6  C   UNL     1      43.823 132.469  23.436  1.00  0.00     0.320 C 
ATOM      7  N   UNL     1      45.736 132.269  22.031  1.00  0.00     0.083 NA
ATOM      8  N   UNL     1      46.312 131.485  21.036  1.00  0.00    -0.121 N 
ATOM      9  C   UNL     1      45.415 130.395  20.673  1.00  0.00     0.318 C 
ATOM     10  C   UNL     1      45.046 130.482  19.163  1.00  0.00     0.251 C 
ATOM     11  H   UNL     1      47.264 131.656  20.642  1.00  0.00     0.342 HD
ENDROOT
BRANCH   1  12
ATOM     12  N   UNL     1      43.835 131.784  17.438  1.00  0.00    -0.379 N 
ATOM     13  H   UNL     1      42.841 132.015  17.213  1.00  0.00     0.160 HD
BRANCH  12  14
ATOM     14  C   UNL     1      44.718 131.498  16.333  1.00  0.00     0.034 A 
ATOM     15  C   UNL     1      46.490 131.001  14.195  1.00  0.00    -0.051 A 
ATOM     16  C   UNL     1      46.585 132.189  14.932  1.00  0.00     0.005 A 
ATOM     17  C   UNL     1      45.488 130.074  14.513  1.00  0.00     0.005 A 
ATOM     18  C   UNL     1      45.712 132.431  15.995  1.00  0.00     0.026 A 
ATOM     19  C   UNL     1      44.611 130.314  15.575  1.00  0.00     0.026 A 
ATOM     20  C   UNL     1      47.402 130.758  13.029  1.00  0.00     0.044 C 
ENDBRANCH  12  14
ENDBRANCH   1  12
BRANCH  10  21
ATOM     21  O   UNL     1      46.214 130.477  18.379  1.00  0.00    -0.380 OA
ATOM     22  H   UNL     1      46.162 131.256  17.766  1.00  0.00     0.211 HD
ENDBRANCH  10  21
BRANCH   9  23
ATOM     23  N   UNL     1      46.054 129.107  20.983  1.00  0.00    -0.310 N 
ATOM     24  H   UNL     1      45.980 128.898  22.004  1.00  0.00     0.348 HD
ATOM     25  H   UNL     1      47.063 129.130  20.708  1.00  0.00     0.348 HD
ATOM     26  H   UNL     1      45.578 128.333  20.462  1.00  0.00     0.348 HD
ENDBRANCH   9  23
TORSDOF 4
ENDMDL
MODEL 7
REMARK VINA RESULT:      -5.4      2.022      3.019
REMARK SMILES Cc1ccc(N[C@H]2CC[C@@H]3[N+](C)=NN[C@]3([NH3+])[C@@H]2O)cc1
REMARK SMILES IDX 7 1 8 2 9 3 10 4 11 5 12 6 13 7 14 8 15 9 17 10 6 12 5 14
REMARK SMILES IDX 2 15 3 16 20 17 4 18 19 19 1 20 18 21 16 23
REMARK H PARENT 14 11 6 13 18 22 16 24 16 25 16 26
ROOT
ATOM      1  C   UNL     1      44.252 131.762  18.849  1.00  0.00     0.119 C 
ATOM      2  C   UNL     1      43.004 131.930  19.760  1.00  0.00     0.033 C 
ATOM      3  C   UNL     1      42.875 130.857  20.849  1.00  0.00     0.066 C 
ATOM      4  C   UNL     1      44.194 130.641  21.615  1.00  0.00     0.310 C 
ATOM      5  N   UNL     1      44.587 131.840  22.359  1.00  0.00    -0.158 N 
ATOM      6  C   UNL     1      43.817 132.460  23.431  1.00  0.00     0.320 C 
ATOM      7  N   UNL     1      45.735 132.261  22.033  1.00  0.00     0.083 NA
ATOM      8  N   UNL     1      46.315 131.477  21.040  1.00  0.00    -0.121 N 
ATOM      9  C   UNL     1      45.419 130.387  20.674  1.00  0.00     0.318 C 
ATOM     10  C   UNL     1      45.055 130.475  19.162  1.00  0.00     0.251 C 
ATOM     11  H   UNL     1      47.268 131.648  20.650  1.00  0.00     0.342 HD
ENDROOT
BRANCH   1  12
ATOM     12  N   UNL     1      43.851 131.777  17.433  1.00  0.00    -0.379 N 
ATOM     13  H   UNL     1      42.851 131.978  17.206  1.00  0.00     0.160 HD
BRANCH  12  14
ATOM     14  C   UNL     1      44.747 131.531  16.329  1.00  0.00     0.034 A 
ATOM     15  C   UNL     1      46.454 130.987  14.149  1.00  0.00    -0.051 A 
ATOM     16  C   UNL     1      45.462 130.068  14.519  1.00  0.00     0.005 A 
ATOM     17  C   UNL     1      46.607 132.167  14.890  1.00  0.00     0.005 A 
ATOM     18  C   UNL     1      44.613 130.341  15.595  1.00  0.00     0.026 A 
ATOM     19  C   UNL     1      45.760 132.442  15.968  1.00  0.00     0.026 A 
ATOM     20  C   UNL     1      47.390 130.676  13.019  1.00  0.00     0.044 C 
ENDBRANCH  12  14
ENDBRANCH   1  12
BRANCH  10  21
ATOM     21  O   UNL     1      46.227 130.470  18.382  1.00  0.00    -0.380 OA
ATOM     22  H   UNL     1      45.947 130.495  17.430  1.00  0.00     0.211 HD
ENDBRANCH  10  21
BRANCH   9  23
ATOM     23  N   UNL     1      46.057 129.099  20.985  1.00  0.00    -0.310 N 
ATOM     24  H   UNL     1      45.384 128.312  20.837  1.00  0.00     0.348 HD
ATOM     25  H   UNL     1      46.382 129.089  21.980  1.00  0.00     0.348 HD
ATOM     26  H   UNL     1      46.879 128.941  20.357  1.00  0.00     0.348 HD
ENDBRANCH   9  23
TORSDOF 4
ENDMDL
MODEL 8
REMARK VINA RESULT:      -5.3      2.146      6.280
REMARK SMILES Cc1ccc(N[C@H]2CC[C@@H]3[N+](C)=NN[C@]3([NH3+])[C@@H]2O)cc1
REMARK SMILES IDX 7 1 8 2 9 3 10 4 11 5 12 6 13 7 14 8 15 9 17 10 6 12 5 14
REMARK SMILES IDX 2 15 3 16 20 17 4 18 19 19 1 20 18 21 16 23
REMARK H PARENT 14 11 6 13 18 22 16 24 16 25 16 26
ROOT
ATOM      1  C   UNL     1      45.162 131.775  17.038  1.00  0.00     0.119 C 
ATOM      2  C   UNL     1      46.094 130.561  17.310  1.00  0.00     0.033 C 
ATOM      3  C   UNL     1      45.735 129.303  16.508  1.00  0.00     0.066 C 
ATOM      4  C   UNL     1      45.511 129.607  15.015  1.00  0.00     0.310 C 
ATOM      5  N   UNL     1      46.739 130.085  14.373  1.00  0.00    -0.158 N 
ATOM      6  C   UNL     1      47.980 129.328  14.254  1.00  0.00     0.320 C 
ATOM      7  N   UNL     1      46.597 131.224  13.840  1.00  0.00     0.083 NA
ATOM      8  N   UNL     1      45.313 131.727  14.019  1.00  0.00    -0.121 N 
ATOM      9  C   UNL     1      44.500 130.777  14.768  1.00  0.00     0.318 C 
ATOM     10  C   UNL     1      43.989 131.429  16.086  1.00  0.00     0.251 C 
ATOM     11  H   UNL     1      44.992 132.644  13.636  1.00  0.00     0.342 HD
ENDROOT
BRANCH   1  12
ATOM     12  N   UNL     1      44.645 132.312  18.306  1.00  0.00    -0.379 N 
ATOM     13  H   UNL     1      44.300 133.299  18.319  1.00  0.00     0.160 HD
BRANCH  12  14
ATOM     14  C   UNL     1      44.582 131.569  19.541  1.00  0.00     0.034 A 
ATOM     15  C   UNL     1      44.383 130.136  21.963  1.00  0.00    -0.051 A 
ATOM     16  C   UNL     1      43.347 130.989  21.557  1.00  0.00     0.005 A 
ATOM     17  C   UNL     1      45.531 130.023  21.168  1.00  0.00     0.005 A 
ATOM     18  C   UNL     1      43.444 131.693  20.354  1.00  0.00     0.026 A 
ATOM     19  C   UNL     1      45.631 130.728  19.964  1.00  0.00     0.026 A 
ATOM     20  C   UNL     1      44.295 129.411  23.273  1.00  0.00     0.044 C 
ENDBRANCH  12  14
ENDBRANCH   1  12
BRANCH  10  21
ATOM     21  O   UNL     1      43.276 132.608  15.798  1.00  0.00    -0.380 OA
ATOM     22  H   UNL     1      42.592 132.380  15.117  1.00  0.00     0.211 HD
ENDBRANCH  10  21
BRANCH   9  23
ATOM     23  N   UNL     1      43.375 130.326  13.936  1.00  0.00    -0.310 N 
ATOM     24  H   UNL     1      43.706 130.079  12.975  1.00  0.00     0.348 HD
ATOM     25  H   UNL     1      42.653 131.080  13.868  1.00  0.00     0.348 HD
ATOM     26  H   UNL     1      42.936 129.472  14.353  1.00  0.00     0.348 HD
ENDBRANCH   9  23
TORSDOF 4
ENDMDL
MODEL 9
REMARK VINA RESULT:      -5.3      3.005      4.245
REMARK SMILES Cc1ccc(N[C@H]2CC[C@@H]3[N+](C)=NN[C@]3([NH3+])[C@@H]2O)cc1
REMARK SMILES IDX 7 1 8 2 9 3 10 4 11 5 12 6 13 7 14 8 15 9 17 10 6 12 5 14
REMARK SMILES IDX 2 15 3 16 20 17 4 18 19 19 1 20 18 21 16 23
REMARK H PARENT 14 11 6 13 18 22 16 24 16 25 16 26
ROOT
ATOM      1  C   UNL     1      45.440 130.449  21.217  1.00  0.00     0.119 C 
ATOM      2  C   UNL     1      44.405 131.607  21.171  1.00  0.00     0.033 C 
ATOM      3  C   UNL     1      42.992 131.203  21.613  1.00  0.00     0.066 C 
ATOM      4  C   UNL     1      42.998 130.411  22.934  1.00  0.00     0.310 C 
ATOM      5  N   UNL     1      43.486 131.227  24.048  1.00  0.00    -0.158 N 
ATOM      6  C   UNL     1      42.861 132.451  24.536  1.00  0.00     0.320 C 
ATOM      7  N   UNL     1      44.489 130.714  24.625  1.00  0.00     0.083 NA
ATOM      8  N   UNL     1      44.872 129.514  24.035  1.00  0.00    -0.121 N 
ATOM      9  C   UNL     1      43.987 129.197  22.921  1.00  0.00     0.318 C 
ATOM     10  C   UNL     1      44.803 129.090  21.599  1.00  0.00     0.251 C 
ATOM     11  H   UNL     1      45.665 128.927  24.377  1.00  0.00     0.342 HD
ENDROOT
BRANCH   1  12
ATOM     12  N   UNL     1      46.134 130.338  19.924  1.00  0.00    -0.379 N 
ATOM     13  H   UNL     1      47.130 130.021  19.925  1.00  0.00     0.160 HD
BRANCH  12  14
ATOM     14  C   UNL     1      45.534 130.640  18.647  1.00  0.00     0.034 A 
ATOM     15  C   UNL     1      44.404 131.172  16.118  1.00  0.00    -0.051 A 
ATOM     16  C   UNL     1      45.507 130.314  16.235  1.00  0.00     0.005 A 
ATOM     17  C   UNL     1      43.885 131.784  17.266  1.00  0.00     0.005 A 
ATOM     18  C   UNL     1      46.061 130.046  17.489  1.00  0.00     0.026 A 
ATOM     19  C   UNL     1      44.439 131.519  18.522  1.00  0.00     0.026 A 
ATOM     20  C   UNL     1      43.834 131.490  14.767  1.00  0.00     0.044 C 
ENDBRANCH  12  14
ENDBRANCH   1  12
BRANCH  10  21
ATOM     21  O   UNL     1      45.826 128.133  21.739  1.00  0.00    -0.380 OA
ATOM     22  H   UNL     1      45.439 127.355  22.219  1.00  0.00     0.211 HD
ENDBRANCH  10  21
BRANCH   9  23
ATOM     23  N   UNL     1      43.273 127.942  23.199  1.00  0.00    -0.310 N 
ATOM     24  H   UNL     1      43.827 127.343  23.854  1.00  0.00     0.348 HD
ATOM     25  H   UNL     1      43.109 127.416  22.309  1.00  0.00     0.348 HD
ATOM     26  H   UNL     1      42.350 128.142  23.650  1.00  0.00     0.348 HD
ENDBRANCH   9  23
TORSDOF 4
ENDMDL


