MODEL 1
REMARK VINA RESULT:      -7.2      0.000      0.000
REMARK SMILES CC[N-]C(=O)NCC(=O)n1nc2cc(-c3cnc(F)cc3C)ccc2c1C
REMARK SMILES IDX 7 1 6 2 4 3 5 4 3 6 2 7 1 8 8 9 9 10 10 11 11 12 26 13 12 14
REMARK SMILES IDX 25 15 13 16 24 17 14 18 23 19 27 20 15 21 16 22 21 23 17 24
REMARK SMILES IDX 20 25 18 26 22 27 19 28
REMARK H PARENT 6 5
ROOT
ATOM      1  C   UNL     1      44.634 129.445  23.899  1.00  0.00     0.104 C 
ENDROOT
BRANCH   1   2
ATOM      2  N   UNL     1      44.475 128.364  22.928  1.00  0.00    -0.441 N 
ATOM      3  C   UNL     1      44.475 126.983  23.304  1.00  0.00     0.153 C 
ATOM      4  O   UNL     1      44.566 126.653  24.518  1.00  0.00    -0.299 OA
ATOM      5  H   UNL     1      44.361 128.610  21.919  1.00  0.00     0.025 HD
BRANCH   3   6
ATOM      6  N   UNL     1      44.366 125.979  22.289  1.00  0.00    -0.431 NA
BRANCH   6   7
ATOM      7  C   UNL     1      43.272 125.017  22.220  1.00  0.00     0.000 C 
ATOM      8  C   UNL     1      43.650 123.722  22.930  1.00  0.00     0.003 C 
ENDBRANCH   6   7
ENDBRANCH   3   6
ENDBRANCH   1   2
BRANCH   1   9
ATOM      9  C   UNL     1      44.284 130.764  23.273  1.00  0.00     0.246 C 
ATOM     10  O   UNL     1      43.991 131.735  24.021  1.00  0.00    -0.273 OA
BRANCH   9  11
ATOM     11  N   UNL     1      44.293 130.918  21.841  1.00  0.00    -0.204 N 
ATOM     12  N   UNL     1      45.276 130.451  21.077  1.00  0.00    -0.165 NA
ATOM     13  C   UNL     1      43.361 131.539  21.066  1.00  0.00     0.052 A 
ATOM     14  C   UNL     1      44.971 130.772  19.807  1.00  0.00     0.094 A 
ATOM     15  C   UNL     1      43.786 131.451  19.755  1.00  0.00     0.023 A 
ATOM     16  C   UNL     1      45.712 130.491  18.663  1.00  0.00     0.039 A 
ATOM     17  C   UNL     1      43.250 131.906  18.550  1.00  0.00     0.013 A 
ATOM     18  C   UNL     1      45.198 130.923  17.419  1.00  0.00    -0.014 A 
ATOM     19  C   UNL     1      43.971 131.638  17.373  1.00  0.00     0.009 A 
ATOM     20  C   UNL     1      42.108 132.205  21.557  1.00  0.00     0.067 C 
BRANCH  18  21
ATOM     21  C   UNL     1      45.946 130.658  16.170  1.00  0.00     0.003 A 
ATOM     22  C   UNL     1      46.323 129.339  15.871  1.00  0.00     0.123 A 
ATOM     23  C   UNL     1      46.303 131.689  15.268  1.00  0.00    -0.037 A 
ATOM     24  N   UNL     1      46.986 129.056  14.721  1.00  0.00    -0.228 NA
ATOM     25  C   UNL     1      46.972 131.354  14.081  1.00  0.00     0.064 A 
ATOM     26  C   UNL     1      47.309 130.025  13.825  1.00  0.00     0.213 A 
ATOM     27  C   UNL     1      45.974 133.134  15.537  1.00  0.00     0.045 C 
ATOM     28  F   UNL     1      47.965 129.697  12.686  1.00  0.00    -0.185 F 
ENDBRANCH  18  21
ENDBRANCH   9  11
ENDBRANCH   1   9
TORSDOF 6
ENDMDL
MODEL 2
REMARK VINA RESULT:      -6.9      1.349      1.518
REMARK SMILES CC[N-]C(=O)NCC(=O)n1nc2cc(-c3cnc(F)cc3C)ccc2c1C
REMARK SMILES IDX 7 1 6 2 4 3 5 4 3 6 2 7 1 8 8 9 9 10 10 11 11 12 26 13 12 14
REMARK SMILES IDX 25 15 13 16 24 17 14 18 23 19 27 20 15 21 16 22 21 23 17 24
REMARK SMILES IDX 20 25 18 26 22 27 19 28
REMARK H PARENT 6 5
ROOT
ATOM      1  C   UNL     1      42.836 130.558  23.830  1.00  0.00     0.104 C 
ENDROOT
BRANCH   1   2
ATOM      2  N   UNL     1      43.571 129.296  23.900  1.00  0.00    -0.441 N 
ATOM      3  C   UNL     1      42.927 128.022  23.794  1.00  0.00     0.153 C 
ATOM      4  O   UNL     1      41.686 127.950  23.586  1.00  0.00    -0.299 OA
ATOM      5  H   UNL     1      44.606 129.326  24.036  1.00  0.00     0.025 HD
BRANCH   3   6
ATOM      6  N   UNL     1      43.707 126.829  23.925  1.00  0.00    -0.431 NA
BRANCH   6   7
ATOM      7  C   UNL     1      44.615 126.341  22.892  1.00  0.00     0.000 C 
ATOM      8  C   UNL     1      45.386 127.496  22.265  1.00  0.00     0.003 C 
ENDBRANCH   6   7
ENDBRANCH   3   6
ENDBRANCH   1   2
BRANCH   1   9
ATOM      9  C   UNL     1      43.636 131.587  23.085  1.00  0.00     0.246 C 
ATOM     10  O   UNL     1      44.242 132.478  23.738  1.00  0.00    -0.273 OA
BRANCH   9  11
ATOM     11  N   UNL     1      43.715 131.549  21.647  1.00  0.00    -0.204 N 
ATOM     12  N   UNL     1      44.772 131.063  21.001  1.00  0.00    -0.165 NA
ATOM     13  C   UNL     1      42.787 131.987  20.752  1.00  0.00     0.052 A 
ATOM     14  C   UNL     1      44.518 131.187  19.687  1.00  0.00     0.094 A 
ATOM     15  C   UNL     1      43.292 131.758  19.486  1.00  0.00     0.023 A 
ATOM     16  C   UNL     1      45.340 130.816  18.628  1.00  0.00     0.039 A 
ATOM     17  C   UNL     1      42.795 132.005  18.207  1.00  0.00     0.013 A 
ATOM     18  C   UNL     1      44.869 131.037  17.314  1.00  0.00    -0.014 A 
ATOM     19  C   UNL     1      43.599 131.640  17.112  1.00  0.00     0.009 A 
ATOM     20  C   UNL     1      41.465 132.611  21.088  1.00  0.00     0.067 C 
BRANCH  18  21
ATOM     21  C   UNL     1      45.704 130.668  16.150  1.00  0.00     0.003 A 
ATOM     22  C   UNL     1      46.793 129.803  16.342  1.00  0.00     0.123 A 
ATOM     23  C   UNL     1      45.449 131.162  14.847  1.00  0.00    -0.037 A 
ATOM     24  N   UNL     1      47.564 129.422  15.291  1.00  0.00    -0.228 NA
ATOM     25  C   UNL     1      46.257 130.730  13.785  1.00  0.00     0.064 A 
ATOM     26  C   UNL     1      47.318 129.857  14.029  1.00  0.00     0.213 A 
ATOM     27  C   UNL     1      44.328 132.127  14.566  1.00  0.00     0.045 C 
ATOM     28  F   UNL     1      48.107 129.445  13.008  1.00  0.00    -0.185 F 
ENDBRANCH  18  21
ENDBRANCH   9  11
ENDBRANCH   1   9
TORSDOF 6
ENDMDL
MODEL 3
REMARK VINA RESULT:      -5.0      2.782      4.453
REMARK SMILES CC[N-]C(=O)NCC(=O)n1nc2cc(-c3cnc(F)cc3C)ccc2c1C
REMARK SMILES IDX 7 1 6 2 4 3 5 4 3 6 2 7 1 8 8 9 9 10 10 11 11 12 26 13 12 14
REMARK SMILES IDX 25 15 13 16 24 17 14 18 23 19 27 20 15 21 16 22 21 23 17 24
REMARK SMILES IDX 20 25 18 26 22 27 19 28
REMARK H PARENT 6 5
ROOT
ATOM      1  C   UNL     1      44.719 132.621  23.504  1.00  0.00     0.104 C 
ENDROOT
BRANCH   1   2
ATOM      2  N   UNL     1      45.996 132.851  22.832  1.00  0.00    -0.441 N 
ATOM      3  C   UNL     1      47.049 133.622  23.420  1.00  0.00     0.153 C 
ATOM      4  O   UNL     1      46.919 134.096  24.582  1.00  0.00    -0.299 OA
ATOM      5  H   UNL     1      46.145 132.440  21.883  1.00  0.00     0.025 HD
BRANCH   3   6
ATOM      6  N   UNL     1      48.252 133.848  22.679  1.00  0.00    -0.431 NA
BRANCH   6   7
ATOM      7  C   UNL     1      49.022 135.086  22.747  1.00  0.00     0.000 C 
ATOM      8  C   UNL     1      50.232 134.916  23.659  1.00  0.00     0.003 C 
ENDBRANCH   6   7
ENDBRANCH   3   6
ENDBRANCH   1   2
BRANCH   1   9
ATOM      9  C   UNL     1      43.898 131.625  22.736  1.00  0.00     0.246 C 
ATOM     10  O   UNL     1      43.114 130.866  23.367  1.00  0.00    -0.273 OA
BRANCH   9  11
ATOM     11  N   UNL     1      43.998 131.548  21.302  1.00  0.00    -0.204 N 
ATOM     12  N   UNL     1      45.082 131.087  20.684  1.00  0.00    -0.165 NA
ATOM     13  C   UNL     1      43.065 131.920  20.382  1.00  0.00     0.052 A 
ATOM     14  C   UNL     1      44.841 131.161  19.363  1.00  0.00     0.094 A 
ATOM     15  C   UNL     1      43.596 131.675  19.130  1.00  0.00     0.023 A 
ATOM     16  C   UNL     1      45.692 130.793  18.326  1.00  0.00     0.039 A 
ATOM     17  C   UNL     1      43.106 131.863  17.838  1.00  0.00     0.013 A 
ATOM     18  C   UNL     1      45.230 130.955  17.000  1.00  0.00    -0.014 A 
ATOM     19  C   UNL     1      43.939 131.499  16.765  1.00  0.00     0.009 A 
ATOM     20  C   UNL     1      41.714 132.500  20.682  1.00  0.00     0.067 C 
BRANCH  18  21
ATOM     21  C   UNL     1      46.095 130.586  15.858  1.00  0.00     0.003 A 
ATOM     22  C   UNL     1      46.475 129.243  15.699  1.00  0.00     0.123 A 
ATOM     23  C   UNL     1      46.562 131.541  14.922  1.00  0.00    -0.037 A 
ATOM     24  N   UNL     1      47.245 128.866  14.647  1.00  0.00    -0.228 NA
ATOM     25  C   UNL     1      47.341 131.108  13.838  1.00  0.00     0.064 A 
ATOM     26  C   UNL     1      47.676 129.758  13.719  1.00  0.00     0.213 A 
ATOM     27  C   UNL     1      46.236 133.005  15.046  1.00  0.00     0.045 C 
ATOM     28  F   UNL     1      48.437 129.337  12.680  1.00  0.00    -0.185 F 
ENDBRANCH  18  21
ENDBRANCH   9  11
ENDBRANCH   1   9
TORSDOF 6
ENDMDL
MODEL 4
REMARK VINA RESULT:      -4.5      1.686      2.189
REMARK SMILES CC[N-]C(=O)NCC(=O)n1nc2cc(-c3cnc(F)cc3C)ccc2c1C
REMARK SMILES IDX 7 1 6 2 4 3 5 4 3 6 2 7 1 8 8 9 9 10 10 11 11 12 26 13 12 14
REMARK SMILES IDX 25 15 13 16 24 17 14 18 23 19 27 20 15 21 16 22 21 23 17 24
REMARK SMILES IDX 20 25 18 26 22 27 19 28
REMARK H PARENT 6 5
ROOT
ATOM      1  C   UNL     1      42.679 130.321  22.561  1.00  0.00     0.104 C 
ENDROOT
BRANCH   1   2
ATOM      2  N   UNL     1      43.321 129.389  23.486  1.00  0.00    -0.441 N 
ATOM      3  C   UNL     1      44.478 128.624  23.131  1.00  0.00     0.153 C 
ATOM      4  O   UNL     1      45.016 128.771  22.000  1.00  0.00    -0.299 OA
ATOM      5  H   UNL     1      42.918 129.275  24.443  1.00  0.00     0.025 HD
BRANCH   3   6
ATOM      6  N   UNL     1      45.020 127.693  24.073  1.00  0.00    -0.431 NA
BRANCH   6   7
ATOM      7  C   UNL     1      44.269 126.570  24.622  1.00  0.00     0.000 C 
ATOM      8  C   UNL     1      42.775 126.871  24.619  1.00  0.00     0.003 C 
ENDBRANCH   6   7
ENDBRANCH   3   6
ENDBRANCH   1   2
BRANCH   1   9
ATOM      9  C   UNL     1      43.694 131.261  21.978  1.00  0.00     0.246 C 
ATOM     10  O   UNL     1      44.382 131.974  22.755  1.00  0.00    -0.273 OA
BRANCH   9  11
ATOM     11  N   UNL     1      43.882 131.338  20.552  1.00  0.00    -0.204 N 
ATOM     12  N   UNL     1      44.936 130.807  19.939  1.00  0.00    -0.165 NA
ATOM     13  C   UNL     1      43.071 131.939  19.638  1.00  0.00     0.052 A 
ATOM     14  C   UNL     1      44.799 131.066  18.627  1.00  0.00     0.094 A 
ATOM     15  C   UNL     1      43.650 131.770  18.395  1.00  0.00     0.023 A 
ATOM     16  C   UNL     1      45.664 130.707  17.598  1.00  0.00     0.039 A 
ATOM     17  C   UNL     1      43.280 132.174  17.112  1.00  0.00     0.013 A 
ATOM     18  C   UNL     1      45.320 131.084  16.281  1.00  0.00    -0.014 A 
ATOM     19  C   UNL     1      44.131 131.825  16.047  1.00  0.00     0.009 A 
ATOM     20  C   UNL     1      41.790 132.661  19.936  1.00  0.00     0.067 C 
BRANCH  18  21
ATOM     21  C   UNL     1      46.206 130.735  15.149  1.00  0.00     0.003 A 
ATOM     22  C   UNL     1      46.812 131.768  14.416  1.00  0.00     0.123 A 
ATOM     23  C   UNL     1      46.459 129.394  14.771  1.00  0.00    -0.037 A 
ATOM     24  N   UNL     1      47.653 131.483  13.390  1.00  0.00    -0.228 NA
ATOM     25  C   UNL     1      47.348 129.140  13.716  1.00  0.00     0.064 A 
ATOM     26  C   UNL     1      47.937 130.204  13.031  1.00  0.00     0.213 A 
ATOM     27  C   UNL     1      45.814 128.231  15.477  1.00  0.00     0.045 C 
ATOM     28  F   UNL     1      48.787 129.964  12.005  1.00  0.00    -0.185 F 
ENDBRANCH  18  21
ENDBRANCH   9  11
ENDBRANCH   1   9
TORSDOF 6
ENDMDL


