REMARK SMILES Cc1cc(N(N)C(=O)O[C@H]2CS(=O)(=O)C[C@@H]2Cl)c([O-])c(-n2nc3ccccc3n2)c1
REMARK SMILES IDX 7 1 8 2 5 3 4 4 2 5 3 6 30 7 20 8 18 9 1 10 19 11 21 12
REMARK SMILES IDX 22 13 29 14 23 15 28 16 24 17 27 18 25 19 26 20 6 21 9 24
REMARK SMILES IDX 10 25 11 26 16 27 12 28 15 29 17 30 13 31 14 32
REMARK H PARENT 6 22 6 23
ROOT
ATOM      1  C   UNL     1      -2.130   1.338  -1.872  1.00  0.00     0.429 C 
ATOM      2  O   UNL     1      -2.938   2.021  -2.559  1.00  0.00    -0.222 OA
ENDROOT
BRANCH   1   3
ATOM      3  N   UNL     1      -2.491   0.012  -1.444  1.00  0.00    -0.214 N 
BRANCH   3   4
ATOM      4  C   UNL     1      -1.571  -0.780  -0.674  1.00  0.00     0.059 A 
ATOM      5  C   UNL     1      -0.281  -2.826  -0.422  1.00  0.00    -0.047 A 
ATOM      6  C   UNL     1      -1.188  -2.042  -1.144  1.00  0.00     0.031 A 
ATOM      7  C   UNL     1       0.273  -2.326   0.764  1.00  0.00     0.033 A 
ATOM      8  C   UNL     1      -0.105  -1.067   1.264  1.00  0.00     0.080 A 
ATOM      9  C   UNL     1      -1.055  -0.305   0.547  1.00  0.00    -0.054 A 
ATOM     10  C   UNL     1       0.163  -4.155  -0.960  1.00  0.00     0.044 C 
ATOM     11  O   UNL     1      -1.508   0.911   1.050  1.00  0.00    -0.870 OA
BRANCH   8  12
ATOM     12  N   UNL     1       0.484  -0.579   2.488  1.00  0.00    -0.151 N 
ATOM     13  N   UNL     1       0.369   0.676   2.924  1.00  0.00    -0.148 NA
ATOM     14  N   UNL     1       1.232  -1.334   3.294  1.00  0.00    -0.148 NA
ATOM     15  C   UNL     1       1.073   0.714   4.064  1.00  0.00     0.113 A 
ATOM     16  C   UNL     1       1.602  -0.517   4.291  1.00  0.00     0.113 A 
ATOM     17  C   UNL     1       1.285   1.784   4.927  1.00  0.00     0.032 A 
ATOM     18  C   UNL     1       2.392  -0.793   5.402  1.00  0.00     0.032 A 
ATOM     19  C   UNL     1       2.080   1.547   6.067  1.00  0.00     0.002 A 
ATOM     20  C   UNL     1       2.631   0.264   6.303  1.00  0.00     0.002 A 
ENDBRANCH   8  12
ENDBRANCH   3   4
BRANCH   3  21
ATOM     21  N   UNL     1      -3.669  -0.590  -1.919  1.00  0.00    -0.238 NA
ATOM     22  H   UNL     1      -3.603  -0.642  -2.961  1.00  0.00     0.144 HD
ATOM     23  H   UNL     1      -4.471   0.036  -1.678  1.00  0.00     0.144 HD
ENDBRANCH   3  21
ENDBRANCH   1   3
BRANCH   1  24
ATOM     24  O   UNL     1      -0.874   1.859  -1.537  1.00  0.00    -0.442 OA
BRANCH  24  25
ATOM     25  C   UNL     1      -0.394   3.128  -1.980  1.00  0.00     0.212 C 
ATOM     26  C   UNL     1       0.799   3.528  -1.111  1.00  0.00     0.183 C 
ATOM     27  C   UNL     1       0.097   3.019  -3.440  1.00  0.00     0.138 C 
ATOM     28  S   UNL     1       2.207   2.796  -1.888  1.00  0.00     0.155 S 
ATOM     29  C   UNL     1       1.475   2.352  -3.435  1.00  0.00     0.160 C 
ATOM     30  Cl  UNL     1       0.199   4.648  -4.175  1.00  0.00    -0.118 Cl
ATOM     31  O   UNL     1       3.321   3.790  -2.064  1.00  0.00    -0.229 OA
ATOM     32  O   UNL     1       2.685   1.585  -1.136  1.00  0.00    -0.229 OA
ENDBRANCH  24  25
ENDBRANCH   1  24
TORSDOF 6


