REMARK SMILES CC(=O)c1cc(-c2ccc(C)cc2)c(C(=O)N[C@@H]2C=CCC2)c(F)c1[O-]
REMARK SMILES IDX 4 1 5 2 6 3 14 4 23 5 24 6 25 7 26 8 2 9 1 10 3 11 7 12 8 13
REMARK SMILES IDX 13 14 9 15 12 16 10 17 11 18 15 19 17 20 16 21 18 23 19 24
REMARK SMILES IDX 22 25 20 26 21 27
REMARK H PARENT 17 22
ROOT
ATOM      1  C   UNL     1       3.239   2.030   0.185  1.00  0.00     0.013 A 
ATOM      2  C   UNL     1       2.350   1.325   1.017  1.00  0.00     0.021 A 
ATOM      3  C   UNL     1       1.203   0.703   0.499  1.00  0.00    -0.002 A 
ATOM      4  C   UNL     1       0.914   0.809  -0.883  1.00  0.00     0.082 A 
ATOM      5  C   UNL     1       1.810   1.497  -1.719  1.00  0.00     0.129 A 
ATOM      6  F   UNL     1       1.556   1.614  -3.048  1.00  0.00    -0.207 F 
ATOM      7  C   UNL     1       2.958   2.100  -1.196  1.00  0.00    -0.060 A 
ATOM      8  O   UNL     1       3.817   2.764  -2.067  1.00  0.00    -0.870 OA
ENDROOT
BRANCH   1   9
ATOM      9  C   UNL     1       4.451   2.683   0.761  1.00  0.00     0.159 C 
ATOM     10  C   UNL     1       4.957   2.339   2.130  1.00  0.00     0.093 C 
ATOM     11  O   UNL     1       5.063   3.569   0.106  1.00  0.00    -0.295 OA
ENDBRANCH   1   9
BRANCH   3  12
ATOM     12  C   UNL     1       0.359  -0.094   1.418  1.00  0.00    -0.017 A 
ATOM     13  C   UNL     1       0.151  -1.462   1.185  1.00  0.00     0.009 A 
ATOM     14  C   UNL     1      -0.237   0.512   2.535  1.00  0.00     0.009 A 
ATOM     15  C   UNL     1      -0.668  -2.207   2.037  1.00  0.00     0.004 A 
ATOM     16  C   UNL     1      -1.061  -0.233   3.385  1.00  0.00     0.004 A 
ATOM     17  C   UNL     1      -1.298  -1.591   3.128  1.00  0.00    -0.051 A 
ATOM     18  C   UNL     1      -2.163  -2.396   4.052  1.00  0.00     0.044 C 
ENDBRANCH   3  12
BRANCH   4  19
ATOM     19  C   UNL     1      -0.328   0.246  -1.468  1.00  0.00     0.255 C 
ATOM     20  N   UNL     1      -1.594   0.439  -0.818  1.00  0.00    -0.346 N 
ATOM     21  O   UNL     1      -0.271  -0.381  -2.561  1.00  0.00    -0.269 OA
ATOM     22  H   UNL     1      -1.641   1.099  -0.008  1.00  0.00     0.164 HD
BRANCH  20  23
ATOM     23  C   UNL     1      -2.829  -0.170  -1.319  1.00  0.00     0.105 C 
ATOM     24  C   UNL     1      -4.002   0.307  -0.533  1.00  0.00    -0.007 C 
ATOM     25  C   UNL     1      -2.834  -1.694  -1.101  1.00  0.00     0.033 C 
ATOM     26  C   UNL     1      -4.569  -0.661   0.165  1.00  0.00    -0.029 C 
ATOM     27  C   UNL     1      -3.893  -1.969  -0.030  1.00  0.00     0.029 C 
ENDBRANCH  20  23
ENDBRANCH   4  19
TORSDOF 4


