MODEL 1
REMARK VINA RESULT:      -6.6      0.000      0.000
REMARK SMILES CC(=O)c1nc(N2CC[C@H](C)[C@H](c3cc4cc(F)ccc4[nH]3)[C@H]2F)c[nH]1
REMARK SMILES IDX 7 1 8 2 9 3 10 4 11 5 12 6 23 7 24 8 6 9 4 10 26 11 5 12
REMARK SMILES IDX 25 13 2 15 1 16 3 17 13 18 14 19 22 20 15 21 21 22 16 23
REMARK SMILES IDX 20 24 17 25 19 26 18 28
REMARK H PARENT 26 14 22 27
ROOT
ATOM      1  N   UNL     1      44.648 131.696  20.334  1.00  0.00    -0.325 N 
ATOM      2  C   UNL     1      45.490 132.659  21.059  1.00  0.00     0.121 C 
ATOM      3  C   UNL     1      45.516 132.342  22.555  1.00  0.00     0.026 C 
ATOM      4  C   UNL     1      44.088 132.222  23.114  1.00  0.00     0.001 C 
ATOM      5  C   UNL     1      44.113 131.947  24.625  1.00  0.00     0.008 C 
ATOM      6  C   UNL     1      43.259 131.169  22.333  1.00  0.00     0.094 C 
ATOM      7  C   UNL     1      43.277 131.460  20.817  1.00  0.00     0.273 C 
ATOM      8  F   UNL     1      42.502 132.575  20.545  1.00  0.00    -0.223 F 
ENDROOT
BRANCH   1   9
ATOM      9  C   UNL     1      45.060 131.238  19.028  1.00  0.00     0.149 A 
ATOM     10  C   UNL     1      45.303 131.102  16.922  1.00  0.00     0.175 A 
ATOM     11  N   UNL     1      46.008 130.067  17.424  1.00  0.00    -0.340 N 
ATOM     12  N   UNL     1      44.705 131.845  17.877  1.00  0.00    -0.208 NA
ATOM     13  C   UNL     1      45.860 130.145  18.755  1.00  0.00     0.131 A 
ATOM     14  H   UNL     1      46.552 129.345  16.900  1.00  0.00     0.168 HD
BRANCH  10  15
ATOM     15  C   UNL     1      45.187 131.403  15.485  1.00  0.00     0.195 C 
ATOM     16  C   UNL     1      46.400 131.499  14.614  1.00  0.00     0.097 C 
ATOM     17  O   UNL     1      44.047 131.582  14.979  1.00  0.00    -0.291 OA
ENDBRANCH  10  15
ENDBRANCH   1   9
BRANCH   6  18
ATOM     18  C   UNL     1      43.674 129.741  22.637  1.00  0.00     0.024 A 
ATOM     19  C   UNL     1      42.949 128.800  23.373  1.00  0.00     0.032 A 
ATOM     20  N   UNL     1      44.816 129.191  22.156  1.00  0.00    -0.358 N 
ATOM     21  C   UNL     1      43.703 127.649  23.327  1.00  0.00     0.003 A 
ATOM     22  C   UNL     1      44.822 127.920  22.586  1.00  0.00     0.046 A 
ATOM     23  C   UNL     1      43.472 126.391  23.880  1.00  0.00     0.049 A 
ATOM     24  C   UNL     1      45.792 126.948  22.343  1.00  0.00     0.029 A 
ATOM     25  C   UNL     1      44.435 125.389  23.655  1.00  0.00     0.123 A 
ATOM     26  C   UNL     1      45.590 125.667  22.889  1.00  0.00     0.041 A 
ATOM     27  H   UNL     1      45.538 129.657  21.562  1.00  0.00     0.166 HD
ATOM     28  F   UNL     1      44.252 124.151  24.174  1.00  0.00    -0.207 F 
ENDBRANCH   6  18
TORSDOF 3
ENDMDL
MODEL 2
REMARK VINA RESULT:      -6.6      0.757      1.264
REMARK SMILES CC(=O)c1nc(N2CC[C@H](C)[C@H](c3cc4cc(F)ccc4[nH]3)[C@H]2F)c[nH]1
REMARK SMILES IDX 7 1 8 2 9 3 10 4 11 5 12 6 23 7 24 8 6 9 4 10 26 11 5 12
REMARK SMILES IDX 25 13 2 15 1 16 3 17 13 18 14 19 22 20 15 21 21 22 16 23
REMARK SMILES IDX 20 24 17 25 19 26 18 28
REMARK H PARENT 26 14 22 27
ROOT
ATOM      1  N   UNL     1      44.502 131.678  20.327  1.00  0.00    -0.325 N 
ATOM      2  C   UNL     1      45.354 132.635  21.050  1.00  0.00     0.121 C 
ATOM      3  C   UNL     1      45.393 132.309  22.544  1.00  0.00     0.026 C 
ATOM      4  C   UNL     1      43.971 132.190  23.116  1.00  0.00     0.001 C 
ATOM      5  C   UNL     1      44.010 131.907  24.625  1.00  0.00     0.008 C 
ATOM      6  C   UNL     1      43.131 131.144  22.337  1.00  0.00     0.094 C 
ATOM      7  C   UNL     1      43.135 131.444  20.823  1.00  0.00     0.273 C 
ATOM      8  F   UNL     1      42.361 132.563  20.565  1.00  0.00    -0.223 F 
ENDROOT
BRANCH   1   9
ATOM      9  C   UNL     1      44.900 131.227  19.015  1.00  0.00     0.149 A 
ATOM     10  C   UNL     1      45.003 130.998  16.905  1.00  0.00     0.175 A 
ATOM     11  N   UNL     1      45.948 130.169  17.395  1.00  0.00    -0.340 N 
ATOM     12  N   UNL     1      44.335 131.665  17.871  1.00  0.00    -0.208 NA
ATOM     13  C   UNL     1      45.890 130.307  18.728  1.00  0.00     0.131 A 
ATOM     14  H   UNL     1      46.591 129.542  16.862  1.00  0.00     0.168 HD
BRANCH  10  15
ATOM     15  C   UNL     1      44.714 131.167  15.471  1.00  0.00     0.195 C 
ATOM     16  C   UNL     1      45.681 130.704  14.428  1.00  0.00     0.097 C 
ATOM     17  O   UNL     1      43.634 131.711  15.115  1.00  0.00    -0.291 OA
ENDBRANCH  10  15
ENDBRANCH   1   9
BRANCH   6  18
ATOM     18  C   UNL     1      43.543 129.713  22.629  1.00  0.00     0.024 A 
ATOM     19  C   UNL     1      44.749 129.103  22.271  1.00  0.00     0.032 A 
ATOM     20  N   UNL     1      42.772 128.859  23.345  1.00  0.00    -0.358 N 
ATOM     21  C   UNL     1      44.678 127.833  22.797  1.00  0.00     0.003 A 
ATOM     22  C   UNL     1      43.473 127.719  23.437  1.00  0.00     0.046 A 
ATOM     23  C   UNL     1      45.593 126.783  22.757  1.00  0.00     0.049 A 
ATOM     24  C   UNL     1      43.098 126.544  24.088  1.00  0.00     0.029 A 
ATOM     25  C   UNL     1      45.242 125.582  23.402  1.00  0.00     0.123 A 
ATOM     26  C   UNL     1      43.999 125.464  24.065  1.00  0.00     0.041 A 
ATOM     27  H   UNL     1      41.830 129.053  23.754  1.00  0.00     0.166 HD
ATOM     28  F   UNL     1      46.102 124.534  23.389  1.00  0.00    -0.207 F 
ENDBRANCH   6  18
TORSDOF 3
ENDMDL
MODEL 3
REMARK VINA RESULT:      -6.2      1.245      1.722
REMARK SMILES CC(=O)c1nc(N2CC[C@H](C)[C@H](c3cc4cc(F)ccc4[nH]3)[C@H]2F)c[nH]1
REMARK SMILES IDX 7 1 8 2 9 3 10 4 11 5 12 6 23 7 24 8 6 9 4 10 26 11 5 12
REMARK SMILES IDX 25 13 2 15 1 16 3 17 13 18 14 19 22 20 15 21 21 22 16 23
REMARK SMILES IDX 20 24 17 25 19 26 18 28
REMARK H PARENT 26 14 22 27
ROOT
ATOM      1  N   UNL     1      44.182 131.897  20.314  1.00  0.00    -0.325 N 
ATOM      2  C   UNL     1      45.157 132.801  20.944  1.00  0.00     0.121 C 
ATOM      3  C   UNL     1      45.498 132.332  22.360  1.00  0.00     0.026 C 
ATOM      4  C   UNL     1      44.220 132.121  23.189  1.00  0.00     0.001 C 
ATOM      5  C   UNL     1      44.564 131.693  24.624  1.00  0.00     0.008 C 
ATOM      6  C   UNL     1      43.247 131.134  22.493  1.00  0.00     0.094 C 
ATOM      7  C   UNL     1      42.945 131.581  21.046  1.00  0.00     0.273 C 
ATOM      8  F   UNL     1      42.128 132.699  21.062  1.00  0.00    -0.223 F 
ENDROOT
BRANCH   1   9
ATOM      9  C   UNL     1      44.311 131.587  18.910  1.00  0.00     0.149 A 
ATOM     10  C   UNL     1      45.138 131.023  17.036  1.00  0.00     0.175 A 
ATOM     11  N   UNL     1      43.833 131.261  16.787  1.00  0.00    -0.340 N 
ATOM     12  N   UNL     1      45.470 131.214  18.330  1.00  0.00    -0.208 NA
ATOM     13  C   UNL     1      43.303 131.619  17.966  1.00  0.00     0.131 A 
ATOM     14  H   UNL     1      43.331 131.192  15.874  1.00  0.00     0.168 HD
BRANCH  10  15
ATOM     15  C   UNL     1      46.111 130.601  16.014  1.00  0.00     0.195 C 
ATOM     16  C   UNL     1      46.300 131.386  14.756  1.00  0.00     0.097 C 
ATOM     17  O   UNL     1      46.797 129.560  16.203  1.00  0.00    -0.291 OA
ENDBRANCH  10  15
ENDBRANCH   1   9
BRANCH   6  18
ATOM     18  C   UNL     1      43.719 129.693  22.550  1.00  0.00     0.024 A 
ATOM     19  C   UNL     1      44.883 129.172  21.979  1.00  0.00     0.032 A 
ATOM     20  N   UNL     1      43.056 128.732  23.239  1.00  0.00    -0.358 N 
ATOM     21  C   UNL     1      44.900 127.845  22.345  1.00  0.00     0.003 A 
ATOM     22  C   UNL     1      43.784 127.613  23.103  1.00  0.00     0.046 A 
ATOM     23  C   UNL     1      45.823 126.840  22.065  1.00  0.00     0.049 A 
ATOM     24  C   UNL     1      43.512 126.355  23.639  1.00  0.00     0.029 A 
ATOM     25  C   UNL     1      45.575 125.557  22.590  1.00  0.00     0.123 A 
ATOM     26  C   UNL     1      44.424 125.317  23.374  1.00  0.00     0.041 A 
ATOM     27  H   UNL     1      42.166 128.842  23.777  1.00  0.00     0.166 HD
ATOM     28  F   UNL     1      46.446 124.549  22.343  1.00  0.00    -0.207 F 
ENDBRANCH   6  18
TORSDOF 3
ENDMDL
MODEL 4
REMARK VINA RESULT:      -5.7      1.008      1.171
REMARK SMILES CC(=O)c1nc(N2CC[C@H](C)[C@H](c3cc4cc(F)ccc4[nH]3)[C@H]2F)c[nH]1
REMARK SMILES IDX 7 1 8 2 9 3 10 4 11 5 12 6 23 7 24 8 6 9 4 10 26 11 5 12
REMARK SMILES IDX 25 13 2 15 1 16 3 17 13 18 14 19 22 20 15 21 21 22 16 23
REMARK SMILES IDX 20 24 17 25 19 26 18 28
REMARK H PARENT 26 14 22 27
ROOT
ATOM      1  N   UNL     1      44.145 131.952  20.313  1.00  0.00    -0.325 N 
ATOM      2  C   UNL     1      45.143 132.860  20.898  1.00  0.00     0.121 C 
ATOM      3  C   UNL     1      45.488 132.441  22.329  1.00  0.00     0.026 C 
ATOM      4  C   UNL     1      44.214 132.290  23.177  1.00  0.00     0.001 C 
ATOM      5  C   UNL     1      44.562 131.913  24.624  1.00  0.00     0.008 C 
ATOM      6  C   UNL     1      43.215 131.296  22.529  1.00  0.00     0.094 C 
ATOM      7  C   UNL     1      42.908 131.690  21.068  1.00  0.00     0.273 C 
ATOM      8  F   UNL     1      42.114 132.824  21.045  1.00  0.00    -0.223 F 
ENDROOT
BRANCH   1   9
ATOM      9  C   UNL     1      44.255 131.583  18.922  1.00  0.00     0.149 A 
ATOM     10  C   UNL     1      45.059 130.953  17.059  1.00  0.00     0.175 A 
ATOM     11  N   UNL     1      43.746 131.155  16.824  1.00  0.00    -0.340 N 
ATOM     12  N   UNL     1      45.411 131.206  18.337  1.00  0.00    -0.208 NA
ATOM     13  C   UNL     1      43.230 131.555  17.996  1.00  0.00     0.131 A 
ATOM     14  H   UNL     1      43.229 131.038  15.924  1.00  0.00     0.168 HD
BRANCH  10  15
ATOM     15  C   UNL     1      46.022 130.505  16.039  1.00  0.00     0.195 C 
ATOM     16  C   UNL     1      46.476 131.423  14.948  1.00  0.00     0.097 C 
ATOM     17  O   UNL     1      46.472 129.328  16.084  1.00  0.00    -0.291 OA
ENDBRANCH  10  15
ENDBRANCH   1   9
BRANCH   6  18
ATOM     18  C   UNL     1      43.658 129.849  22.640  1.00  0.00     0.024 A 
ATOM     19  C   UNL     1      42.956 128.805  23.249  1.00  0.00     0.032 A 
ATOM     20  N   UNL     1      44.808 129.389  22.087  1.00  0.00    -0.358 N 
ATOM     21  C   UNL     1      43.732 127.685  23.049  1.00  0.00     0.003 A 
ATOM     22  C   UNL     1      44.841 128.073  22.346  1.00  0.00     0.046 A 
ATOM     23  C   UNL     1      43.528 126.361  23.432  1.00  0.00     0.049 A 
ATOM     24  C   UNL     1      45.827 127.161  21.973  1.00  0.00     0.029 A 
ATOM     25  C   UNL     1      44.508 125.417  23.074  1.00  0.00     0.123 A 
ATOM     26  C   UNL     1      45.653 125.815  22.346  1.00  0.00     0.041 A 
ATOM     27  H   UNL     1      45.518 129.944  21.557  1.00  0.00     0.166 HD
ATOM     28  F   UNL     1      44.351 124.117  23.426  1.00  0.00    -0.207 F 
ENDBRANCH   6  18
TORSDOF 3
ENDMDL
MODEL 5
REMARK VINA RESULT:      -5.5      2.924      6.530
REMARK SMILES CC(=O)c1nc(N2CC[C@H](C)[C@H](c3cc4cc(F)ccc4[nH]3)[C@H]2F)c[nH]1
REMARK SMILES IDX 7 1 8 2 9 3 10 4 11 5 12 6 23 7 24 8 6 9 4 10 26 11 5 12
REMARK SMILES IDX 25 13 2 15 1 16 3 17 13 18 14 19 22 20 15 21 21 22 16 23
REMARK SMILES IDX 20 24 17 25 19 26 18 28
REMARK H PARENT 26 14 22 27
ROOT
ATOM      1  N   UNL     1      44.036 128.500  23.121  1.00  0.00    -0.325 N 
ATOM      2  C   UNL     1      42.639 128.583  23.577  1.00  0.00     0.121 C 
ATOM      3  C   UNL     1      41.943 129.806  22.977  1.00  0.00     0.026 C 
ATOM      4  C   UNL     1      42.758 131.083  23.238  1.00  0.00     0.001 C 
ATOM      5  C   UNL     1      42.037 132.317  22.675  1.00  0.00     0.008 C 
ATOM      6  C   UNL     1      44.209 130.950  22.706  1.00  0.00     0.094 C 
ATOM      7  C   UNL     1      44.894 129.687  23.271  1.00  0.00     0.273 C 
ATOM      8  F   UNL     1      45.182 129.871  24.614  1.00  0.00    -0.223 F 
ENDROOT
BRANCH   1   9
ATOM      9  C   UNL     1      44.606 127.208  22.822  1.00  0.00     0.149 A 
ATOM     10  C   UNL     1      46.001 125.684  22.325  1.00  0.00     0.175 A 
ATOM     11  N   UNL     1      44.823 125.045  22.480  1.00  0.00    -0.340 N 
ATOM     12  N   UNL     1      45.908 127.016  22.526  1.00  0.00    -0.208 NA
ATOM     13  C   UNL     1      43.935 126.000  22.794  1.00  0.00     0.131 A 
ATOM     14  H   UNL     1      44.627 124.025  22.374  1.00  0.00     0.168 HD
BRANCH  10  15
ATOM     15  C   UNL     1      47.264 125.015  21.971  1.00  0.00     0.195 C 
ATOM     16  C   UNL     1      48.524 125.293  22.728  1.00  0.00     0.097 C 
ATOM     17  O   UNL     1      47.286 124.195  21.015  1.00  0.00    -0.291 OA
ENDBRANCH  10  15
ENDBRANCH   1   9
BRANCH   6  18
ATOM     18  C   UNL     1      44.296 131.007  21.192  1.00  0.00     0.024 A 
ATOM     19  C   UNL     1      43.349 131.554  20.322  1.00  0.00     0.032 A 
ATOM     20  N   UNL     1      45.375 130.564  20.503  1.00  0.00    -0.358 N 
ATOM     21  C   UNL     1      43.895 131.418  19.066  1.00  0.00     0.003 A 
ATOM     22  C   UNL     1      45.117 130.817  19.211  1.00  0.00     0.046 A 
ATOM     23  C   UNL     1      43.400 131.790  17.817  1.00  0.00     0.049 A 
ATOM     24  C   UNL     1      45.934 130.546  18.114  1.00  0.00     0.029 A 
ATOM     25  C   UNL     1      44.201 131.527  16.690  1.00  0.00     0.123 A 
ATOM     26  C   UNL     1      45.463 130.908  16.838  1.00  0.00     0.041 A 
ATOM     27  H   UNL     1      46.238 130.125  20.897  1.00  0.00     0.166 HD
ATOM     28  F   UNL     1      43.760 131.871  15.456  1.00  0.00    -0.207 F 
ENDBRANCH   6  18
TORSDOF 3
ENDMDL
MODEL 6
REMARK VINA RESULT:      -5.4      3.009      6.784
REMARK SMILES CC(=O)c1nc(N2CC[C@H](C)[C@H](c3cc4cc(F)ccc4[nH]3)[C@H]2F)c[nH]1
REMARK SMILES IDX 7 1 8 2 9 3 10 4 11 5 12 6 23 7 24 8 6 9 4 10 26 11 5 12
REMARK SMILES IDX 25 13 2 15 1 16 3 17 13 18 14 19 22 20 15 21 21 22 16 23
REMARK SMILES IDX 20 24 17 25 19 26 18 28
REMARK H PARENT 26 14 22 27
ROOT
ATOM      1  N   UNL     1      43.914 128.679  23.165  1.00  0.00    -0.325 N 
ATOM      2  C   UNL     1      42.521 128.761  23.630  1.00  0.00     0.121 C 
ATOM      3  C   UNL     1      41.810 129.966  23.011  1.00  0.00     0.026 C 
ATOM      4  C   UNL     1      42.618 131.255  23.241  1.00  0.00     0.001 C 
ATOM      5  C   UNL     1      41.883 132.472  22.659  1.00  0.00     0.008 C 
ATOM      6  C   UNL     1      44.065 131.122  22.701  1.00  0.00     0.094 C 
ATOM      7  C   UNL     1      44.764 129.876  23.286  1.00  0.00     0.273 C 
ATOM      8  F   UNL     1      45.061 130.088  24.622  1.00  0.00    -0.223 F 
ENDROOT
BRANCH   1   9
ATOM      9  C   UNL     1      44.493 127.386  22.887  1.00  0.00     0.149 A 
ATOM     10  C   UNL     1      44.742 125.284  22.708  1.00  0.00     0.175 A 
ATOM     11  N   UNL     1      45.899 125.814  22.260  1.00  0.00    -0.340 N 
ATOM     12  N   UNL     1      43.853 126.219  23.104  1.00  0.00    -0.208 NA
ATOM     13  C   UNL     1      45.751 127.143  22.370  1.00  0.00     0.131 A 
ATOM     14  H   UNL     1      46.743 125.310  21.907  1.00  0.00     0.168 HD
BRANCH  10  15
ATOM     15  C   UNL     1      44.464 123.839  22.769  1.00  0.00     0.195 C 
ATOM     16  C   UNL     1      45.162 122.958  23.755  1.00  0.00     0.097 C 
ATOM     17  O   UNL     1      43.623 123.336  21.976  1.00  0.00    -0.291 OA
ENDBRANCH  10  15
ENDBRANCH   1   9
BRANCH   6  18
ATOM     18  C   UNL     1      44.141 131.151  21.186  1.00  0.00     0.024 A 
ATOM     19  C   UNL     1      43.189 131.684  20.312  1.00  0.00     0.032 A 
ATOM     20  N   UNL     1      45.213 130.690  20.496  1.00  0.00    -0.358 N 
ATOM     21  C   UNL     1      43.725 131.523  19.055  1.00  0.00     0.003 A 
ATOM     22  C   UNL     1      44.945 130.920  19.202  1.00  0.00     0.046 A 
ATOM     23  C   UNL     1      43.222 131.873  17.804  1.00  0.00     0.049 A 
ATOM     24  C   UNL     1      45.753 130.626  18.104  1.00  0.00     0.029 A 
ATOM     25  C   UNL     1      44.012 131.586  16.675  1.00  0.00     0.123 A 
ATOM     26  C   UNL     1      45.274 130.965  16.826  1.00  0.00     0.041 A 
ATOM     27  H   UNL     1      46.078 130.256  20.892  1.00  0.00     0.166 HD
ATOM     28  F   UNL     1      43.563 131.908  15.438  1.00  0.00    -0.207 F 
ENDBRANCH   6  18
TORSDOF 3
ENDMDL
MODEL 7
REMARK VINA RESULT:      -5.0      2.967      6.403
REMARK SMILES CC(=O)c1nc(N2CC[C@H](C)[C@H](c3cc4cc(F)ccc4[nH]3)[C@H]2F)c[nH]1
REMARK SMILES IDX 7 1 8 2 9 3 10 4 11 5 12 6 23 7 24 8 6 9 4 10 26 11 5 12
REMARK SMILES IDX 25 13 2 15 1 16 3 17 13 18 14 19 22 20 15 21 21 22 16 23
REMARK SMILES IDX 20 24 17 25 19 26 18 28
REMARK H PARENT 26 14 22 27
ROOT
ATOM      1  N   UNL     1      44.056 129.670  23.061  1.00  0.00    -0.325 N 
ATOM      2  C   UNL     1      42.591 129.682  23.195  1.00  0.00     0.121 C 
ATOM      3  C   UNL     1      41.954 130.572  22.126  1.00  0.00     0.026 C 
ATOM      4  C   UNL     1      42.590 131.973  22.131  1.00  0.00     0.001 C 
ATOM      5  C   UNL     1      41.921 132.881  21.089  1.00  0.00     0.008 C 
ATOM      6  C   UNL     1      44.129 131.899  21.952  1.00  0.00     0.094 C 
ATOM      7  C   UNL     1      44.765 130.959  22.999  1.00  0.00     0.273 C 
ATOM      8  F   UNL     1      44.731 131.556  24.248  1.00  0.00    -0.223 F 
ENDROOT
BRANCH   1   9
ATOM      9  C   UNL     1      44.777 128.440  23.290  1.00  0.00     0.149 A 
ATOM     10  C   UNL     1      45.808 126.613  22.952  1.00  0.00     0.175 A 
ATOM     11  N   UNL     1      45.806 126.772  24.292  1.00  0.00    -0.340 N 
ATOM     12  N   UNL     1      45.184 127.617  22.301  1.00  0.00    -0.208 NA
ATOM     13  C   UNL     1      45.155 127.925  24.515  1.00  0.00     0.131 A 
ATOM     14  H   UNL     1      46.212 126.138  25.015  1.00  0.00     0.168 HD
BRANCH  10  15
ATOM     15  C   UNL     1      46.420 125.468  22.257  1.00  0.00     0.195 C 
ATOM     16  C   UNL     1      47.899 125.396  22.041  1.00  0.00     0.097 C 
ATOM     17  O   UNL     1      45.688 124.533  21.837  1.00  0.00    -0.291 OA
ENDBRANCH  10  15
ENDBRANCH   1   9
BRANCH   6  18
ATOM     18  C   UNL     1      44.548 131.534  20.540  1.00  0.00     0.024 A 
ATOM     19  C   UNL     1      45.581 130.668  20.174  1.00  0.00     0.032 A 
ATOM     20  N   UNL     1      43.897 131.990  19.442  1.00  0.00    -0.358 N 
ATOM     21  C   UNL     1      45.538 130.619  18.799  1.00  0.00     0.003 A 
ATOM     22  C   UNL     1      44.512 131.428  18.390  1.00  0.00     0.046 A 
ATOM     23  C   UNL     1      46.326 129.914  17.891  1.00  0.00     0.049 A 
ATOM     24  C   UNL     1      44.198 131.588  17.041  1.00  0.00     0.029 A 
ATOM     25  C   UNL     1      46.037 130.057  16.522  1.00  0.00     0.123 A 
ATOM     26  C   UNL     1      44.976 130.891  16.098  1.00  0.00     0.041 A 
ATOM     27  H   UNL     1      43.077 132.637  19.419  1.00  0.00     0.166 HD
ATOM     28  F   UNL     1      46.778 129.390  15.604  1.00  0.00    -0.207 F 
ENDBRANCH   6  18
TORSDOF 3
ENDMDL
MODEL 8
REMARK VINA RESULT:      -4.9      4.775      7.892
REMARK SMILES CC(=O)c1nc(N2CC[C@H](C)[C@H](c3cc4cc(F)ccc4[nH]3)[C@H]2F)c[nH]1
REMARK SMILES IDX 7 1 8 2 9 3 10 4 11 5 12 6 23 7 24 8 6 9 4 10 26 11 5 12
REMARK SMILES IDX 25 13 2 15 1 16 3 17 13 18 14 19 22 20 15 21 21 22 16 23
REMARK SMILES IDX 20 24 17 25 19 26 18 28
REMARK H PARENT 26 14 22 27
ROOT
ATOM      1  N   UNL     1      47.890 123.363  21.986  1.00  0.00    -0.325 N 
ATOM      2  C   UNL     1      46.949 122.375  21.435  1.00  0.00     0.121 C 
ATOM      3  C   UNL     1      45.514 122.695  21.859  1.00  0.00     0.026 C 
ATOM      4  C   UNL     1      45.418 122.859  23.385  1.00  0.00     0.001 C 
ATOM      5  C   UNL     1      43.970 123.136  23.815  1.00  0.00     0.008 C 
ATOM      6  C   UNL     1      46.407 123.936  23.904  1.00  0.00     0.094 C 
ATOM      7  C   UNL     1      47.847 123.641  23.431  1.00  0.00     0.273 C 
ATOM      8  F   UNL     1      48.351 122.550  24.118  1.00  0.00    -0.223 F 
ENDROOT
BRANCH   1   9
ATOM      9  C   UNL     1      49.003 123.805  21.180  1.00  0.00     0.149 A 
ATOM     10  C   UNL     1      50.406 123.967  19.593  1.00  0.00     0.175 A 
ATOM     11  N   UNL     1      50.768 124.918  20.480  1.00  0.00    -0.340 N 
ATOM     12  N   UNL     1      49.326 123.261  19.989  1.00  0.00    -0.208 NA
ATOM     13  C   UNL     1      49.886 124.822  21.487  1.00  0.00     0.131 A 
ATOM     14  H   UNL     1      51.566 125.588  20.414  1.00  0.00     0.168 HD
BRANCH  10  15
ATOM     15  C   UNL     1      51.107 123.712  18.324  1.00  0.00     0.195 C 
ATOM     16  C   UNL     1      52.204 124.613  17.851  1.00  0.00     0.097 C 
ATOM     17  O   UNL     1      50.778 122.718  17.622  1.00  0.00    -0.291 OA
ENDBRANCH  10  15
ENDBRANCH   1   9
BRANCH   6  18
ATOM     18  C   UNL     1      45.981 125.351  23.560  1.00  0.00     0.024 A 
ATOM     19  C   UNL     1      46.228 126.030  22.363  1.00  0.00     0.032 A 
ATOM     20  N   UNL     1      45.235 126.116  24.395  1.00  0.00    -0.358 N 
ATOM     21  C   UNL     1      45.605 127.249  22.507  1.00  0.00     0.003 A 
ATOM     22  C   UNL     1      45.017 127.268  23.743  1.00  0.00     0.046 A 
ATOM     23  C   UNL     1      45.515 128.330  21.632  1.00  0.00     0.049 A 
ATOM     24  C   UNL     1      44.292 128.371  24.192  1.00  0.00     0.029 A 
ATOM     25  C   UNL     1      44.792 129.460  22.057  1.00  0.00     0.123 A 
ATOM     26  C   UNL     1      44.183 129.480  23.333  1.00  0.00     0.041 A 
ATOM     27  H   UNL     1      44.890 125.857  25.347  1.00  0.00     0.166 HD
ATOM     28  F   UNL     1      44.678 130.534  21.239  1.00  0.00    -0.207 F 
ENDBRANCH   6  18
TORSDOF 3
ENDMDL
MODEL 9
REMARK VINA RESULT:      -4.9      3.154      6.874
REMARK SMILES CC(=O)c1nc(N2CC[C@H](C)[C@H](c3cc4cc(F)ccc4[nH]3)[C@H]2F)c[nH]1
REMARK SMILES IDX 7 1 8 2 9 3 10 4 11 5 12 6 23 7 24 8 6 9 4 10 26 11 5 12
REMARK SMILES IDX 25 13 2 15 1 16 3 17 13 18 14 19 22 20 15 21 21 22 16 23
REMARK SMILES IDX 20 24 17 25 19 26 18 28
REMARK H PARENT 26 14 22 27
ROOT
ATOM      1  N   UNL     1      44.130 129.825  22.240  1.00  0.00    -0.325 N 
ATOM      2  C   UNL     1      42.691 129.928  22.523  1.00  0.00     0.121 C 
ATOM      3  C   UNL     1      41.996 130.826  21.497  1.00  0.00     0.026 C 
ATOM      4  C   UNL     1      42.707 132.186  21.391  1.00  0.00     0.001 C 
ATOM      5  C   UNL     1      41.984 133.104  20.394  1.00  0.00     0.008 C 
ATOM      6  C   UNL     1      44.212 132.016  21.058  1.00  0.00     0.094 C 
ATOM      7  C   UNL     1      44.900 131.067  22.063  1.00  0.00     0.273 C 
ATOM      8  F   UNL     1      45.031 131.698  23.289  1.00  0.00    -0.223 F 
ENDROOT
BRANCH   1   9
ATOM      9  C   UNL     1      44.800 128.561  22.432  1.00  0.00     0.149 A 
ATOM     10  C   UNL     1      45.332 126.657  23.212  1.00  0.00     0.175 A 
ATOM     11  N   UNL     1      46.179 126.864  22.183  1.00  0.00    -0.340 N 
ATOM     12  N   UNL     1      44.469 127.679  23.398  1.00  0.00    -0.208 NA
ATOM     13  C   UNL     1      45.851 128.065  21.684  1.00  0.00     0.131 A 
ATOM     14  H   UNL     1      46.939 126.235  21.840  1.00  0.00     0.168 HD
BRANCH  10  15
ATOM     15  C   UNL     1      45.335 125.450  24.056  1.00  0.00     0.195 C 
ATOM     16  C   UNL     1      46.583 124.649  24.254  1.00  0.00     0.097 C 
ATOM     17  O   UNL     1      44.270 125.085  24.622  1.00  0.00    -0.291 OA
ENDBRANCH  10  15
ENDBRANCH   1   9
BRANCH   6  18
ATOM     18  C   UNL     1      44.460 131.590  19.622  1.00  0.00     0.024 A 
ATOM     19  C   UNL     1      43.735 131.989  18.496  1.00  0.00     0.032 A 
ATOM     20  N   UNL     1      45.490 130.785  19.264  1.00  0.00    -0.358 N 
ATOM     21  C   UNL     1      44.365 131.387  17.431  1.00  0.00     0.003 A 
ATOM     22  C   UNL     1      45.418 130.668  17.929  1.00  0.00     0.046 A 
ATOM     23  C   UNL     1      44.083 131.432  16.067  1.00  0.00     0.049 A 
ATOM     24  C   UNL     1      46.269 129.943  17.096  1.00  0.00     0.029 A 
ATOM     25  C   UNL     1      44.922 130.708  15.200  1.00  0.00     0.123 A 
ATOM     26  C   UNL     1      46.011 129.966  15.712  1.00  0.00     0.041 A 
ATOM     27  H   UNL     1      46.202 130.354  19.895  1.00  0.00     0.166 HD
ATOM     28  F   UNL     1      44.685 130.723  13.866  1.00  0.00    -0.207 F 
ENDBRANCH   6  18
TORSDOF 3
ENDMDL


