REMARK SMILES CCCOC(=O)N1C[C@H](c2ccc3cc[nH]c3c2)[C@H](C)C[C@H]1F
REMARK SMILES IDX 4 1 3 2 2 3 1 4 5 5 6 6 7 7 8 8 22 9 9 10 21 11 19 12 23 13
REMARK SMILES IDX 20 14 10 15 11 16 18 17 12 18 17 19 13 20 16 21 14 22 15 23
REMARK H PARENT 16 24
ROOT
ATOM      1  O   UNL     1       0.591  -2.776  -1.227  1.00  0.00    -0.449 OA
ENDROOT
BRANCH   1   2
ATOM      2  C   UNL     1       0.196  -4.023  -1.792  1.00  0.00     0.234 C 
BRANCH   2   3
ATOM      3  C   UNL     1      -1.305  -4.013  -2.083  1.00  0.00     0.038 C 
ATOM      4  C   UNL     1      -1.671  -2.970  -3.137  1.00  0.00     0.007 C 
ENDBRANCH   2   3
ENDBRANCH   1   2
BRANCH   1   5
ATOM      5  C   UNL     1       1.909  -2.497  -0.853  1.00  0.00     0.412 C 
ATOM      6  O   UNL     1       2.806  -3.373  -1.000  1.00  0.00    -0.224 OA
BRANCH   5   7
ATOM      7  N   UNL     1       2.240  -1.209  -0.302  1.00  0.00    -0.277 N 
ATOM      8  C   UNL     1       1.169  -0.244  -0.011  1.00  0.00     0.134 C 
ATOM      9  C   UNL     1       3.646  -0.847  -0.055  1.00  0.00     0.268 C 
ATOM     10  C   UNL     1       1.594   0.685   1.141  1.00  0.00     0.042 C 
ATOM     11  C   UNL     1       3.841   0.673  -0.143  1.00  0.00     0.065 C 
ATOM     12  C   UNL     1       2.900   1.471   0.800  1.00  0.00    -0.000 C 
ATOM     13  F   UNL     1       4.033  -1.308   1.192  1.00  0.00    -0.223 F 
ATOM     14  C   UNL     1       2.644   2.867   0.204  1.00  0.00     0.008 C 
BRANCH  10  15
ATOM     15  C   UNL     1       0.463   1.562   1.664  1.00  0.00    -0.041 A 
ATOM     16  C   UNL     1      -0.486   2.164   0.789  1.00  0.00     0.005 A 
ATOM     17  C   UNL     1       0.397   1.839   3.050  1.00  0.00     0.030 A 
ATOM     18  C   UNL     1      -1.498   3.002   1.290  1.00  0.00     0.010 A 
ATOM     19  C   UNL     1      -0.619   2.674   3.511  1.00  0.00     0.046 A 
ATOM     20  C   UNL     1      -1.533   3.232   2.661  1.00  0.00    -0.001 A 
ATOM     21  N   UNL     1      -0.852   3.053   4.778  1.00  0.00    -0.361 N 
ATOM     22  C   UNL     1      -2.388   4.001   3.421  1.00  0.00     0.028 A 
ATOM     23  C   UNL     1      -1.933   3.864   4.729  1.00  0.00     0.083 A 
ATOM     24  H   UNL     1      -0.311   2.781   5.629  1.00  0.00     0.166 HD
ENDBRANCH  10  15
ENDBRANCH   5   7
ENDBRANCH   1   5
TORSDOF 5


