REMARK SMILES C=C1CC[C@@H]([NH2+]c2cccc(N=C=S)c2O)C[C@H]1F
REMARK SMILES IDX 15 1 11 2 10 3 9 4 8 5 7 6 16 7 12 9 13 10 14 11 6 12 5 15
REMARK SMILES IDX 4 16 17 17 3 18 18 19 2 20 19 21 1 22
REMARK H PARENT 16 8 6 13 6 14
ROOT
ATOM      1  C   UNL     1      -2.296   0.978  -0.859  1.00  0.00     0.204 A 
ATOM      2  C   UNL     1      -3.128   0.494  -1.890  1.00  0.00     0.122 A 
ATOM      3  C   UNL     1      -3.447  -0.878  -1.931  1.00  0.00     0.033 A 
ATOM      4  C   UNL     1      -2.947  -1.749  -0.965  1.00  0.00     0.009 A 
ATOM      5  C   UNL     1      -2.125  -1.270   0.053  1.00  0.00     0.072 A 
ATOM      6  C   UNL     1      -1.790   0.093   0.121  1.00  0.00     0.174 A 
ENDROOT
BRANCH   1   7
ATOM      7  O   UNL     1      -1.959   2.333  -0.797  1.00  0.00    -0.501 OA
ATOM      8  H   UNL     1      -2.289   3.010  -1.475  1.00  0.00     0.293 HD
ENDBRANCH   1   7
BRANCH   2   9
ATOM      9  N   UNL     1      -3.630   1.412  -2.877  1.00  0.00    -0.191 NA
BRANCH   9  10
ATOM     10  C   UNL     1      -4.385   1.076  -3.846  1.00  0.00     0.064 C 
ATOM     11  S   UNL     1      -5.339   0.652  -5.074  1.00  0.00    -0.006 S 
ENDBRANCH   9  10
ENDBRANCH   2   9
BRANCH   6  12
ATOM     12  N   UNL     1      -0.924   0.564   1.180  1.00  0.00    -0.308 N 
ATOM     13  H   UNL     1      -1.035   1.594   1.330  1.00  0.00     0.352 HD
ATOM     14  H   UNL     1      -1.226   0.101   2.070  1.00  0.00     0.352 HD
BRANCH  12  15
ATOM     15  C   UNL     1       0.496   0.238   0.917  1.00  0.00     0.191 C 
ATOM     16  C   UNL     1       1.339   0.514   2.181  1.00  0.00     0.070 C 
ATOM     17  C   UNL     1       1.056   1.064  -0.267  1.00  0.00     0.107 C 
ATOM     18  C   UNL     1       2.815   0.161   1.966  1.00  0.00     0.039 C 
ATOM     19  C   UNL     1       2.530   0.737  -0.545  1.00  0.00     0.198 C 
ATOM     20  C   UNL     1       3.351   0.831   0.724  1.00  0.00    -0.043 C 
ATOM     21  F   UNL     1       2.999   1.604  -1.520  1.00  0.00    -0.242 F 
ATOM     22  C   UNL     1       4.605   1.314   0.710  1.00  0.00     0.011 C 
ENDBRANCH  12  15
ENDBRANCH   6  12
TORSDOF 5


