MODEL 1
REMARK VINA RESULT:      -8.0      0.000      0.000
REMARK SMILES C=CC(=O)N1CCC[C@@H](c2ccc3ccc(C)c(F)c3n2)[C@@H]1F
REMARK SMILES IDX 5 1 6 2 7 3 8 4 9 5 22 6 23 7 3 8 4 9 2 10 1 11 10 12 11 13
REMARK SMILES IDX 21 14 12 15 20 16 13 17 18 18 14 19 16 20 15 21 19 22 17 23
REMARK H PARENT
ROOT
ATOM      1  N   UNL     1      46.063 130.586  15.089  1.00  0.00    -0.308 N 
ATOM      2  C   UNL     1      45.198 131.587  14.444  1.00  0.00     0.123 C 
ATOM      3  C   UNL     1      43.780 131.505  15.019  1.00  0.00     0.022 C 
ATOM      4  C   UNL     1      43.740 131.630  16.556  1.00  0.00     0.017 C 
ATOM      5  C   UNL     1      45.115 131.429  17.229  1.00  0.00     0.093 C 
ATOM      6  C   UNL     1      45.941 130.327  16.534  1.00  0.00     0.274 C 
ATOM      7  F   UNL     1      47.203 130.287  17.106  1.00  0.00    -0.223 F 
ENDROOT
BRANCH   1   8
ATOM      8  C   UNL     1      47.023 129.833  14.318  1.00  0.00     0.248 C 
ATOM      9  O   UNL     1      47.047 128.576  14.418  1.00  0.00    -0.270 OA
BRANCH   8  10
ATOM     10  C   UNL     1      48.000 130.516  13.441  1.00  0.00     0.063 C 
ATOM     11  C   UNL     1      47.647 131.097  12.295  1.00  0.00     0.014 C 
ENDBRANCH   8  10
ENDBRANCH   1   8
BRANCH   5  12
ATOM     12  C   UNL     1      44.972 131.173  18.713  1.00  0.00     0.049 A 
ATOM     13  C   UNL     1      45.895 130.379  19.417  1.00  0.00     0.025 A 
ATOM     14  N   UNL     1      43.920 131.724  19.381  1.00  0.00    -0.249 NA
ATOM     15  C   UNL     1      45.724 130.170  20.786  1.00  0.00     0.012 A 
ATOM     16  C   UNL     1      43.727 131.536  20.714  1.00  0.00     0.106 A 
ATOM     17  C   UNL     1      44.636 130.748  21.450  1.00  0.00     0.003 A 
ATOM     18  C   UNL     1      42.631 132.125  21.356  1.00  0.00     0.152 A 
ATOM     19  C   UNL     1      44.439 130.558  22.825  1.00  0.00     0.011 A 
ATOM     20  C   UNL     1      42.428 131.924  22.733  1.00  0.00    -0.013 A 
ATOM     21  C   UNL     1      43.344 131.147  23.462  1.00  0.00     0.007 A 
ATOM     22  F   UNL     1      41.763 132.891  20.643  1.00  0.00    -0.204 F 
ATOM     23  C   UNL     1      41.266 132.576  23.426  1.00  0.00     0.047 C 
ENDBRANCH   5  12
TORSDOF 3
ENDMDL
MODEL 2
REMARK VINA RESULT:      -7.6      0.924      1.008
REMARK SMILES C=CC(=O)N1CCC[C@@H](c2ccc3ccc(C)c(F)c3n2)[C@@H]1F
REMARK SMILES IDX 5 1 6 2 7 3 8 4 9 5 22 6 23 7 3 8 4 9 2 10 1 11 10 12 11 13
REMARK SMILES IDX 21 14 12 15 20 16 13 17 18 18 14 19 16 20 15 21 19 22 17 23
REMARK H PARENT
ROOT
ATOM      1  N   UNL     1      45.720 131.094  14.700  1.00  0.00    -0.308 N 
ATOM      2  C   UNL     1      44.624 131.933  14.187  1.00  0.00     0.123 C 
ATOM      3  C   UNL     1      43.304 131.542  14.859  1.00  0.00     0.022 C 
ATOM      4  C   UNL     1      43.372 131.582  16.400  1.00  0.00     0.017 C 
ATOM      5  C   UNL     1      44.813 131.626  16.954  1.00  0.00     0.093 C 
ATOM      6  C   UNL     1      45.775 130.746  16.130  1.00  0.00     0.274 C 
ATOM      7  F   UNL     1      47.065 130.931  16.603  1.00  0.00    -0.223 F 
ENDROOT
BRANCH   1   8
ATOM      8  C   UNL     1      46.738 130.587  13.813  1.00  0.00     0.248 C 
ATOM      9  O   UNL     1      46.869 131.095  12.666  1.00  0.00    -0.270 OA
BRANCH   8  10
ATOM     10  C   UNL     1      47.607 129.459  14.216  1.00  0.00     0.063 C 
ATOM     11  C   UNL     1      48.711 129.132  13.545  1.00  0.00     0.014 C 
ENDBRANCH   8  10
ENDBRANCH   1   8
BRANCH   5  12
ATOM     12  C   UNL     1      44.850 131.276  18.425  1.00  0.00     0.049 A 
ATOM     13  C   UNL     1      45.869 130.471  18.966  1.00  0.00     0.025 A 
ATOM     14  N   UNL     1      43.869 131.750  19.243  1.00  0.00    -0.249 NA
ATOM     15  C   UNL     1      45.863 130.172  20.330  1.00  0.00     0.012 A 
ATOM     16  C   UNL     1      43.837 131.475  20.575  1.00  0.00     0.106 A 
ATOM     17  C   UNL     1      44.845 130.673  21.150  1.00  0.00     0.003 A 
ATOM     18  C   UNL     1      42.809 131.987  21.375  1.00  0.00     0.152 A 
ATOM     19  C   UNL     1      44.815 130.393  22.523  1.00  0.00     0.011 A 
ATOM     20  C   UNL     1      42.773 131.696  22.750  1.00  0.00    -0.013 A 
ATOM     21  C   UNL     1      43.787 130.906  23.318  1.00  0.00     0.007 A 
ATOM     22  F   UNL     1      41.845 132.767  20.817  1.00  0.00    -0.204 F 
ATOM     23  C   UNL     1      41.683 132.266  23.613  1.00  0.00     0.047 C 
ENDBRANCH   5  12
TORSDOF 3
ENDMDL
MODEL 3
REMARK VINA RESULT:      -6.9      2.421      7.958
REMARK SMILES C=CC(=O)N1CCC[C@@H](c2ccc3ccc(C)c(F)c3n2)[C@@H]1F
REMARK SMILES IDX 5 1 6 2 7 3 8 4 9 5 22 6 23 7 3 8 4 9 2 10 1 11 10 12 11 13
REMARK SMILES IDX 21 14 12 15 20 16 13 17 18 18 14 19 16 20 15 21 19 22 17 23
REMARK H PARENT
ROOT
ATOM      1  N   UNL     1      43.601 131.472  21.710  1.00  0.00    -0.308 N 
ATOM      2  C   UNL     1      44.734 130.837  22.402  1.00  0.00     0.123 C 
ATOM      3  C   UNL     1      45.159 129.567  21.658  1.00  0.00     0.022 C 
ATOM      4  C   UNL     1      45.474 129.814  20.168  1.00  0.00     0.017 C 
ATOM      5  C   UNL     1      44.943 131.164  19.639  1.00  0.00     0.093 C 
ATOM      6  C   UNL     1      43.566 131.517  20.238  1.00  0.00     0.274 C 
ATOM      7  F   UNL     1      43.211 132.790  19.821  1.00  0.00    -0.223 F 
ENDROOT
BRANCH   1   8
ATOM      8  C   UNL     1      42.504 132.039  22.456  1.00  0.00     0.248 C 
ATOM      9  O   UNL     1      41.678 132.790  21.868  1.00  0.00    -0.270 OA
BRANCH   8  10
ATOM     10  C   UNL     1      42.352 131.780  23.905  1.00  0.00     0.063 C 
ATOM     11  C   UNL     1      41.910 130.617  24.380  1.00  0.00     0.014 C 
ENDBRANCH   8  10
ENDBRANCH   1   8
BRANCH   5  12
ATOM     12  C   UNL     1      44.924 131.196  18.127  1.00  0.00     0.049 A 
ATOM     13  C   UNL     1      43.845 131.750  17.415  1.00  0.00     0.025 A 
ATOM     14  N   UNL     1      45.977 130.671  17.440  1.00  0.00    -0.249 NA
ATOM     15  C   UNL     1      43.869 131.758  16.019  1.00  0.00     0.012 A 
ATOM     16  C   UNL     1      46.028 130.664  16.081  1.00  0.00     0.106 A 
ATOM     17  C   UNL     1      44.963 131.214  15.337  1.00  0.00     0.003 A 
ATOM     18  C   UNL     1      47.133 130.114  15.420  1.00  0.00     0.152 A 
ATOM     19  C   UNL     1      45.017 131.211  13.936  1.00  0.00     0.011 A 
ATOM     20  C   UNL     1      47.181 130.100  14.015  1.00  0.00    -0.013 A 
ATOM     21  C   UNL     1      46.122 130.661  13.281  1.00  0.00     0.007 A 
ATOM     22  F   UNL     1      48.160 129.594  16.143  1.00  0.00    -0.204 F 
ATOM     23  C   UNL     1      48.377 129.533  13.308  1.00  0.00     0.047 C 
ENDBRANCH   5  12
TORSDOF 3
ENDMDL
MODEL 4
REMARK VINA RESULT:      -6.8      1.662      2.442
REMARK SMILES C=CC(=O)N1CCC[C@@H](c2ccc3ccc(C)c(F)c3n2)[C@@H]1F
REMARK SMILES IDX 5 1 6 2 7 3 8 4 9 5 22 6 23 7 3 8 4 9 2 10 1 11 10 12 11 13
REMARK SMILES IDX 21 14 12 15 20 16 13 17 18 18 14 19 16 20 15 21 19 22 17 23
REMARK H PARENT
ROOT
ATOM      1  N   UNL     1      45.552 130.625  15.539  1.00  0.00    -0.308 N 
ATOM      2  C   UNL     1      44.925 131.635  14.672  1.00  0.00     0.123 C 
ATOM      3  C   UNL     1      43.428 131.735  14.979  1.00  0.00     0.022 C 
ATOM      4  C   UNL     1      43.130 132.006  16.469  1.00  0.00     0.017 C 
ATOM      5  C   UNL     1      44.337 131.745  17.398  1.00  0.00     0.093 C 
ATOM      6  C   UNL     1      45.151 130.513  16.952  1.00  0.00     0.274 C 
ATOM      7  F   UNL     1      46.281 130.414  17.749  1.00  0.00    -0.223 F 
ENDROOT
BRANCH   1   8
ATOM      8  C   UNL     1      46.548 129.720  15.018  1.00  0.00     0.248 C 
ATOM      9  O   UNL     1      46.446 128.484  15.254  1.00  0.00    -0.270 OA
BRANCH   8  10
ATOM     10  C   UNL     1      47.703 130.223  14.242  1.00  0.00     0.063 C 
ATOM     11  C   UNL     1      48.405 129.444  13.420  1.00  0.00     0.014 C 
ENDBRANCH   8  10
ENDBRANCH   1   8
BRANCH   5  12
ATOM     12  C   UNL     1      43.908 131.644  18.845  1.00  0.00     0.049 A 
ATOM     13  C   UNL     1      42.924 132.493  19.384  1.00  0.00     0.025 A 
ATOM     14  N   UNL     1      44.493 130.709  19.644  1.00  0.00    -0.249 NA
ATOM     15  C   UNL     1      42.560 132.364  20.725  1.00  0.00     0.012 A 
ATOM     16  C   UNL     1      44.158 130.561  20.954  1.00  0.00     0.106 A 
ATOM     17  C   UNL     1      43.174 131.394  21.525  1.00  0.00     0.003 A 
ATOM     18  C   UNL     1      44.787 129.583  21.735  1.00  0.00     0.152 A 
ATOM     19  C   UNL     1      42.827 131.239  22.874  1.00  0.00     0.011 A 
ATOM     20  C   UNL     1      44.446 129.436  23.091  1.00  0.00    -0.013 A 
ATOM     21  C   UNL     1      43.456 130.262  23.650  1.00  0.00     0.007 A 
ATOM     22  F   UNL     1      45.728 128.777  21.177  1.00  0.00    -0.204 F 
ATOM     23  C   UNL     1      45.103 128.372  23.922  1.00  0.00     0.047 C 
ENDBRANCH   5  12
TORSDOF 3
ENDMDL
MODEL 5
REMARK VINA RESULT:      -6.7      2.291      7.592
REMARK SMILES C=CC(=O)N1CCC[C@@H](c2ccc3ccc(C)c(F)c3n2)[C@@H]1F
REMARK SMILES IDX 5 1 6 2 7 3 8 4 9 5 22 6 23 7 3 8 4 9 2 10 1 11 10 12 11 13
REMARK SMILES IDX 21 14 12 15 20 16 13 17 18 18 14 19 16 20 15 21 19 22 17 23
REMARK H PARENT
ROOT
ATOM      1  N   UNL     1      43.957 131.584  20.531  1.00  0.00    -0.308 N 
ATOM      2  C   UNL     1      42.492 131.623  20.666  1.00  0.00     0.123 C 
ATOM      3  C   UNL     1      41.892 132.561  19.614  1.00  0.00     0.022 C 
ATOM      4  C   UNL     1      42.317 132.208  18.173  1.00  0.00     0.017 C 
ATOM      5  C   UNL     1      43.531 131.256  18.102  1.00  0.00     0.093 C 
ATOM      6  C   UNL     1      44.575 131.570  19.194  1.00  0.00     0.274 C 
ATOM      7  F   UNL     1      45.569 130.606  19.152  1.00  0.00    -0.223 F 
ENDROOT
BRANCH   1   8
ATOM      8  C   UNL     1      44.807 131.579  21.697  1.00  0.00     0.248 C 
ATOM      9  O   UNL     1      45.971 132.058  21.617  1.00  0.00    -0.270 OA
BRANCH   8  10
ATOM     10  C   UNL     1      44.345 130.990  22.974  1.00  0.00     0.063 C 
ATOM     11  C   UNL     1      43.751 131.715  23.921  1.00  0.00     0.014 C 
ENDBRANCH   8  10
ENDBRANCH   1   8
BRANCH   5  12
ATOM     12  C   UNL     1      44.146 131.247  16.721  1.00  0.00     0.049 A 
ATOM     13  C   UNL     1      43.496 131.834  15.620  1.00  0.00     0.025 A 
ATOM     14  N   UNL     1      45.358 130.651  16.539  1.00  0.00    -0.249 NA
ATOM     15  C   UNL     1      44.101 131.802  14.363  1.00  0.00     0.012 A 
ATOM     16  C   UNL     1      45.970 130.604  15.326  1.00  0.00     0.106 A 
ATOM     17  C   UNL     1      45.347 131.186  14.202  1.00  0.00     0.003 A 
ATOM     18  C   UNL     1      47.218 129.982  15.191  1.00  0.00     0.152 A 
ATOM     19  C   UNL     1      45.980 131.142  12.953  1.00  0.00     0.011 A 
ATOM     20  C   UNL     1      47.846 129.928  13.934  1.00  0.00    -0.013 A 
ATOM     21  C   UNL     1      47.225 130.520  12.822  1.00  0.00     0.007 A 
ATOM     22  F   UNL     1      47.818 129.431  16.279  1.00  0.00    -0.204 F 
ATOM     23  C   UNL     1      49.195 129.282  13.794  1.00  0.00     0.047 C 
ENDBRANCH   5  12
TORSDOF 3
ENDMDL
MODEL 6
REMARK VINA RESULT:      -6.6      1.851      2.901
REMARK SMILES C=CC(=O)N1CCC[C@@H](c2ccc3ccc(C)c(F)c3n2)[C@@H]1F
REMARK SMILES IDX 5 1 6 2 7 3 8 4 9 5 22 6 23 7 3 8 4 9 2 10 1 11 10 12 11 13
REMARK SMILES IDX 21 14 12 15 20 16 13 17 18 18 14 19 16 20 15 21 19 22 17 23
REMARK H PARENT
ROOT
ATOM      1  N   UNL     1      45.340 130.919  16.384  1.00  0.00    -0.308 N 
ATOM      2  C   UNL     1      44.499 131.909  15.691  1.00  0.00     0.123 C 
ATOM      3  C   UNL     1      43.045 131.779  16.155  1.00  0.00     0.022 C 
ATOM      4  C   UNL     1      42.884 131.875  17.686  1.00  0.00     0.017 C 
ATOM      5  C   UNL     1      44.210 131.698  18.459  1.00  0.00     0.093 C 
ATOM      6  C   UNL     1      45.117 130.631  17.811  1.00  0.00     0.274 C 
ATOM      7  F   UNL     1      46.332 130.614  18.477  1.00  0.00    -0.223 F 
ENDROOT
BRANCH   1   8
ATOM      8  C   UNL     1      46.376 130.207  15.677  1.00  0.00     0.248 C 
ATOM      9  O   UNL     1      47.238 129.557  16.331  1.00  0.00    -0.270 OA
BRANCH   8  10
ATOM     10  C   UNL     1      46.464 130.255  14.201  1.00  0.00     0.063 C 
ATOM     11  C   UNL     1      47.420 130.928  13.563  1.00  0.00     0.014 C 
ENDBRANCH   8  10
ENDBRANCH   1   8
BRANCH   5  12
ATOM     12  C   UNL     1      43.962 131.412  19.923  1.00  0.00     0.049 A 
ATOM     13  C   UNL     1      43.158 132.254  20.713  1.00  0.00     0.025 A 
ATOM     14  N   UNL     1      44.535 130.313  20.489  1.00  0.00    -0.249 NA
ATOM     15  C   UNL     1      42.957 131.952  22.061  1.00  0.00     0.012 A 
ATOM     16  C   UNL     1      44.357 129.995  21.800  1.00  0.00     0.106 A 
ATOM     17  C   UNL     1      43.555 130.816  22.619  1.00  0.00     0.003 A 
ATOM     18  C   UNL     1      44.966 128.853  22.336  1.00  0.00     0.152 A 
ATOM     19  C   UNL     1      43.368 130.485  23.968  1.00  0.00     0.011 A 
ATOM     20  C   UNL     1      44.788 128.529  23.692  1.00  0.00    -0.013 A 
ATOM     21  C   UNL     1      43.978 129.346  24.499  1.00  0.00     0.007 A 
ATOM     22  F   UNL     1      45.730 128.060  21.539  1.00  0.00    -0.204 F 
ATOM     23  C   UNL     1      45.421 127.291  24.260  1.00  0.00     0.047 C 
ENDBRANCH   5  12
TORSDOF 3
ENDMDL
MODEL 7
REMARK VINA RESULT:      -6.3      1.465      2.287
REMARK SMILES C=CC(=O)N1CCC[C@@H](c2ccc3ccc(C)c(F)c3n2)[C@@H]1F
REMARK SMILES IDX 5 1 6 2 7 3 8 4 9 5 22 6 23 7 3 8 4 9 2 10 1 11 10 12 11 13
REMARK SMILES IDX 21 14 12 15 20 16 13 17 18 18 14 19 16 20 15 21 19 22 17 23
REMARK H PARENT
ROOT
ATOM      1  N   UNL     1      45.679 130.273  15.186  1.00  0.00    -0.308 N 
ATOM      2  C   UNL     1      45.273 131.212  14.128  1.00  0.00     0.123 C 
ATOM      3  C   UNL     1      43.766 131.470  14.203  1.00  0.00     0.022 C 
ATOM      4  C   UNL     1      43.301 131.952  15.593  1.00  0.00     0.017 C 
ATOM      5  C   UNL     1      44.342 131.716  16.710  1.00  0.00     0.093 C 
ATOM      6  C   UNL     1      45.085 130.376  16.530  1.00  0.00     0.274 C 
ATOM      7  F   UNL     1      46.084 130.288  17.487  1.00  0.00    -0.223 F 
ENDROOT
BRANCH   1   8
ATOM      8  C   UNL     1      46.643 129.233  14.921  1.00  0.00     0.248 C 
ATOM      9  O   UNL     1      46.329 128.029  15.135  1.00  0.00    -0.270 OA
BRANCH   8  10
ATOM     10  C   UNL     1      48.002 129.558  14.437  1.00  0.00     0.063 C 
ATOM     11  C   UNL     1      48.227 130.055  13.221  1.00  0.00     0.014 C 
ENDBRANCH   8  10
ENDBRANCH   1   8
BRANCH   5  12
ATOM     12  C   UNL     1      43.718 131.834  18.082  1.00  0.00     0.049 A 
ATOM     13  C   UNL     1      42.492 132.496  18.280  1.00  0.00     0.025 A 
ATOM     14  N   UNL     1      44.362 131.290  19.152  1.00  0.00    -0.249 NA
ATOM     15  C   UNL     1      41.953 132.582  19.564  1.00  0.00     0.012 A 
ATOM     16  C   UNL     1      43.861 131.359  20.414  1.00  0.00     0.106 A 
ATOM     17  C   UNL     1      42.633 132.013  20.647  1.00  0.00     0.003 A 
ATOM     18  C   UNL     1      44.560 130.782  21.482  1.00  0.00     0.152 A 
ATOM     19  C   UNL     1      42.114 132.080  21.947  1.00  0.00     0.011 A 
ATOM     20  C   UNL     1      44.044 130.860  22.787  1.00  0.00    -0.013 A 
ATOM     21  C   UNL     1      42.815 131.502  23.009  1.00  0.00     0.007 A 
ATOM     22  F   UNL     1      45.738 130.145  21.250  1.00  0.00    -0.204 F 
ATOM     23  C   UNL     1      44.782 130.220  23.928  1.00  0.00     0.047 C 
ENDBRANCH   5  12
TORSDOF 3
ENDMDL
MODEL 8
REMARK VINA RESULT:      -5.7      2.533      7.410
REMARK SMILES C=CC(=O)N1CCC[C@@H](c2ccc3ccc(C)c(F)c3n2)[C@@H]1F
REMARK SMILES IDX 5 1 6 2 7 3 8 4 9 5 22 6 23 7 3 8 4 9 2 10 1 11 10 12 11 13
REMARK SMILES IDX 21 14 12 15 20 16 13 17 18 18 14 19 16 20 15 21 19 22 17 23
REMARK H PARENT
ROOT
ATOM      1  N   UNL     1      43.700 131.668  21.365  1.00  0.00    -0.308 N 
ATOM      2  C   UNL     1      42.274 131.950  21.598  1.00  0.00     0.123 C 
ATOM      3  C   UNL     1      41.783 133.020  20.620  1.00  0.00     0.022 C 
ATOM      4  C   UNL     1      42.053 132.664  19.143  1.00  0.00     0.017 C 
ATOM      5  C   UNL     1      43.078 131.523  18.960  1.00  0.00     0.093 C 
ATOM      6  C   UNL     1      44.224 131.608  19.989  1.00  0.00     0.274 C 
ATOM      7  F   UNL     1      45.033 130.491  19.849  1.00  0.00    -0.223 F 
ENDROOT
BRANCH   1   8
ATOM      8  C   UNL     1      44.604 131.467  22.471  1.00  0.00     0.248 C 
ATOM      9  O   UNL     1      45.459 132.355  22.740  1.00  0.00    -0.270 OA
BRANCH   8  10
ATOM     10  C   UNL     1      44.565 130.223  23.271  1.00  0.00     0.063 C 
ATOM     11  C   UNL     1      43.836 129.167  22.914  1.00  0.00     0.014 C 
ENDBRANCH   8  10
ENDBRANCH   1   8
BRANCH   5  12
ATOM     12  C   UNL     1      43.599 131.470  17.541  1.00  0.00     0.049 A 
ATOM     13  C   UNL     1      42.877 132.028  16.470  1.00  0.00     0.025 A 
ATOM     14  N   UNL     1      44.793 130.863  17.296  1.00  0.00    -0.249 NA
ATOM     15  C   UNL     1      43.396 131.956  15.176  1.00  0.00     0.012 A 
ATOM     16  C   UNL     1      45.322 130.777  16.046  1.00  0.00     0.106 A 
ATOM     17  C   UNL     1      44.626 131.329  14.950  1.00  0.00     0.003 A 
ATOM     18  C   UNL     1      46.556 130.145  15.846  1.00  0.00     0.152 A 
ATOM     19  C   UNL     1      45.174 131.244  13.663  1.00  0.00     0.011 A 
ATOM     20  C   UNL     1      47.098 130.050  14.552  1.00  0.00    -0.013 A 
ATOM     21  C   UNL     1      46.404 130.612  13.467  1.00  0.00     0.007 A 
ATOM     22  F   UNL     1      47.226 129.623  16.907  1.00  0.00    -0.204 F 
ATOM     23  C   UNL     1      48.432 129.393  14.341  1.00  0.00     0.047 C 
ENDBRANCH   5  12
TORSDOF 3
ENDMDL
MODEL 9
REMARK VINA RESULT:      -5.7      2.849      7.747
REMARK SMILES C=CC(=O)N1CCC[C@@H](c2ccc3ccc(C)c(F)c3n2)[C@@H]1F
REMARK SMILES IDX 5 1 6 2 7 3 8 4 9 5 22 6 23 7 3 8 4 9 2 10 1 11 10 12 11 13
REMARK SMILES IDX 21 14 12 15 20 16 13 17 18 18 14 19 16 20 15 21 19 22 17 23
REMARK H PARENT
ROOT
ATOM      1  N   UNL     1      43.600 131.023  22.607  1.00  0.00    -0.308 N 
ATOM      2  C   UNL     1      44.555 132.006  23.145  1.00  0.00     0.123 C 
ATOM      3  C   UNL     1      45.866 131.952  22.355  1.00  0.00     0.022 C 
ATOM      4  C   UNL     1      45.668 132.131  20.836  1.00  0.00     0.017 C 
ATOM      5  C   UNL     1      44.204 131.947  20.377  1.00  0.00     0.093 C 
ATOM      6  C   UNL     1      43.496 130.816  21.153  1.00  0.00     0.274 C 
ATOM      7  F   UNL     1      42.161 130.790  20.782  1.00  0.00    -0.223 F 
ENDROOT
BRANCH   1   8
ATOM      8  C   UNL     1      42.771 130.239  23.490  1.00  0.00     0.248 C 
ATOM      9  O   UNL     1      41.950 130.824  24.250  1.00  0.00    -0.270 OA
BRANCH   8  10
ATOM     10  C   UNL     1      42.893 128.766  23.541  1.00  0.00     0.063 C 
ATOM     11  C   UNL     1      41.840 127.958  23.422  1.00  0.00     0.014 C 
ENDBRANCH   8  10
ENDBRANCH   1   8
BRANCH   5  12
ATOM     12  C   UNL     1      44.115 131.745  18.881  1.00  0.00     0.049 A 
ATOM     13  C   UNL     1      42.983 132.145  18.149  1.00  0.00     0.025 A 
ATOM     14  N   UNL     1      45.157 131.157  18.230  1.00  0.00    -0.249 NA
ATOM     15  C   UNL     1      42.944 131.939  16.769  1.00  0.00     0.012 A 
ATOM     16  C   UNL     1      45.146 130.942  16.887  1.00  0.00     0.106 A 
ATOM     17  C   UNL     1      44.028 131.335  16.122  1.00  0.00     0.003 A 
ATOM     18  C   UNL     1      46.243 130.335  16.262  1.00  0.00     0.152 A 
ATOM     19  C   UNL     1      44.019 131.118  14.738  1.00  0.00     0.011 A 
ATOM     20  C   UNL     1      46.228 130.108  14.875  1.00  0.00    -0.013 A 
ATOM     21  C   UNL     1      45.115 130.512  14.118  1.00  0.00     0.007 A 
ATOM     22  F   UNL     1      47.322 129.968  17.002  1.00  0.00    -0.204 F 
ATOM     23  C   UNL     1      47.414 129.479  14.201  1.00  0.00     0.047 C 
ENDBRANCH   5  12
TORSDOF 3
ENDMDL


