REMARK SMILES Nc1cccc([NH2+]c2cc(F)cc3cc[nH]c23)c1O
REMARK SMILES IDX 2 1 3 2 4 3 5 4 6 5 18 6 1 7 19 10 7 12 8 15 9 16 17 17
REMARK SMILES IDX 10 18 16 19 13 20 12 21 15 22 14 23 11 24
REMARK H PARENT 1 8 1 9 19 11 7 13 7 14 16 25
ROOT
ATOM      1  C   UNL     1      -2.325  -1.622  -0.709  1.00  0.00     0.080 A 
ATOM      2  C   UNL     1      -2.570  -2.092   0.589  1.00  0.00     0.030 A 
ATOM      3  C   UNL     1      -1.535  -2.188   1.516  1.00  0.00     0.009 A 
ATOM      4  C   UNL     1      -0.244  -1.800   1.167  1.00  0.00     0.072 A 
ATOM      5  C   UNL     1       0.035  -1.306  -0.120  1.00  0.00     0.179 A 
ATOM      6  C   UNL     1      -1.006  -1.255  -1.079  1.00  0.00     0.201 A 
ENDROOT
BRANCH   1   7
ATOM      7  N   UNL     1      -3.428  -1.515  -1.619  1.00  0.00    -0.396 N 
ATOM      8  H   UNL     1      -3.372  -0.986  -2.515  1.00  0.00     0.156 HD
ATOM      9  H   UNL     1      -4.367  -1.886  -1.352  1.00  0.00     0.156 HD
ENDBRANCH   1   7
BRANCH   6  10
ATOM     10  O   UNL     1      -0.693  -0.865  -2.383  1.00  0.00    -0.501 OA
ATOM     11  H   UNL     1      -1.341  -0.899  -3.156  1.00  0.00     0.293 HD
ENDBRANCH   6  10
BRANCH   5  12
ATOM     12  N   UNL     1       1.383  -0.905  -0.462  1.00  0.00    -0.276 N 
ATOM     13  H   UNL     1       1.672  -1.398  -1.339  1.00  0.00     0.358 HD
ATOM     14  H   UNL     1       2.063  -1.198   0.277  1.00  0.00     0.358 HD
BRANCH  12  15
ATOM     15  C   UNL     1       1.466   0.528  -0.635  1.00  0.00     0.162 A 
ATOM     16  C   UNL     1       1.526   1.102  -1.929  1.00  0.00     0.109 A 
ATOM     17  C   UNL     1       1.488   1.415   0.457  1.00  0.00     0.108 A 
ATOM     18  C   UNL     1       1.574   2.502  -2.099  1.00  0.00     0.129 A 
ATOM     19  N   UNL     1       1.491   1.118   1.770  1.00  0.00    -0.356 N 
ATOM     20  C   UNL     1       1.534   2.775   0.279  1.00  0.00     0.008 A 
ATOM     21  C   UNL     1       1.574   3.356  -0.984  1.00  0.00     0.050 A 
ATOM     22  C   UNL     1       1.529   2.301   2.423  1.00  0.00     0.083 A 
ATOM     23  C   UNL     1       1.555   3.360   1.525  1.00  0.00     0.028 A 
ATOM     24  F   UNL     1       1.625   3.027  -3.348  1.00  0.00    -0.207 F 
ATOM     25  H   UNL     1       1.495   0.175   2.214  1.00  0.00     0.166 HD
ENDBRANCH  12  15
ENDBRANCH   5  12
TORSDOF 4


