REMARK SMILES C=Cc1cccc(-c2[nH]c3ccccc3[nH+]2)c1NN
REMARK SMILES IDX 3 1 4 2 5 3 6 4 7 5 17 6 2 7 1 8 18 9 19 11 8 14 9 15 16 16
REMARK SMILES IDX 10 17 15 18 11 19 14 20 12 21 13 22
REMARK H PARENT 18 10 19 12 19 13 9 23 16 24
ROOT
ATOM      1  C   UNL     1      -0.786  -2.532  -2.869  1.00  0.00    -0.001 A 
ATOM      2  C   UNL     1       0.267  -3.390  -3.240  1.00  0.00     0.010 A 
ATOM      3  C   UNL     1       1.577  -3.114  -2.855  1.00  0.00     0.002 A 
ATOM      4  C   UNL     1       1.865  -1.970  -2.115  1.00  0.00     0.019 A 
ATOM      5  C   UNL     1       0.845  -1.077  -1.756  1.00  0.00     0.089 A 
ATOM      6  C   UNL     1      -0.492  -1.363  -2.123  1.00  0.00     0.071 A 
ENDROOT
BRANCH   1   7
ATOM      7  C   UNL     1      -2.188  -2.838  -3.259  1.00  0.00     0.002 C 
ATOM      8  C   UNL     1      -2.642  -4.075  -3.464  1.00  0.00     0.009 C 
ENDBRANCH   1   7
BRANCH   6   9
ATOM      9  N   UNL     1      -1.559  -0.514  -1.680  1.00  0.00    -0.323 N 
ATOM     10  H   UNL     1      -2.154  -0.035  -2.394  1.00  0.00     0.181 HD
BRANCH   9  11
ATOM     11  N   UNL     1      -1.973  -0.544  -0.339  1.00  0.00    -0.250 NA
ATOM     12  H   UNL     1      -1.264  -0.021   0.223  1.00  0.00     0.143 HD
ATOM     13  H   UNL     1      -2.865  -0.003  -0.270  1.00  0.00     0.143 HD
ENDBRANCH   9  11
ENDBRANCH   6   9
BRANCH   5  14
ATOM     14  C   UNL     1       1.208   0.161  -1.028  1.00  0.00     0.287 A 
ATOM     15  N   UNL     1       0.655   1.377  -1.277  1.00  0.00    -0.236 N 
ATOM     16  N   UNL     1       2.161   0.207  -0.060  1.00  0.00    -0.236 N 
ATOM     17  C   UNL     1       1.282   2.203  -0.424  1.00  0.00     0.172 A 
ATOM     18  C   UNL     1       2.189   1.497   0.311  1.00  0.00     0.172 A 
ATOM     19  C   UNL     1       1.103   3.574  -0.258  1.00  0.00     0.056 A 
ATOM     20  C   UNL     1       2.990   2.103   1.276  1.00  0.00     0.056 A 
ATOM     21  C   UNL     1       1.895   4.221   0.710  1.00  0.00     0.005 A 
ATOM     22  C   UNL     1       2.834   3.489   1.474  1.00  0.00     0.005 A 
ATOM     23  H   UNL     1      -0.067   1.629  -1.988  1.00  0.00     0.312 HD
ATOM     24  H   UNL     1       2.735  -0.578   0.321  1.00  0.00     0.312 HD
ENDBRANCH   5  14
TORSDOF 4


