REMARK SMILES Cc1ccc(-c2ccc([O-])cc2)c2cn(C(=O)OCc3ccccc3F)nc12
REMARK SMILES IDX 16 1 17 2 15 3 2 4 3 5 28 6 4 7 27 8 13 9 5 10 14 11 1 12
REMARK SMILES IDX 6 13 7 14 12 15 8 16 11 17 9 18 10 19 18 20 19 21 20 22
REMARK SMILES IDX 21 23 25 24 22 25 24 26 23 27 26 28
REMARK H PARENT
ROOT
ATOM      1  C   UNL     1       2.477   1.856   0.033  1.00  0.00     0.435 C 
ATOM      2  O   UNL     1       3.469   2.605  -0.180  1.00  0.00    -0.222 OA
ENDROOT
BRANCH   1   3
ATOM      3  N   UNL     1       2.430   0.553  -0.555  1.00  0.00    -0.172 N 
ATOM      4  C   UNL     1       3.641  -2.070  -2.542  1.00  0.00    -0.023 A 
ATOM      5  C   UNL     1       3.010  -3.307  -2.790  1.00  0.00     0.006 A 
ATOM      6  C   UNL     1       2.984  -1.172  -1.697  1.00  0.00     0.096 A 
ATOM      7  C   UNL     1       1.753  -3.603  -2.218  1.00  0.00     0.010 A 
ATOM      8  N   UNL     1       3.386   0.060  -1.335  1.00  0.00    -0.162 NA
ATOM      9  C   UNL     1       1.766  -1.462  -1.136  1.00  0.00     0.029 A 
ATOM     10  C   UNL     1       1.106  -2.678  -1.368  1.00  0.00    -0.007 A 
ATOM     11  C   UNL     1       1.423  -0.339  -0.414  1.00  0.00     0.131 A 
ATOM     12  C   UNL     1       4.986  -1.749  -3.123  1.00  0.00     0.047 C 
BRANCH  10  13
ATOM     13  C   UNL     1      -0.205  -2.997  -0.758  1.00  0.00    -0.018 A 
ATOM     14  C   UNL     1      -1.246  -3.516  -1.548  1.00  0.00     0.008 A 
ATOM     15  C   UNL     1      -0.420  -2.809   0.619  1.00  0.00     0.008 A 
ATOM     16  C   UNL     1      -2.483  -3.824  -0.974  1.00  0.00    -0.008 A 
ATOM     17  C   UNL     1      -1.658  -3.118   1.190  1.00  0.00    -0.008 A 
ATOM     18  C   UNL     1      -2.690  -3.624   0.394  1.00  0.00    -0.109 A 
ATOM     19  O   UNL     1      -3.920  -3.931   0.963  1.00  0.00    -0.872 OA
ENDBRANCH  10  13
ENDBRANCH   1   3
BRANCH   1  20
ATOM     20  O   UNL     1       1.423   2.291   0.842  1.00  0.00    -0.443 OA
BRANCH  20  21
ATOM     21  C   UNL     1       1.401   3.574   1.457  1.00  0.00     0.274 C 
BRANCH  21  22
ATOM     22  C   UNL     1       0.131   3.721   2.245  1.00  0.00     0.025 A 
ATOM     23  C   UNL     1       0.123   3.459   3.626  1.00  0.00     0.010 A 
ATOM     24  C   UNL     1      -1.074   4.056   1.601  1.00  0.00     0.129 A 
ATOM     25  C   UNL     1      -1.065   3.560   4.356  1.00  0.00     0.001 A 
ATOM     26  C   UNL     1      -2.260   4.155   2.337  1.00  0.00     0.039 A 
ATOM     27  C   UNL     1      -2.255   3.910   3.712  1.00  0.00     0.003 A 
ATOM     28  F   UNL     1      -1.102   4.283   0.263  1.00  0.00    -0.207 F 
ENDBRANCH  21  22
ENDBRANCH  20  21
ENDBRANCH   1  20
TORSDOF 5


