REMARK SMILES CC1=CCC=C[C@H]1C(=O)Oc1c(C)c(F)c([NH2+]N)c([O-])c1-n1nc2ccccc2n1
REMARK SMILES IDX 11 1 12 2 13 3 14 4 15 5 16 6 19 7 20 8 21 9 10 10 8 11 9 12
REMARK SMILES IDX 7 13 2 14 3 15 4 16 6 17 5 18 1 19 22 20 23 21 30 22 24 23
REMARK SMILES IDX 29 24 25 25 28 26 26 27 27 28 17 29 18 32
REMARK H PARENT 17 30 17 31 18 33 18 34
ROOT
ATOM      1  C   UNL     1       0.081  -1.824  -0.108  1.00  0.00     0.164 A 
ATOM      2  C   UNL     1       0.200  -3.140  -0.590  1.00  0.00     0.036 A 
ATOM      3  C   UNL     1       1.516  -3.623  -1.142  1.00  0.00     0.052 C 
ATOM      4  C   UNL     1      -0.936  -3.966  -0.644  1.00  0.00     0.191 A 
ATOM      5  F   UNL     1      -0.834  -5.223  -1.150  1.00  0.00    -0.200 F 
ATOM      6  C   UNL     1      -2.182  -3.503  -0.184  1.00  0.00     0.179 A 
ATOM      7  C   UNL     1      -2.276  -2.212   0.369  1.00  0.00    -0.008 A 
ATOM      8  O   UNL     1      -3.487  -1.775   0.897  1.00  0.00    -0.867 OA
ATOM      9  C   UNL     1      -1.151  -1.369   0.413  1.00  0.00     0.127 A 
ENDROOT
BRANCH   1  10
ATOM     10  O   UNL     1       1.200  -0.982  -0.158  1.00  0.00    -0.423 OA
BRANCH  10  11
ATOM     11  C   UNL     1       1.201   0.256  -0.809  1.00  0.00     0.322 C 
ATOM     12  O   UNL     1       0.230   0.597  -1.542  1.00  0.00    -0.251 OA
BRANCH  11  13
ATOM     13  C   UNL     1       2.402   1.145  -0.688  1.00  0.00     0.147 C 
ATOM     14  C   UNL     1       3.212   1.093  -1.972  1.00  0.00    -0.059 C 
ATOM     15  C   UNL     1       3.088   2.059  -2.903  1.00  0.00    -0.023 C 
ATOM     16  C   UNL     1       2.122   3.204  -2.726  1.00  0.00     0.054 C 
ATOM     17  C   UNL     1       1.982   2.555  -0.335  1.00  0.00    -0.012 C 
ATOM     18  C   UNL     1       1.865   3.506  -1.273  1.00  0.00    -0.026 C 
ATOM     19  C   UNL     1       4.122  -0.077  -2.234  1.00  0.00     0.040 C 
ENDBRANCH  11  13
ENDBRANCH  10  11
ENDBRANCH   1  10
BRANCH   9  20
ATOM     20  N   UNL     1      -1.248  -0.073   1.028  1.00  0.00    -0.147 N 
ATOM     21  N   UNL     1      -2.283   0.749   0.856  1.00  0.00    -0.148 NA
ATOM     22  N   UNL     1      -0.307   0.433   1.826  1.00  0.00    -0.148 NA
ATOM     23  C   UNL     1      -1.978   1.835   1.581  1.00  0.00     0.113 A 
ATOM     24  C   UNL     1      -0.770   1.642   2.174  1.00  0.00     0.113 A 
ATOM     25  C   UNL     1      -2.710   3.007   1.751  1.00  0.00     0.032 A 
ATOM     26  C   UNL     1      -0.182   2.601   2.992  1.00  0.00     0.032 A 
ATOM     27  C   UNL     1      -2.148   4.005   2.572  1.00  0.00     0.002 A 
ATOM     28  C   UNL     1      -0.890   3.803   3.189  1.00  0.00     0.002 A 
ENDBRANCH   9  20
BRANCH   6  29
ATOM     29  N   UNL     1      -3.337  -4.374  -0.217  1.00  0.00    -0.237 N 
ATOM     30  H   UNL     1      -3.284  -5.035  -1.026  1.00  0.00     0.376 HD
ATOM     31  H   UNL     1      -4.220  -3.823  -0.323  1.00  0.00     0.376 HD
BRANCH  29  32
ATOM     32  N   UNL     1      -3.417  -5.127   0.974  1.00  0.00    -0.178 NA
ATOM     33  H   UNL     1      -3.488  -4.475   1.790  1.00  0.00     0.183 HD
ATOM     34  H   UNL     1      -2.543  -5.694   1.083  1.00  0.00     0.183 HD
ENDBRANCH  29  32
ENDBRANCH   6  29
TORSDOF 6


