MODEL 1
REMARK VINA RESULT:     -10.4      0.000      0.000
REMARK SMILES Cc1cc(Cl)ccc1C(=O)[N-][C@H]1CC12CCC2
REMARK SMILES IDX 9 1 10 2 8 3 2 4 3 5 4 6 7 7 6 8 1 9 5 10 11 11 12 12 13 13
REMARK SMILES IDX 14 14 15 15 17 16 16 17
REMARK H PARENT
ROOT
ATOM      1  C   UNL     1      44.466 131.499  17.392  1.00  0.00     0.082 C 
ATOM      2  O   UNL     1      43.445 131.682  16.674  1.00  0.00    -0.315 OA
ENDROOT
BRANCH   1   3
ATOM      3  C   UNL     1      44.327 131.454  18.869  1.00  0.00     0.002 A 
ATOM      4  C   UNL     1      43.126 131.811  19.543  1.00  0.00    -0.040 A 
ATOM      5  C   UNL     1      43.062 131.693  20.943  1.00  0.00     0.024 A 
ATOM      6  C   UNL     1      44.170 131.265  21.675  1.00  0.00     0.041 A 
ATOM      7  C   UNL     1      45.437 131.041  19.629  1.00  0.00     0.012 A 
ATOM      8  C   UNL     1      45.357 130.946  21.019  1.00  0.00     0.021 A 
ATOM      9  C   UNL     1      41.912 132.324  18.811  1.00  0.00     0.045 C 
ATOM     10  Cl  UNL     1      44.072 131.136  23.422  1.00  0.00    -0.084 Cl
ENDBRANCH   1   3
BRANCH   1  11
ATOM     11  N   UNL     1      45.750 131.380  16.774  1.00  0.00    -0.646 NA
BRANCH  11  12
ATOM     12  C   UNL     1      46.264 130.113  16.273  1.00  0.00    -0.100 C 
ATOM     13  C   UNL     1      45.423 129.534  15.130  1.00  0.00    -0.010 C 
ATOM     14  C   UNL     1      46.768 130.193  14.854  1.00  0.00    -0.044 C 
ATOM     15  C   UNL     1      47.807 129.370  14.151  1.00  0.00     0.006 C 
ATOM     16  C   UNL     1      46.796 131.325  13.867  1.00  0.00     0.006 C 
ATOM     17  C   UNL     1      47.867 130.510  13.112  1.00  0.00     0.001 C 
ENDBRANCH  11  12
ENDBRANCH   1  11
TORSDOF 3
ENDMDL
MODEL 2
REMARK VINA RESULT:      -9.3      1.039      1.960
REMARK SMILES Cc1cc(Cl)ccc1C(=O)[N-][C@H]1CC12CCC2
REMARK SMILES IDX 9 1 10 2 8 3 2 4 3 5 4 6 7 7 6 8 1 9 5 10 11 11 12 12 13 13
REMARK SMILES IDX 14 14 15 15 17 16 16 17
REMARK H PARENT
ROOT
ATOM      1  C   UNL     1      44.761 131.625  17.687  1.00  0.00     0.082 C 
ATOM      2  O   UNL     1      45.428 132.612  17.272  1.00  0.00    -0.315 OA
ENDROOT
BRANCH   1   3
ATOM      3  C   UNL     1      44.209 131.637  19.064  1.00  0.00     0.002 A 
ATOM      4  C   UNL     1      44.912 131.108  20.183  1.00  0.00    -0.040 A 
ATOM      5  C   UNL     1      44.338 131.203  21.464  1.00  0.00     0.024 A 
ATOM      6  C   UNL     1      43.079 131.777  21.641  1.00  0.00     0.041 A 
ATOM      7  C   UNL     1      42.933 132.196  19.265  1.00  0.00     0.012 A 
ATOM      8  C   UNL     1      42.375 132.266  20.542  1.00  0.00     0.021 A 
ATOM      9  C   UNL     1      46.254 130.435  20.047  1.00  0.00     0.045 C 
ATOM     10  Cl  UNL     1      42.377 131.876  23.246  1.00  0.00    -0.084 Cl
ENDBRANCH   1   3
BRANCH   1  11
ATOM     11  N   UNL     1      44.582 130.489  16.837  1.00  0.00    -0.646 NA
BRANCH  11  12
ATOM     12  C   UNL     1      45.694 129.665  16.386  1.00  0.00    -0.100 C 
ATOM     13  C   UNL     1      45.335 128.772  15.193  1.00  0.00    -0.010 C 
ATOM     14  C   UNL     1      46.181 130.025  15.004  1.00  0.00    -0.044 C 
ATOM     15  C   UNL     1      47.536 129.855  14.383  1.00  0.00     0.006 C 
ATOM     16  C   UNL     1      45.700 131.044  14.010  1.00  0.00     0.006 C 
ATOM     17  C   UNL     1      47.082 130.897  13.339  1.00  0.00     0.001 C 
ENDBRANCH  11  12
ENDBRANCH   1  11
TORSDOF 3
ENDMDL
MODEL 3
REMARK VINA RESULT:      -9.1      1.436      1.594
REMARK SMILES Cc1cc(Cl)ccc1C(=O)[N-][C@H]1CC12CCC2
REMARK SMILES IDX 9 1 10 2 8 3 2 4 3 5 4 6 7 7 6 8 1 9 5 10 11 11 12 12 13 13
REMARK SMILES IDX 14 14 15 15 17 16 16 17
REMARK H PARENT
ROOT
ATOM      1  C   UNL     1      44.945 131.139  18.222  1.00  0.00     0.082 C 
ATOM      2  O   UNL     1      46.031 130.506  18.117  1.00  0.00    -0.315 OA
ENDROOT
BRANCH   1   3
ATOM      3  C   UNL     1      44.362 131.380  19.565  1.00  0.00     0.002 A 
ATOM      4  C   UNL     1      43.020 131.812  19.758  1.00  0.00    -0.040 A 
ATOM      5  C   UNL     1      42.530 131.971  21.067  1.00  0.00     0.024 A 
ATOM      6  C   UNL     1      43.353 131.742  22.171  1.00  0.00     0.041 A 
ATOM      7  C   UNL     1      45.179 131.172  20.693  1.00  0.00     0.012 A 
ATOM      8  C   UNL     1      44.677 131.350  21.982  1.00  0.00     0.021 A 
ATOM      9  C   UNL     1      42.098 132.120  18.606  1.00  0.00     0.045 C 
ATOM     10  Cl  UNL     1      42.725 131.955  23.795  1.00  0.00    -0.084 Cl
ENDBRANCH   1   3
BRANCH   1  11
ATOM     11  N   UNL     1      44.270 131.580  17.041  1.00  0.00    -0.646 NA
BRANCH  11  12
ATOM     12  C   UNL     1      44.259 130.805  15.809  1.00  0.00    -0.100 C 
ATOM     13  C   UNL     1      43.994 131.659  14.564  1.00  0.00    -0.010 C 
ATOM     14  C   UNL     1      45.395 131.148  14.878  1.00  0.00    -0.044 C 
ATOM     15  C   UNL     1      46.073 130.312  13.833  1.00  0.00     0.006 C 
ATOM     16  C   UNL     1      46.497 132.164  14.980  1.00  0.00     0.006 C 
ATOM     17  C   UNL     1      47.229 131.332  13.905  1.00  0.00     0.001 C 
ENDBRANCH  11  12
ENDBRANCH   1  11
TORSDOF 3
ENDMDL
MODEL 4
REMARK VINA RESULT:      -8.9      0.894      1.257
REMARK SMILES Cc1cc(Cl)ccc1C(=O)[N-][C@H]1CC12CCC2
REMARK SMILES IDX 9 1 10 2 8 3 2 4 3 5 4 6 7 7 6 8 1 9 5 10 11 11 12 12 13 13
REMARK SMILES IDX 14 14 15 15 17 16 16 17
REMARK H PARENT
ROOT
ATOM      1  C   UNL     1      43.847 131.450  17.053  1.00  0.00     0.082 C 
ATOM      2  O   UNL     1      42.838 131.994  16.528  1.00  0.00    -0.315 OA
ENDROOT
BRANCH   1   3
ATOM      3  C   UNL     1      44.002 131.456  18.529  1.00  0.00     0.002 A 
ATOM      4  C   UNL     1      42.966 131.868  19.413  1.00  0.00    -0.040 A 
ATOM      5  C   UNL     1      43.177 131.798  20.802  1.00  0.00     0.024 A 
ATOM      6  C   UNL     1      44.398 131.361  21.317  1.00  0.00     0.041 A 
ATOM      7  C   UNL     1      45.231 131.035  19.072  1.00  0.00     0.012 A 
ATOM      8  C   UNL     1      45.425 130.987  20.452  1.00  0.00     0.021 A 
ATOM      9  C   UNL     1      41.643 132.393  18.915  1.00  0.00     0.045 C 
ATOM     10  Cl  UNL     1      44.644 131.290  23.052  1.00  0.00    -0.084 Cl
ENDBRANCH   1   3
BRANCH   1  11
ATOM     11  N   UNL     1      44.851 130.872  16.215  1.00  0.00    -0.646 NA
BRANCH  11  12
ATOM     12  C   UNL     1      45.282 131.488  14.969  1.00  0.00    -0.100 C 
ATOM     13  C   UNL     1      46.599 132.260  15.104  1.00  0.00    -0.010 C 
ATOM     14  C   UNL     1      46.558 130.899  14.421  1.00  0.00    -0.044 C 
ATOM     15  C   UNL     1      47.057 130.822  13.007  1.00  0.00     0.006 C 
ATOM     16  C   UNL     1      47.470 129.829  14.949  1.00  0.00     0.006 C 
ATOM     17  C   UNL     1      48.013 129.719  13.508  1.00  0.00     0.001 C 
ENDBRANCH  11  12
ENDBRANCH   1  11
TORSDOF 3
ENDMDL
MODEL 5
REMARK VINA RESULT:      -8.9      1.682      2.627
REMARK SMILES Cc1cc(Cl)ccc1C(=O)[N-][C@H]1CC12CCC2
REMARK SMILES IDX 9 1 10 2 8 3 2 4 3 5 4 6 7 7 6 8 1 9 5 10 11 11 12 12 13 13
REMARK SMILES IDX 14 14 15 15 17 16 16 17
REMARK H PARENT
ROOT
ATOM      1  C   UNL     1      45.090 130.639  17.139  1.00  0.00     0.082 C 
ATOM      2  O   UNL     1      46.203 130.199  17.537  1.00  0.00    -0.315 OA
ENDROOT
BRANCH   1   3
ATOM      3  C   UNL     1      44.164 131.279  18.107  1.00  0.00     0.002 A 
ATOM      4  C   UNL     1      44.488 131.464  19.479  1.00  0.00    -0.040 A 
ATOM      5  C   UNL     1      43.573 132.123  20.320  1.00  0.00     0.024 A 
ATOM      6  C   UNL     1      42.344 132.565  19.830  1.00  0.00     0.041 A 
ATOM      7  C   UNL     1      42.911 131.718  17.639  1.00  0.00     0.012 A 
ATOM      8  C   UNL     1      42.012 132.356  18.492  1.00  0.00     0.021 A 
ATOM      9  C   UNL     1      45.780 130.967  20.077  1.00  0.00     0.045 C 
ATOM     10  Cl  UNL     1      41.213 133.376  20.897  1.00  0.00    -0.084 Cl
ENDBRANCH   1   3
BRANCH   1  11
ATOM     11  N   UNL     1      44.718 130.477  15.768  1.00  0.00    -0.646 NA
BRANCH  11  12
ATOM     12  C   UNL     1      45.245 131.323  14.708  1.00  0.00    -0.100 C 
ATOM     13  C   UNL     1      46.518 132.073  15.116  1.00  0.00    -0.010 C 
ATOM     14  C   UNL     1      46.586 130.865  14.190  1.00  0.00    -0.044 C 
ATOM     15  C   UNL     1      47.221 131.062  12.845  1.00  0.00     0.006 C 
ATOM     16  C   UNL     1      47.478 129.727  14.599  1.00  0.00     0.006 C 
ATOM     17  C   UNL     1      48.160 129.898  13.225  1.00  0.00     0.001 C 
ENDBRANCH  11  12
ENDBRANCH   1  11
TORSDOF 3
ENDMDL
MODEL 6
REMARK VINA RESULT:      -8.7      1.688      2.416
REMARK SMILES Cc1cc(Cl)ccc1C(=O)[N-][C@H]1CC12CCC2
REMARK SMILES IDX 9 1 10 2 8 3 2 4 3 5 4 6 7 7 6 8 1 9 5 10 11 11 12 12 13 13
REMARK SMILES IDX 14 14 15 15 17 16 16 17
REMARK H PARENT
ROOT
ATOM      1  C   UNL     1      45.457 130.749  18.489  1.00  0.00     0.082 C 
ATOM      2  O   UNL     1      46.302 130.113  19.177  1.00  0.00    -0.315 OA
ENDROOT
BRANCH   1   3
ATOM      3  C   UNL     1      44.289 131.378  19.157  1.00  0.00     0.002 A 
ATOM      4  C   UNL     1      44.173 131.485  20.571  1.00  0.00    -0.040 A 
ATOM      5  C   UNL     1      43.057 132.139  21.122  1.00  0.00     0.024 A 
ATOM      6  C   UNL     1      42.051 132.650  20.301  1.00  0.00     0.041 A 
ATOM      7  C   UNL     1      43.254 131.886  18.349  1.00  0.00     0.012 A 
ATOM      8  C   UNL     1      42.148 132.517  18.917  1.00  0.00     0.021 A 
ATOM      9  C   UNL     1      45.204 130.912  21.510  1.00  0.00     0.045 C 
ATOM     10  Cl  UNL     1      40.661 133.453  21.009  1.00  0.00    -0.084 Cl
ENDBRANCH   1   3
BRANCH   1  11
ATOM     11  N   UNL     1      45.613 130.820  17.070  1.00  0.00    -0.646 NA
BRANCH  11  12
ATOM     12  C   UNL     1      46.261 129.768  16.300  1.00  0.00    -0.100 C 
ATOM     13  C   UNL     1      45.410 129.271  15.126  1.00  0.00    -0.010 C 
ATOM     14  C   UNL     1      46.605 130.185  14.892  1.00  0.00    -0.044 C 
ATOM     15  C   UNL     1      47.684 129.688  13.974  1.00  0.00     0.006 C 
ATOM     16  C   UNL     1      46.364 131.465  14.142  1.00  0.00     0.006 C 
ATOM     17  C   UNL     1      47.468 130.989  13.173  1.00  0.00     0.001 C 
ENDBRANCH  11  12
ENDBRANCH   1  11
TORSDOF 3
ENDMDL
MODEL 7
REMARK VINA RESULT:      -8.5      1.509      2.347
REMARK SMILES Cc1cc(Cl)ccc1C(=O)[N-][C@H]1CC12CCC2
REMARK SMILES IDX 9 1 10 2 8 3 2 4 3 5 4 6 7 7 6 8 1 9 5 10 11 11 12 12 13 13
REMARK SMILES IDX 14 14 15 15 17 16 16 17
REMARK H PARENT
ROOT
ATOM      1  C   UNL     1      44.856 131.254  18.186  1.00  0.00     0.082 C 
ATOM      2  O   UNL     1      46.012 130.756  18.114  1.00  0.00    -0.315 OA
ENDROOT
BRANCH   1   3
ATOM      3  C   UNL     1      44.206 131.415  19.511  1.00  0.00     0.002 A 
ATOM      4  C   UNL     1      44.740 130.858  20.706  1.00  0.00    -0.040 A 
ATOM      5  C   UNL     1      44.088 131.098  21.929  1.00  0.00     0.024 A 
ATOM      6  C   UNL     1      42.911 131.845  21.976  1.00  0.00     0.041 A 
ATOM      7  C   UNL     1      43.008 132.152  19.580  1.00  0.00     0.012 A 
ATOM      8  C   UNL     1      42.369 132.365  20.801  1.00  0.00     0.021 A 
ATOM      9  C   UNL     1      45.982 130.003  20.713  1.00  0.00     0.045 C 
ATOM     10  Cl  UNL     1      42.107 132.125  23.510  1.00  0.00    -0.084 Cl
ENDBRANCH   1   3
BRANCH   1  11
ATOM     11  N   UNL     1      44.169 131.618  16.986  1.00  0.00    -0.646 NA
BRANCH  11  12
ATOM     12  C   UNL     1      44.213 130.803  15.781  1.00  0.00    -0.100 C 
ATOM     13  C   UNL     1      43.957 131.608  14.502  1.00  0.00    -0.010 C 
ATOM     14  C   UNL     1      45.363 131.149  14.868  1.00  0.00    -0.044 C 
ATOM     15  C   UNL     1      46.093 130.300  13.869  1.00  0.00     0.006 C 
ATOM     16  C   UNL     1      46.432 132.200  14.964  1.00  0.00     0.006 C 
ATOM     17  C   UNL     1      47.216 131.356  13.936  1.00  0.00     0.001 C 
ENDBRANCH  11  12
ENDBRANCH   1  11
TORSDOF 3
ENDMDL
MODEL 8
REMARK VINA RESULT:      -8.5      2.984      6.363
REMARK SMILES Cc1cc(Cl)ccc1C(=O)[N-][C@H]1CC12CCC2
REMARK SMILES IDX 9 1 10 2 8 3 2 4 3 5 4 6 7 7 6 8 1 9 5 10 11 11 12 12 13 13
REMARK SMILES IDX 14 14 15 15 17 16 16 17
REMARK H PARENT
ROOT
ATOM      1  C   UNL     1      44.177 131.476  17.387  1.00  0.00     0.082 C 
ATOM      2  O   UNL     1      42.931 131.383  17.214  1.00  0.00    -0.315 OA
ENDROOT
BRANCH   1   3
ATOM      3  C   UNL     1      45.104 130.993  16.333  1.00  0.00     0.002 A 
ATOM      4  C   UNL     1      44.872 131.204  14.945  1.00  0.00    -0.040 A 
ATOM      5  C   UNL     1      45.824 130.757  14.012  1.00  0.00     0.024 A 
ATOM      6  C   UNL     1      46.972 130.082  14.430  1.00  0.00     0.041 A 
ATOM      7  C   UNL     1      46.260 130.295  16.730  1.00  0.00     0.012 A 
ATOM      8  C   UNL     1      47.184 129.846  15.788  1.00  0.00     0.021 A 
ATOM      9  C   UNL     1      43.629 131.886  14.430  1.00  0.00     0.045 C 
ATOM     10  Cl  UNL     1      48.142 129.523  13.250  1.00  0.00    -0.084 Cl
ENDBRANCH   1   3
BRANCH   1  11
ATOM     11  N   UNL     1      44.681 132.006  18.616  1.00  0.00    -0.646 NA
BRANCH  11  12
ATOM     12  C   UNL     1      45.299 131.170  19.635  1.00  0.00    -0.100 C 
ATOM     13  C   UNL     1      45.778 131.966  20.855  1.00  0.00    -0.010 C 
ATOM     14  C   UNL     1      44.513 131.118  20.922  1.00  0.00    -0.044 C 
ATOM     15  C   UNL     1      44.454 130.050  21.974  1.00  0.00     0.006 C 
ATOM     16  C   UNL     1      43.243 131.800  21.344  1.00  0.00     0.006 C 
ATOM     17  C   UNL     1      43.145 130.720  22.442  1.00  0.00     0.001 C 
ENDBRANCH  11  12
ENDBRANCH   1  11
TORSDOF 3
ENDMDL
MODEL 9
REMARK VINA RESULT:      -8.5      1.106      2.217
REMARK SMILES Cc1cc(Cl)ccc1C(=O)[N-][C@H]1CC12CCC2
REMARK SMILES IDX 9 1 10 2 8 3 2 4 3 5 4 6 7 7 6 8 1 9 5 10 11 11 12 12 13 13
REMARK SMILES IDX 14 14 15 15 17 16 16 17
REMARK H PARENT
ROOT
ATOM      1  C   UNL     1      43.679 131.430  16.400  1.00  0.00     0.082 C 
ATOM      2  O   UNL     1      42.757 132.029  15.781  1.00  0.00    -0.315 OA
ENDROOT
BRANCH   1   3
ATOM      3  C   UNL     1      43.705 131.458  17.884  1.00  0.00     0.002 A 
ATOM      4  C   UNL     1      44.826 131.025  18.645  1.00  0.00    -0.040 A 
ATOM      5  C   UNL     1      44.789 131.129  20.047  1.00  0.00     0.024 A 
ATOM      6  C   UNL     1      43.655 131.619  20.697  1.00  0.00     0.041 A 
ATOM      7  C   UNL     1      42.566 131.932  18.561  1.00  0.00     0.012 A 
ATOM      8  C   UNL     1      42.543 132.013  19.954  1.00  0.00     0.021 A 
ATOM      9  C   UNL     1      46.061 130.444  18.003  1.00  0.00     0.045 C 
ATOM     10  Cl  UNL     1      43.624 131.731  22.447  1.00  0.00    -0.084 Cl
ENDBRANCH   1   3
BRANCH   1  11
ATOM     11  N   UNL     1      44.709 130.768  15.663  1.00  0.00    -0.646 NA
BRANCH  11  12
ATOM     12  C   UNL     1      45.346 131.365  14.498  1.00  0.00    -0.100 C 
ATOM     13  C   UNL     1      46.638 132.116  14.838  1.00  0.00    -0.010 C 
ATOM     14  C   UNL     1      46.682 130.749  14.166  1.00  0.00    -0.044 C 
ATOM     15  C   UNL     1      47.401 130.650  12.853  1.00  0.00     0.006 C 
ATOM     16  C   UNL     1      47.479 129.669  14.842  1.00  0.00     0.006 C 
ATOM     17  C   UNL     1      48.244 129.536  13.508  1.00  0.00     0.001 C 
ENDBRANCH  11  12
ENDBRANCH   1  11
TORSDOF 3
ENDMDL


