REMARK SMILES NN[C@H]1CCC[C@H]2C=c3ccccc3=C[C@]21c1cc(F)cc(F)c1O
REMARK SMILES IDX 3 1 4 2 5 3 6 4 7 5 8 6 9 7 10 8 11 9 12 10 13 11 14 12
REMARK SMILES IDX 15 13 16 14 2 15 1 17 17 20 18 21 24 22 19 23 22 24 21 25
REMARK SMILES IDX 20 26 23 27 25 28
REMARK H PARENT 2 16 1 18 1 19 25 29
ROOT
ATOM      1  C   UNL     1       2.091   0.463  -0.215  1.00  0.00     0.084 C 
ATOM      2  C   UNL     1       3.123  -0.538  -0.813  1.00  0.00     0.022 C 
ATOM      3  C   UNL     1       2.517  -1.535  -1.818  1.00  0.00     0.002 C 
ATOM      4  C   UNL     1       1.253  -0.983  -2.473  1.00  0.00     0.009 C 
ATOM      5  C   UNL     1       0.136  -0.691  -1.437  1.00  0.00     0.028 C 
ATOM      6  C   UNL     1      -0.784  -1.881  -1.323  1.00  0.00    -0.014 C 
ATOM      7  C   UNL     1      -0.674  -2.779  -0.333  1.00  0.00    -0.022 A 
ATOM      8  C   UNL     1      -1.431  -3.964  -0.384  1.00  0.00     0.008 A 
ATOM      9  C   UNL     1      -1.287  -4.940   0.604  1.00  0.00     0.001 A 
ATOM     10  C   UNL     1      -0.390  -4.746   1.653  1.00  0.00     0.001 A 
ATOM     11  C   UNL     1       0.351  -3.567   1.732  1.00  0.00     0.008 A 
ATOM     12  C   UNL     1       0.206  -2.562   0.755  1.00  0.00    -0.022 A 
ATOM     13  C   UNL     1       0.870  -1.400   0.897  1.00  0.00    -0.004 C 
ATOM     14  C   UNL     1       0.672  -0.203  -0.032  1.00  0.00     0.041 C 
ENDROOT
BRANCH   1  15
ATOM     15  N   UNL     1       2.605   1.006   1.058  1.00  0.00    -0.256 NA
ATOM     16  H   UNL     1       1.906   1.665   1.476  1.00  0.00     0.141 HD
BRANCH  15  17
ATOM     17  N   UNL     1       3.783   1.737   0.805  1.00  0.00    -0.271 NA
ATOM     18  H   UNL     1       3.522   2.686   0.444  1.00  0.00     0.137 HD
ATOM     19  H   UNL     1       4.259   1.880   1.724  1.00  0.00     0.137 HD
ENDBRANCH  15  17
ENDBRANCH   1  15
BRANCH  14  20
ATOM     20  C   UNL     1      -0.342   0.833   0.546  1.00  0.00     0.012 A 
ATOM     21  C   UNL     1      -0.508   2.058  -0.149  1.00  0.00     0.048 A 
ATOM     22  C   UNL     1      -1.142   0.632   1.716  1.00  0.00     0.155 A 
ATOM     23  C   UNL     1      -1.388   3.042   0.299  1.00  0.00     0.126 A 
ATOM     24  C   UNL     1      -2.023   1.639   2.151  1.00  0.00     0.168 A 
ATOM     25  C   UNL     1      -2.140   2.835   1.448  1.00  0.00     0.082 A 
ATOM     26  F   UNL     1      -1.516   4.201  -0.392  1.00  0.00    -0.207 F 
ATOM     27  F   UNL     1      -2.777   1.458   3.264  1.00  0.00    -0.203 F 
BRANCH  22  28
ATOM     28  O   UNL     1      -1.079  -0.550   2.452  1.00  0.00    -0.505 OA
ATOM     29  H   UNL     1      -1.641  -0.709   3.280  1.00  0.00     0.293 HD
ENDBRANCH  22  28
ENDBRANCH  14  20
TORSDOF 4


