REMARK SMILES Cc1ccc(-c2cc(F)c3[nH+]cccc3c2)c(F)n1
REMARK SMILES IDX 6 1 7 2 8 3 9 4 10 5 11 6 12 7 13 8 14 9 15 10 16 11 5 13
REMARK SMILES IDX 2 14 3 15 19 16 4 17 17 18 1 19 18 20
REMARK H PARENT 11 12
ROOT
ATOM      1  C   UNL     1      -0.757  -0.218   0.036  1.00  0.00    -0.010 A 
ATOM      2  C   UNL     1      -1.363  -1.167   0.876  1.00  0.00     0.055 A 
ATOM      3  C   UNL     1      -2.242  -0.766   1.888  1.00  0.00     0.195 A 
ATOM      4  F   UNL     1      -2.808  -1.709   2.683  1.00  0.00    -0.200 F 
ATOM      5  C   UNL     1      -2.527   0.596   2.077  1.00  0.00     0.246 A 
ATOM      6  N   UNL     1      -3.384   1.003   3.061  1.00  0.00    -0.209 N 
ATOM      7  C   UNL     1      -3.667   2.320   3.256  1.00  0.00     0.307 A 
ATOM      8  C   UNL     1      -3.083   3.296   2.447  1.00  0.00     0.071 A 
ATOM      9  C   UNL     1      -2.204   2.913   1.435  1.00  0.00     0.021 A 
ATOM     10  C   UNL     1      -1.915   1.556   1.239  1.00  0.00     0.050 A 
ATOM     11  C   UNL     1      -1.035   1.146   0.227  1.00  0.00     0.024 A 
ATOM     12  H   UNL     1      -3.841   0.303   3.688  1.00  0.00     0.453 HD
ENDROOT
BRANCH   1  13
ATOM     13  C   UNL     1       0.181  -0.647  -1.031  1.00  0.00     0.037 A 
ATOM     14  C   UNL     1       1.946  -1.466  -3.031  1.00  0.00     0.041 A 
ATOM     15  C   UNL     1       2.296  -0.399  -2.197  1.00  0.00     0.024 A 
ATOM     16  N   UNL     1       0.745  -2.084  -2.867  1.00  0.00    -0.225 NA
ATOM     17  C   UNL     1       1.411   0.009  -1.198  1.00  0.00     0.015 A 
ATOM     18  C   UNL     1      -0.134  -1.709  -1.900  1.00  0.00     0.220 A 
ATOM     19  C   UNL     1       2.871  -1.912  -4.118  1.00  0.00     0.067 C 
ATOM     20  F   UNL     1      -1.328  -2.348  -1.813  1.00  0.00    -0.184 F 
ENDBRANCH   1  13
TORSDOF 1


