REMARK SMILES Cc1ccc2ccc([C@H]3CCCN(c4ccc(F)c(F)n4)[C@H]3F)nc2c1F
REMARK SMILES IDX 9 1 10 2 11 3 12 4 13 5 22 6 23 7 8 8 2 9 3 10 26 11 4 12
REMARK SMILES IDX 25 13 5 14 24 15 6 16 7 17 1 18 27 19 14 20 15 21 21 22
REMARK SMILES IDX 16 23 19 24 17 25 20 26 18 27
REMARK H PARENT
ROOT
ATOM      1  C   UNL     1      -2.213   1.230   1.623  1.00  0.00     0.093 C 
ATOM      2  C   UNL     1      -1.622   1.109   3.041  1.00  0.00     0.017 C 
ATOM      3  C   UNL     1      -0.111   0.844   3.017  1.00  0.00     0.022 C 
ATOM      4  C   UNL     1       0.625   1.897   2.183  1.00  0.00     0.121 C 
ATOM      5  N   UNL     1       0.011   2.027   0.856  1.00  0.00    -0.326 N 
ATOM      6  C   UNL     1      -1.439   2.282   0.801  1.00  0.00     0.273 C 
ATOM      7  F   UNL     1      -1.910   2.298  -0.503  1.00  0.00    -0.223 F 
ENDROOT
BRANCH   1   8
ATOM      8  C   UNL     1      -2.266  -0.120   0.935  1.00  0.00     0.049 A 
ATOM      9  C   UNL     1       0.005  -3.539  -1.585  1.00  0.00    -0.013 A 
ATOM     10  C   UNL     1      -1.150  -4.339  -1.547  1.00  0.00     0.007 A 
ATOM     11  C   UNL     1       0.001  -2.285  -0.950  1.00  0.00     0.152 A 
ATOM     12  C   UNL     1      -2.304  -3.887  -0.901  1.00  0.00     0.011 A 
ATOM     13  C   UNL     1      -1.156  -1.828  -0.305  1.00  0.00     0.106 A 
ATOM     14  C   UNL     1      -2.315  -2.632  -0.279  1.00  0.00     0.003 A 
ATOM     15  N   UNL     1      -1.164  -0.611   0.300  1.00  0.00    -0.249 NA
ATOM     16  C   UNL     1      -3.454  -2.156   0.380  1.00  0.00     0.012 A 
ATOM     17  C   UNL     1      -3.430  -0.901   0.993  1.00  0.00     0.025 A 
ATOM     18  C   UNL     1       1.251  -4.039  -2.257  1.00  0.00     0.047 C 
ATOM     19  F   UNL     1       1.118  -1.512  -0.957  1.00  0.00    -0.204 F 
ENDBRANCH   1   8
BRANCH   5  20
ATOM     20  C   UNL     1       0.855   2.369  -0.259  1.00  0.00     0.134 A 
ATOM     21  C   UNL     1       0.682   1.751  -1.508  1.00  0.00     0.050 A 
ATOM     22  N   UNL     1       1.867   3.267  -0.092  1.00  0.00    -0.200 NA
ATOM     23  C   UNL     1       1.536   2.082  -2.562  1.00  0.00     0.048 A 
ATOM     24  C   UNL     1       2.708   3.603  -1.107  1.00  0.00     0.250 A 
ATOM     25  C   UNL     1       2.555   3.015  -2.365  1.00  0.00     0.178 A 
ATOM     26  F   UNL     1       3.696   4.505  -0.891  1.00  0.00    -0.182 F 
ATOM     27  F   UNL     1       3.389   3.341  -3.382  1.00  0.00    -0.202 F 
ENDBRANCH   5  20
TORSDOF 2


