REMARK SMILES C=Cc1cc([C@@H]2O[C@H]2c2ccccc2)c(N)c([O-])c1[NH2+]c1ccc(C)c(F)c1
REMARK SMILES IDX 3 1 4 2 5 3 15 4 17 5 18 6 19 7 2 8 1 9 20 10 21 13 22 14
REMARK SMILES IDX 28 15 23 16 26 17 24 18 27 19 25 20 6 21 7 22 8 23 9 24
REMARK SMILES IDX 10 25 14 26 11 27 13 28 12 29 16 30
REMARK H PARENT 20 11 20 12 16 31 16 32
ROOT
ATOM      1  C   UNL     1       2.444  -1.372  -0.092  1.00  0.00     0.035 A 
ATOM      2  C   UNL     1       1.580  -2.163  -0.865  1.00  0.00     0.023 A 
ATOM      3  C   UNL     1       0.439  -2.755  -0.311  1.00  0.00     0.007 A 
ATOM      4  C   UNL     1       0.176  -2.601   1.066  1.00  0.00     0.035 A 
ATOM      5  C   UNL     1       1.034  -1.812   1.853  1.00  0.00    -0.020 A 
ATOM      6  O   UNL     1       0.754  -1.649   3.207  1.00  0.00    -0.867 OA
ATOM      7  C   UNL     1       2.171  -1.187   1.289  1.00  0.00     0.136 A 
ENDROOT
BRANCH   1   8
ATOM      8  C   UNL     1       3.645  -0.777  -0.729  1.00  0.00     0.006 C 
ATOM      9  C   UNL     1       3.620  -0.250  -1.953  1.00  0.00     0.009 C 
ENDBRANCH   1   8
BRANCH   7  10
ATOM     10  N   UNL     1       3.001  -0.323   2.109  1.00  0.00    -0.281 N 
ATOM     11  H   UNL     1       2.839  -0.490   3.128  1.00  0.00     0.358 HD
ATOM     12  H   UNL     1       4.010  -0.545   1.956  1.00  0.00     0.358 HD
BRANCH  10  13
ATOM     13  C   UNL     1       2.717   1.066   1.827  1.00  0.00     0.137 A 
ATOM     14  C   UNL     1       1.479   1.627   2.187  1.00  0.00     0.068 A 
ATOM     15  C   UNL     1       3.680   1.883   1.209  1.00  0.00     0.107 A 
ATOM     16  C   UNL     1       1.200   2.968   1.910  1.00  0.00     0.012 A 
ATOM     17  C   UNL     1       3.402   3.225   0.930  1.00  0.00     0.132 A 
ATOM     18  C   UNL     1       2.154   3.772   1.268  1.00  0.00    -0.015 A 
ATOM     19  F   UNL     1       4.351   3.990   0.333  1.00  0.00    -0.206 F 
ATOM     20  C   UNL     1       1.864   5.219   0.990  1.00  0.00     0.047 C 
ENDBRANCH  10  13
ENDBRANCH   7  10
BRANCH   3  21
ATOM     21  C   UNL     1      -0.444  -3.595  -1.198  1.00  0.00     0.185 C 
ATOM     22  O   UNL     1      -0.729  -2.928  -2.407  1.00  0.00    -0.359 OA
ATOM     23  C   UNL     1      -1.794  -3.047  -1.494  1.00  0.00     0.183 C 
BRANCH  23  24
ATOM     24  C   UNL     1      -2.822  -4.011  -2.011  1.00  0.00    -0.016 A 
ATOM     25  C   UNL     1      -3.163  -5.160  -1.278  1.00  0.00     0.006 A 
ATOM     26  C   UNL     1      -3.488  -3.739  -3.216  1.00  0.00     0.006 A 
ATOM     27  C   UNL     1      -4.142  -6.035  -1.759  1.00  0.00     0.000 A 
ATOM     28  C   UNL     1      -4.467  -4.617  -3.693  1.00  0.00     0.000 A 
ATOM     29  C   UNL     1      -4.793  -5.765  -2.966  1.00  0.00     0.000 A 
ENDBRANCH  23  24
ENDBRANCH   3  21
BRANCH   4  30
ATOM     30  N   UNL     1      -0.953  -3.245   1.679  1.00  0.00    -0.399 N 
ATOM     31  H   UNL     1      -1.176  -3.104   2.689  1.00  0.00     0.156 HD
ATOM     32  H   UNL     1      -1.571  -3.895   1.149  1.00  0.00     0.156 HD
ENDBRANCH   4  30
TORSDOF 6


