MODEL 1
REMARK VINA RESULT:      -9.6      0.000      0.000
REMARK SMILES Cc1ccc(CCC(C#N)=C2CCC2)c(C)c1
REMARK SMILES IDX 7 1 6 2 5 3 2 4 3 5 17 6 4 7 15 8 1 9 16 10 8 11 9 12 10 13
REMARK SMILES IDX 11 14 12 15 14 16 13 17
REMARK H PARENT
ROOT
ATOM      1  C   UNL     1      45.488 131.618  16.506  1.00  0.00     0.052 C 
ENDROOT
BRANCH   1   2
ATOM      2  C   UNL     1      44.094 131.706  17.148  1.00  0.00     0.041 C 
BRANCH   2   3
ATOM      3  C   UNL     1      44.152 131.548  18.655  1.00  0.00    -0.045 A 
ATOM      4  C   UNL     1      44.360 131.133  21.439  1.00  0.00    -0.051 A 
ATOM      5  C   UNL     1      45.442 130.848  20.600  1.00  0.00     0.004 A 
ATOM      6  C   UNL     1      43.181 131.656  20.890  1.00  0.00     0.007 A 
ATOM      7  C   UNL     1      45.337 131.050  19.224  1.00  0.00     0.004 A 
ATOM      8  C   UNL     1      43.058 131.863  19.504  1.00  0.00    -0.048 A 
ATOM      9  C   UNL     1      44.486 130.953  22.923  1.00  0.00     0.044 C 
ATOM     10  C   UNL     1      41.774 132.440  18.969  1.00  0.00     0.044 C 
ENDBRANCH   2   3
ENDBRANCH   1   2
BRANCH   1  11
ATOM     11  C   UNL     1      45.419 131.241  15.051  1.00  0.00     0.029 C 
BRANCH  11  12
ATOM     12  C   UNL     1      44.186 131.414  14.326  1.00  0.00     0.095 C 
ATOM     13  N   UNL     1      43.196 131.555  13.743  1.00  0.00    -0.193 NA
ENDBRANCH  11  12
BRANCH  11  14
ATOM     14  C   UNL     1      46.481 130.738  14.422  1.00  0.00    -0.057 C 
ATOM     15  C   UNL     1      47.351 129.500  14.522  1.00  0.00     0.032 C 
ATOM     16  C   UNL     1      47.387 131.125  13.267  1.00  0.00     0.032 C 
ATOM     17  C   UNL     1      48.232 129.898  13.382  1.00  0.00     0.009 C 
ENDBRANCH  11  14
ENDBRANCH   1  11
TORSDOF 5
ENDMDL
MODEL 2
REMARK VINA RESULT:      -9.1      1.012      2.215
REMARK SMILES Cc1ccc(CCC(C#N)=C2CCC2)c(C)c1
REMARK SMILES IDX 7 1 6 2 5 3 2 4 3 5 17 6 4 7 15 8 1 9 16 10 8 11 9 12 10 13
REMARK SMILES IDX 11 14 12 15 14 16 13 17
REMARK H PARENT
ROOT
ATOM      1  C   UNL     1      45.201 129.774  16.334  1.00  0.00     0.052 C 
ENDROOT
BRANCH   1   2
ATOM      2  C   UNL     1      45.773 130.672  17.442  1.00  0.00     0.041 C 
BRANCH   2   3
ATOM      3  C   UNL     1      44.684 131.248  18.326  1.00  0.00    -0.045 A 
ATOM      4  C   UNL     1      42.607 132.406  19.846  1.00  0.00    -0.051 A 
ATOM      5  C   UNL     1      42.443 132.193  18.474  1.00  0.00     0.004 A 
ATOM      6  C   UNL     1      43.800 132.011  20.467  1.00  0.00     0.007 A 
ATOM      7  C   UNL     1      43.471 131.625  17.722  1.00  0.00     0.004 A 
ATOM      8  C   UNL     1      44.847 131.438  19.723  1.00  0.00    -0.048 A 
ATOM      9  C   UNL     1      41.486 132.981  20.660  1.00  0.00     0.044 C 
ATOM     10  C   UNL     1      46.103 131.020  20.444  1.00  0.00     0.044 C 
ENDBRANCH   2   3
ENDBRANCH   1   2
BRANCH   1  11
ATOM     11  C   UNL     1      45.341 130.396  14.970  1.00  0.00     0.029 C 
BRANCH  11  12
ATOM     12  C   UNL     1      44.234 131.120  14.400  1.00  0.00     0.095 C 
ATOM     13  N   UNL     1      43.343 131.700  13.943  1.00  0.00    -0.193 NA
ENDBRANCH  11  12
BRANCH  11  14
ATOM     14  C   UNL     1      46.472 130.278  14.275  1.00  0.00    -0.057 C 
ATOM     15  C   UNL     1      47.650 129.324  14.219  1.00  0.00     0.032 C 
ATOM     16  C   UNL     1      47.188 131.026  13.166  1.00  0.00     0.032 C 
ATOM     17  C   UNL     1      48.340 130.074  13.125  1.00  0.00     0.009 C 
ENDBRANCH  11  14
ENDBRANCH   1  11
TORSDOF 5
ENDMDL
MODEL 3
REMARK VINA RESULT:      -8.1      0.801      1.986
REMARK SMILES Cc1ccc(CCC(C#N)=C2CCC2)c(C)c1
REMARK SMILES IDX 7 1 6 2 5 3 2 4 3 5 17 6 4 7 15 8 1 9 16 10 8 11 9 12 10 13
REMARK SMILES IDX 11 14 12 15 14 16 13 17
REMARK H PARENT
ROOT
ATOM      1  C   UNL     1      45.329 130.613  16.749  1.00  0.00     0.052 C 
ENDROOT
BRANCH   1   2
ATOM      2  C   UNL     1      45.037 131.944  17.460  1.00  0.00     0.041 C 
BRANCH   2   3
ATOM      3  C   UNL     1      44.426 131.733  18.832  1.00  0.00    -0.045 A 
ATOM      4  C   UNL     1      43.185 131.459  21.352  1.00  0.00    -0.051 A 
ATOM      5  C   UNL     1      42.443 131.869  20.240  1.00  0.00     0.004 A 
ATOM      6  C   UNL     1      44.545 131.154  21.198  1.00  0.00     0.007 A 
ATOM      7  C   UNL     1      43.057 132.009  18.996  1.00  0.00     0.004 A 
ATOM      8  C   UNL     1      45.180 131.292  19.950  1.00  0.00    -0.048 A 
ATOM      9  C   UNL     1      42.515 131.271  22.681  1.00  0.00     0.044 C 
ATOM     10  C   UNL     1      46.640 130.939  19.839  1.00  0.00     0.044 C 
ENDBRANCH   2   3
ENDBRANCH   1   2
BRANCH   1  11
ATOM     11  C   UNL     1      45.345 130.761  15.251  1.00  0.00     0.029 C 
BRANCH  11  12
ATOM     12  C   UNL     1      44.171 131.244  14.570  1.00  0.00     0.095 C 
ATOM     13  N   UNL     1      43.229 131.633  14.021  1.00  0.00    -0.193 NA
ENDBRANCH  11  12
BRANCH  11  14
ATOM     14  C   UNL     1      46.426 130.441  14.541  1.00  0.00    -0.057 C 
ATOM     15  C   UNL     1      47.237 131.048  13.413  1.00  0.00     0.032 C 
ATOM     16  C   UNL     1      47.431 129.306  14.482  1.00  0.00     0.032 C 
ATOM     17  C   UNL     1      48.217 129.921  13.369  1.00  0.00     0.009 C 
ENDBRANCH  11  14
ENDBRANCH   1  11
TORSDOF 5
ENDMDL
MODEL 4
REMARK VINA RESULT:      -8.1      1.796      6.487
REMARK SMILES Cc1ccc(CCC(C#N)=C2CCC2)c(C)c1
REMARK SMILES IDX 7 1 6 2 5 3 2 4 3 5 17 6 4 7 15 8 1 9 16 10 8 11 9 12 10 13
REMARK SMILES IDX 11 14 12 15 14 16 13 17
REMARK H PARENT
ROOT
ATOM      1  C   UNL     1      44.672 131.750  18.721  1.00  0.00     0.052 C 
ENDROOT
BRANCH   1   2
ATOM      2  C   UNL     1      43.982 131.453  17.380  1.00  0.00     0.041 C 
BRANCH   2   3
ATOM      3  C   UNL     1      44.966 130.987  16.326  1.00  0.00    -0.045 A 
ATOM      4  C   UNL     1      46.917 130.146  14.467  1.00  0.00    -0.051 A 
ATOM      5  C   UNL     1      47.106 129.930  15.836  1.00  0.00     0.004 A 
ATOM      6  C   UNL     1      45.736 130.756  14.022  1.00  0.00     0.007 A 
ATOM      7  C   UNL     1      46.144 130.350  16.754  1.00  0.00     0.004 A 
ATOM      8  C   UNL     1      44.757 131.187  14.936  1.00  0.00    -0.048 A 
ATOM      9  C   UNL     1      47.934 129.659  13.478  1.00  0.00     0.044 C 
ATOM     10  C   UNL     1      43.500 131.825  14.403  1.00  0.00     0.044 C 
ENDBRANCH   2   3
ENDBRANCH   1   2
BRANCH   1  11
ATOM     11  C   UNL     1      43.701 131.752  19.872  1.00  0.00     0.029 C 
BRANCH  11  12
ATOM     12  C   UNL     1      42.484 132.515  19.776  1.00  0.00     0.095 C 
ATOM     13  N   UNL     1      41.505 133.127  19.698  1.00  0.00    -0.193 NA
ENDBRANCH  11  12
BRANCH  11  14
ATOM     14  C   UNL     1      43.956 131.065  20.985  1.00  0.00    -0.057 C 
ATOM     15  C   UNL     1      43.214 130.683  22.252  1.00  0.00     0.032 C 
ATOM     16  C   UNL     1      45.116 130.291  21.583  1.00  0.00     0.032 C 
ATOM     17  C   UNL     1      44.369 129.925  22.824  1.00  0.00     0.009 C 
ENDBRANCH  11  14
ENDBRANCH   1  11
TORSDOF 5
ENDMDL
MODEL 5
REMARK VINA RESULT:      -7.7      1.255      1.453
REMARK SMILES Cc1ccc(CCC(C#N)=C2CCC2)c(C)c1
REMARK SMILES IDX 7 1 6 2 5 3 2 4 3 5 17 6 4 7 15 8 1 9 16 10 8 11 9 12 10 13
REMARK SMILES IDX 11 14 12 15 14 16 13 17
REMARK H PARENT
ROOT
ATOM      1  C   UNL     1      45.938 131.390  16.599  1.00  0.00     0.052 C 
ENDROOT
BRANCH   1   2
ATOM      2  C   UNL     1      44.492 131.619  17.068  1.00  0.00     0.041 C 
BRANCH   2   3
ATOM      3  C   UNL     1      44.362 131.518  18.576  1.00  0.00    -0.045 A 
ATOM      4  C   UNL     1      44.226 131.212  21.378  1.00  0.00    -0.051 A 
ATOM      5  C   UNL     1      45.419 130.951  20.696  1.00  0.00     0.004 A 
ATOM      6  C   UNL     1      43.106 131.657  20.663  1.00  0.00     0.007 A 
ATOM      7  C   UNL     1      45.484 131.098  19.311  1.00  0.00     0.004 A 
ATOM      8  C   UNL     1      43.155 131.808  19.265  1.00  0.00    -0.048 A 
ATOM      9  C   UNL     1      44.168 131.091  22.872  1.00  0.00     0.044 C 
ATOM     10  C   UNL     1      41.926 132.303  18.547  1.00  0.00     0.044 C 
ENDBRANCH   2   3
ENDBRANCH   1   2
BRANCH   1  11
ATOM     11  C   UNL     1      46.028 130.330  15.533  1.00  0.00     0.029 C 
BRANCH  11  12
ATOM     12  C   UNL     1      45.187 129.164  15.616  1.00  0.00     0.095 C 
ATOM     13  N   UNL     1      44.510 128.227  15.680  1.00  0.00    -0.193 NA
ENDBRANCH  11  12
BRANCH  11  14
ATOM     14  C   UNL     1      46.883 130.449  14.518  1.00  0.00    -0.057 C 
ATOM     15  C   UNL     1      47.323 131.534  13.554  1.00  0.00     0.032 C 
ATOM     16  C   UNL     1      47.880 129.571  13.785  1.00  0.00     0.032 C 
ATOM     17  C   UNL     1      48.300 130.653  12.845  1.00  0.00     0.009 C 
ENDBRANCH  11  14
ENDBRANCH   1  11
TORSDOF 5
ENDMDL
MODEL 6
REMARK VINA RESULT:      -7.6      2.125      6.755
REMARK SMILES Cc1ccc(CCC(C#N)=C2CCC2)c(C)c1
REMARK SMILES IDX 7 1 6 2 5 3 2 4 3 5 17 6 4 7 15 8 1 9 16 10 8 11 9 12 10 13
REMARK SMILES IDX 11 14 12 15 14 16 13 17
REMARK H PARENT
ROOT
ATOM      1  C   UNL     1      44.673 132.085  18.067  1.00  0.00     0.052 C 
ENDROOT
BRANCH   1   2
ATOM      2  C   UNL     1      44.117 131.107  17.020  1.00  0.00     0.041 C 
BRANCH   2   3
ATOM      3  C   UNL     1      45.153 130.744  15.975  1.00  0.00    -0.045 A 
ATOM      4  C   UNL     1      47.195 130.086  14.141  1.00  0.00    -0.051 A 
ATOM      5  C   UNL     1      47.332 129.764  15.495  1.00  0.00     0.004 A 
ATOM      6  C   UNL     1      46.022 130.710  13.696  1.00  0.00     0.007 A 
ATOM      7  C   UNL     1      46.325 130.093  16.402  1.00  0.00     0.004 A 
ATOM      8  C   UNL     1      44.998 131.051  14.598  1.00  0.00    -0.048 A 
ATOM      9  C   UNL     1      48.262 129.697  13.161  1.00  0.00     0.044 C 
ATOM     10  C   UNL     1      43.752 131.709  14.064  1.00  0.00     0.044 C 
ENDBRANCH   2   3
ENDBRANCH   1   2
BRANCH   1  11
ATOM     11  C   UNL     1      44.362 131.649  19.474  1.00  0.00     0.029 C 
BRANCH  11  12
ATOM     12  C   UNL     1      45.242 130.730  20.147  1.00  0.00     0.095 C 
ATOM     13  N   UNL     1      45.952 129.991  20.686  1.00  0.00    -0.193 NA
ENDBRANCH  11  12
BRANCH  11  14
ATOM     14  C   UNL     1      43.274 132.092  20.104  1.00  0.00    -0.057 C 
ATOM     15  C   UNL     1      42.006 132.843  19.744  1.00  0.00     0.032 C 
ATOM     16  C   UNL     1      42.714 132.081  21.515  1.00  0.00     0.032 C 
ATOM     17  C   UNL     1      41.472 132.821  21.139  1.00  0.00     0.009 C 
ENDBRANCH  11  14
ENDBRANCH   1  11
TORSDOF 5
ENDMDL
MODEL 7
REMARK VINA RESULT:      -7.5      1.598      6.503
REMARK SMILES Cc1ccc(CCC(C#N)=C2CCC2)c(C)c1
REMARK SMILES IDX 7 1 6 2 5 3 2 4 3 5 17 6 4 7 15 8 1 9 16 10 8 11 9 12 10 13
REMARK SMILES IDX 11 14 12 15 14 16 13 17
REMARK H PARENT
ROOT
ATOM      1  C   UNL     1      45.112 131.486  18.460  1.00  0.00     0.052 C 
ENDROOT
BRANCH   1   2
ATOM      2  C   UNL     1      45.132 130.173  17.661  1.00  0.00     0.041 C 
BRANCH   2   3
ATOM      3  C   UNL     1      45.709 130.362  16.272  1.00  0.00    -0.045 A 
ATOM      4  C   UNL     1      46.930 130.711  13.752  1.00  0.00    -0.051 A 
ATOM      5  C   UNL     1      47.567 129.964  14.747  1.00  0.00     0.004 A 
ATOM      6  C   UNL     1      45.665 131.259  14.004  1.00  0.00     0.007 A 
ATOM      7  C   UNL     1      46.966 129.796  15.994  1.00  0.00     0.004 A 
ATOM      8  C   UNL     1      45.046 131.101  15.258  1.00  0.00    -0.048 A 
ATOM      9  C   UNL     1      47.560 130.859  12.398  1.00  0.00     0.044 C 
ATOM     10  C   UNL     1      43.680 131.700  15.471  1.00  0.00     0.044 C 
ENDBRANCH   2   3
ENDBRANCH   1   2
BRANCH   1  11
ATOM     11  C   UNL     1      43.939 131.559  19.401  1.00  0.00     0.029 C 
BRANCH  11  12
ATOM     12  C   UNL     1      42.672 132.052  18.925  1.00  0.00     0.095 C 
ATOM     13  N   UNL     1      41.653 132.445  18.543  1.00  0.00    -0.193 NA
ENDBRANCH  11  12
BRANCH  11  14
ATOM     14  C   UNL     1      44.058 131.186  20.675  1.00  0.00    -0.057 C 
ATOM     15  C   UNL     1      45.031 130.378  21.513  1.00  0.00     0.032 C 
ATOM     16  C   UNL     1      43.293 131.370  21.973  1.00  0.00     0.032 C 
ATOM     17  C   UNL     1      44.263 130.571  22.780  1.00  0.00     0.009 C 
ENDBRANCH  11  14
ENDBRANCH   1  11
TORSDOF 5
ENDMDL
MODEL 8
REMARK VINA RESULT:      -7.4      1.165      1.693
REMARK SMILES Cc1ccc(CCC(C#N)=C2CCC2)c(C)c1
REMARK SMILES IDX 7 1 6 2 5 3 2 4 3 5 17 6 4 7 15 8 1 9 16 10 8 11 9 12 10 13
REMARK SMILES IDX 11 14 12 15 14 16 13 17
REMARK H PARENT
ROOT
ATOM      1  C   UNL     1      45.649 130.534  17.880  1.00  0.00     0.052 C 
ENDROOT
BRANCH   1   2
ATOM      2  C   UNL     1      45.356 131.712  18.823  1.00  0.00     0.041 C 
BRANCH   2   3
ATOM      3  C   UNL     1      44.677 131.262  20.101  1.00  0.00    -0.045 A 
ATOM      4  C   UNL     1      43.499 130.287  22.473  1.00  0.00    -0.051 A 
ATOM      5  C   UNL     1      44.811 129.936  22.141  1.00  0.00     0.004 A 
ATOM      6  C   UNL     1      42.783 131.153  21.635  1.00  0.00     0.007 A 
ATOM      7  C   UNL     1      45.391 130.414  20.967  1.00  0.00     0.004 A 
ATOM      8  C   UNL     1      43.354 131.642  20.445  1.00  0.00    -0.048 A 
ATOM      9  C   UNL     1      42.889 129.804  23.756  1.00  0.00     0.044 C 
ATOM     10  C   UNL     1      42.545 132.580  19.587  1.00  0.00     0.044 C 
ENDBRANCH   2   3
ENDBRANCH   1   2
BRANCH   1  11
ATOM     11  C   UNL     1      45.321 130.858  16.447  1.00  0.00     0.029 C 
BRANCH  11  12
ATOM     12  C   UNL     1      44.046 131.444  16.122  1.00  0.00     0.095 C 
ATOM     13  N   UNL     1      43.020 131.914  15.864  1.00  0.00    -0.193 NA
ENDBRANCH  11  12
BRANCH  11  14
ATOM     14  C   UNL     1      46.189 130.600  15.470  1.00  0.00    -0.057 C 
ATOM     15  C   UNL     1      46.810 131.349  14.306  1.00  0.00     0.032 C 
ATOM     16  C   UNL     1      47.028 129.427  14.997  1.00  0.00     0.032 C 
ATOM     17  C   UNL     1      47.629 130.182  13.856  1.00  0.00     0.009 C 
ENDBRANCH  11  14
ENDBRANCH   1  11
TORSDOF 5
ENDMDL
MODEL 9
REMARK VINA RESULT:      -7.4      0.770      1.112
REMARK SMILES Cc1ccc(CCC(C#N)=C2CCC2)c(C)c1
REMARK SMILES IDX 7 1 6 2 5 3 2 4 3 5 17 6 4 7 15 8 1 9 16 10 8 11 9 12 10 13
REMARK SMILES IDX 11 14 12 15 14 16 13 17
REMARK H PARENT
ROOT
ATOM      1  C   UNL     1      43.896 131.045  16.674  1.00  0.00     0.052 C 
ENDROOT
BRANCH   1   2
ATOM      2  C   UNL     1      44.835 131.832  17.603  1.00  0.00     0.041 C 
BRANCH   2   3
ATOM      3  C   UNL     1      44.603 131.493  19.062  1.00  0.00    -0.045 A 
ATOM      4  C   UNL     1      44.268 130.736  21.760  1.00  0.00    -0.051 A 
ATOM      5  C   UNL     1      45.468 130.467  21.096  1.00  0.00     0.004 A 
ATOM      6  C   UNL     1      43.243 131.413  21.085  1.00  0.00     0.007 A 
ATOM      7  C   UNL     1      45.632 130.837  19.761  1.00  0.00     0.004 A 
ATOM      8  C   UNL     1      43.392 131.792  19.738  1.00  0.00    -0.048 A 
ATOM      9  C   UNL     1      44.107 130.372  23.207  1.00  0.00     0.044 C 
ATOM     10  C   UNL     1      42.263 132.529  19.065  1.00  0.00     0.044 C 
ENDBRANCH   2   3
ENDBRANCH   1   2
BRANCH   1  11
ATOM     11  C   UNL     1      44.347 131.094  15.238  1.00  0.00     0.029 C 
BRANCH  11  12
ATOM     12  C   UNL     1      43.442 131.567  14.222  1.00  0.00     0.095 C 
ATOM     13  N   UNL     1      42.714 131.949  13.408  1.00  0.00    -0.193 NA
ENDBRANCH  11  12
BRANCH  11  14
ATOM     14  C   UNL     1      45.570 130.694  14.889  1.00  0.00    -0.057 C 
ATOM     15  C   UNL     1      46.844 131.331  14.369  1.00  0.00     0.032 C 
ATOM     16  C   UNL     1      46.348 129.392  14.830  1.00  0.00     0.032 C 
ATOM     17  C   UNL     1      47.593 130.040  14.317  1.00  0.00     0.009 C 
ENDBRANCH  11  14
ENDBRANCH   1  11
TORSDOF 5
ENDMDL


