REMARK SMILES Nc1cc([O-])c(F)cc1Nc1ccc2cc[nH]c2c1
REMARK SMILES IDX 2 1 3 2 4 3 5 4 6 5 7 6 8 7 9 8 1 9 10 12 11 14 12 15 19 16
REMARK SMILES IDX 13 17 18 18 14 19 17 20 15 21 16 22
REMARK H PARENT 1 10 1 11 10 13 17 23
ROOT
ATOM      1  C   UNL     1      -1.739   1.575  -1.717  1.00  0.00     0.055 A 
ATOM      2  C   UNL     1      -2.869   2.272  -2.172  1.00  0.00     0.022 A 
ATOM      3  C   UNL     1      -4.031   1.584  -2.531  1.00  0.00    -0.070 A 
ATOM      4  O   UNL     1      -5.142   2.287  -2.982  1.00  0.00    -0.870 OA
ATOM      5  C   UNL     1      -4.072   0.190  -2.444  1.00  0.00     0.117 A 
ATOM      6  F   UNL     1      -5.195  -0.483  -2.800  1.00  0.00    -0.208 F 
ATOM      7  C   UNL     1      -2.957  -0.515  -1.985  1.00  0.00     0.066 A 
ATOM      8  C   UNL     1      -1.794   0.167  -1.597  1.00  0.00     0.065 A 
ENDROOT
BRANCH   1   9
ATOM      9  N   UNL     1      -0.540   2.302  -1.421  1.00  0.00    -0.397 N 
ATOM     10  H   UNL     1       0.360   1.817  -1.214  1.00  0.00     0.156 HD
ATOM     11  H   UNL     1      -0.527   3.345  -1.467  1.00  0.00     0.156 HD
ENDBRANCH   1   9
BRANCH   8  12
ATOM     12  N   UNL     1      -0.678  -0.592  -1.109  1.00  0.00    -0.354 N 
ATOM     13  H   UNL     1      -0.348  -1.393  -1.694  1.00  0.00     0.167 HD
BRANCH  12  14
ATOM     14  C   UNL     1      -0.116  -0.430   0.206  1.00  0.00     0.041 A 
ATOM     15  C   UNL     1      -0.781   0.326   1.211  1.00  0.00     0.027 A 
ATOM     16  C   UNL     1       1.113  -1.057   0.509  1.00  0.00     0.052 A 
ATOM     17  C   UNL     1      -0.220   0.470   2.493  1.00  0.00     0.012 A 
ATOM     18  C   UNL     1       1.640  -0.895   1.788  1.00  0.00     0.047 A 
ATOM     19  C   UNL     1       0.997  -0.157   2.744  1.00  0.00    -0.001 A 
ATOM     20  N   UNL     1       2.788  -1.400   2.268  1.00  0.00    -0.361 N 
ATOM     21  C   UNL     1       1.770  -0.193   3.884  1.00  0.00     0.028 A 
ATOM     22  C   UNL     1       2.872  -0.974   3.550  1.00  0.00     0.083 A 
ATOM     23  H   UNL     1       3.477  -1.999   1.761  1.00  0.00     0.166 HD
ENDBRANCH  12  14
ENDBRANCH   8  12
TORSDOF 3


