REMARK SMILES CC(=O)c1ccc(-c2ccc(O)c(C(=O)[O-])c2)c2c[nH]nc12
REMARK SMILES IDX 4 1 5 2 6 3 7 4 18 5 19 6 20 7 21 8 22 9 2 11 1 12 3 13 8 14
REMARK SMILES IDX 9 15 17 16 10 17 13 18 11 19 14 20 15 21 16 22 12 23
REMARK H PARENT 20 10 12 24
ROOT
ATOM      1  C   UNL     1      -0.601   2.452  -1.829  1.00  0.00     0.045 A 
ATOM      2  C   UNL     1      -1.710   1.573  -1.895  1.00  0.00     0.015 A 
ATOM      3  C   UNL     1      -1.618   0.247  -1.421  1.00  0.00     0.010 A 
ATOM      4  C   UNL     1      -0.415  -0.248  -0.875  1.00  0.00    -0.007 A 
ATOM      5  C   UNL     1       0.665   0.641  -0.817  1.00  0.00     0.028 A 
ATOM      6  C   UNL     1       1.942   0.517  -0.312  1.00  0.00     0.114 A 
ATOM      7  N   UNL     1       2.566   1.702  -0.488  1.00  0.00    -0.284 N 
ATOM      8  N   UNL     1       1.747   2.571  -1.068  1.00  0.00    -0.175 NA
ATOM      9  C   UNL     1       0.579   1.933  -1.272  1.00  0.00     0.103 A 
ATOM     10  H   UNL     1       3.546   1.922  -0.205  1.00  0.00     0.189 HD
ENDROOT
BRANCH   1  11
ATOM     11  C   UNL     1      -0.685   3.855  -2.320  1.00  0.00     0.162 C 
ATOM     12  C   UNL     1      -1.954   4.416  -2.889  1.00  0.00     0.093 C 
ATOM     13  O   UNL     1       0.327   4.604  -2.265  1.00  0.00    -0.294 OA
ENDBRANCH   1  11
BRANCH   4  14
ATOM     14  C   UNL     1      -0.321  -1.644  -0.389  1.00  0.00    -0.017 A 
ATOM     15  C   UNL     1       0.740  -2.467  -0.792  1.00  0.00     0.012 A 
ATOM     16  C   UNL     1      -1.310  -2.166   0.460  1.00  0.00     0.022 A 
ATOM     17  C   UNL     1       0.820  -3.784  -0.342  1.00  0.00     0.047 A 
ATOM     18  C   UNL     1      -1.243  -3.494   0.923  1.00  0.00     0.040 A 
ATOM     19  C   UNL     1      -0.160  -4.306   0.513  1.00  0.00     0.124 A 
BRANCH  18  20
ATOM     20  C   UNL     1      -2.307  -4.002   1.826  1.00  0.00     0.075 C 
ATOM     21  O   UNL     1      -2.279  -5.183   2.264  1.00  0.00    -0.545 OA
ATOM     22  O   UNL     1      -3.360  -3.176   2.204  1.00  0.00    -0.545 OA
ENDBRANCH  18  20
BRANCH  19  23
ATOM     23  O   UNL     1      -0.053  -5.627   0.949  1.00  0.00    -0.507 OA
ATOM     24  H   UNL     1       0.716  -6.222   0.664  1.00  0.00     0.293 HD
ENDBRANCH  19  23
ENDBRANCH   4  14
TORSDOF 4


