REMARK SMILES C=Cc1cc(-c2ccc3cc[nH]c3c2)ccc1[O-]
REMARK SMILES IDX 3 1 4 2 5 3 15 4 16 5 17 6 18 7 2 8 1 9 6 10 7 11 14 12 8 13
REMARK SMILES IDX 13 14 9 15 12 16 10 17 11 18
REMARK H PARENT 12 19
ROOT
ATOM      1  C   UNL     1      -3.094  -0.063  -0.403  1.00  0.00    -0.034 A 
ATOM      2  C   UNL     1      -1.744   0.200  -0.093  1.00  0.00     0.016 A 
ATOM      3  C   UNL     1      -0.815  -0.849   0.038  1.00  0.00    -0.018 A 
ATOM      4  C   UNL     1      -1.252  -2.172  -0.133  1.00  0.00     0.008 A 
ATOM      5  C   UNL     1      -2.589  -2.442  -0.423  1.00  0.00    -0.007 A 
ATOM      6  C   UNL     1      -3.509  -1.400  -0.555  1.00  0.00    -0.102 A 
ATOM      7  O   UNL     1      -4.835  -1.703  -0.849  1.00  0.00    -0.872 OA
ENDROOT
BRANCH   1   8
ATOM      8  C   UNL     1      -4.092   1.031  -0.531  1.00  0.00    -0.001 C 
ATOM      9  C   UNL     1      -3.778   2.288  -0.845  1.00  0.00     0.009 C 
ENDBRANCH   1   8
BRANCH   3  10
ATOM     10  C   UNL     1       0.607  -0.560   0.359  1.00  0.00    -0.016 A 
ATOM     11  C   UNL     1       1.317  -1.380   1.278  1.00  0.00     0.009 A 
ATOM     12  C   UNL     1       1.268   0.534  -0.250  1.00  0.00     0.035 A 
ATOM     13  C   UNL     1       2.663  -1.115   1.589  1.00  0.00     0.011 A 
ATOM     14  C   UNL     1       2.602   0.765   0.081  1.00  0.00     0.046 A 
ATOM     15  C   UNL     1       3.273  -0.031   0.967  1.00  0.00    -0.001 A 
ATOM     16  N   UNL     1       3.400   1.740  -0.385  1.00  0.00    -0.361 N 
ATOM     17  C   UNL     1       4.557   0.459   1.072  1.00  0.00     0.028 A 
ATOM     18  C   UNL     1       4.597   1.557   0.219  1.00  0.00     0.083 A 
ATOM     19  H   UNL     1       3.152   2.486  -1.072  1.00  0.00     0.166 HD
ENDBRANCH   3  10
TORSDOF 2


