REMARK SMILES C=Cc1cccc(-c2ccc3c(c2)[C@H](N=C=O)CC3)c1
REMARK SMILES IDX 8 1 9 2 10 3 11 4 12 5 13 6 14 7 18 8 19 9 7 10 3 11 4 12
REMARK SMILES IDX 20 13 5 14 6 15 2 16 1 17 15 18 16 19 17 20
REMARK H PARENT
ROOT
ATOM      1  C   UNL     1       0.569   0.663   0.008  1.00  0.00    -0.018 A 
ATOM      2  C   UNL     1       1.496   1.726   0.118  1.00  0.00     0.009 A 
ATOM      3  C   UNL     1       1.765   2.556  -0.980  1.00  0.00     0.005 A 
ATOM      4  C   UNL     1       1.101   2.317  -2.183  1.00  0.00    -0.042 A 
ATOM      5  C   UNL     1       0.204   1.288  -2.305  1.00  0.00    -0.019 A 
ATOM      6  C   UNL     1      -0.083   0.447  -1.226  1.00  0.00     0.015 A 
ATOM      7  C   UNL     1      -0.376   1.210  -3.668  1.00  0.00     0.149 C 
ATOM      8  C   UNL     1       0.218   2.440  -4.390  1.00  0.00     0.038 C 
ATOM      9  C   UNL     1       1.255   3.075  -3.445  1.00  0.00     0.038 C 
ENDROOT
BRANCH   1  10
ATOM     10  C   UNL     1       0.286  -0.216   1.171  1.00  0.00    -0.018 A 
ATOM     11  C   UNL     1      -0.136  -2.446   2.095  1.00  0.00    -0.026 A 
ATOM     12  C   UNL     1      -0.235  -1.878   3.375  1.00  0.00     0.008 A 
ATOM     13  C   UNL     1       0.138  -1.606   0.997  1.00  0.00     0.016 A 
ATOM     14  C   UNL     1      -0.089  -0.502   3.555  1.00  0.00     0.001 A 
ATOM     15  C   UNL     1       0.167   0.326   2.461  1.00  0.00     0.009 A 
BRANCH  11  16
ATOM     16  C   UNL     1      -0.290  -3.915   1.958  1.00  0.00     0.000 C 
ATOM     17  C   UNL     1      -0.570  -4.535   0.811  1.00  0.00     0.009 C 
ENDBRANCH  11  16
ENDBRANCH   1  10
BRANCH   7  18
ATOM     18  N   UNL     1       0.057  -0.024  -4.318  1.00  0.00    -0.198 NA
BRANCH  18  19
ATOM     19  C   UNL     1      -0.776  -0.853  -4.807  1.00  0.00     0.235 C 
ATOM     20  O   UNL     1      -1.585  -1.659  -5.282  1.00  0.00    -0.211 OA
ENDBRANCH  18  19
ENDBRANCH   7  18
TORSDOF 4


