MODEL 1
REMARK VINA RESULT:      -8.1      0.000      0.000
REMARK SMILES C=Cc1cc(-c2ccc3c(c2)[C@@H](N)CC3)c(F)cc1N
REMARK SMILES IDX 6 1 7 2 8 3 9 4 10 5 11 6 12 7 14 8 15 9 5 10 3 11 4 12
REMARK SMILES IDX 19 13 18 14 16 15 17 16 2 17 1 18 20 19 13 22
REMARK H PARENT 20 20 20 21 13 23 13 24
ROOT
ATOM      1  C   UNL     1      44.147 131.525  17.268  1.00  0.00    -0.015 A 
ATOM      2  C   UNL     1      43.290 131.764  16.169  1.00  0.00     0.009 A 
ATOM      3  C   UNL     1      43.762 131.625  14.855  1.00  0.00     0.005 A 
ATOM      4  C   UNL     1      45.090 131.250  14.653  1.00  0.00    -0.043 A 
ATOM      5  C   UNL     1      45.929 131.013  15.710  1.00  0.00    -0.027 A 
ATOM      6  C   UNL     1      45.486 131.151  17.029  1.00  0.00     0.014 A 
ATOM      7  C   UNL     1      47.294 130.628  15.265  1.00  0.00     0.081 C 
ATOM      8  C   UNL     1      47.233 130.788  13.727  1.00  0.00     0.028 C 
ATOM      9  C   UNL     1      45.765 131.060  13.349  1.00  0.00     0.038 C 
ENDROOT
BRANCH   1  10
ATOM     10  C   UNL     1      43.645 131.684  18.655  1.00  0.00     0.018 A 
ATOM     11  C   UNL     1      43.944 131.323  21.060  1.00  0.00    -0.002 A 
ATOM     12  C   UNL     1      44.398 131.191  19.733  1.00  0.00     0.022 A 
ATOM     13  C   UNL     1      42.703 131.962  21.302  1.00  0.00     0.042 A 
ATOM     14  C   UNL     1      41.956 132.449  20.221  1.00  0.00     0.066 A 
ATOM     15  C   UNL     1      42.418 132.317  18.911  1.00  0.00     0.133 A 
ATOM     16  F   UNL     1      41.683 132.844  17.899  1.00  0.00    -0.206 F 
BRANCH  11  17
ATOM     17  C   UNL     1      44.731 130.736  22.173  1.00  0.00     0.002 C 
ATOM     18  C   UNL     1      44.612 129.464  22.551  1.00  0.00     0.009 C 
ENDBRANCH  11  17
BRANCH  13  19
ATOM     19  N   UNL     1      42.204 132.165  22.632  1.00  0.00    -0.398 N 
ATOM     20  H   UNL     1      41.185 132.224  22.842  1.00  0.00     0.156 HD
ATOM     21  H   UNL     1      42.859 132.184  23.444  1.00  0.00     0.156 HD
ENDBRANCH  13  19
ENDBRANCH   1  10
BRANCH   7  22
ATOM     22  N   UNL     1      47.577 129.241  15.634  1.00  0.00    -0.324 NA
ATOM     23  H   UNL     1      48.218 128.839  14.912  1.00  0.00     0.119 HD
ATOM     24  H   UNL     1      48.122 129.244  16.527  1.00  0.00     0.119 HD
ENDBRANCH   7  22
TORSDOF 4
ENDMDL
MODEL 2
REMARK VINA RESULT:      -7.8      1.214      1.836
REMARK SMILES C=Cc1cc(-c2ccc3c(c2)[C@@H](N)CC3)c(F)cc1N
REMARK SMILES IDX 6 1 7 2 8 3 9 4 10 5 11 6 12 7 14 8 15 9 5 10 3 11 4 12
REMARK SMILES IDX 19 13 18 14 16 15 17 16 2 17 1 18 20 19 13 22
REMARK H PARENT 20 20 20 21 13 23 13 24
ROOT
ATOM      1  C   UNL     1      43.782 131.464  18.939  1.00  0.00    -0.015 A 
ATOM      2  C   UNL     1      42.725 131.820  18.070  1.00  0.00     0.009 A 
ATOM      3  C   UNL     1      42.935 131.888  16.685  1.00  0.00     0.005 A 
ATOM      4  C   UNL     1      44.203 131.602  16.181  1.00  0.00    -0.043 A 
ATOM      5  C   UNL     1      45.235 131.252  17.013  1.00  0.00    -0.027 A 
ATOM      6  C   UNL     1      45.054 131.183  18.397  1.00  0.00     0.014 A 
ATOM      7  C   UNL     1      46.493 130.992  16.264  1.00  0.00     0.081 C 
ATOM      8  C   UNL     1      46.132 131.365  14.807  1.00  0.00     0.028 C 
ATOM      9  C   UNL     1      44.615 131.627  14.759  1.00  0.00     0.038 C 
ENDROOT
BRANCH   1  10
ATOM     10  C   UNL     1      43.557 131.404  20.404  1.00  0.00     0.018 A 
ATOM     11  C   UNL     1      44.070 130.393  22.576  1.00  0.00    -0.002 A 
ATOM     12  C   UNL     1      44.267 130.477  21.184  1.00  0.00     0.022 A 
ATOM     13  C   UNL     1      43.134 131.260  23.191  1.00  0.00     0.042 A 
ATOM     14  C   UNL     1      42.426 132.181  22.406  1.00  0.00     0.066 A 
ATOM     15  C   UNL     1      42.634 132.258  21.029  1.00  0.00     0.133 A 
ATOM     16  F   UNL     1      41.959 133.194  20.315  1.00  0.00    -0.206 F 
BRANCH  11  17
ATOM     17  C   UNL     1      44.789 129.362  23.365  1.00  0.00     0.002 C 
ATOM     18  C   UNL     1      44.744 128.064  23.069  1.00  0.00     0.009 C 
ENDBRANCH  11  17
BRANCH  13  19
ATOM     19  N   UNL     1      42.916 131.254  24.610  1.00  0.00    -0.398 N 
ATOM     20  H   UNL     1      42.681 132.119  25.142  1.00  0.00     0.156 HD
ATOM     21  H   UNL     1      42.916 130.355  25.140  1.00  0.00     0.156 HD
ENDBRANCH  13  19
ENDBRANCH   1  10
BRANCH   7  22
ATOM     22  N   UNL     1      46.861 129.580  16.365  1.00  0.00    -0.324 NA
ATOM     23  H   UNL     1      46.161 129.106  16.981  1.00  0.00     0.119 HD
ATOM     24  H   UNL     1      46.749 129.144  15.420  1.00  0.00     0.119 HD
ENDBRANCH   7  22
TORSDOF 4
ENDMDL
MODEL 3
REMARK VINA RESULT:      -7.8      1.631      2.429
REMARK SMILES C=Cc1cc(-c2ccc3c(c2)[C@@H](N)CC3)c(F)cc1N
REMARK SMILES IDX 6 1 7 2 8 3 9 4 10 5 11 6 12 7 14 8 15 9 5 10 3 11 4 12
REMARK SMILES IDX 19 13 18 14 16 15 17 16 2 17 1 18 20 19 13 22
REMARK H PARENT 20 20 20 21 13 23 13 24
ROOT
ATOM      1  C   UNL     1      44.798 131.257  17.444  1.00  0.00    -0.015 A 
ATOM      2  C   UNL     1      43.705 131.573  16.604  1.00  0.00     0.009 A 
ATOM      3  C   UNL     1      43.855 131.571  15.209  1.00  0.00     0.005 A 
ATOM      4  C   UNL     1      45.100 131.254  14.666  1.00  0.00    -0.043 A 
ATOM      5  C   UNL     1      46.167 130.944  15.470  1.00  0.00    -0.027 A 
ATOM      6  C   UNL     1      46.045 130.945  16.863  1.00  0.00     0.014 A 
ATOM      7  C   UNL     1      47.391 130.641  14.683  1.00  0.00     0.081 C 
ATOM      8  C   UNL     1      46.968 130.942  13.225  1.00  0.00     0.028 C 
ATOM      9  C   UNL     1      45.451 131.206  13.229  1.00  0.00     0.038 C 
ENDROOT
BRANCH   1  10
ATOM     10  C   UNL     1      44.635 131.272  18.918  1.00  0.00     0.018 A 
ATOM     11  C   UNL     1      43.300 131.861  20.886  1.00  0.00    -0.002 A 
ATOM     12  C   UNL     1      43.480 131.828  19.489  1.00  0.00     0.022 A 
ATOM     13  C   UNL     1      44.310 131.324  21.722  1.00  0.00     0.042 A 
ATOM     14  C   UNL     1      45.462 130.773  21.145  1.00  0.00     0.066 A 
ATOM     15  C   UNL     1      45.627 130.742  19.760  1.00  0.00     0.133 A 
ATOM     16  F   UNL     1      46.738 130.158  19.244  1.00  0.00    -0.206 F 
BRANCH  11  17
ATOM     17  C   UNL     1      42.097 132.511  21.463  1.00  0.00     0.002 C 
ATOM     18  C   UNL     1      41.284 133.289  20.749  1.00  0.00     0.009 C 
ENDBRANCH  11  17
BRANCH  13  19
ATOM     19  N   UNL     1      44.170 131.289  23.149  1.00  0.00    -0.398 N 
ATOM     20  H   UNL     1      44.659 130.583  23.741  1.00  0.00     0.156 HD
ATOM     21  H   UNL     1      43.624 132.028  23.645  1.00  0.00     0.156 HD
ENDBRANCH  13  19
ENDBRANCH   1  10
BRANCH   7  22
ATOM     22  N   UNL     1      47.761 129.234  14.839  1.00  0.00    -0.324 NA
ATOM     23  H   UNL     1      47.201 128.676  14.155  1.00  0.00     0.119 HD
ATOM     24  H   UNL     1      48.759 129.124  14.546  1.00  0.00     0.119 HD
ENDBRANCH   7  22
TORSDOF 4
ENDMDL
MODEL 4
REMARK VINA RESULT:      -7.7      1.149      1.248
REMARK SMILES C=Cc1cc(-c2ccc3c(c2)[C@@H](N)CC3)c(F)cc1N
REMARK SMILES IDX 6 1 7 2 8 3 9 4 10 5 11 6 12 7 14 8 15 9 5 10 3 11 4 12
REMARK SMILES IDX 19 13 18 14 16 15 17 16 2 17 1 18 20 19 13 22
REMARK H PARENT 20 20 20 21 13 23 13 24
ROOT
ATOM      1  C   UNL     1      45.089 131.375  17.463  1.00  0.00    -0.015 A 
ATOM      2  C   UNL     1      45.235 132.522  16.649  1.00  0.00     0.009 A 
ATOM      3  C   UNL     1      45.941 132.451  15.440  1.00  0.00     0.005 A 
ATOM      4  C   UNL     1      46.498 131.232  15.055  1.00  0.00    -0.043 A 
ATOM      5  C   UNL     1      46.361 130.112  15.834  1.00  0.00    -0.027 A 
ATOM      6  C   UNL     1      45.668 130.158  17.048  1.00  0.00     0.014 A 
ATOM      7  C   UNL     1      47.033 128.929  15.235  1.00  0.00     0.081 C 
ATOM      8  C   UNL     1      47.748 129.508  13.991  1.00  0.00     0.028 C 
ATOM      9  C   UNL     1      47.278 130.966  13.826  1.00  0.00     0.038 C 
ENDROOT
BRANCH   1  10
ATOM     10  C   UNL     1      44.350 131.459  18.746  1.00  0.00     0.018 A 
ATOM     11  C   UNL     1      44.270 131.063  21.163  1.00  0.00    -0.002 A 
ATOM     12  C   UNL     1      44.950 131.001  19.931  1.00  0.00     0.022 A 
ATOM     13  C   UNL     1      42.958 131.594  21.199  1.00  0.00     0.042 A 
ATOM     14  C   UNL     1      42.364 132.047  20.012  1.00  0.00     0.066 A 
ATOM     15  C   UNL     1      43.049 131.985  18.798  1.00  0.00     0.133 A 
ATOM     16  F   UNL     1      42.453 132.476  17.682  1.00  0.00    -0.206 F 
BRANCH  11  17
ATOM     17  C   UNL     1      44.905 130.514  22.387  1.00  0.00     0.002 C 
ATOM     18  C   UNL     1      44.594 129.320  22.890  1.00  0.00     0.009 C 
ENDBRANCH  11  17
BRANCH  13  19
ATOM     19  N   UNL     1      42.227 131.724  22.427  1.00  0.00    -0.398 N 
ATOM     20  H   UNL     1      41.308 132.212  22.481  1.00  0.00     0.156 HD
ATOM     21  H   UNL     1      42.570 131.259  23.297  1.00  0.00     0.156 HD
ENDBRANCH  13  19
ENDBRANCH   1  10
BRANCH   7  22
ATOM     22  N   UNL     1      46.042 127.925  14.846  1.00  0.00    -0.324 NA
ATOM     23  H   UNL     1      46.355 127.000  15.220  1.00  0.00     0.119 HD
ATOM     24  H   UNL     1      45.145 128.142  15.339  1.00  0.00     0.119 HD
ENDBRANCH   7  22
TORSDOF 4
ENDMDL
MODEL 5
REMARK VINA RESULT:      -7.3      1.924      2.715
REMARK SMILES C=Cc1cc(-c2ccc3c(c2)[C@@H](N)CC3)c(F)cc1N
REMARK SMILES IDX 6 1 7 2 8 3 9 4 10 5 11 6 12 7 14 8 15 9 5 10 3 11 4 12
REMARK SMILES IDX 19 13 18 14 16 15 17 16 2 17 1 18 20 19 13 22
REMARK H PARENT 20 20 20 21 13 23 13 24
ROOT
ATOM      1  C   UNL     1      45.267 131.282  17.980  1.00  0.00    -0.015 A 
ATOM      2  C   UNL     1      45.210 132.493  17.251  1.00  0.00     0.009 A 
ATOM      3  C   UNL     1      45.691 132.555  15.935  1.00  0.00     0.005 A 
ATOM      4  C   UNL     1      46.228 131.404  15.360  1.00  0.00    -0.043 A 
ATOM      5  C   UNL     1      46.286 130.224  16.055  1.00  0.00    -0.027 A 
ATOM      6  C   UNL     1      45.820 130.137  17.370  1.00  0.00     0.014 A 
ATOM      7  C   UNL     1      46.896 129.131  15.251  1.00  0.00     0.081 C 
ATOM      8  C   UNL     1      47.348 129.843  13.954  1.00  0.00     0.028 C 
ATOM      9  C   UNL     1      46.787 131.277  13.995  1.00  0.00     0.038 C 
ENDROOT
BRANCH   1  10
ATOM     10  C   UNL     1      44.766 131.225  19.375  1.00  0.00     0.018 A 
ATOM     11  C   UNL     1      43.068 131.837  21.032  1.00  0.00    -0.002 A 
ATOM     12  C   UNL     1      43.566 131.869  19.714  1.00  0.00     0.022 A 
ATOM     13  C   UNL     1      43.801 131.144  22.027  1.00  0.00     0.042 A 
ATOM     14  C   UNL     1      45.000 130.506  21.682  1.00  0.00     0.066 A 
ATOM     15  C   UNL     1      45.480 130.541  20.372  1.00  0.00     0.133 A 
ATOM     16  F   UNL     1      46.622 129.871  20.074  1.00  0.00    -0.206 F 
BRANCH  11  17
ATOM     17  C   UNL     1      41.829 132.579  21.374  1.00  0.00     0.002 C 
ATOM     18  C   UNL     1      41.230 133.416  20.527  1.00  0.00     0.009 C 
ENDBRANCH  11  17
BRANCH  13  19
ATOM     19  N   UNL     1      43.328 131.039  23.378  1.00  0.00    -0.398 N 
ATOM     20  H   UNL     1      42.508 131.579  23.726  1.00  0.00     0.156 HD
ATOM     21  H   UNL     1      43.758 130.350  24.035  1.00  0.00     0.156 HD
ENDBRANCH  13  19
ENDBRANCH   1  10
BRANCH   7  22
ATOM     22  N   UNL     1      45.900 128.099  14.959  1.00  0.00    -0.324 NA
ATOM     23  H   UNL     1      46.409 127.210  14.752  1.00  0.00     0.119 HD
ATOM     24  H   UNL     1      45.352 127.917  15.831  1.00  0.00     0.119 HD
ENDBRANCH   7  22
TORSDOF 4
ENDMDL
MODEL 6
REMARK VINA RESULT:      -7.1      1.807      6.884
REMARK SMILES C=Cc1cc(-c2ccc3c(c2)[C@@H](N)CC3)c(F)cc1N
REMARK SMILES IDX 6 1 7 2 8 3 9 4 10 5 11 6 12 7 14 8 15 9 5 10 3 11 4 12
REMARK SMILES IDX 19 13 18 14 16 15 17 16 2 17 1 18 20 19 13 22
REMARK H PARENT 20 20 20 21 13 23 13 24
ROOT
ATOM      1  C   UNL     1      43.775 131.603  19.316  1.00  0.00    -0.015 A 
ATOM      2  C   UNL     1      42.635 132.425  19.162  1.00  0.00     0.009 A 
ATOM      3  C   UNL     1      41.865 132.790  20.276  1.00  0.00     0.005 A 
ATOM      4  C   UNL     1      42.242 132.327  21.536  1.00  0.00    -0.043 A 
ATOM      5  C   UNL     1      43.347 131.533  21.699  1.00  0.00    -0.027 A 
ATOM      6  C   UNL     1      44.127 131.149  20.604  1.00  0.00     0.014 A 
ATOM      7  C   UNL     1      43.561 131.157  23.121  1.00  0.00     0.081 C 
ATOM      8  C   UNL     1      42.320 131.737  23.840  1.00  0.00     0.028 C 
ATOM      9  C   UNL     1      41.555 132.600  22.818  1.00  0.00     0.038 C 
ENDROOT
BRANCH   1  10
ATOM     10  C   UNL     1      44.579 131.212  18.133  1.00  0.00     0.018 A 
ATOM     11  C   UNL     1      44.916 131.249  15.706  1.00  0.00    -0.002 A 
ATOM     12  C   UNL     1      44.175 131.611  16.849  1.00  0.00     0.022 A 
ATOM     13  C   UNL     1      46.086 130.467  15.864  1.00  0.00     0.042 A 
ATOM     14  C   UNL     1      46.482 130.069  17.148  1.00  0.00     0.066 A 
ATOM     15  C   UNL     1      45.743 130.438  18.273  1.00  0.00     0.133 A 
ATOM     16  F   UNL     1      46.188 130.069  19.501  1.00  0.00    -0.206 F 
BRANCH  11  17
ATOM     17  C   UNL     1      44.430 131.633  14.357  1.00  0.00     0.002 C 
ATOM     18  C   UNL     1      43.141 131.609  14.019  1.00  0.00     0.009 C 
ENDBRANCH  11  17
BRANCH  13  19
ATOM     19  N   UNL     1      46.907 130.100  14.746  1.00  0.00    -0.398 N 
ATOM     20  H   UNL     1      46.506 129.848  13.817  1.00  0.00     0.156 HD
ATOM     21  H   UNL     1      47.948 130.149  14.817  1.00  0.00     0.156 HD
ENDBRANCH  13  19
ENDBRANCH   1  10
BRANCH   7  22
ATOM     22  N   UNL     1      44.790 131.766  23.629  1.00  0.00    -0.324 NA
ATOM     23  H   UNL     1      45.546 131.045  23.595  1.00  0.00     0.119 HD
ATOM     24  H   UNL     1      45.083 132.517  22.962  1.00  0.00     0.119 HD
ENDBRANCH   7  22
TORSDOF 4
ENDMDL
MODEL 7
REMARK VINA RESULT:      -7.0      1.691      6.795
REMARK SMILES C=Cc1cc(-c2ccc3c(c2)[C@@H](N)CC3)c(F)cc1N
REMARK SMILES IDX 6 1 7 2 8 3 9 4 10 5 11 6 12 7 14 8 15 9 5 10 3 11 4 12
REMARK SMILES IDX 19 13 18 14 16 15 17 16 2 17 1 18 20 19 13 22
REMARK H PARENT 20 20 20 21 13 23 13 24
ROOT
ATOM      1  C   UNL     1      44.483 131.538  19.919  1.00  0.00    -0.015 A 
ATOM      2  C   UNL     1      45.649 131.990  20.579  1.00  0.00     0.009 A 
ATOM      3  C   UNL     1      45.668 132.125  21.975  1.00  0.00     0.005 A 
ATOM      4  C   UNL     1      44.519 131.810  22.699  1.00  0.00    -0.043 A 
ATOM      5  C   UNL     1      43.383 131.368  22.070  1.00  0.00    -0.027 A 
ATOM      6  C   UNL     1      43.336 131.231  20.680  1.00  0.00     0.014 A 
ATOM      7  C   UNL     1      42.283 131.093  23.031  1.00  0.00     0.081 C 
ATOM      8  C   UNL     1      42.860 131.563  24.388  1.00  0.00     0.028 C 
ATOM      9  C   UNL     1      44.348 131.895  24.167  1.00  0.00     0.038 C 
ENDROOT
BRANCH   1  10
ATOM     10  C   UNL     1      44.465 131.407  18.442  1.00  0.00     0.018 A 
ATOM     11  C   UNL     1      45.590 130.738  16.370  1.00  0.00    -0.002 A 
ATOM     12  C   UNL     1      45.576 130.870  17.773  1.00  0.00     0.022 A 
ATOM     13  C   UNL     1      44.460 131.161  15.629  1.00  0.00     0.042 A 
ATOM     14  C   UNL     1      43.355 131.699  16.302  1.00  0.00     0.066 A 
ATOM     15  C   UNL     1      43.351 131.820  17.693  1.00  0.00     0.133 A 
ATOM     16  F   UNL     1      42.242 132.305  18.306  1.00  0.00    -0.206 F 
BRANCH  11  17
ATOM     17  C   UNL     1      46.804 130.225  15.687  1.00  0.00     0.002 C 
ATOM     18  C   UNL     1      46.755 129.535  14.548  1.00  0.00     0.009 C 
ENDBRANCH  11  17
BRANCH  13  19
ATOM     19  N   UNL     1      44.394 131.016  14.203  1.00  0.00    -0.398 N 
ATOM     20  H   UNL     1      44.346 131.835  13.560  1.00  0.00     0.156 HD
ATOM     21  H   UNL     1      44.466 130.071  13.764  1.00  0.00     0.156 HD
ENDBRANCH  13  19
ENDBRANCH   1  10
BRANCH   7  22
ATOM     22  N   UNL     1      41.981 129.662  23.061  1.00  0.00    -0.324 NA
ATOM     23  H   UNL     1      40.963 129.552  23.273  1.00  0.00     0.119 HD
ATOM     24  H   UNL     1      42.113 129.279  22.097  1.00  0.00     0.119 HD
ENDBRANCH   7  22
TORSDOF 4
ENDMDL
MODEL 8
REMARK VINA RESULT:      -7.0      1.667      2.124
REMARK SMILES C=Cc1cc(-c2ccc3c(c2)[C@@H](N)CC3)c(F)cc1N
REMARK SMILES IDX 6 1 7 2 8 3 9 4 10 5 11 6 12 7 14 8 15 9 5 10 3 11 4 12
REMARK SMILES IDX 19 13 18 14 16 15 17 16 2 17 1 18 20 19 13 22
REMARK H PARENT 20 20 20 21 13 23 13 24
ROOT
ATOM      1  C   UNL     1      45.093 131.077  18.629  1.00  0.00    -0.015 A 
ATOM      2  C   UNL     1      44.977 132.363  18.052  1.00  0.00     0.009 A 
ATOM      3  C   UNL     1      45.390 132.590  16.731  1.00  0.00     0.005 A 
ATOM      4  C   UNL     1      45.917 131.528  15.998  1.00  0.00    -0.043 A 
ATOM      5  C   UNL     1      46.032 130.276  16.546  1.00  0.00    -0.027 A 
ATOM      6  C   UNL     1      45.634 130.024  17.862  1.00  0.00     0.014 A 
ATOM      7  C   UNL     1      46.619 129.300  15.591  1.00  0.00     0.081 C 
ATOM      8  C   UNL     1      46.993 130.169  14.366  1.00  0.00     0.028 C 
ATOM      9  C   UNL     1      46.409 131.575  14.603  1.00  0.00     0.038 C 
ENDROOT
BRANCH   1  10
ATOM     10  C   UNL     1      44.664 130.846  20.030  1.00  0.00     0.018 A 
ATOM     11  C   UNL     1      44.751 129.481  22.064  1.00  0.00    -0.002 A 
ATOM     12  C   UNL     1      45.144 129.729  20.734  1.00  0.00     0.022 A 
ATOM     13  C   UNL     1      43.851 130.376  22.693  1.00  0.00     0.042 A 
ATOM     14  C   UNL     1      43.374 131.487  21.984  1.00  0.00     0.066 A 
ATOM     15  C   UNL     1      43.775 131.725  20.669  1.00  0.00     0.133 A 
ATOM     16  F   UNL     1      43.322 132.837  20.036  1.00  0.00    -0.206 F 
BRANCH  11  17
ATOM     17  C   UNL     1      45.225 128.259  22.760  1.00  0.00     0.002 C 
ATOM     18  C   UNL     1      45.464 127.112  22.126  1.00  0.00     0.009 C 
ENDBRANCH  11  17
BRANCH  13  19
ATOM     19  N   UNL     1      43.444 130.204  24.058  1.00  0.00    -0.398 N 
ATOM     20  H   UNL     1      42.511 130.514  24.406  1.00  0.00     0.156 HD
ATOM     21  H   UNL     1      44.054 129.687  24.730  1.00  0.00     0.156 HD
ENDBRANCH  13  19
ENDBRANCH   1  10
BRANCH   7  22
ATOM     22  N   UNL     1      45.629 128.286  15.227  1.00  0.00    -0.324 NA
ATOM     23  H   UNL     1      45.269 127.855  16.109  1.00  0.00     0.119 HD
ATOM     24  H   UNL     1      44.810 128.769  14.791  1.00  0.00     0.119 HD
ENDBRANCH   7  22
TORSDOF 4
ENDMDL
MODEL 9
REMARK VINA RESULT:      -6.9      1.785      2.452
REMARK SMILES C=Cc1cc(-c2ccc3c(c2)[C@@H](N)CC3)c(F)cc1N
REMARK SMILES IDX 6 1 7 2 8 3 9 4 10 5 11 6 12 7 14 8 15 9 5 10 3 11 4 12
REMARK SMILES IDX 19 13 18 14 16 15 17 16 2 17 1 18 20 19 13 22
REMARK H PARENT 20 20 20 21 13 23 13 24
ROOT
ATOM      1  C   UNL     1      44.246 131.454  18.887  1.00  0.00    -0.015 A 
ATOM      2  C   UNL     1      43.042 131.759  18.212  1.00  0.00     0.009 A 
ATOM      3  C   UNL     1      42.999 131.783  16.810  1.00  0.00     0.005 A 
ATOM      4  C   UNL     1      44.163 131.503  16.096  1.00  0.00    -0.043 A 
ATOM      5  C   UNL     1      45.336 131.203  16.739  1.00  0.00    -0.027 A 
ATOM      6  C   UNL     1      45.407 131.179  18.135  1.00  0.00     0.014 A 
ATOM      7  C   UNL     1      46.446 130.941  15.785  1.00  0.00     0.081 C 
ATOM      8  C   UNL     1      45.820 131.256  14.405  1.00  0.00     0.028 C 
ATOM      9  C   UNL     1      44.313 131.487  14.623  1.00  0.00     0.038 C 
ENDROOT
BRANCH   1  10
ATOM     10  C   UNL     1      44.288 131.440  20.370  1.00  0.00     0.018 A 
ATOM     11  C   UNL     1      43.366 130.651  22.498  1.00  0.00    -0.002 A 
ATOM     12  C   UNL     1      43.354 130.679  21.090  1.00  0.00     0.022 A 
ATOM     13  C   UNL     1      44.339 131.411  23.193  1.00  0.00     0.042 A 
ATOM     14  C   UNL     1      45.267 132.172  22.468  1.00  0.00     0.066 A 
ATOM     15  C   UNL     1      45.248 132.187  21.073  1.00  0.00     0.133 A 
ATOM     16  F   UNL     1      46.193 132.902  20.412  1.00  0.00    -0.206 F 
BRANCH  11  17
ATOM     17  C   UNL     1      42.327 129.886  23.233  1.00  0.00     0.002 C 
ATOM     18  C   UNL     1      42.510 128.633  23.649  1.00  0.00     0.009 C 
ENDBRANCH  11  17
BRANCH  13  19
ATOM     19  N   UNL     1      44.431 131.393  24.625  1.00  0.00    -0.398 N 
ATOM     20  H   UNL     1      44.072 132.172  25.217  1.00  0.00     0.156 HD
ATOM     21  H   UNL     1      44.801 130.551  25.120  1.00  0.00     0.156 HD
ENDBRANCH  13  19
ENDBRANCH   1  10
BRANCH   7  22
ATOM     22  N   UNL     1      46.861 129.540  15.861  1.00  0.00    -0.324 NA
ATOM     23  H   UNL     1      46.422 129.119  16.711  1.00  0.00     0.119 HD
ATOM     24  H   UNL     1      46.449 129.031  15.046  1.00  0.00     0.119 HD
ENDBRANCH   7  22
TORSDOF 4
ENDMDL


