MODEL 1
REMARK VINA RESULT:      -5.1      0.000      0.000
REMARK SMILES Cc1[nH][nH+]c2cc([C@@]34C(=O)[N-]C[C@@H]3NCC[C@H]4C)ccc12
REMARK SMILES IDX 1 1 2 2 3 3 4 4 5 5 6 6 7 7 19 8 20 9 21 10 8 13 9 14 13 15
REMARK SMILES IDX 17 16 11 17 12 18 14 19 16 20 15 21 10 22 18 23
REMARK H PARENT 3 11 4 12 14 24
ROOT
ATOM      1  C   UNL     1      45.550 131.775  16.737  1.00  0.00     0.071 C 
ATOM      2  C   UNL     1      44.396 131.740  17.686  1.00  0.00     0.084 A 
ATOM      3  N   UNL     1      43.144 132.162  17.396  1.00  0.00    -0.171 N 
ATOM      4  N   UNL     1      42.385 132.056  18.480  1.00  0.00    -0.126 N 
ATOM      5  C   UNL     1      43.153 131.573  19.473  1.00  0.00     0.236 A 
ATOM      6  C   UNL     1      42.793 131.321  20.793  1.00  0.00     0.087 A 
ATOM      7  C   UNL     1      43.784 130.820  21.685  1.00  0.00    -0.028 A 
ATOM      8  C   UNL     1      45.110 130.631  21.183  1.00  0.00     0.006 A 
ATOM      9  C   UNL     1      45.435 130.901  19.842  1.00  0.00     0.017 A 
ATOM     10  C   UNL     1      44.422 131.369  19.016  1.00  0.00     0.073 A 
ATOM     11  H   UNL     1      42.810 132.529  16.477  1.00  0.00     0.238 HD
ATOM     12  H   UNL     1      41.377 132.320  18.533  1.00  0.00     0.488 HD
ENDROOT
BRANCH   7  13
ATOM     13  C   UNL     1      43.484 130.564  23.179  1.00  0.00     0.053 C 
ATOM     14  C   UNL     1      44.170 131.562  24.075  1.00  0.00     0.064 C 
ATOM     15  C   UNL     1      41.981 130.899  23.497  1.00  0.00     0.052 C 
ATOM     16  C   UNL     1      43.871 129.106  23.625  1.00  0.00     0.005 C 
ATOM     17  N   UNL     1      43.310 132.536  24.625  1.00  0.00    -0.651 NA
ATOM     18  C   UNL     1      41.968 132.300  24.142  1.00  0.00    -0.097 C 
ATOM     19  N   UNL     1      41.379 129.922  24.419  1.00  0.00    -0.314 NA
ATOM     20  C   UNL     1      42.741 128.088  23.366  1.00  0.00     0.020 C 
ATOM     21  C   UNL     1      41.349 128.584  23.814  1.00  0.00     0.081 C 
ATOM     22  O   UNL     1      45.394 131.523  24.371  1.00  0.00    -0.319 OA
ATOM     23  C   UNL     1      45.189 128.601  23.010  1.00  0.00     0.009 C 
ATOM     24  H   UNL     1      41.915 129.887  25.318  1.00  0.00     0.122 HD
ENDBRANCH   7  13
TORSDOF 1
ENDMDL
MODEL 2
REMARK VINA RESULT:      -3.9      1.116      1.592
REMARK SMILES Cc1[nH][nH+]c2cc([C@@]34C(=O)[N-]C[C@@H]3NCC[C@H]4C)ccc12
REMARK SMILES IDX 1 1 2 2 3 3 4 4 5 5 6 6 7 7 19 8 20 9 21 10 8 13 9 14 13 15
REMARK SMILES IDX 17 16 11 17 12 18 14 19 16 20 15 21 10 22 18 23
REMARK H PARENT 3 11 4 12 14 24
ROOT
ATOM      1  C   UNL     1      43.913 131.835  16.412  1.00  0.00     0.071 C 
ATOM      2  C   UNL     1      44.631 131.377  17.639  1.00  0.00     0.084 A 
ATOM      3  N   UNL     1      45.874 130.843  17.653  1.00  0.00    -0.171 N 
ATOM      4  N   UNL     1      46.180 130.482  18.894  1.00  0.00    -0.126 N 
ATOM      5  C   UNL     1      45.128 130.776  19.679  1.00  0.00     0.236 A 
ATOM      6  C   UNL     1      44.987 130.555  21.045  1.00  0.00     0.087 A 
ATOM      7  C   UNL     1      43.767 130.936  21.673  1.00  0.00    -0.028 A 
ATOM      8  C   UNL     1      42.736 131.502  20.859  1.00  0.00     0.006 A 
ATOM      9  C   UNL     1      42.917 131.707  19.480  1.00  0.00     0.017 A 
ATOM     10  C   UNL     1      44.135 131.333  18.928  1.00  0.00     0.073 A 
ATOM     11  H   UNL     1      46.503 130.713  16.830  1.00  0.00     0.238 HD
ATOM     12  H   UNL     1      47.079 130.037  19.184  1.00  0.00     0.488 HD
ENDROOT
BRANCH   7  13
ATOM     13  C   UNL     1      43.505 130.677  23.174  1.00  0.00     0.053 C 
ATOM     14  C   UNL     1      44.205 131.679  24.053  1.00  0.00     0.064 C 
ATOM     15  C   UNL     1      42.008 131.001  23.529  1.00  0.00     0.052 C 
ATOM     16  C   UNL     1      43.913 129.222  23.610  1.00  0.00     0.005 C 
ATOM     17  N   UNL     1      43.351 132.646  24.625  1.00  0.00    -0.651 NA
ATOM     18  C   UNL     1      41.999 132.401  24.175  1.00  0.00    -0.097 C 
ATOM     19  N   UNL     1      41.435 130.019  24.464  1.00  0.00    -0.314 NA
ATOM     20  C   UNL     1      42.785 128.195  23.377  1.00  0.00     0.020 C 
ATOM     21  C   UNL     1      41.401 128.681  23.860  1.00  0.00     0.081 C 
ATOM     22  O   UNL     1      45.436 131.649  24.320  1.00  0.00    -0.319 OA
ATOM     23  C   UNL     1      45.220 128.726  22.962  1.00  0.00     0.009 C 
ATOM     24  H   UNL     1      41.993 129.987  25.350  1.00  0.00     0.122 HD
ENDBRANCH   7  13
TORSDOF 1
ENDMDL
MODEL 3
REMARK VINA RESULT:      -3.2      2.432      5.367
REMARK SMILES Cc1[nH][nH+]c2cc([C@@]34C(=O)[N-]C[C@@H]3NCC[C@H]4C)ccc12
REMARK SMILES IDX 1 1 2 2 3 3 4 4 5 5 6 6 7 7 19 8 20 9 21 10 8 13 9 14 13 15
REMARK SMILES IDX 17 16 11 17 12 18 14 19 16 20 15 21 10 22 18 23
REMARK H PARENT 3 11 4 12 14 24
ROOT
ATOM      1  C   UNL     1      43.037 124.723  24.471  1.00  0.00     0.071 C 
ATOM      2  C   UNL     1      43.873 125.689  23.697  1.00  0.00     0.084 A 
ATOM      3  N   UNL     1      45.110 125.427  23.214  1.00  0.00    -0.171 N 
ATOM      4  N   UNL     1      45.595 126.521  22.640  1.00  0.00    -0.126 N 
ATOM      5  C   UNL     1      44.673 127.492  22.761  1.00  0.00     0.236 A 
ATOM      6  C   UNL     1      44.753 128.812  22.329  1.00  0.00     0.087 A 
ATOM      7  C   UNL     1      43.651 129.678  22.581  1.00  0.00    -0.028 A 
ATOM      8  C   UNL     1      42.528 129.153  23.292  1.00  0.00     0.006 A 
ATOM      9  C   UNL     1      42.486 127.812  23.714  1.00  0.00     0.017 A 
ATOM     10  C   UNL     1      43.582 127.011  23.423  1.00  0.00     0.073 A 
ATOM     11  H   UNL     1      45.625 124.521  23.284  1.00  0.00     0.238 HD
ATOM     12  H   UNL     1      46.536 126.595  22.192  1.00  0.00     0.488 HD
ENDROOT
BRANCH   7  13
ATOM     13  C   UNL     1      43.679 131.172  22.184  1.00  0.00     0.053 C 
ATOM     14  C   UNL     1      44.874 131.511  21.332  1.00  0.00     0.064 C 
ATOM     15  C   UNL     1      42.521 131.487  21.167  1.00  0.00     0.052 C 
ATOM     16  C   UNL     1      43.640 132.124  23.435  1.00  0.00     0.005 C 
ATOM     17  N   UNL     1      44.576 131.710  19.967  1.00  0.00    -0.651 NA
ATOM     18  C   UNL     1      43.159 131.510  19.763  1.00  0.00    -0.097 C 
ATOM     19  N   UNL     1      41.879 132.783  21.443  1.00  0.00    -0.314 NA
ATOM     20  C   UNL     1      42.203 132.419  23.911  1.00  0.00     0.020 C 
ATOM     21  C   UNL     1      41.234 132.776  22.762  1.00  0.00     0.081 C 
ATOM     22  O   UNL     1      46.041 131.665  21.779  1.00  0.00    -0.319 OA
ATOM     23  C   UNL     1      44.496 131.628  24.616  1.00  0.00     0.009 C 
ATOM     24  H   UNL     1      42.584 133.557  21.402  1.00  0.00     0.122 HD
ENDBRANCH   7  13
TORSDOF 1
ENDMDL
MODEL 4
REMARK VINA RESULT:      -3.1      2.803      5.145
REMARK SMILES Cc1[nH][nH+]c2cc([C@@]34C(=O)[N-]C[C@@H]3NCC[C@H]4C)ccc12
REMARK SMILES IDX 1 1 2 2 3 3 4 4 5 5 6 6 7 7 19 8 20 9 21 10 8 13 9 14 13 15
REMARK SMILES IDX 17 16 11 17 12 18 14 19 16 20 15 21 10 22 18 23
REMARK H PARENT 3 11 4 12 14 24
ROOT
ATOM      1  C   UNL     1      44.839 124.320  23.858  1.00  0.00     0.071 C 
ATOM      2  C   UNL     1      45.293 125.453  22.996  1.00  0.00     0.084 A 
ATOM      3  N   UNL     1      46.339 125.402  22.140  1.00  0.00    -0.171 N 
ATOM      4  N   UNL     1      46.510 126.597  21.588  1.00  0.00    -0.126 N 
ATOM      5  C   UNL     1      45.577 127.422  22.096  1.00  0.00     0.236 A 
ATOM      6  C   UNL     1      45.386 128.773  21.827  1.00  0.00     0.087 A 
ATOM      7  C   UNL     1      44.334 129.459  22.500  1.00  0.00    -0.028 A 
ATOM      8  C   UNL     1      43.545 128.727  23.442  1.00  0.00     0.006 A 
ATOM      9  C   UNL     1      43.772 127.362  23.688  1.00  0.00     0.017 A 
ATOM     10  C   UNL     1      44.799 126.743  22.988  1.00  0.00     0.073 A 
ATOM     11  H   UNL     1      46.939 124.570  21.941  1.00  0.00     0.238 HD
ATOM     12  H   UNL     1      47.253 126.836  20.894  1.00  0.00     0.488 HD
ENDROOT
BRANCH   7  13
ATOM     13  C   UNL     1      44.087 130.972  22.301  1.00  0.00     0.053 C 
ATOM     14  C   UNL     1      45.065 131.584  21.334  1.00  0.00     0.064 C 
ATOM     15  C   UNL     1      42.745 131.205  21.516  1.00  0.00     0.052 C 
ATOM     16  C   UNL     1      44.123 131.767  23.658  1.00  0.00     0.005 C 
ATOM     17  N   UNL     1      44.521 131.878  20.066  1.00  0.00    -0.651 NA
ATOM     18  C   UNL     1      43.132 131.478  20.048  1.00  0.00    -0.097 C 
ATOM     19  N   UNL     1      41.982 132.346  22.049  1.00  0.00    -0.314 NA
ATOM     20  C   UNL     1      42.757 131.778  24.375  1.00  0.00     0.020 C 
ATOM     21  C   UNL     1      41.571 132.096  23.437  1.00  0.00     0.081 C 
ATOM     22  O   UNL     1      46.257 131.873  21.621  1.00  0.00    -0.319 OA
ATOM     23  C   UNL     1      45.223 131.290  24.625  1.00  0.00     0.009 C 
ATOM     24  H   UNL     1      42.555 133.222  22.007  1.00  0.00     0.122 HD
ENDBRANCH   7  13
TORSDOF 1
ENDMDL
MODEL 5
REMARK VINA RESULT:      -2.6      1.634      3.001
REMARK SMILES Cc1[nH][nH+]c2cc([C@@]34C(=O)[N-]C[C@@H]3NCC[C@H]4C)ccc12
REMARK SMILES IDX 1 1 2 2 3 3 4 4 5 5 6 6 7 7 19 8 20 9 21 10 8 13 9 14 13 15
REMARK SMILES IDX 17 16 11 17 12 18 14 19 16 20 15 21 10 22 18 23
REMARK H PARENT 3 11 4 12 14 24
ROOT
ATOM      1  C   UNL     1      45.684 131.866  16.146  1.00  0.00     0.071 C 
ATOM      2  C   UNL     1      44.511 131.697  17.055  1.00  0.00     0.084 A 
ATOM      3  N   UNL     1      43.225 131.945  16.712  1.00  0.00    -0.171 N 
ATOM      4  N   UNL     1      42.447 131.761  17.772  1.00  0.00    -0.126 N 
ATOM      5  C   UNL     1      43.235 131.403  18.802  1.00  0.00     0.236 A 
ATOM      6  C   UNL     1      42.862 131.131  20.114  1.00  0.00     0.087 A 
ATOM      7  C   UNL     1      43.877 130.783  21.051  1.00  0.00    -0.028 A 
ATOM      8  C   UNL     1      45.234 130.760  20.601  1.00  0.00     0.006 A 
ATOM      9  C   UNL     1      45.570 131.045  19.265  1.00  0.00     0.017 A 
ATOM     10  C   UNL     1      44.536 131.359  18.394  1.00  0.00     0.073 A 
ATOM     11  H   UNL     1      42.880 132.247  15.774  1.00  0.00     0.238 HD
ATOM     12  H   UNL     1      41.411 131.891  17.785  1.00  0.00     0.488 HD
ENDROOT
BRANCH   7  13
ATOM     13  C   UNL     1      43.558 130.518  22.541  1.00  0.00     0.053 C 
ATOM     14  C   UNL     1      42.602 129.368  22.720  1.00  0.00     0.064 C 
ATOM     15  C   UNL     1      44.822 129.938  23.273  1.00  0.00     0.052 C 
ATOM     16  C   UNL     1      42.988 131.791  23.266  1.00  0.00     0.005 C 
ATOM     17  N   UNL     1      43.201 128.182  23.195  1.00  0.00    -0.651 NA
ATOM     18  C   UNL     1      44.618 128.412  23.367  1.00  0.00    -0.097 C 
ATOM     19  N   UNL     1      44.987 130.501  24.624  1.00  0.00    -0.314 NA
ATOM     20  C   UNL     1      44.100 132.711  23.811  1.00  0.00     0.020 C 
ATOM     21  C   UNL     1      45.216 131.950  24.560  1.00  0.00     0.081 C 
ATOM     22  O   UNL     1      41.359 129.443  22.524  1.00  0.00    -0.319 OA
ATOM     23  C   UNL     1      42.005 132.606  22.404  1.00  0.00     0.009 C 
ATOM     24  H   UNL     1      44.139 130.306  25.208  1.00  0.00     0.122 HD
ENDBRANCH   7  13
TORSDOF 1
ENDMDL


