MODEL 1
REMARK VINA RESULT:      -5.7      0.000      0.000
REMARK SMILES Cc1ccc(-c2cc(N)c(NC3CC(=O)C3)c([NH2+]c3ccc(C)c(F)c3)c2)cc1
REMARK SMILES IDX 6 1 7 2 8 3 10 4 17 5 27 6 5 7 2 8 3 9 29 10 4 11 28 12 1 13
REMARK SMILES IDX 9 14 18 17 19 20 20 21 26 22 21 23 24 24 22 25 25 26 23 27
REMARK SMILES IDX 11 28 12 30 13 31 16 32 14 33 15 34
REMARK H PARENT 9 15 9 16 18 18 18 19 11 29
ROOT
ATOM      1  C   UNL     1      47.296 125.380  23.018  1.00  0.00    -0.010 A 
ATOM      2  C   UNL     1      46.676 124.225  22.525  1.00  0.00     0.037 A 
ATOM      3  C   UNL     1      45.282 124.134  22.446  1.00  0.00     0.062 A 
ATOM      4  C   UNL     1      44.479 125.241  22.808  1.00  0.00     0.120 A 
ATOM      5  C   UNL     1      45.094 126.387  23.376  1.00  0.00     0.160 A 
ATOM      6  C   UNL     1      46.498 126.442  23.462  1.00  0.00     0.079 A 
ENDROOT
BRANCH   1   7
ATOM      7  C   UNL     1      48.777 125.470  23.095  1.00  0.00    -0.018 A 
ATOM      8  C   UNL     1      51.587 125.654  23.238  1.00  0.00    -0.051 A 
ATOM      9  C   UNL     1      50.790 126.178  24.266  1.00  0.00     0.004 A 
ATOM     10  C   UNL     1      50.975 125.015  22.151  1.00  0.00     0.004 A 
ATOM     11  C   UNL     1      49.397 126.093  24.193  1.00  0.00     0.009 A 
ATOM     12  C   UNL     1      49.581 124.928  22.076  1.00  0.00     0.009 A 
ATOM     13  C   UNL     1      53.083 125.711  23.338  1.00  0.00     0.044 C 
ENDBRANCH   1   7
BRANCH   3  14
ATOM     14  N   UNL     1      44.697 122.881  22.074  1.00  0.00    -0.397 N 
ATOM     15  H   UNL     1      43.659 122.767  22.044  1.00  0.00     0.156 HD
ATOM     16  H   UNL     1      45.276 122.125  21.646  1.00  0.00     0.156 HD
ENDBRANCH   3  14
BRANCH   5  17
ATOM     17  N   UNL     1      44.315 127.508  23.859  1.00  0.00    -0.280 N 
ATOM     18  H   UNL     1      44.652 127.814  24.802  1.00  0.00     0.358 HD
ATOM     19  H   UNL     1      43.323 127.208  23.994  1.00  0.00     0.358 HD
BRANCH  17  20
ATOM     20  C   UNL     1      44.408 128.637  22.964  1.00  0.00     0.137 A 
ATOM     21  C   UNL     1      45.295 128.614  21.871  1.00  0.00     0.068 A 
ATOM     22  C   UNL     1      43.670 129.806  23.215  1.00  0.00     0.107 A 
ATOM     23  C   UNL     1      45.399 129.716  21.019  1.00  0.00     0.012 A 
ATOM     24  C   UNL     1      43.780 130.913  22.369  1.00  0.00     0.132 A 
ATOM     25  C   UNL     1      44.631 130.867  21.251  1.00  0.00    -0.015 A 
ATOM     26  F   UNL     1      43.053 132.027  22.635  1.00  0.00    -0.206 F 
ATOM     27  C   UNL     1      44.759 132.060  20.348  1.00  0.00     0.047 C 
ENDBRANCH  17  20
ENDBRANCH   5  17
BRANCH   4  28
ATOM     28  N   UNL     1      43.060 125.232  22.559  1.00  0.00    -0.375 N 
ATOM     29  H   UNL     1      42.715 125.565  21.632  1.00  0.00     0.161 HD
BRANCH  28  30
ATOM     30  C   UNL     1      42.098 124.650  23.509  1.00  0.00     0.094 C 
ATOM     31  C   UNL     1      40.819 124.195  22.866  1.00  0.00     0.100 C 
ATOM     32  C   UNL     1      41.271 125.679  24.228  1.00  0.00     0.100 C 
ATOM     33  C   UNL     1      39.968 125.209  23.607  1.00  0.00     0.137 C 
ATOM     34  O   UNL     1      38.787 125.506  23.675  1.00  0.00    -0.300 OA
ENDBRANCH  28  30
ENDBRANCH   4  28
TORSDOF 6
ENDMDL
MODEL 2
REMARK VINA RESULT:      -5.1      3.779      6.026
REMARK SMILES Cc1ccc(-c2cc(N)c(NC3CC(=O)C3)c([NH2+]c3ccc(C)c(F)c3)c2)cc1
REMARK SMILES IDX 6 1 7 2 8 3 10 4 17 5 27 6 5 7 2 8 3 9 29 10 4 11 28 12 1 13
REMARK SMILES IDX 9 14 18 17 19 20 20 21 26 22 21 23 24 24 22 25 25 26 23 27
REMARK SMILES IDX 11 28 12 30 13 31 16 32 14 33 15 34
REMARK H PARENT 9 15 9 16 18 18 18 19 11 29
ROOT
ATOM      1  C   UNL     1      44.930 128.154  22.274  1.00  0.00    -0.010 A 
ATOM      2  C   UNL     1      43.851 128.569  23.064  1.00  0.00     0.037 A 
ATOM      3  C   UNL     1      43.373 129.883  22.997  1.00  0.00     0.062 A 
ATOM      4  C   UNL     1      43.940 130.796  22.076  1.00  0.00     0.120 A 
ATOM      5  C   UNL     1      45.079 130.405  21.326  1.00  0.00     0.160 A 
ATOM      6  C   UNL     1      45.551 129.083  21.429  1.00  0.00     0.079 A 
ENDROOT
BRANCH   1   7
ATOM      7  C   UNL     1      45.429 126.757  22.349  1.00  0.00    -0.018 A 
ATOM      8  C   UNL     1      46.372 124.104  22.506  1.00  0.00    -0.051 A 
ATOM      9  C   UNL     1      44.998 124.372  22.587  1.00  0.00     0.004 A 
ATOM     10  C   UNL     1      47.271 125.164  22.321  1.00  0.00     0.004 A 
ATOM     11  C   UNL     1      44.530 125.687  22.516  1.00  0.00     0.009 A 
ATOM     12  C   UNL     1      46.804 126.480  22.249  1.00  0.00     0.009 A 
ATOM     13  C   UNL     1      46.869 122.689  22.542  1.00  0.00     0.044 C 
ENDBRANCH   1   7
BRANCH   3  14
ATOM     14  N   UNL     1      42.366 130.295  23.928  1.00  0.00    -0.397 N 
ATOM     15  H   UNL     1      42.473 131.181  24.469  1.00  0.00     0.156 HD
ATOM     16  H   UNL     1      41.432 129.830  23.946  1.00  0.00     0.156 HD
ENDBRANCH   3  14
BRANCH   5  17
ATOM     17  N   UNL     1      45.763 131.329  20.445  1.00  0.00    -0.280 N 
ATOM     18  H   UNL     1      46.792 131.334  20.640  1.00  0.00     0.358 HD
ATOM     19  H   UNL     1      45.431 132.301  20.637  1.00  0.00     0.358 HD
BRANCH  17  20
ATOM     20  C   UNL     1      45.574 130.971  19.059  1.00  0.00     0.137 A 
ATOM     21  C   UNL     1      46.238 129.859  18.509  1.00  0.00     0.068 A 
ATOM     22  C   UNL     1      44.784 131.774  18.219  1.00  0.00     0.107 A 
ATOM     23  C   UNL     1      46.070 129.528  17.162  1.00  0.00     0.012 A 
ATOM     24  C   UNL     1      44.623 131.449  16.869  1.00  0.00     0.132 A 
ATOM     25  C   UNL     1      45.249 130.309  16.336  1.00  0.00    -0.015 A 
ATOM     26  F   UNL     1      43.852 132.242  16.083  1.00  0.00    -0.206 F 
ATOM     27  C   UNL     1      45.087 129.966  14.884  1.00  0.00     0.047 C 
ENDBRANCH  17  20
ENDBRANCH   5  17
BRANCH   4  28
ATOM     28  N   UNL     1      43.343 132.089  21.861  1.00  0.00    -0.375 N 
ATOM     29  H   UNL     1      43.897 132.940  22.103  1.00  0.00     0.161 HD
BRANCH  28  30
ATOM     30  C   UNL     1      42.042 132.254  21.192  1.00  0.00     0.094 C 
ATOM     31  C   UNL     1      41.876 131.387  19.976  1.00  0.00     0.100 C 
ATOM     32  C   UNL     1      41.995 133.429  20.257  1.00  0.00     0.100 C 
ATOM     33  C   UNL     1      41.799 132.565  19.024  1.00  0.00     0.137 C 
ATOM     34  O   UNL     1      41.646 132.738  17.826  1.00  0.00    -0.300 OA
ENDBRANCH  28  30
ENDBRANCH   4  28
TORSDOF 6
ENDMDL
MODEL 3
REMARK VINA RESULT:      -4.8      3.795      5.976
REMARK SMILES Cc1ccc(-c2cc(N)c(NC3CC(=O)C3)c([NH2+]c3ccc(C)c(F)c3)c2)cc1
REMARK SMILES IDX 6 1 7 2 8 3 10 4 17 5 27 6 5 7 2 8 3 9 29 10 4 11 28 12 1 13
REMARK SMILES IDX 9 14 18 17 19 20 20 21 26 22 21 23 24 24 22 25 25 26 23 27
REMARK SMILES IDX 11 28 12 30 13 31 16 32 14 33 15 34
REMARK H PARENT 9 15 9 16 18 18 18 19 11 29
ROOT
ATOM      1  C   UNL     1      45.017 127.893  22.297  1.00  0.00    -0.010 A 
ATOM      2  C   UNL     1      43.856 128.308  22.962  1.00  0.00     0.037 A 
ATOM      3  C   UNL     1      43.410 129.632  22.873  1.00  0.00     0.062 A 
ATOM      4  C   UNL     1      44.098 130.557  22.053  1.00  0.00     0.120 A 
ATOM      5  C   UNL     1      45.314 130.165  21.436  1.00  0.00     0.160 A 
ATOM      6  C   UNL     1      45.749 128.832  21.559  1.00  0.00     0.079 A 
ENDROOT
BRANCH   1   7
ATOM      7  C   UNL     1      45.482 126.486  22.394  1.00  0.00    -0.018 A 
ATOM      8  C   UNL     1      46.368 123.814  22.563  1.00  0.00    -0.051 A 
ATOM      9  C   UNL     1      47.285 124.851  22.338  1.00  0.00     0.004 A 
ATOM     10  C   UNL     1      45.010 124.121  22.729  1.00  0.00     0.004 A 
ATOM     11  C   UNL     1      46.847 126.174  22.247  1.00  0.00     0.009 A 
ATOM     12  C   UNL     1      44.569 125.445  22.639  1.00  0.00     0.009 A 
ATOM     13  C   UNL     1      46.845 122.399  22.700  1.00  0.00     0.044 C 
ENDBRANCH   1   7
BRANCH   3  14
ATOM     14  N   UNL     1      42.303 130.038  23.685  1.00  0.00    -0.397 N 
ATOM     15  H   UNL     1      42.247 129.753  24.688  1.00  0.00     0.156 HD
ATOM     16  H   UNL     1      41.638 130.771  23.357  1.00  0.00     0.156 HD
ENDBRANCH   3  14
BRANCH   5  17
ATOM     17  N   UNL     1      46.114 131.098  20.670  1.00  0.00    -0.280 N 
ATOM     18  H   UNL     1      47.131 130.863  20.745  1.00  0.00     0.358 HD
ATOM     19  H   UNL     1      46.012 132.056  21.076  1.00  0.00     0.358 HD
BRANCH  17  20
ATOM     20  C   UNL     1      45.753 131.076  19.272  1.00  0.00     0.137 A 
ATOM     21  C   UNL     1      45.146 132.194  18.671  1.00  0.00     0.068 A 
ATOM     22  C   UNL     1      45.932 129.909  18.510  1.00  0.00     0.107 A 
ATOM     23  C   UNL     1      44.778 132.162  17.323  1.00  0.00     0.012 A 
ATOM     24  C   UNL     1      45.556 129.872  17.165  1.00  0.00     0.132 A 
ATOM     25  C   UNL     1      44.995 131.008  16.556  1.00  0.00    -0.015 A 
ATOM     26  F   UNL     1      45.743 128.732  16.454  1.00  0.00    -0.206 F 
ATOM     27  C   UNL     1      44.579 130.966  15.114  1.00  0.00     0.047 C 
ENDBRANCH  17  20
ENDBRANCH   5  17
BRANCH   4  28
ATOM     28  N   UNL     1      43.551 131.866  21.803  1.00  0.00    -0.375 N 
ATOM     29  H   UNL     1      44.165 132.698  21.943  1.00  0.00     0.161 HD
BRANCH  28  30
ATOM     30  C   UNL     1      42.208 132.062  21.232  1.00  0.00     0.094 C 
ATOM     31  C   UNL     1      41.963 131.264  19.983  1.00  0.00     0.100 C 
ATOM     32  C   UNL     1      42.099 133.288  20.369  1.00  0.00     0.100 C 
ATOM     33  C   UNL     1      41.822 132.493  19.106  1.00  0.00     0.137 C 
ATOM     34  O   UNL     1      41.590 132.733  17.932  1.00  0.00    -0.300 OA
ENDBRANCH  28  30
ENDBRANCH   4  28
TORSDOF 6
ENDMDL
MODEL 4
REMARK VINA RESULT:      -4.4      4.324      7.894
REMARK SMILES Cc1ccc(-c2cc(N)c(NC3CC(=O)C3)c([NH2+]c3ccc(C)c(F)c3)c2)cc1
REMARK SMILES IDX 6 1 7 2 8 3 10 4 17 5 27 6 5 7 2 8 3 9 29 10 4 11 28 12 1 13
REMARK SMILES IDX 9 14 18 17 19 20 20 21 26 22 21 23 24 24 22 25 25 26 23 27
REMARK SMILES IDX 11 28 12 30 13 31 16 32 14 33 15 34
REMARK H PARENT 9 15 9 16 18 18 18 19 11 29
ROOT
ATOM      1  C   UNL     1      44.617 131.101  18.981  1.00  0.00    -0.010 A 
ATOM      2  C   UNL     1      43.379 131.732  19.155  1.00  0.00     0.037 A 
ATOM      3  C   UNL     1      42.741 131.736  20.401  1.00  0.00     0.062 A 
ATOM      4  C   UNL     1      43.377 131.152  21.522  1.00  0.00     0.120 A 
ATOM      5  C   UNL     1      44.595 130.448  21.340  1.00  0.00     0.160 A 
ATOM      6  C   UNL     1      45.203 130.444  20.070  1.00  0.00     0.079 A 
ENDROOT
BRANCH   1   7
ATOM      7  C   UNL     1      45.288 131.105  17.656  1.00  0.00    -0.018 A 
ATOM      8  C   UNL     1      46.549 131.113  15.134  1.00  0.00    -0.051 A 
ATOM      9  C   UNL     1      45.972 132.287  15.640  1.00  0.00     0.004 A 
ATOM     10  C   UNL     1      46.516 129.942  15.904  1.00  0.00     0.004 A 
ATOM     11  C   UNL     1      45.341 132.282  16.887  1.00  0.00     0.009 A 
ATOM     12  C   UNL     1      45.885 129.936  17.152  1.00  0.00     0.009 A 
ATOM     13  C   UNL     1      47.261 131.130  13.814  1.00  0.00     0.044 C 
ENDBRANCH   1   7
BRANCH   3  14
ATOM     14  N   UNL     1      41.414 132.267  20.491  1.00  0.00    -0.397 N 
ATOM     15  H   UNL     1      40.820 132.074  21.328  1.00  0.00     0.156 HD
ATOM     16  H   UNL     1      41.085 133.002  19.827  1.00  0.00     0.156 HD
ENDBRANCH   3  14
BRANCH   5  17
ATOM     17  N   UNL     1      45.237 129.743  22.430  1.00  0.00    -0.280 N 
ATOM     18  H   UNL     1      45.077 130.240  23.337  1.00  0.00     0.358 HD
ATOM     19  H   UNL     1      46.272 129.746  22.282  1.00  0.00     0.358 HD
BRANCH  17  20
ATOM     20  C   UNL     1      44.726 128.399  22.560  1.00  0.00     0.137 A 
ATOM     21  C   UNL     1      43.471 128.164  23.152  1.00  0.00     0.068 A 
ATOM     22  C   UNL     1      45.508 127.300  22.168  1.00  0.00     0.107 A 
ATOM     23  C   UNL     1      42.988 126.861  23.297  1.00  0.00     0.012 A 
ATOM     24  C   UNL     1      45.030 125.995  22.321  1.00  0.00     0.132 A 
ATOM     25  C   UNL     1      43.756 125.769  22.868  1.00  0.00    -0.015 A 
ATOM     26  F   UNL     1      45.807 124.953  21.931  1.00  0.00    -0.206 F 
ATOM     27  C   UNL     1      43.247 124.367  23.044  1.00  0.00     0.047 C 
ENDBRANCH  17  20
ENDBRANCH   5  17
BRANCH   4  28
ATOM     28  N   UNL     1      42.825 131.309  22.844  1.00  0.00    -0.375 N 
ATOM     29  H   UNL     1      42.130 130.606  23.181  1.00  0.00     0.161 HD
BRANCH  28  30
ATOM     30  C   UNL     1      43.304 132.340  23.779  1.00  0.00     0.094 C 
ATOM     31  C   UNL     1      44.246 133.329  23.154  1.00  0.00     0.100 C 
ATOM     32  C   UNL     1      44.467 131.891  24.619  1.00  0.00     0.100 C 
ATOM     33  C   UNL     1      45.421 132.905  24.015  1.00  0.00     0.137 C 
ATOM     34  O   UNL     1      46.588 133.231  24.158  1.00  0.00    -0.300 OA
ENDBRANCH  28  30
ENDBRANCH   4  28
TORSDOF 6
ENDMDL
MODEL 5
REMARK VINA RESULT:      -4.2      4.193      6.134
REMARK SMILES Cc1ccc(-c2cc(N)c(NC3CC(=O)C3)c([NH2+]c3ccc(C)c(F)c3)c2)cc1
REMARK SMILES IDX 6 1 7 2 8 3 10 4 17 5 27 6 5 7 2 8 3 9 29 10 4 11 28 12 1 13
REMARK SMILES IDX 9 14 18 17 19 20 20 21 26 22 21 23 24 24 22 25 25 26 23 27
REMARK SMILES IDX 11 28 12 30 13 31 16 32 14 33 15 34
REMARK H PARENT 9 15 9 16 18 18 18 19 11 29
ROOT
ATOM      1  C   UNL     1      44.663 128.810  22.719  1.00  0.00    -0.010 A 
ATOM      2  C   UNL     1      43.456 129.146  23.345  1.00  0.00     0.037 A 
ATOM      3  C   UNL     1      42.827 130.369  23.086  1.00  0.00     0.062 A 
ATOM      4  C   UNL     1      43.377 131.260  22.134  1.00  0.00     0.120 A 
ATOM      5  C   UNL     1      44.636 130.960  21.551  1.00  0.00     0.160 A 
ATOM      6  C   UNL     1      45.255 129.731  21.846  1.00  0.00     0.079 A 
ENDROOT
BRANCH   1   7
ATOM      7  C   UNL     1      45.322 127.508  22.997  1.00  0.00    -0.018 A 
ATOM      8  C   UNL     1      46.584 125.043  23.531  1.00  0.00    -0.051 A 
ATOM      9  C   UNL     1      46.087 125.826  24.583  1.00  0.00     0.004 A 
ATOM     10  C   UNL     1      46.425 125.485  22.210  1.00  0.00     0.004 A 
ATOM     11  C   UNL     1      45.467 127.050  24.320  1.00  0.00     0.009 A 
ATOM     12  C   UNL     1      45.805 126.710  21.945  1.00  0.00     0.009 A 
ATOM     13  C   UNL     1      47.213 123.711  23.812  1.00  0.00     0.044 C 
ENDBRANCH   1   7
BRANCH   3  14
ATOM     14  N   UNL     1      41.674 130.724  23.858  1.00  0.00    -0.397 N 
ATOM     15  H   UNL     1      41.329 131.710  23.875  1.00  0.00     0.156 HD
ATOM     16  H   UNL     1      41.051 129.990  24.259  1.00  0.00     0.156 HD
ENDBRANCH   3  14
BRANCH   5  17
ATOM     17  N   UNL     1      45.295 131.882  20.650  1.00  0.00    -0.280 N 
ATOM     18  H   UNL     1      46.256 132.113  20.994  1.00  0.00     0.358 HD
ATOM     19  H   UNL     1      44.772 132.787  20.636  1.00  0.00     0.358 HD
BRANCH  17  20
ATOM     20  C   UNL     1      45.418 131.323  19.324  1.00  0.00     0.137 A 
ATOM     21  C   UNL     1      45.849 129.995  19.144  1.00  0.00     0.068 A 
ATOM     22  C   UNL     1      45.184 132.120  18.191  1.00  0.00     0.107 A 
ATOM     23  C   UNL     1      45.989 129.463  17.859  1.00  0.00     0.012 A 
ATOM     24  C   UNL     1      45.332 131.592  16.906  1.00  0.00     0.132 A 
ATOM     25  C   UNL     1      45.715 130.252  16.732  1.00  0.00    -0.015 A 
ATOM     26  F   UNL     1      45.096 132.386  15.831  1.00  0.00    -0.206 F 
ATOM     27  C   UNL     1      45.887 129.687  15.351  1.00  0.00     0.047 C 
ENDBRANCH  17  20
ENDBRANCH   5  17
BRANCH   4  28
ATOM     28  N   UNL     1      42.650 132.432  21.719  1.00  0.00    -0.375 N 
ATOM     29  H   UNL     1      42.963 133.363  22.072  1.00  0.00     0.161 HD
BRANCH  28  30
ATOM     30  C   UNL     1      41.574 132.378  20.716  1.00  0.00     0.094 C 
ATOM     31  C   UNL     1      41.785 131.326  19.664  1.00  0.00     0.100 C 
ATOM     32  C   UNL     1      41.731 133.389  19.615  1.00  0.00     0.100 C 
ATOM     33  C   UNL     1      41.917 132.335  18.539  1.00  0.00     0.137 C 
ATOM     34  O   UNL     1      42.088 132.310  17.331  1.00  0.00    -0.300 OA
ENDBRANCH  28  30
ENDBRANCH   4  28
TORSDOF 6
ENDMDL
MODEL 6
REMARK VINA RESULT:      -4.1      5.774      7.611
REMARK SMILES Cc1ccc(-c2cc(N)c(NC3CC(=O)C3)c([NH2+]c3ccc(C)c(F)c3)c2)cc1
REMARK SMILES IDX 6 1 7 2 8 3 10 4 17 5 27 6 5 7 2 8 3 9 29 10 4 11 28 12 1 13
REMARK SMILES IDX 9 14 18 17 19 20 20 21 26 22 21 23 24 24 22 25 25 26 23 27
REMARK SMILES IDX 11 28 12 30 13 31 16 32 14 33 15 34
REMARK H PARENT 9 15 9 16 18 18 18 19 11 29
ROOT
ATOM      1  C   UNL     1      44.791 131.347  18.006  1.00  0.00    -0.010 A 
ATOM      2  C   UNL     1      43.428 131.662  17.958  1.00  0.00     0.037 A 
ATOM      3  C   UNL     1      42.689 131.845  19.133  1.00  0.00     0.062 A 
ATOM      4  C   UNL     1      43.333 131.774  20.391  1.00  0.00     0.120 A 
ATOM      5  C   UNL     1      44.696 131.384  20.451  1.00  0.00     0.160 A 
ATOM      6  C   UNL     1      45.408 131.187  19.254  1.00  0.00     0.079 A 
ENDROOT
BRANCH   1   7
ATOM      7  C   UNL     1      45.568 131.158  16.754  1.00  0.00    -0.018 A 
ATOM      8  C   UNL     1      47.055 130.799  14.385  1.00  0.00    -0.051 A 
ATOM      9  C   UNL     1      46.899 129.739  15.290  1.00  0.00     0.004 A 
ATOM     10  C   UNL     1      46.444 132.031  14.656  1.00  0.00     0.004 A 
ATOM     11  C   UNL     1      46.167 129.918  16.467  1.00  0.00     0.009 A 
ATOM     12  C   UNL     1      45.712 132.212  15.834  1.00  0.00     0.009 A 
ATOM     13  C   UNL     1      47.807 130.593  13.103  1.00  0.00     0.044 C 
ENDBRANCH   1   7
BRANCH   3  14
ATOM     14  N   UNL     1      41.272 132.022  19.032  1.00  0.00    -0.397 N 
ATOM     15  H   UNL     1      40.700 132.232  19.880  1.00  0.00     0.156 HD
ATOM     16  H   UNL     1      40.811 132.133  18.102  1.00  0.00     0.156 HD
ENDBRANCH   3  14
BRANCH   5  17
ATOM     17  N   UNL     1      45.378 131.195  21.714  1.00  0.00    -0.280 N 
ATOM     18  H   UNL     1      45.916 130.297  21.715  1.00  0.00     0.358 HD
ATOM     19  H   UNL     1      44.672 131.104  22.480  1.00  0.00     0.358 HD
BRANCH  17  20
ATOM     20  C   UNL     1      46.305 132.271  21.977  1.00  0.00     0.137 A 
ATOM     21  C   UNL     1      47.377 132.523  21.100  1.00  0.00     0.068 A 
ATOM     22  C   UNL     1      46.196 133.033  23.152  1.00  0.00     0.107 A 
ATOM     23  C   UNL     1      48.285 133.550  21.368  1.00  0.00     0.012 A 
ATOM     24  C   UNL     1      47.109 134.055  23.426  1.00  0.00     0.132 A 
ATOM     25  C   UNL     1      48.149 134.334  22.523  1.00  0.00    -0.015 A 
ATOM     26  F   UNL     1      46.977 134.775  24.568  1.00  0.00    -0.206 F 
ATOM     27  C   UNL     1      49.138 135.423  22.821  1.00  0.00     0.047 C 
ENDBRANCH  17  20
ENDBRANCH   5  17
BRANCH   4  28
ATOM     28  N   UNL     1      42.634 132.141  21.596  1.00  0.00    -0.375 N 
ATOM     29  H   UNL     1      41.785 132.743  21.515  1.00  0.00     0.161 HD
BRANCH  28  30
ATOM     30  C   UNL     1      42.993 131.592  22.913  1.00  0.00     0.094 C 
ATOM     31  C   UNL     1      42.959 130.091  22.969  1.00  0.00     0.100 C 
ATOM     32  C   UNL     1      41.847 131.569  23.885  1.00  0.00     0.100 C 
ATOM     33  C   UNL     1      41.821 130.054  23.971  1.00  0.00     0.137 C 
ATOM     34  O   UNL     1      41.185 129.203  24.570  1.00  0.00    -0.300 OA
ENDBRANCH  28  30
ENDBRANCH   4  28
TORSDOF 6
ENDMDL
MODEL 7
REMARK VINA RESULT:      -3.6      4.489      7.800
REMARK SMILES Cc1ccc(-c2cc(N)c(NC3CC(=O)C3)c([NH2+]c3ccc(C)c(F)c3)c2)cc1
REMARK SMILES IDX 6 1 7 2 8 3 10 4 17 5 27 6 5 7 2 8 3 9 29 10 4 11 28 12 1 13
REMARK SMILES IDX 9 14 18 17 19 20 20 21 26 22 21 23 24 24 22 25 25 26 23 27
REMARK SMILES IDX 11 28 12 30 13 31 16 32 14 33 15 34
REMARK H PARENT 9 15 9 16 18 18 18 19 11 29
ROOT
ATOM      1  C   UNL     1      45.287 131.242  17.082  1.00  0.00    -0.010 A 
ATOM      2  C   UNL     1      43.960 131.654  16.909  1.00  0.00     0.037 A 
ATOM      3  C   UNL     1      43.183 132.055  18.002  1.00  0.00     0.062 A 
ATOM      4  C   UNL     1      43.754 132.109  19.295  1.00  0.00     0.120 A 
ATOM      5  C   UNL     1      45.074 131.624  19.490  1.00  0.00     0.160 A 
ATOM      6  C   UNL     1      45.826 131.208  18.375  1.00  0.00     0.079 A 
ENDROOT
BRANCH   1   7
ATOM      7  C   UNL     1      46.107 130.821  15.916  1.00  0.00    -0.018 A 
ATOM      8  C   UNL     1      47.673 130.021  13.712  1.00  0.00    -0.051 A 
ATOM      9  C   UNL     1      47.285 129.085  14.682  1.00  0.00     0.004 A 
ATOM     10  C   UNL     1      47.252 131.352  13.834  1.00  0.00     0.004 A 
ATOM     11  C   UNL     1      46.515 129.482  15.778  1.00  0.00     0.009 A 
ATOM     12  C   UNL     1      46.481 131.752  14.930  1.00  0.00     0.009 A 
ATOM     13  C   UNL     1      48.466 129.585  12.516  1.00  0.00     0.044 C 
ENDBRANCH   1   7
BRANCH   3  14
ATOM     14  N   UNL     1      41.792 132.327  17.791  1.00  0.00    -0.397 N 
ATOM     15  H   UNL     1      41.088 132.090  18.525  1.00  0.00     0.156 HD
ATOM     16  H   UNL     1      41.478 132.929  16.999  1.00  0.00     0.156 HD
ENDBRANCH   3  14
BRANCH   5  17
ATOM     17  N   UNL     1      45.674 131.559  20.806  1.00  0.00    -0.280 N 
ATOM     18  H   UNL     1      45.254 132.278  21.440  1.00  0.00     0.358 HD
ATOM     19  H   UNL     1      46.689 131.798  20.737  1.00  0.00     0.358 HD
BRANCH  17  20
ATOM     20  C   UNL     1      45.476 130.263  21.410  1.00  0.00     0.137 A 
ATOM     21  C   UNL     1      45.705 129.086  20.672  1.00  0.00     0.068 A 
ATOM     22  C   UNL     1      44.978 130.157  22.720  1.00  0.00     0.107 A 
ATOM     23  C   UNL     1      45.492 127.833  21.253  1.00  0.00     0.012 A 
ATOM     24  C   UNL     1      44.756 128.904  23.298  1.00  0.00     0.132 A 
ATOM     25  C   UNL     1      45.033 127.732  22.574  1.00  0.00    -0.015 A 
ATOM     26  F   UNL     1      44.277 128.833  24.565  1.00  0.00    -0.206 F 
ATOM     27  C   UNL     1      44.783 126.386  23.189  1.00  0.00     0.047 C 
ENDBRANCH  17  20
ENDBRANCH   5  17
BRANCH   4  28
ATOM     28  N   UNL     1      43.030 132.693  20.395  1.00  0.00    -0.375 N 
ATOM     29  H   UNL     1      43.122 133.719  20.563  1.00  0.00     0.161 HD
BRANCH  28  30
ATOM     30  C   UNL     1      42.068 131.923  21.201  1.00  0.00     0.094 C 
ATOM     31  C   UNL     1      41.431 132.723  22.302  1.00  0.00     0.100 C 
ATOM     32  C   UNL     1      42.715 131.107  22.285  1.00  0.00     0.100 C 
ATOM     33  C   UNL     1      42.055 131.890  23.405  1.00  0.00     0.137 C 
ATOM     34  O   UNL     1      42.031 131.859  24.624  1.00  0.00    -0.300 OA
ENDBRANCH  28  30
ENDBRANCH   4  28
TORSDOF 6
ENDMDL
MODEL 8
REMARK VINA RESULT:      -3.3      4.312      7.893
REMARK SMILES Cc1ccc(-c2cc(N)c(NC3CC(=O)C3)c([NH2+]c3ccc(C)c(F)c3)c2)cc1
REMARK SMILES IDX 6 1 7 2 8 3 10 4 17 5 27 6 5 7 2 8 3 9 29 10 4 11 28 12 1 13
REMARK SMILES IDX 9 14 18 17 19 20 20 21 26 22 21 23 24 24 22 25 25 26 23 27
REMARK SMILES IDX 11 28 12 30 13 31 16 32 14 33 15 34
REMARK H PARENT 9 15 9 16 18 18 18 19 11 29
ROOT
ATOM      1  C   UNL     1      44.848 131.053  17.846  1.00  0.00    -0.010 A 
ATOM      2  C   UNL     1      43.477 131.337  17.825  1.00  0.00     0.037 A 
ATOM      3  C   UNL     1      42.728 131.359  19.007  1.00  0.00     0.062 A 
ATOM      4  C   UNL     1      43.366 131.153  20.253  1.00  0.00     0.120 A 
ATOM      5  C   UNL     1      44.738 130.793  20.277  1.00  0.00     0.160 A 
ATOM      6  C   UNL     1      45.462 130.760  19.070  1.00  0.00     0.079 A 
ENDROOT
BRANCH   1   7
ATOM      7  C   UNL     1      45.636 131.036  16.587  1.00  0.00    -0.018 A 
ATOM      8  C   UNL     1      47.145 131.002  14.205  1.00  0.00    -0.051 A 
ATOM      9  C   UNL     1      47.020 129.840  14.980  1.00  0.00     0.004 A 
ATOM     10  C   UNL     1      46.491 132.174  14.612  1.00  0.00     0.004 A 
ATOM     11  C   UNL     1      46.278 129.857  16.164  1.00  0.00     0.009 A 
ATOM     12  C   UNL     1      45.748 132.193  15.796  1.00  0.00     0.009 A 
ATOM     13  C   UNL     1      47.908 130.971  12.914  1.00  0.00     0.044 C 
ENDBRANCH   1   7
BRANCH   3  14
ATOM     14  N   UNL     1      41.307 131.511  18.916  1.00  0.00    -0.397 N 
ATOM     15  H   UNL     1      40.802 132.180  19.539  1.00  0.00     0.156 HD
ATOM     16  H   UNL     1      40.776 131.108  18.113  1.00  0.00     0.156 HD
ENDBRANCH   3  14
BRANCH   5  17
ATOM     17  N   UNL     1      45.418 130.471  21.514  1.00  0.00    -0.280 N 
ATOM     18  H   UNL     1      45.255 131.215  22.231  1.00  0.00     0.358 HD
ATOM     19  H   UNL     1      46.450 130.455  21.349  1.00  0.00     0.358 HD
BRANCH  17  20
ATOM     20  C   UNL     1      44.952 129.217  22.059  1.00  0.00     0.137 A 
ATOM     21  C   UNL     1      43.930 129.192  23.026  1.00  0.00     0.068 A 
ATOM     22  C   UNL     1      45.565 128.009  21.687  1.00  0.00     0.107 A 
ATOM     23  C   UNL     1      43.496 127.979  23.568  1.00  0.00     0.012 A 
ATOM     24  C   UNL     1      45.138 126.796  22.235  1.00  0.00     0.132 A 
ATOM     25  C   UNL     1      44.084 126.772  23.165  1.00  0.00    -0.015 A 
ATOM     26  F   UNL     1      45.748 125.645  21.856  1.00  0.00    -0.206 F 
ATOM     27  C   UNL     1      43.633 125.471  23.763  1.00  0.00     0.047 C 
ENDBRANCH  17  20
ENDBRANCH   5  17
BRANCH   4  28
ATOM     28  N   UNL     1      42.651 131.355  21.487  1.00  0.00    -0.375 N 
ATOM     29  H   UNL     1      42.411 130.520  22.066  1.00  0.00     0.161 HD
BRANCH  28  30
ATOM     30  C   UNL     1      42.368 132.697  22.022  1.00  0.00     0.094 C 
ATOM     31  C   UNL     1      41.607 132.679  23.318  1.00  0.00     0.100 C 
ATOM     32  C   UNL     1      41.151 133.338  21.415  1.00  0.00     0.100 C 
ATOM     33  C   UNL     1      40.384 133.351  22.725  1.00  0.00     0.137 C 
ATOM     34  O   UNL     1      39.293 133.731  23.118  1.00  0.00    -0.300 OA
ENDBRANCH  28  30
ENDBRANCH   4  28
TORSDOF 6
ENDMDL
MODEL 9
REMARK VINA RESULT:      -3.2      4.500      7.841
REMARK SMILES Cc1ccc(-c2cc(N)c(NC3CC(=O)C3)c([NH2+]c3ccc(C)c(F)c3)c2)cc1
REMARK SMILES IDX 6 1 7 2 8 3 10 4 17 5 27 6 5 7 2 8 3 9 29 10 4 11 28 12 1 13
REMARK SMILES IDX 9 14 18 17 19 20 20 21 26 22 21 23 24 24 22 25 25 26 23 27
REMARK SMILES IDX 11 28 12 30 13 31 16 32 14 33 15 34
REMARK H PARENT 9 15 9 16 18 18 18 19 11 29
ROOT
ATOM      1  C   UNL     1      45.298 131.233  17.318  1.00  0.00    -0.010 A 
ATOM      2  C   UNL     1      43.995 131.738  17.215  1.00  0.00     0.037 A 
ATOM      3  C   UNL     1      43.277 132.113  18.356  1.00  0.00     0.062 A 
ATOM      4  C   UNL     1      43.887 132.044  19.631  1.00  0.00     0.120 A 
ATOM      5  C   UNL     1      45.177 131.465  19.751  1.00  0.00     0.160 A 
ATOM      6  C   UNL     1      45.868 131.078  18.588  1.00  0.00     0.079 A 
ENDROOT
BRANCH   1   7
ATOM      7  C   UNL     1      46.055 130.841  16.101  1.00  0.00    -0.018 A 
ATOM      8  C   UNL     1      47.480 130.098  13.784  1.00  0.00    -0.051 A 
ATOM      9  C   UNL     1      47.024 131.414  13.943  1.00  0.00     0.004 A 
ATOM     10  C   UNL     1      47.243 129.161  14.800  1.00  0.00     0.004 A 
ATOM     11  C   UNL     1      46.312 131.782  15.088  1.00  0.00     0.009 A 
ATOM     12  C   UNL     1      46.531 129.527  15.946  1.00  0.00     0.009 A 
ATOM     13  C   UNL     1      48.278 129.715  12.574  1.00  0.00     0.044 C 
ENDBRANCH   1   7
BRANCH   3  14
ATOM     14  N   UNL     1      41.902 132.486  18.209  1.00  0.00    -0.397 N 
ATOM     15  H   UNL     1      41.612 133.487  18.274  1.00  0.00     0.156 HD
ATOM     16  H   UNL     1      41.198 131.804  17.850  1.00  0.00     0.156 HD
ENDBRANCH   3  14
BRANCH   5  17
ATOM     17  N   UNL     1      45.808 131.274  21.040  1.00  0.00    -0.280 N 
ATOM     18  H   UNL     1      45.570 132.060  21.690  1.00  0.00     0.358 HD
ATOM     19  H   UNL     1      46.846 131.303  20.926  1.00  0.00     0.358 HD
BRANCH  17  20
ATOM     20  C   UNL     1      45.378 130.041  21.658  1.00  0.00     0.137 A 
ATOM     21  C   UNL     1      45.828 128.800  21.169  1.00  0.00     0.068 A 
ATOM     22  C   UNL     1      44.444 130.059  22.707  1.00  0.00     0.107 A 
ATOM     23  C   UNL     1      45.394 127.608  21.755  1.00  0.00     0.012 A 
ATOM     24  C   UNL     1      44.002 128.867  23.288  1.00  0.00     0.132 A 
ATOM     25  C   UNL     1      44.491 127.633  22.828  1.00  0.00    -0.015 A 
ATOM     26  F   UNL     1      43.101 128.916  24.301  1.00  0.00    -0.206 F 
ATOM     27  C   UNL     1      44.008 126.351  23.443  1.00  0.00     0.047 C 
ENDBRANCH  17  20
ENDBRANCH   5  17
BRANCH   4  28
ATOM     28  N   UNL     1      43.233 132.597  20.790  1.00  0.00    -0.375 N 
ATOM     29  H   UNL     1      43.636 133.455  21.227  1.00  0.00     0.161 HD
BRANCH  28  30
ATOM     30  C   UNL     1      41.952 132.077  21.294  1.00  0.00     0.094 C 
ATOM     31  C   UNL     1      40.817 133.054  21.173  1.00  0.00     0.100 C 
ATOM     32  C   UNL     1      41.797 132.211  22.783  1.00  0.00     0.100 C 
ATOM     33  C   UNL     1      40.631 133.177  22.674  1.00  0.00     0.137 C 
ATOM     34  O   UNL     1      39.888 133.771  23.437  1.00  0.00    -0.300 OA
ENDBRANCH  28  30
ENDBRANCH   4  28
TORSDOF 6
ENDMDL


