REMARK SMILES O=c1c(-n2nc3ccccc3[nH+]2)cc2c[n-]oc-2c1[NH2+]c1ccc2cc[nH]c2c1
REMARK SMILES IDX 1 1 2 2 3 3 13 4 14 5 15 6 16 7 17 8 18 9 19 10 4 11 5 12
REMARK SMILES IDX 12 13 6 14 11 15 7 16 10 17 8 18 9 19 20 21 21 24 22 25
REMARK SMILES IDX 29 26 23 27 28 28 24 29 27 30 25 31 26 32
REMARK H PARENT 12 20 20 22 20 23 27 33
ROOT
ATOM      1  O   UNL     1       0.681   0.692   1.342  1.00  0.00    -0.280 OA
ATOM      2  C   UNL     1       0.548  -0.519   1.017  1.00  0.00     0.274 A 
ATOM      3  C   UNL     1       1.446  -1.097   0.060  1.00  0.00     0.182 A 
ATOM      4  C   UNL     1       1.296  -2.450  -0.330  1.00  0.00     0.049 A 
ATOM      5  C   UNL     1       0.269  -3.179   0.242  1.00  0.00     0.005 A 
ATOM      6  C   UNL     1      -0.162  -4.477   0.114  1.00  0.00    -0.098 A 
ATOM      7  N   UNL     1      -1.228  -4.655   0.934  1.00  0.00    -0.512 NA
ATOM      8  O   UNL     1      -1.472  -3.531   1.560  1.00  0.00    -0.553 OA
ATOM      9  C   UNL     1      -0.618  -2.609   1.195  1.00  0.00     0.179 A 
ATOM     10  C   UNL     1      -0.501  -1.282   1.602  1.00  0.00     0.227 A 
ENDROOT
BRANCH   3  11
ATOM     11  N   UNL     1       2.515  -0.314  -0.505  1.00  0.00    -0.008 N 
ATOM     12  N   UNL     1       3.119   0.687   0.137  1.00  0.00     0.054 NA
ATOM     13  N   UNL     1       3.029  -0.508  -1.719  1.00  0.00    -0.161 N 
ATOM     14  C   UNL     1       4.056   1.138  -0.717  1.00  0.00     0.249 A 
ATOM     15  C   UNL     1       4.000   0.403  -1.861  1.00  0.00     0.198 A 
ATOM     16  C   UNL     1       4.968   2.174  -0.547  1.00  0.00     0.064 A 
ATOM     17  C   UNL     1       4.845   0.638  -2.942  1.00  0.00     0.058 A 
ATOM     18  C   UNL     1       5.848   2.443  -1.615  1.00  0.00     0.005 A 
ATOM     19  C   UNL     1       5.785   1.680  -2.808  1.00  0.00     0.005 A 
ATOM     20  H   UNL     1       2.713  -1.212  -2.424  1.00  0.00     0.340 HD
ENDBRANCH   3  11
BRANCH  10  21
ATOM     21  N   UNL     1      -1.439  -0.707   2.537  1.00  0.00    -0.275 N 
ATOM     22  H   UNL     1      -0.966   0.018   3.126  1.00  0.00     0.358 HD
ATOM     23  H   UNL     1      -1.788  -1.443   3.195  1.00  0.00     0.358 HD
BRANCH  21  24
ATOM     24  C   UNL     1      -2.548  -0.127   1.821  1.00  0.00     0.136 A 
ATOM     25  C   UNL     1      -3.657  -0.933   1.445  1.00  0.00     0.069 A 
ATOM     26  C   UNL     1      -2.525   1.240   1.455  1.00  0.00     0.094 A 
ATOM     27  C   UNL     1      -4.731  -0.387   0.719  1.00  0.00     0.016 A 
ATOM     28  C   UNL     1      -3.605   1.747   0.735  1.00  0.00     0.051 A 
ATOM     29  C   UNL     1      -4.668   0.961   0.381  1.00  0.00    -0.000 A 
ATOM     30  N   UNL     1      -3.775   3.005   0.296  1.00  0.00    -0.361 N 
ATOM     31  C   UNL     1      -5.554   1.754  -0.314  1.00  0.00     0.028 A 
ATOM     32  C   UNL     1      -4.966   3.015  -0.346  1.00  0.00     0.083 A 
ATOM     33  H   UNL     1      -3.124   3.812   0.422  1.00  0.00     0.166 HD
ENDBRANCH  21  24
ENDBRANCH  10  21
TORSDOF 3


