REMARK SMILES C[C@@]1(C(=O)N(c2ccc3[nH]ccc3c2)c2cccc3c2CCC3)CC[C@H](N)C1
REMARK SMILES IDX 3 1 4 2 2 3 24 4 28 5 25 6 26 7 1 8 27 9 5 12 6 13 7 14
REMARK SMILES IDX 14 15 8 16 13 17 9 18 12 19 10 20 11 21 15 23 16 24 20 25
REMARK SMILES IDX 17 26 19 27 21 28 18 29 23 30 22 31
REMARK H PARENT 27 10 27 11 10 22
ROOT
ATOM      1  C   UNL     1      -2.149  -0.479  -0.118  1.00  0.00     0.237 C 
ATOM      2  O   UNL     1      -3.230  -0.034  -0.592  1.00  0.00    -0.273 OA
ENDROOT
BRANCH   1   3
ATOM      3  C   UNL     1      -2.196  -1.570   0.944  1.00  0.00     0.049 C 
ATOM      4  C   UNL     1      -3.335  -1.312   1.946  1.00  0.00     0.018 C 
ATOM      5  C   UNL     1      -0.949  -1.572   1.838  1.00  0.00     0.035 C 
ATOM      6  C   UNL     1      -2.894  -1.919   3.277  1.00  0.00     0.020 C 
ATOM      7  C   UNL     1      -1.388  -2.185   3.166  1.00  0.00     0.051 C 
ATOM      8  C   UNL     1      -2.386  -2.945   0.266  1.00  0.00     0.022 C 
BRANCH   7   9
ATOM      9  N   UNL     1      -0.658  -1.590   4.286  1.00  0.00    -0.328 NA
ATOM     10  H   UNL     1       0.357  -1.811   4.165  1.00  0.00     0.119 HD
ATOM     11  H   UNL     1      -0.959  -2.076   5.162  1.00  0.00     0.119 HD
ENDBRANCH   7   9
ENDBRANCH   1   3
BRANCH   1  12
ATOM     12  N   UNL     1      -0.903   0.054  -0.606  1.00  0.00    -0.280 N 
BRANCH  12  13
ATOM     13  C   UNL     1      -0.717   1.484  -0.642  1.00  0.00     0.050 A 
ATOM     14  C   UNL     1      -1.168   2.288   0.439  1.00  0.00     0.029 A 
ATOM     15  C   UNL     1      -0.082   2.099  -1.748  1.00  0.00     0.037 A 
ATOM     16  C   UNL     1      -0.984   3.682   0.427  1.00  0.00     0.029 A 
ATOM     17  C   UNL     1       0.085   3.481  -1.724  1.00  0.00     0.001 A 
ATOM     18  C   UNL     1      -0.349   4.245  -0.676  1.00  0.00     0.045 A 
ATOM     19  C   UNL     1       0.662   4.330  -2.643  1.00  0.00     0.028 A 
ATOM     20  N   UNL     1      -0.075   5.543  -0.886  1.00  0.00    -0.361 N 
ATOM     21  C   UNL     1       0.544   5.600  -2.087  1.00  0.00     0.083 A 
ATOM     22  H   UNL     1      -0.292   6.346  -0.254  1.00  0.00     0.166 HD
ENDBRANCH  12  13
BRANCH  12  23
ATOM     23  C   UNL     1       0.057  -0.824  -1.226  1.00  0.00     0.052 A 
ATOM     24  C   UNL     1      -0.343  -1.705  -2.250  1.00  0.00     0.027 A 
ATOM     25  C   UNL     1       1.415  -0.808  -0.856  1.00  0.00    -0.021 A 
ATOM     26  C   UNL     1       0.591  -2.556  -2.863  1.00  0.00     0.002 A 
ATOM     27  C   UNL     1       2.321  -1.649  -1.456  1.00  0.00    -0.043 A 
ATOM     28  C   UNL     1       2.066   0.041   0.176  1.00  0.00     0.038 C 
ATOM     29  C   UNL     1       1.933  -2.532  -2.465  1.00  0.00     0.004 A 
ATOM     30  C   UNL     1       3.688  -1.486  -0.912  1.00  0.00     0.036 C 
ATOM     31  C   UNL     1       3.511  -0.483   0.240  1.00  0.00     0.010 C 
ENDBRANCH  12  23
ENDBRANCH   1  12
TORSDOF 5


