MODEL 1
REMARK VINA RESULT:      -9.7      0.000      0.000
REMARK SMILES C=Cc1cc(-c2ccc(C)c3n[nH]cc23)ccc1O
REMARK SMILES IDX 3 1 4 2 5 3 16 4 17 5 18 6 2 7 1 8 19 9 6 11 7 12 15 13 8 14
REMARK SMILES IDX 14 15 11 16 9 17 13 18 12 19 10 20
REMARK H PARENT 19 10 13 21
ROOT
ATOM      1  C   UNL     1      46.498 130.166  15.200  1.00  0.00     0.016 A 
ATOM      2  C   UNL     1      46.217 130.218  16.581  1.00  0.00     0.020 A 
ATOM      3  C   UNL     1      45.216 131.067  17.082  1.00  0.00    -0.017 A 
ATOM      4  C   UNL     1      44.469 131.846  16.188  1.00  0.00     0.012 A 
ATOM      5  C   UNL     1      44.724 131.790  14.819  1.00  0.00     0.047 A 
ATOM      6  C   UNL     1      45.733 130.955  14.318  1.00  0.00     0.122 A 
ENDROOT
BRANCH   1   7
ATOM      7  C   UNL     1      47.551 129.272  14.655  1.00  0.00     0.004 C 
ATOM      8  C   UNL     1      48.389 129.624  13.679  1.00  0.00     0.009 C 
ENDBRANCH   1   7
BRANCH   6   9
ATOM      9  O   UNL     1      45.979 130.914  12.945  1.00  0.00    -0.507 OA
ATOM     10  H   UNL     1      46.069 131.761  12.395  1.00  0.00     0.293 HD
ENDBRANCH   6   9
BRANCH   3  11
ATOM     11  C   UNL     1      44.928 131.117  18.534  1.00  0.00    -0.007 A 
ATOM     12  C   UNL     1      45.837 130.579  19.473  1.00  0.00     0.010 A 
ATOM     13  C   UNL     1      43.758 131.698  19.046  1.00  0.00     0.028 A 
ATOM     14  C   UNL     1      45.570 130.638  20.858  1.00  0.00     0.006 A 
ATOM     15  C   UNL     1      42.659 132.272  18.443  1.00  0.00     0.114 A 
ATOM     16  C   UNL     1      43.496 131.749  20.391  1.00  0.00     0.096 A 
ATOM     17  C   UNL     1      44.378 131.222  21.338  1.00  0.00    -0.023 A 
ATOM     18  N   UNL     1      41.808 132.649  19.423  1.00  0.00    -0.284 N 
ATOM     19  N   UNL     1      42.305 132.335  20.614  1.00  0.00    -0.175 NA
ATOM     20  C   UNL     1      44.090 131.314  22.806  1.00  0.00     0.047 C 
ATOM     21  H   UNL     1      40.884 133.113  19.280  1.00  0.00     0.189 HD
ENDBRANCH   3  11
TORSDOF 3
ENDMDL
MODEL 2
REMARK VINA RESULT:      -8.9      3.373      6.414
REMARK SMILES C=Cc1cc(-c2ccc(C)c3n[nH]cc23)ccc1O
REMARK SMILES IDX 3 1 4 2 5 3 16 4 17 5 18 6 2 7 1 8 19 9 6 11 7 12 15 13 8 14
REMARK SMILES IDX 14 15 11 16 9 17 13 18 12 19 10 20
REMARK H PARENT 19 10 13 21
ROOT
ATOM      1  C   UNL     1      44.209 131.598  20.249  1.00  0.00     0.016 A 
ATOM      2  C   UNL     1      44.985 131.488  19.077  1.00  0.00     0.020 A 
ATOM      3  C   UNL     1      44.395 131.607  17.807  1.00  0.00    -0.017 A 
ATOM      4  C   UNL     1      43.021 131.872  17.713  1.00  0.00     0.012 A 
ATOM      5  C   UNL     1      42.247 132.002  18.866  1.00  0.00     0.047 A 
ATOM      6  C   UNL     1      42.831 131.868  20.133  1.00  0.00     0.122 A 
ENDROOT
BRANCH   1   7
ATOM      7  C   UNL     1      44.819 131.477  21.598  1.00  0.00     0.004 C 
ATOM      8  C   UNL     1      44.196 130.939  22.646  1.00  0.00     0.009 C 
ENDBRANCH   1   7
BRANCH   6   9
ATOM      9  O   UNL     1      42.040 131.995  21.276  1.00  0.00    -0.507 OA
ATOM     10  H   UNL     1      42.418 131.844  22.204  1.00  0.00     0.293 HD
ENDBRANCH   6   9
BRANCH   3  11
ATOM     11  C   UNL     1      45.216 131.489  16.580  1.00  0.00    -0.007 A 
ATOM     12  C   UNL     1      45.798 132.632  15.986  1.00  0.00     0.010 A 
ATOM     13  C   UNL     1      45.459 130.257  15.956  1.00  0.00     0.028 A 
ATOM     14  C   UNL     1      46.593 132.519  14.823  1.00  0.00     0.006 A 
ATOM     15  C   UNL     1      45.033 128.973  16.226  1.00  0.00     0.114 A 
ATOM     16  C   UNL     1      46.224 130.149  14.825  1.00  0.00     0.096 A 
ATOM     17  C   UNL     1      46.809 131.263  14.217  1.00  0.00    -0.023 A 
ATOM     18  N   UNL     1      45.557 128.163  15.280  1.00  0.00    -0.284 N 
ATOM     19  N   UNL     1      46.283 128.867  14.419  1.00  0.00    -0.175 NA
ATOM     20  C   UNL     1      47.669 131.124  12.997  1.00  0.00     0.047 C 
ATOM     21  H   UNL     1      45.413 127.132  15.215  1.00  0.00     0.189 HD
ENDBRANCH   3  11
TORSDOF 3
ENDMDL
MODEL 3
REMARK VINA RESULT:      -8.6      0.970      2.088
REMARK SMILES C=Cc1cc(-c2ccc(C)c3n[nH]cc23)ccc1O
REMARK SMILES IDX 3 1 4 2 5 3 16 4 17 5 18 6 2 7 1 8 19 9 6 11 7 12 15 13 8 14
REMARK SMILES IDX 14 15 11 16 9 17 13 18 12 19 10 20
REMARK H PARENT 19 10 13 21
ROOT
ATOM      1  C   UNL     1      44.962 130.997  15.054  1.00  0.00     0.016 A 
ATOM      2  C   UNL     1      44.493 131.252  16.360  1.00  0.00     0.020 A 
ATOM      3  C   UNL     1      45.213 130.813  17.483  1.00  0.00    -0.017 A 
ATOM      4  C   UNL     1      46.429 130.141  17.298  1.00  0.00     0.012 A 
ATOM      5  C   UNL     1      46.913 129.899  16.012  1.00  0.00     0.047 A 
ATOM      6  C   UNL     1      46.188 130.323  14.889  1.00  0.00     0.122 A 
ENDROOT
BRANCH   1   7
ATOM      7  C   UNL     1      44.214 131.457  13.857  1.00  0.00     0.004 C 
ATOM      8  C   UNL     1      42.933 131.826  13.881  1.00  0.00     0.009 C 
ENDBRANCH   1   7
BRANCH   6   9
ATOM      9  O   UNL     1      46.684 130.068  13.610  1.00  0.00    -0.507 OA
ATOM     10  H   UNL     1      46.095 130.134  12.788  1.00  0.00     0.293 HD
ENDBRANCH   6   9
BRANCH   3  11
ATOM     11  C   UNL     1      44.713 131.084  18.852  1.00  0.00    -0.007 A 
ATOM     12  C   UNL     1      45.450 130.673  19.986  1.00  0.00     0.010 A 
ATOM     13  C   UNL     1      43.506 131.756  19.090  1.00  0.00     0.028 A 
ATOM     14  C   UNL     1      44.983 130.943  21.291  1.00  0.00     0.006 A 
ATOM     15  C   UNL     1      42.533 132.254  18.249  1.00  0.00     0.114 A 
ATOM     16  C   UNL     1      43.049 132.011  20.356  1.00  0.00     0.096 A 
ATOM     17  C   UNL     1      43.757 131.614  21.493  1.00  0.00    -0.023 A 
ATOM     18  N   UNL     1      41.562 132.790  19.022  1.00  0.00    -0.284 N 
ATOM     19  N   UNL     1      41.864 132.646  20.307  1.00  0.00    -0.175 NA
ATOM     20  C   UNL     1      43.259 131.929  22.872  1.00  0.00     0.047 C 
ATOM     21  H   UNL     1      40.690 133.245  18.674  1.00  0.00     0.189 HD
ENDBRANCH   3  11
TORSDOF 3
ENDMDL
MODEL 4
REMARK VINA RESULT:      -8.4      3.149      6.196
REMARK SMILES C=Cc1cc(-c2ccc(C)c3n[nH]cc23)ccc1O
REMARK SMILES IDX 3 1 4 2 5 3 16 4 17 5 18 6 2 7 1 8 19 9 6 11 7 12 15 13 8 14
REMARK SMILES IDX 14 15 11 16 9 17 13 18 12 19 10 20
REMARK H PARENT 19 10 13 21
ROOT
ATOM      1  C   UNL     1      43.731 131.701  20.889  1.00  0.00     0.016 A 
ATOM      2  C   UNL     1      44.521 131.298  19.793  1.00  0.00     0.020 A 
ATOM      3  C   UNL     1      44.042 131.414  18.477  1.00  0.00    -0.017 A 
ATOM      4  C   UNL     1      42.775 131.970  18.257  1.00  0.00     0.012 A 
ATOM      5  C   UNL     1      41.992 132.390  19.331  1.00  0.00     0.047 A 
ATOM      6  C   UNL     1      42.461 132.261  20.646  1.00  0.00     0.122 A 
ENDROOT
BRANCH   1   7
ATOM      7  C   UNL     1      44.224 131.587  22.285  1.00  0.00     0.004 C 
ATOM      8  C   UNL     1      44.138 130.472  23.012  1.00  0.00     0.009 C 
ENDBRANCH   1   7
BRANCH   6   9
ATOM      9  O   UNL     1      41.662 132.681  21.710  1.00  0.00    -0.507 OA
ATOM     10  H   UNL     1      41.945 132.547  22.673  1.00  0.00     0.293 HD
ENDBRANCH   6   9
BRANCH   3  11
ATOM     11  C   UNL     1      44.878 130.988  17.330  1.00  0.00    -0.007 A 
ATOM     12  C   UNL     1      46.118 130.342  17.539  1.00  0.00     0.010 A 
ATOM     13  C   UNL     1      44.486 131.193  16.000  1.00  0.00     0.028 A 
ATOM     14  C   UNL     1      46.909 129.922  16.446  1.00  0.00     0.006 A 
ATOM     15  C   UNL     1      43.388 131.806  15.434  1.00  0.00     0.114 A 
ATOM     16  C   UNL     1      45.257 130.791  14.940  1.00  0.00     0.096 A 
ATOM     17  C   UNL     1      46.487 130.154  15.120  1.00  0.00    -0.023 A 
ATOM     18  N   UNL     1      43.530 131.739  14.092  1.00  0.00    -0.284 N 
ATOM     19  N   UNL     1      44.665 131.124  13.778  1.00  0.00    -0.175 NA
ATOM     20  C   UNL     1      47.304 129.693  13.950  1.00  0.00     0.047 C 
ATOM     21  H   UNL     1      42.859 132.119  13.389  1.00  0.00     0.189 HD
ENDBRANCH   3  11
TORSDOF 3
ENDMDL
MODEL 5
REMARK VINA RESULT:      -8.3      1.633      2.717
REMARK SMILES C=Cc1cc(-c2ccc(C)c3n[nH]cc23)ccc1O
REMARK SMILES IDX 3 1 4 2 5 3 16 4 17 5 18 6 2 7 1 8 19 9 6 11 7 12 15 13 8 14
REMARK SMILES IDX 14 15 11 16 9 17 13 18 12 19 10 20
REMARK H PARENT 19 10 13 21
ROOT
ATOM      1  C   UNL     1      46.638 130.892  14.782  1.00  0.00     0.016 A 
ATOM      2  C   UNL     1      45.798 131.471  15.756  1.00  0.00     0.020 A 
ATOM      3  C   UNL     1      45.118 130.671  16.689  1.00  0.00    -0.017 A 
ATOM      4  C   UNL     1      45.306 129.282  16.667  1.00  0.00     0.012 A 
ATOM      5  C   UNL     1      46.149 128.700  15.721  1.00  0.00     0.047 A 
ATOM      6  C   UNL     1      46.817 129.494  14.779  1.00  0.00     0.122 A 
ENDROOT
BRANCH   1   7
ATOM      7  C   UNL     1      47.365 131.724  13.790  1.00  0.00     0.004 C 
ATOM      8  C   UNL     1      47.878 131.246  12.656  1.00  0.00     0.009 C 
ENDBRANCH   1   7
BRANCH   6   9
ATOM      9  O   UNL     1      47.652 128.894  13.836  1.00  0.00    -0.507 OA
ATOM     10  H   UNL     1      48.594 128.604  14.068  1.00  0.00     0.293 HD
ENDBRANCH   6   9
BRANCH   3  11
ATOM     11  C   UNL     1      44.236 131.286  17.709  1.00  0.00    -0.007 A 
ATOM     12  C   UNL     1      42.966 131.795  17.356  1.00  0.00     0.010 A 
ATOM     13  C   UNL     1      44.608 131.389  19.057  1.00  0.00     0.028 A 
ATOM     14  C   UNL     1      42.119 132.370  18.330  1.00  0.00     0.006 A 
ATOM     15  C   UNL     1      45.756 131.044  19.739  1.00  0.00     0.114 A 
ATOM     16  C   UNL     1      43.788 131.953  20.000  1.00  0.00     0.096 A 
ATOM     17  C   UNL     1      42.530 132.465  19.676  1.00  0.00    -0.023 A 
ATOM     18  N   UNL     1      45.582 131.391  21.033  1.00  0.00    -0.284 N 
ATOM     19  N   UNL     1      44.388 131.946  21.205  1.00  0.00    -0.175 NA
ATOM     20  C   UNL     1      41.632 133.050  20.726  1.00  0.00     0.047 C 
ATOM     21  H   UNL     1      46.279 131.256  21.798  1.00  0.00     0.189 HD
ENDBRANCH   3  11
TORSDOF 3
ENDMDL
MODEL 6
REMARK VINA RESULT:      -8.2      1.452      2.199
REMARK SMILES C=Cc1cc(-c2ccc(C)c3n[nH]cc23)ccc1O
REMARK SMILES IDX 3 1 4 2 5 3 16 4 17 5 18 6 2 7 1 8 19 9 6 11 7 12 15 13 8 14
REMARK SMILES IDX 14 15 11 16 9 17 13 18 12 19 10 20
REMARK H PARENT 19 10 13 21
ROOT
ATOM      1  C   UNL     1      46.266 130.465  15.315  1.00  0.00     0.016 A 
ATOM      2  C   UNL     1      45.745 130.644  16.614  1.00  0.00     0.020 A 
ATOM      3  C   UNL     1      44.543 131.342  16.818  1.00  0.00    -0.017 A 
ATOM      4  C   UNL     1      43.841 131.836  15.710  1.00  0.00     0.012 A 
ATOM      5  C   UNL     1      44.336 131.649  14.420  1.00  0.00     0.047 A 
ATOM      6  C   UNL     1      45.544 130.967  14.214  1.00  0.00     0.122 A 
ENDROOT
BRANCH   1   7
ATOM      7  C   UNL     1      47.534 129.727  15.083  1.00  0.00     0.004 C 
ATOM      8  C   UNL     1      48.039 129.486  13.873  1.00  0.00     0.009 C 
ENDBRANCH   1   7
BRANCH   6   9
ATOM      9  O   UNL     1      46.028 130.793  12.917  1.00  0.00    -0.507 OA
ATOM     10  H   UNL     1      46.165 131.578  12.291  1.00  0.00     0.293 HD
ENDBRANCH   6   9
BRANCH   3  11
ATOM     11  C   UNL     1      44.001 131.527  18.185  1.00  0.00    -0.007 A 
ATOM     12  C   UNL     1      42.691 132.019  18.384  1.00  0.00     0.010 A 
ATOM     13  C   UNL     1      44.746 131.224  19.333  1.00  0.00     0.028 A 
ATOM     14  C   UNL     1      42.169 132.182  19.686  1.00  0.00     0.006 A 
ATOM     15  C   UNL     1      46.036 130.772  19.518  1.00  0.00     0.114 A 
ATOM     16  C   UNL     1      44.241 131.389  20.597  1.00  0.00     0.096 A 
ATOM     17  C   UNL     1      42.951 131.875  20.820  1.00  0.00    -0.023 A 
ATOM     18  N   UNL     1      46.247 130.673  20.849  1.00  0.00    -0.284 N 
ATOM     19  N   UNL     1      45.161 131.047  21.517  1.00  0.00    -0.175 NA
ATOM     20  C   UNL     1      42.402 132.021  22.208  1.00  0.00     0.047 C 
ATOM     21  H   UNL     1      47.132 130.358  21.303  1.00  0.00     0.189 HD
ENDBRANCH   3  11
TORSDOF 3
ENDMDL
MODEL 7
REMARK VINA RESULT:      -7.6      3.334      6.469
REMARK SMILES C=Cc1cc(-c2ccc(C)c3n[nH]cc23)ccc1O
REMARK SMILES IDX 3 1 4 2 5 3 16 4 17 5 18 6 2 7 1 8 19 9 6 11 7 12 15 13 8 14
REMARK SMILES IDX 14 15 11 16 9 17 13 18 12 19 10 20
REMARK H PARENT 19 10 13 21
ROOT
ATOM      1  C   UNL     1      43.681 131.805  20.385  1.00  0.00     0.016 A 
ATOM      2  C   UNL     1      44.316 131.562  19.149  1.00  0.00     0.020 A 
ATOM      3  C   UNL     1      43.627 131.734  17.937  1.00  0.00    -0.017 A 
ATOM      4  C   UNL     1      42.299 132.184  17.963  1.00  0.00     0.012 A 
ATOM      5  C   UNL     1      41.666 132.445  19.177  1.00  0.00     0.047 A 
ATOM      6  C   UNL     1      42.347 132.259  20.388  1.00  0.00     0.122 A 
ENDROOT
BRANCH   1   7
ATOM      7  C   UNL     1      44.397 131.630  21.674  1.00  0.00     0.004 C 
ATOM      8  C   UNL     1      44.133 130.653  22.541  1.00  0.00     0.009 C 
ENDBRANCH   1   7
BRANCH   6   9
ATOM      9  O   UNL     1      41.696 132.520  21.595  1.00  0.00    -0.507 OA
ATOM     10  H   UNL     1      41.157 133.366  21.737  1.00  0.00     0.293 HD
ENDBRANCH   6   9
BRANCH   3  11
ATOM     11  C   UNL     1      44.301 131.477  16.643  1.00  0.00    -0.007 A 
ATOM     12  C   UNL     1      43.764 131.978  15.435  1.00  0.00     0.010 A 
ATOM     13  C   UNL     1      45.490 130.740  16.551  1.00  0.00     0.028 A 
ATOM     14  C   UNL     1      44.413 131.745  14.202  1.00  0.00     0.006 A 
ATOM     15  C   UNL     1      46.258 130.085  17.491  1.00  0.00     0.114 A 
ATOM     16  C   UNL     1      46.116 130.509  15.354  1.00  0.00     0.096 A 
ATOM     17  C   UNL     1      45.605 130.991  14.146  1.00  0.00    -0.023 A 
ATOM     18  N   UNL     1      47.296 129.513  16.841  1.00  0.00    -0.284 N 
ATOM     19  N   UNL     1      47.220 129.762  15.539  1.00  0.00    -0.175 NA
ATOM     20  C   UNL     1      46.318 130.756  12.848  1.00  0.00     0.047 C 
ATOM     21  H   UNL     1      48.052 128.946  17.284  1.00  0.00     0.189 HD
ENDBRANCH   3  11
TORSDOF 3
ENDMDL
MODEL 8
REMARK VINA RESULT:      -7.4      3.475      6.633
REMARK SMILES C=Cc1cc(-c2ccc(C)c3n[nH]cc23)ccc1O
REMARK SMILES IDX 3 1 4 2 5 3 16 4 17 5 18 6 2 7 1 8 19 9 6 11 7 12 15 13 8 14
REMARK SMILES IDX 14 15 11 16 9 17 13 18 12 19 10 20
REMARK H PARENT 19 10 13 21
ROOT
ATOM      1  C   UNL     1      42.950 132.046  19.602  1.00  0.00     0.016 A 
ATOM      2  C   UNL     1      43.541 131.973  18.323  1.00  0.00     0.020 A 
ATOM      3  C   UNL     1      44.837 131.459  18.156  1.00  0.00    -0.017 A 
ATOM      4  C   UNL     1      45.535 130.983  19.275  1.00  0.00     0.012 A 
ATOM      5  C   UNL     1      44.954 131.031  20.542  1.00  0.00     0.047 A 
ATOM      6  C   UNL     1      43.667 131.559  20.713  1.00  0.00     0.122 A 
ENDROOT
BRANCH   1   7
ATOM      7  C   UNL     1      41.580 132.584  19.795  1.00  0.00     0.004 C 
ATOM      8  C   UNL     1      41.253 133.452  20.752  1.00  0.00     0.009 C 
ENDBRANCH   1   7
BRANCH   6   9
ATOM      9  O   UNL     1      43.103 131.605  21.989  1.00  0.00    -0.507 OA
ATOM     10  H   UNL     1      42.159 131.281  22.166  1.00  0.00     0.293 HD
ENDBRANCH   6   9
BRANCH   3  11
ATOM     11  C   UNL     1      45.452 131.387  16.810  1.00  0.00    -0.007 A 
ATOM     12  C   UNL     1      45.940 132.551  16.173  1.00  0.00     0.010 A 
ATOM     13  C   UNL     1      45.585 130.179  16.110  1.00  0.00     0.028 A 
ATOM     14  C   UNL     1      46.539 132.482  14.896  1.00  0.00     0.006 A 
ATOM     15  C   UNL     1      45.199 128.887  16.396  1.00  0.00     0.114 A 
ATOM     16  C   UNL     1      46.160 130.114  14.868  1.00  0.00     0.096 A 
ATOM     17  C   UNL     1      46.647 131.250  14.217  1.00  0.00    -0.023 A 
ATOM     18  N   UNL     1      45.560 128.112  15.349  1.00  0.00    -0.284 N 
ATOM     19  N   UNL     1      46.145 128.848  14.411  1.00  0.00    -0.175 NA
ATOM     20  C   UNL     1      47.302 131.156  12.871  1.00  0.00     0.047 C 
ATOM     21  H   UNL     1      45.401 127.084  15.270  1.00  0.00     0.189 HD
ENDBRANCH   3  11
TORSDOF 3
ENDMDL
MODEL 9
REMARK VINA RESULT:      -7.2      3.003      6.267
REMARK SMILES C=Cc1cc(-c2ccc(C)c3n[nH]cc23)ccc1O
REMARK SMILES IDX 3 1 4 2 5 3 16 4 17 5 18 6 2 7 1 8 19 9 6 11 7 12 15 13 8 14
REMARK SMILES IDX 14 15 11 16 9 17 13 18 12 19 10 20
REMARK H PARENT 19 10 13 21
ROOT
ATOM      1  C   UNL     1      43.582 131.655  20.448  1.00  0.00     0.016 A 
ATOM      2  C   UNL     1      43.983 131.556  19.099  1.00  0.00     0.020 A 
ATOM      3  C   UNL     1      45.154 130.866  18.744  1.00  0.00    -0.017 A 
ATOM      4  C   UNL     1      45.912 130.243  19.746  1.00  0.00     0.012 A 
ATOM      5  C   UNL     1      45.516 130.318  21.080  1.00  0.00     0.047 A 
ATOM      6  C   UNL     1      44.356 131.019  21.439  1.00  0.00     0.122 A 
ENDROOT
BRANCH   1   7
ATOM      7  C   UNL     1      42.346 132.379  20.839  1.00  0.00     0.004 C 
ATOM      8  C   UNL     1      41.695 133.221  20.035  1.00  0.00     0.009 C 
ENDBRANCH   1   7
BRANCH   6   9
ATOM      9  O   UNL     1      43.977 131.089  22.780  1.00  0.00    -0.507 OA
ATOM     10  H   UNL     1      43.473 130.334  23.231  1.00  0.00     0.293 HD
ENDBRANCH   6   9
BRANCH   3  11
ATOM     11  C   UNL     1      45.570 130.766  17.326  1.00  0.00    -0.007 A 
ATOM     12  C   UNL     1      46.818 130.204  16.975  1.00  0.00     0.010 A 
ATOM     13  C   UNL     1      44.757 131.212  16.274  1.00  0.00     0.028 A 
ATOM     14  C   UNL     1      47.210 130.095  15.622  1.00  0.00     0.006 A 
ATOM     15  C   UNL     1      43.525 131.831  16.242  1.00  0.00     0.114 A 
ATOM     16  C   UNL     1      45.141 131.112  14.961  1.00  0.00     0.096 A 
ATOM     17  C   UNL     1      46.370 130.563  14.589  1.00  0.00    -0.023 A 
ATOM     18  N   UNL     1      43.217 132.061  14.947  1.00  0.00    -0.284 N 
ATOM     19  N   UNL     1      44.194 131.629  14.157  1.00  0.00    -0.175 NA
ATOM     20  C   UNL     1      46.761 130.433  13.147  1.00  0.00     0.047 C 
ATOM     21  H   UNL     1      42.346 132.520  14.601  1.00  0.00     0.189 HD
ENDBRANCH   3  11
TORSDOF 3
ENDMDL


