REMARK SMILES Cc1n[nH]c2cc([C@@]34C(=O)NC[C@@H]3NCC[C@@H]4C)ccc12
REMARK SMILES IDX 1 1 2 2 3 3 4 4 5 5 6 6 7 7 19 8 20 9 21 10 8 12 9 13 13 14
REMARK SMILES IDX 17 15 11 16 12 17 14 18 16 19 15 20 10 21 18 22
REMARK H PARENT 4 11 11 23 14 24
ROOT
ATOM      1  C   UNL     1       3.393   1.705  -3.866  1.00  0.00     0.069 C 
ATOM      2  C   UNL     1       3.127   0.715  -2.781  1.00  0.00     0.067 A 
ATOM      3  N   UNL     1       4.028  -0.194  -2.337  1.00  0.00    -0.180 NA
ATOM      4  N   UNL     1       3.472  -0.870  -1.337  1.00  0.00    -0.278 N 
ATOM      5  C   UNL     1       2.232  -0.394  -1.137  1.00  0.00     0.066 A 
ATOM      6  C   UNL     1       1.302  -0.791  -0.180  1.00  0.00     0.033 A 
ATOM      7  C   UNL     1       0.037  -0.135  -0.148  1.00  0.00    -0.028 A 
ATOM      8  C   UNL     1      -0.187   0.935  -1.073  1.00  0.00     0.006 A 
ATOM      9  C   UNL     1       0.782   1.307  -2.021  1.00  0.00     0.012 A 
ATOM     10  C   UNL     1       1.980   0.608  -2.022  1.00  0.00     0.023 A 
ATOM     11  H   UNL     1       3.944  -1.634  -0.804  1.00  0.00     0.190 HD
ENDROOT
BRANCH   7  12
ATOM     12  C   UNL     1      -1.069  -0.476   0.881  1.00  0.00     0.094 C 
ATOM     13  C   UNL     1      -1.345   0.761   1.672  1.00  0.00     0.232 C 
ATOM     14  C   UNL     1      -2.450  -0.716   0.155  1.00  0.00     0.093 C 
ATOM     15  C   UNL     1      -0.734  -1.684   1.843  1.00  0.00     0.009 C 
ATOM     16  N   UNL     1      -2.683   1.195   1.586  1.00  0.00    -0.354 N 
ATOM     17  C   UNL     1      -3.458   0.290   0.763  1.00  0.00     0.136 C 
ATOM     18  N   UNL     1      -2.953  -2.092   0.307  1.00  0.00    -0.311 NA
ATOM     19  C   UNL     1      -0.816  -3.042   1.090  1.00  0.00     0.020 C 
ATOM     20  C   UNL     1      -1.895  -3.056  -0.004  1.00  0.00     0.081 C 
ATOM     21  O   UNL     1      -0.481   1.365   2.363  1.00  0.00    -0.274 OA
ATOM     22  C   UNL     1      -1.631  -1.740   3.106  1.00  0.00     0.009 C 
ATOM     23  H   UNL     1      -3.078   2.008   2.109  1.00  0.00     0.163 HD
ATOM     24  H   UNL     1      -3.730  -2.234  -0.381  1.00  0.00     0.123 HD
ENDBRANCH   7  12
TORSDOF 1


