MODEL 1
REMARK VINA RESULT:      -9.9      0.000      0.000
REMARK SMILES O=C1Cc2ccc(-c3c[n-]c4nccc-4c3)cc2[N-]1
REMARK SMILES IDX 1 1 2 2 3 3 4 4 5 5 6 6 7 7 17 8 18 9 19 10 8 11 9 12 16 13
REMARK SMILES IDX 10 14 15 15 11 16 14 17 12 18 13 19
REMARK H PARENT
ROOT
ATOM      1  O   UNL     1      48.722 129.173  13.135  1.00  0.00    -0.320 OA
ATOM      2  C   UNL     1      47.813 129.719  13.814  1.00  0.00     0.059 C 
ATOM      3  C   UNL     1      46.771 130.623  13.229  1.00  0.00     0.089 C 
ATOM      4  C   UNL     1      46.005 130.945  14.464  1.00  0.00    -0.057 A 
ATOM      5  C   UNL     1      44.882 131.758  14.594  1.00  0.00     0.003 A 
ATOM      6  C   UNL     1      44.313 131.921  15.869  1.00  0.00     0.009 A 
ATOM      7  C   UNL     1      44.871 131.270  16.998  1.00  0.00    -0.020 A 
ATOM      8  C   UNL     1      46.011 130.452  16.831  1.00  0.00    -0.007 A 
ATOM      9  C   UNL     1      46.554 130.309  15.554  1.00  0.00    -0.130 A 
ATOM     10  N   UNL     1      47.686 129.523  15.221  1.00  0.00    -0.626 NA
ENDROOT
BRANCH   7  11
ATOM     11  C   UNL     1      44.264 131.445  18.342  1.00  0.00    -0.022 A 
ATOM     12  C   UNL     1      42.916 131.895  18.470  1.00  0.00    -0.014 A 
ATOM     13  C   UNL     1      45.021 131.165  19.506  1.00  0.00     0.016 A 
ATOM     14  N   UNL     1      42.332 132.065  19.695  1.00  0.00    -0.442 NA
ATOM     15  C   UNL     1      44.401 131.348  20.730  1.00  0.00    -0.026 A 
ATOM     16  C   UNL     1      43.055 131.800  20.806  1.00  0.00    -0.052 A 
ATOM     17  C   UNL     1      44.818 131.189  22.027  1.00  0.00     0.003 A 
ATOM     18  N   UNL     1      42.641 131.918  22.077  1.00  0.00    -0.442 NA
ATOM     19  C   UNL     1      43.720 131.544  22.815  1.00  0.00    -0.022 A 
ENDBRANCH   7  11
TORSDOF 1
ENDMDL
MODEL 2
REMARK VINA RESULT:      -9.6      1.070      1.549
REMARK SMILES O=C1Cc2ccc(-c3c[n-]c4nccc-4c3)cc2[N-]1
REMARK SMILES IDX 1 1 2 2 3 3 4 4 5 5 6 6 7 7 17 8 18 9 19 10 8 11 9 12 16 13
REMARK SMILES IDX 10 14 15 15 11 16 14 17 12 18 13 19
REMARK H PARENT
ROOT
ATOM      1  O   UNL     1      48.528 129.440  12.670  1.00  0.00    -0.320 OA
ATOM      2  C   UNL     1      47.748 129.905  13.542  1.00  0.00     0.059 C 
ATOM      3  C   UNL     1      46.653 130.883  13.239  1.00  0.00     0.089 C 
ATOM      4  C   UNL     1      46.094 131.056  14.608  1.00  0.00    -0.057 A 
ATOM      5  C   UNL     1      45.026 131.856  15.008  1.00  0.00     0.003 A 
ATOM      6  C   UNL     1      44.663 131.864  16.365  1.00  0.00     0.009 A 
ATOM      7  C   UNL     1      45.370 131.075  17.307  1.00  0.00    -0.020 A 
ATOM      8  C   UNL     1      46.449 130.274  16.868  1.00  0.00    -0.007 A 
ATOM      9  C   UNL     1      46.786 130.286  15.515  1.00  0.00    -0.130 A 
ATOM     10  N   UNL     1      47.832 129.539  14.917  1.00  0.00    -0.626 NA
ENDROOT
BRANCH   7  11
ATOM     11  C   UNL     1      44.981 131.087  18.740  1.00  0.00    -0.022 A 
ATOM     12  C   UNL     1      45.808 130.455  19.717  1.00  0.00    -0.014 A 
ATOM     13  C   UNL     1      43.785 131.726  19.147  1.00  0.00     0.016 A 
ATOM     14  N   UNL     1      45.474 130.451  21.043  1.00  0.00    -0.442 NA
ATOM     15  C   UNL     1      43.474 131.704  20.496  1.00  0.00    -0.026 A 
ATOM     16  C   UNL     1      44.331 131.060  21.430  1.00  0.00    -0.052 A 
ATOM     17  C   UNL     1      42.425 132.198  21.226  1.00  0.00     0.003 A 
ATOM     18  N   UNL     1      43.854 131.144  22.682  1.00  0.00    -0.442 NA
ATOM     19  C   UNL     1      42.693 131.839  22.550  1.00  0.00    -0.022 A 
ENDBRANCH   7  11
TORSDOF 1
ENDMDL
MODEL 3
REMARK VINA RESULT:      -9.3      3.181      7.254
REMARK SMILES O=C1Cc2ccc(-c3c[n-]c4nccc-4c3)cc2[N-]1
REMARK SMILES IDX 1 1 2 2 3 3 4 4 5 5 6 6 7 7 17 8 18 9 19 10 8 11 9 12 16 13
REMARK SMILES IDX 10 14 15 15 11 16 14 17 12 18 13 19
REMARK H PARENT
ROOT
ATOM      1  O   UNL     1      41.856 132.220  23.335  1.00  0.00    -0.320 OA
ATOM      2  C   UNL     1      42.689 131.867  22.460  1.00  0.00     0.059 C 
ATOM      3  C   UNL     1      43.918 131.063  22.761  1.00  0.00     0.089 C 
ATOM      4  C   UNL     1      44.485 130.960  21.388  1.00  0.00    -0.057 A 
ATOM      5  C   UNL     1      45.651 130.314  20.984  1.00  0.00     0.003 A 
ATOM      6  C   UNL     1      45.996 130.341  19.622  1.00  0.00     0.009 A 
ATOM      7  C   UNL     1      45.175 131.010  18.680  1.00  0.00    -0.020 A 
ATOM      8  C   UNL     1      43.998 131.655  19.124  1.00  0.00    -0.007 A 
ATOM      9  C   UNL     1      43.681 131.612  20.481  1.00  0.00    -0.130 A 
ATOM     10  N   UNL     1      42.539 132.201  21.081  1.00  0.00    -0.626 NA
ENDROOT
BRANCH   7  11
ATOM     11  C   UNL     1      45.546 131.033  17.243  1.00  0.00    -0.022 A 
ATOM     12  C   UNL     1      44.971 132.002  16.366  1.00  0.00    -0.014 A 
ATOM     13  C   UNL     1      46.472 130.092  16.732  1.00  0.00     0.016 A 
ATOM     14  N   UNL     1      45.294 132.046  15.038  1.00  0.00    -0.442 NA
ATOM     15  C   UNL     1      46.777 130.162  15.383  1.00  0.00    -0.026 A 
ATOM     16  C   UNL     1      46.177 131.146  14.550  1.00  0.00    -0.052 A 
ATOM     17  C   UNL     1      47.600 129.429  14.567  1.00  0.00     0.003 A 
ATOM     18  N   UNL     1      46.598 131.045  13.280  1.00  0.00    -0.442 NA
ATOM     19  C   UNL     1      47.464 129.998  13.298  1.00  0.00    -0.022 A 
ENDBRANCH   7  11
TORSDOF 1
ENDMDL
MODEL 4
REMARK VINA RESULT:      -9.3      3.038      7.035
REMARK SMILES O=C1Cc2ccc(-c3c[n-]c4nccc-4c3)cc2[N-]1
REMARK SMILES IDX 1 1 2 2 3 3 4 4 5 5 6 6 7 7 17 8 18 9 19 10 8 11 9 12 16 13
REMARK SMILES IDX 10 14 15 15 11 16 14 17 12 18 13 19
REMARK H PARENT
ROOT
ATOM      1  O   UNL     1      43.498 131.904  23.456  1.00  0.00    -0.320 OA
ATOM      2  C   UNL     1      43.555 131.855  22.200  1.00  0.00     0.059 C 
ATOM      3  C   UNL     1      42.366 132.042  21.307  1.00  0.00     0.089 C 
ATOM      4  C   UNL     1      43.027 131.881  19.982  1.00  0.00    -0.057 A 
ATOM      5  C   UNL     1      42.449 131.951  18.717  1.00  0.00     0.003 A 
ATOM      6  C   UNL     1      43.271 131.770  17.592  1.00  0.00     0.009 A 
ATOM      7  C   UNL     1      44.659 131.523  17.742  1.00  0.00    -0.020 A 
ATOM      8  C   UNL     1      45.213 131.459  19.041  1.00  0.00    -0.007 A 
ATOM      9  C   UNL     1      44.373 131.642  20.139  1.00  0.00    -0.130 A 
ATOM     10  N   UNL     1      44.774 131.614  21.499  1.00  0.00    -0.626 NA
ENDROOT
BRANCH   7  11
ATOM     11  C   UNL     1      45.522 131.335  16.548  1.00  0.00    -0.022 A 
ATOM     12  C   UNL     1      45.820 132.439  15.694  1.00  0.00    -0.014 A 
ATOM     13  C   UNL     1      46.056 130.057  16.251  1.00  0.00     0.016 A 
ATOM     14  N   UNL     1      46.611 132.294  14.588  1.00  0.00    -0.442 NA
ATOM     15  C   UNL     1      46.852 129.944  15.124  1.00  0.00    -0.026 A 
ATOM     16  C   UNL     1      47.119 131.074  14.303  1.00  0.00    -0.052 A 
ATOM     17  C   UNL     1      47.511 128.892  14.542  1.00  0.00     0.003 A 
ATOM     18  N   UNL     1      47.904 130.757  13.262  1.00  0.00    -0.442 NA
ATOM     19  C   UNL     1      48.139 129.427  13.414  1.00  0.00    -0.022 A 
ENDBRANCH   7  11
TORSDOF 1
ENDMDL
MODEL 5
REMARK VINA RESULT:      -9.0      3.084      7.110
REMARK SMILES O=C1Cc2ccc(-c3c[n-]c4nccc-4c3)cc2[N-]1
REMARK SMILES IDX 1 1 2 2 3 3 4 4 5 5 6 6 7 7 17 8 18 9 19 10 8 11 9 12 16 13
REMARK SMILES IDX 10 14 15 15 11 16 14 17 12 18 13 19
REMARK H PARENT
ROOT
ATOM      1  O   UNL     1      43.640 131.882  23.838  1.00  0.00    -0.320 OA
ATOM      2  C   UNL     1      43.642 131.802  22.582  1.00  0.00     0.059 C 
ATOM      3  C   UNL     1      42.494 132.235  21.721  1.00  0.00     0.089 C 
ATOM      4  C   UNL     1      43.057 131.911  20.381  1.00  0.00    -0.057 A 
ATOM      5  C   UNL     1      42.466 132.088  19.133  1.00  0.00     0.003 A 
ATOM      6  C   UNL     1      43.189 131.712  17.988  1.00  0.00     0.009 A 
ATOM      7  C   UNL     1      44.492 131.165  18.102  1.00  0.00    -0.020 A 
ATOM      8  C   UNL     1      45.062 130.999  19.384  1.00  0.00    -0.007 A 
ATOM      9  C   UNL     1      44.322 131.381  20.502  1.00  0.00    -0.130 A 
ATOM     10  N   UNL     1      44.752 131.285  21.850  1.00  0.00    -0.626 NA
ENDROOT
BRANCH   7  11
ATOM     11  C   UNL     1      45.250 130.771  16.887  1.00  0.00    -0.022 A 
ATOM     12  C   UNL     1      45.403 129.393  16.549  1.00  0.00    -0.014 A 
ATOM     13  C   UNL     1      45.827 131.762  16.056  1.00  0.00     0.016 A 
ATOM     14  N   UNL     1      46.097 129.002  15.437  1.00  0.00    -0.442 NA
ATOM     15  C   UNL     1      46.523 131.334  14.939  1.00  0.00    -0.026 A 
ATOM     16  C   UNL     1      46.649 129.948  14.645  1.00  0.00    -0.052 A 
ATOM     17  C   UNL     1      47.200 131.992  13.945  1.00  0.00     0.003 A 
ATOM     18  N   UNL     1      47.361 129.740  13.528  1.00  0.00    -0.442 NA
ATOM     19  C   UNL     1      47.693 130.989  13.106  1.00  0.00    -0.022 A 
ENDBRANCH   7  11
TORSDOF 1
ENDMDL
MODEL 6
REMARK VINA RESULT:      -9.0      3.064      6.946
REMARK SMILES O=C1Cc2ccc(-c3c[n-]c4nccc-4c3)cc2[N-]1
REMARK SMILES IDX 1 1 2 2 3 3 4 4 5 5 6 6 7 7 17 8 18 9 19 10 8 11 9 12 16 13
REMARK SMILES IDX 10 14 15 15 11 16 14 17 12 18 13 19
REMARK H PARENT
ROOT
ATOM      1  O   UNL     1      44.324 130.440  24.089  1.00  0.00    -0.320 OA
ATOM      2  C   UNL     1      44.160 130.713  22.871  1.00  0.00     0.059 C 
ATOM      3  C   UNL     1      42.966 131.448  22.339  1.00  0.00     0.089 C 
ATOM      4  C   UNL     1      43.319 131.472  20.893  1.00  0.00    -0.057 A 
ATOM      5  C   UNL     1      42.598 132.031  19.840  1.00  0.00     0.003 A 
ATOM      6  C   UNL     1      43.127 131.941  18.542  1.00  0.00     0.009 A 
ATOM      7  C   UNL     1      44.367 131.294  18.308  1.00  0.00    -0.020 A 
ATOM      8  C   UNL     1      45.072 130.738  19.399  1.00  0.00    -0.007 A 
ATOM      9  C   UNL     1      44.524 130.843  20.677  1.00  0.00    -0.130 A 
ATOM     10  N   UNL     1      45.107 130.345  21.870  1.00  0.00    -0.626 NA
ENDROOT
BRANCH   7  11
ATOM     11  C   UNL     1      44.920 131.203  16.933  1.00  0.00    -0.022 A 
ATOM     12  C   UNL     1      44.261 131.854  15.847  1.00  0.00    -0.014 A 
ATOM     13  C   UNL     1      46.106 130.469  16.691  1.00  0.00     0.016 A 
ATOM     14  N   UNL     1      44.747 131.787  14.571  1.00  0.00    -0.442 NA
ATOM     15  C   UNL     1      46.572 130.419  15.388  1.00  0.00    -0.026 A 
ATOM     16  C   UNL     1      45.879 131.084  14.340  1.00  0.00    -0.052 A 
ATOM     17  C   UNL     1      47.652 129.813  14.800  1.00  0.00     0.003 A 
ATOM     18  N   UNL     1      46.486 130.913  13.155  1.00  0.00    -0.442 NA
ATOM     19  C   UNL     1      47.565 130.138  13.443  1.00  0.00    -0.022 A 
ENDBRANCH   7  11
TORSDOF 1
ENDMDL
MODEL 7
REMARK VINA RESULT:      -8.4      1.386      1.986
REMARK SMILES O=C1Cc2ccc(-c3c[n-]c4nccc-4c3)cc2[N-]1
REMARK SMILES IDX 1 1 2 2 3 3 4 4 5 5 6 6 7 7 17 8 18 9 19 10 8 11 9 12 16 13
REMARK SMILES IDX 10 14 15 15 11 16 14 17 12 18 13 19
REMARK H PARENT
ROOT
ATOM      1  O   UNL     1      47.488 130.192  13.220  1.00  0.00    -0.320 OA
ATOM      2  C   UNL     1      46.729 130.487  14.181  1.00  0.00     0.059 C 
ATOM      3  C   UNL     1      45.397 131.153  14.012  1.00  0.00     0.089 C 
ATOM      4  C   UNL     1      44.985 131.240  15.440  1.00  0.00    -0.057 A 
ATOM      5  C   UNL     1      43.809 131.770  15.966  1.00  0.00     0.003 A 
ATOM      6  C   UNL     1      43.624 131.745  17.358  1.00  0.00     0.009 A 
ATOM      7  C   UNL     1      44.614 131.192  18.209  1.00  0.00    -0.020 A 
ATOM      8  C   UNL     1      45.796 130.664  17.642  1.00  0.00    -0.007 A 
ATOM      9  C   UNL     1      45.952 130.702  16.257  1.00  0.00    -0.130 A 
ATOM     10  N   UNL     1      47.070 130.209  15.538  1.00  0.00    -0.626 NA
ENDROOT
BRANCH   7  11
ATOM     11  C   UNL     1      44.412 131.168  19.680  1.00  0.00    -0.022 A 
ATOM     12  C   UNL     1      45.387 130.567  20.531  1.00  0.00    -0.014 A 
ATOM     13  C   UNL     1      43.249 131.742  20.248  1.00  0.00     0.016 A 
ATOM     14  N   UNL     1      45.227 130.529  21.889  1.00  0.00    -0.442 NA
ATOM     15  C   UNL     1      43.116 131.688  21.625  1.00  0.00    -0.026 A 
ATOM     16  C   UNL     1      44.115 131.076  22.430  1.00  0.00    -0.052 A 
ATOM     17  C   UNL     1      42.147 132.121  22.493  1.00  0.00     0.003 A 
ATOM     18  N   UNL     1      43.800 131.121  23.734  1.00  0.00    -0.442 NA
ATOM     19  C   UNL     1      42.599 131.759  23.764  1.00  0.00    -0.022 A 
ENDBRANCH   7  11
TORSDOF 1
ENDMDL
MODEL 8
REMARK VINA RESULT:      -8.4      3.087      7.274
REMARK SMILES O=C1Cc2ccc(-c3c[n-]c4nccc-4c3)cc2[N-]1
REMARK SMILES IDX 1 1 2 2 3 3 4 4 5 5 6 6 7 7 17 8 18 9 19 10 8 11 9 12 16 13
REMARK SMILES IDX 10 14 15 15 11 16 14 17 12 18 13 19
REMARK H PARENT
ROOT
ATOM      1  O   UNL     1      40.680 133.455  21.190  1.00  0.00    -0.320 OA
ATOM      2  C   UNL     1      41.683 132.894  20.677  1.00  0.00     0.059 C 
ATOM      3  C   UNL     1      42.793 132.283  21.479  1.00  0.00     0.089 C 
ATOM      4  C   UNL     1      43.656 131.794  20.368  1.00  0.00    -0.057 A 
ATOM      5  C   UNL     1      44.869 131.115  20.455  1.00  0.00     0.003 A 
ATOM      6  C   UNL     1      45.517 130.742  19.266  1.00  0.00     0.009 A 
ATOM      7  C   UNL     1      44.947 131.049  18.004  1.00  0.00    -0.020 A 
ATOM      8  C   UNL     1      43.715 131.739  17.953  1.00  0.00    -0.007 A 
ATOM      9  C   UNL     1      43.095 132.097  19.149  1.00  0.00    -0.130 A 
ATOM     10  N   UNL     1      41.859 132.783  19.266  1.00  0.00    -0.626 NA
ENDROOT
BRANCH   7  11
ATOM     11  C   UNL     1      45.637 130.650  16.751  1.00  0.00    -0.022 A 
ATOM     12  C   UNL     1      45.787 129.269  16.421  1.00  0.00    -0.014 A 
ATOM     13  C   UNL     1      46.149 131.637  15.876  1.00  0.00     0.016 A 
ATOM     14  N   UNL     1      46.418 128.873  15.274  1.00  0.00    -0.442 NA
ATOM     15  C   UNL     1      46.782 131.204  14.724  1.00  0.00    -0.026 A 
ATOM     16  C   UNL     1      46.909 129.817  14.439  1.00  0.00    -0.052 A 
ATOM     17  C   UNL     1      47.389 131.858  13.682  1.00  0.00     0.003 A 
ATOM     18  N   UNL     1      47.555 129.603  13.283  1.00  0.00    -0.442 NA
ATOM     19  C   UNL     1      47.844 130.851  12.827  1.00  0.00    -0.022 A 
ENDBRANCH   7  11
TORSDOF 1
ENDMDL
MODEL 9
REMARK VINA RESULT:      -8.3      3.099      7.232
REMARK SMILES O=C1Cc2ccc(-c3c[n-]c4nccc-4c3)cc2[N-]1
REMARK SMILES IDX 1 1 2 2 3 3 4 4 5 5 6 6 7 7 17 8 18 9 19 10 8 11 9 12 16 13
REMARK SMILES IDX 10 14 15 15 11 16 14 17 12 18 13 19
REMARK H PARENT
ROOT
ATOM      1  O   UNL     1      40.784 133.138  21.539  1.00  0.00    -0.320 OA
ATOM      2  C   UNL     1      41.785 132.669  20.936  1.00  0.00     0.059 C 
ATOM      3  C   UNL     1      42.862 131.874  21.610  1.00  0.00     0.089 C 
ATOM      4  C   UNL     1      43.738 131.606  20.436  1.00  0.00    -0.057 A 
ATOM      5  C   UNL     1      44.933 130.891  20.399  1.00  0.00     0.003 A 
ATOM      6  C   UNL     1      45.598 130.758  19.168  1.00  0.00     0.009 A 
ATOM      7  C   UNL     1      45.065 131.339  17.991  1.00  0.00    -0.020 A 
ATOM      8  C   UNL     1      43.850 132.057  18.064  1.00  0.00    -0.007 A 
ATOM      9  C   UNL     1      43.212 132.173  19.298  1.00  0.00    -0.130 A 
ATOM     10  N   UNL     1      41.990 132.853  19.536  1.00  0.00    -0.626 NA
ENDROOT
BRANCH   7  11
ATOM     11  C   UNL     1      45.772 131.193  16.693  1.00  0.00    -0.022 A 
ATOM     12  C   UNL     1      45.877 132.303  15.802  1.00  0.00    -0.014 A 
ATOM     13  C   UNL     1      46.348 129.951  16.333  1.00  0.00     0.016 A 
ATOM     14  N   UNL     1      46.523 132.197  14.600  1.00  0.00    -0.442 NA
ATOM     15  C   UNL     1      46.994 129.876  15.111  1.00  0.00    -0.026 A 
ATOM     16  C   UNL     1      47.071 131.010  14.256  1.00  0.00    -0.052 A 
ATOM     17  C   UNL     1      47.641 128.863  14.450  1.00  0.00     0.003 A 
ATOM     18  N   UNL     1      47.731 130.733  13.121  1.00  0.00    -0.442 NA
ATOM     19  C   UNL     1      48.075 129.424  13.246  1.00  0.00    -0.022 A 
ENDBRANCH   7  11
TORSDOF 1
ENDMDL


