REMARK SMILES CC(=O)c1ccc(-c2[nH+]ccc(C)c2F)cc1F
REMARK SMILES IDX 4 1 5 2 6 3 7 4 16 5 17 6 18 7 2 8 1 9 3 10 8 11 9 12 14 13
REMARK SMILES IDX 10 14 12 15 11 16 15 18 13 19
REMARK H PARENT 9 17
ROOT
ATOM      1  C   UNL     1       1.142   0.770  -2.320  1.00  0.00     0.053 A 
ATOM      2  C   UNL     1       0.839   1.814  -1.427  1.00  0.00     0.016 A 
ATOM      3  C   UNL     1       0.080   1.578  -0.278  1.00  0.00     0.016 A 
ATOM      4  C   UNL     1      -0.389   0.288   0.011  1.00  0.00     0.052 A 
ATOM      5  C   UNL     1      -0.092  -0.759  -0.874  1.00  0.00     0.055 A 
ATOM      6  C   UNL     1       0.669  -0.528  -2.025  1.00  0.00     0.134 A 
ATOM      7  F   UNL     1       0.960  -1.588  -2.820  1.00  0.00    -0.206 F 
ENDROOT
BRANCH   1   8
ATOM      8  C   UNL     1       1.950   1.067  -3.535  1.00  0.00     0.162 C 
ATOM      9  C   UNL     1       1.970   0.163  -4.731  1.00  0.00     0.093 C 
ATOM     10  O   UNL     1       2.652   2.114  -3.571  1.00  0.00    -0.294 OA
ENDBRANCH   1   8
BRANCH   4  11
ATOM     11  C   UNL     1      -1.205   0.030   1.222  1.00  0.00     0.247 A 
ATOM     12  N   UNL     1      -2.342  -0.721   1.127  1.00  0.00    -0.209 N 
ATOM     13  C   UNL     1      -0.815   0.536   2.478  1.00  0.00     0.198 A 
ATOM     14  C   UNL     1      -3.117  -0.989   2.212  1.00  0.00     0.307 A 
ATOM     15  C   UNL     1      -1.610   0.282   3.606  1.00  0.00    -0.002 A 
ATOM     16  C   UNL     1      -2.765  -0.496   3.468  1.00  0.00     0.077 A 
ATOM     17  H   UNL     1      -2.647  -1.094   0.199  1.00  0.00     0.453 HD
ATOM     18  F   UNL     1       0.344   1.234   2.612  1.00  0.00    -0.199 F 
ATOM     19  C   UNL     1      -1.193   0.787   4.957  1.00  0.00     0.048 C 
ENDBRANCH   4  11
TORSDOF 2


