REMARK SMILES c1cc2c(c([NH2+]c3ccc4[nH]ccc4c3)c1)CCC2
REMARK SMILES IDX 7 1 8 2 9 3 10 4 11 5 12 6 13 7 14 8 15 9 6 11 5 14 1 15
REMARK SMILES IDX 2 16 16 17 3 18 4 19 19 20 17 21 18 22
REMARK H PARENT 11 10 6 12 6 13
ROOT
ATOM      1  C   UNL     1      -1.165  -0.366  -0.867  1.00  0.00     0.135 A 
ATOM      2  C   UNL     1      -0.567  -1.070  -1.948  1.00  0.00     0.070 A 
ATOM      3  C   UNL     1      -0.411  -0.462  -3.206  1.00  0.00     0.033 A 
ATOM      4  C   UNL     1      -0.858   0.848  -3.356  1.00  0.00     0.046 A 
ATOM      5  N   UNL     1      -0.804   1.609  -4.461  1.00  0.00    -0.361 N 
ATOM      6  C   UNL     1      -1.353   2.797  -4.120  1.00  0.00     0.083 A 
ATOM      7  C   UNL     1      -1.759   2.789  -2.789  1.00  0.00     0.028 A 
ATOM      8  C   UNL     1      -1.433   1.535  -2.321  1.00  0.00     0.005 A 
ATOM      9  C   UNL     1      -1.604   0.965  -1.062  1.00  0.00     0.078 A 
ATOM     10  H   UNL     1      -0.417   1.342  -5.394  1.00  0.00     0.166 HD
ENDROOT
BRANCH   1  11
ATOM     11  N   UNL     1      -1.295  -0.992   0.427  1.00  0.00    -0.281 N 
ATOM     12  H   UNL     1      -2.227  -0.749   0.835  1.00  0.00     0.358 HD
ATOM     13  H   UNL     1      -1.272  -2.034   0.332  1.00  0.00     0.358 HD
BRANCH  11  14
ATOM     14  C   UNL     1      -0.213  -0.577   1.289  1.00  0.00     0.138 A 
ATOM     15  C   UNL     1       2.161  -0.634   1.881  1.00  0.00     0.006 A 
ATOM     16  C   UNL     1       1.924   0.227   2.959  1.00  0.00     0.004 A 
ATOM     17  C   UNL     1       1.101  -1.037   1.053  1.00  0.00     0.068 A 
ATOM     18  C   UNL     1       0.623   0.671   3.194  1.00  0.00    -0.039 A 
ATOM     19  C   UNL     1      -0.422   0.285   2.387  1.00  0.00     0.017 A 
ATOM     20  C   UNL     1       0.191   1.556   4.299  1.00  0.00     0.036 C 
ATOM     21  C   UNL     1      -1.710   0.854   2.866  1.00  0.00     0.042 C 
ATOM     22  C   UNL     1      -1.324   1.712   4.084  1.00  0.00     0.010 C 
ENDBRANCH  11  14
ENDBRANCH   1  11
TORSDOF 2


