MODEL 1
REMARK VINA RESULT:      -9.2      0.000      0.000
REMARK SMILES C=Cc1cccc(-c2ccc3c(c2)[C@H](N=[N+]=[N-])CC3)c1
REMARK SMILES IDX 8 1 9 2 10 3 11 4 12 5 13 6 14 7 18 8 19 9 7 10 3 11 4 12
REMARK SMILES IDX 20 13 5 14 6 15 2 16 1 17 15 18 16 19 17 20
REMARK H PARENT
ROOT
ATOM      1  C   UNL     1      44.100 131.425  17.869  1.00  0.00    -0.018 A 
ATOM      2  C   UNL     1      42.812 131.979  18.066  1.00  0.00     0.009 A 
ATOM      3  C   UNL     1      42.315 132.186  19.361  1.00  0.00     0.004 A 
ATOM      4  C   UNL     1      43.112 131.841  20.453  1.00  0.00    -0.044 A 
ATOM      5  C   UNL     1      44.358 131.299  20.275  1.00  0.00    -0.035 A 
ATOM      6  C   UNL     1      44.878 131.082  18.997  1.00  0.00     0.013 A 
ATOM      7  C   UNL     1      45.015 130.986  21.571  1.00  0.00     0.104 C 
ATOM      8  C   UNL     1      44.037 131.548  22.629  1.00  0.00     0.019 C 
ATOM      9  C   UNL     1      42.754 131.972  21.885  1.00  0.00     0.036 C 
ENDROOT
BRANCH   1  10
ATOM     10  C   UNL     1      44.626 131.204  16.499  1.00  0.00    -0.018 A 
ATOM     11  C   UNL     1      46.350 130.316  15.001  1.00  0.00    -0.026 A 
ATOM     12  C   UNL     1      45.622 130.802  13.903  1.00  0.00     0.008 A 
ATOM     13  C   UNL     1      45.848 130.534  16.301  1.00  0.00     0.016 A 
ATOM     14  C   UNL     1      44.411 131.466  14.092  1.00  0.00     0.001 A 
ATOM     15  C   UNL     1      43.912 131.665  15.379  1.00  0.00     0.009 A 
BRANCH  11  16
ATOM     16  C   UNL     1      47.637 129.623  14.748  1.00  0.00     0.000 C 
ATOM     17  C   UNL     1      48.271 129.629  13.575  1.00  0.00     0.009 C 
ENDBRANCH  11  16
ENDBRANCH   1  10
BRANCH   7  18
ATOM     18  N   UNL     1      45.210 129.543  21.725  1.00  0.00    -0.086 NA
BRANCH  18  19
ATOM     19  N   UNL     1      44.651 128.906  22.620  1.00  0.00     0.002 N 
ATOM     20  N   UNL     1      44.095 128.269  23.513  1.00  0.00    -0.003 NA
ENDBRANCH  18  19
ENDBRANCH   7  18
TORSDOF 4
ENDMDL
MODEL 2
REMARK VINA RESULT:      -7.3      1.267      2.410
REMARK SMILES C=Cc1cccc(-c2ccc3c(c2)[C@H](N=[N+]=[N-])CC3)c1
REMARK SMILES IDX 8 1 9 2 10 3 11 4 12 5 13 6 14 7 18 8 19 9 7 10 3 11 4 12
REMARK SMILES IDX 20 13 5 14 6 15 2 16 1 17 15 18 16 19 17 20
REMARK H PARENT
ROOT
ATOM      1  C   UNL     1      44.082 131.404  19.351  1.00  0.00    -0.018 A 
ATOM      2  C   UNL     1      42.909 132.195  19.407  1.00  0.00     0.009 A 
ATOM      3  C   UNL     1      42.296 132.475  20.637  1.00  0.00     0.004 A 
ATOM      4  C   UNL     1      42.863 131.965  21.805  1.00  0.00    -0.044 A 
ATOM      5  C   UNL     1      43.995 131.194  21.763  1.00  0.00    -0.035 A 
ATOM      6  C   UNL     1      44.626 130.899  20.552  1.00  0.00     0.013 A 
ATOM      7  C   UNL     1      44.405 130.739  23.117  1.00  0.00     0.104 C 
ATOM      8  C   UNL     1      43.423 131.465  24.067  1.00  0.00     0.019 C 
ATOM      9  C   UNL     1      42.353 132.141  23.186  1.00  0.00     0.036 C 
ENDROOT
BRANCH   1  10
ATOM     10  C   UNL     1      44.730 131.105  18.049  1.00  0.00    -0.018 A 
ATOM     11  C   UNL     1      44.798 131.323  15.610  1.00  0.00    -0.026 A 
ATOM     12  C   UNL     1      45.953 130.526  15.587  1.00  0.00     0.008 A 
ATOM     13  C   UNL     1      44.184 131.598  16.849  1.00  0.00     0.016 A 
ATOM     14  C   UNL     1      46.499 130.034  16.773  1.00  0.00     0.001 A 
ATOM     15  C   UNL     1      45.895 130.322  17.997  1.00  0.00     0.009 A 
BRANCH  11  16
ATOM     16  C   UNL     1      44.252 131.815  14.321  1.00  0.00     0.000 C 
ATOM     17  C   UNL     1      43.063 131.466  13.830  1.00  0.00     0.009 C 
ENDBRANCH  11  16
ENDBRANCH   1  10
BRANCH   7  18
ATOM     18  N   UNL     1      44.298 129.284  23.237  1.00  0.00    -0.086 NA
BRANCH  18  19
ATOM     19  N   UNL     1      43.233 128.733  23.519  1.00  0.00     0.002 N 
ATOM     20  N   UNL     1      42.169 128.184  23.802  1.00  0.00    -0.003 NA
ENDBRANCH  18  19
ENDBRANCH   7  18
TORSDOF 4
ENDMDL
MODEL 3
REMARK VINA RESULT:      -7.2      1.095      1.436
REMARK SMILES C=Cc1cccc(-c2ccc3c(c2)[C@H](N=[N+]=[N-])CC3)c1
REMARK SMILES IDX 8 1 9 2 10 3 11 4 12 5 13 6 14 7 18 8 19 9 7 10 3 11 4 12
REMARK SMILES IDX 20 13 5 14 6 15 2 16 1 17 15 18 16 19 17 20
REMARK H PARENT
ROOT
ATOM      1  C   UNL     1      44.482 131.005  17.763  1.00  0.00    -0.018 A 
ATOM      2  C   UNL     1      43.234 131.651  17.596  1.00  0.00     0.009 A 
ATOM      3  C   UNL     1      42.528 132.140  18.705  1.00  0.00     0.004 A 
ATOM      4  C   UNL     1      43.079 131.983  19.977  1.00  0.00    -0.044 A 
ATOM      5  C   UNL     1      44.285 131.355  20.153  1.00  0.00    -0.035 A 
ATOM      6  C   UNL     1      45.008 130.859  19.066  1.00  0.00     0.013 A 
ATOM      7  C   UNL     1      44.664 131.277  21.587  1.00  0.00     0.104 C 
ATOM      8  C   UNL     1      43.561 132.089  22.308  1.00  0.00     0.019 C 
ATOM      9  C   UNL     1      42.479 132.417  21.260  1.00  0.00     0.036 C 
ENDROOT
BRANCH   1  10
ATOM     10  C   UNL     1      45.228 130.487  16.589  1.00  0.00    -0.018 A 
ATOM     11  C   UNL     1      46.690 130.871  14.661  1.00  0.00    -0.026 A 
ATOM     12  C   UNL     1      46.626 129.501  14.361  1.00  0.00     0.008 A 
ATOM     13  C   UNL     1      45.974 131.358  15.774  1.00  0.00     0.016 A 
ATOM     14  C   UNL     1      45.888 128.632  15.164  1.00  0.00     0.001 A 
ATOM     15  C   UNL     1      45.195 129.118  16.273  1.00  0.00     0.009 A 
BRANCH  11  16
ATOM     16  C   UNL     1      47.481 131.755  13.771  1.00  0.00     0.000 C 
ATOM     17  C   UNL     1      47.986 131.376  12.596  1.00  0.00     0.009 C 
ENDBRANCH  11  16
ENDBRANCH   1  10
BRANCH   7  18
ATOM     18  N   UNL     1      44.700 129.888  22.046  1.00  0.00    -0.086 NA
BRANCH  18  19
ATOM     19  N   UNL     1      43.998 129.494  22.980  1.00  0.00     0.002 N 
ATOM     20  N   UNL     1      43.296 129.103  23.911  1.00  0.00    -0.003 NA
ENDBRANCH  18  19
ENDBRANCH   7  18
TORSDOF 4
ENDMDL
MODEL 4
REMARK VINA RESULT:      -7.2      1.012      1.219
REMARK SMILES C=Cc1cccc(-c2ccc3c(c2)[C@H](N=[N+]=[N-])CC3)c1
REMARK SMILES IDX 8 1 9 2 10 3 11 4 12 5 13 6 14 7 18 8 19 9 7 10 3 11 4 12
REMARK SMILES IDX 20 13 5 14 6 15 2 16 1 17 15 18 16 19 17 20
REMARK H PARENT
ROOT
ATOM      1  C   UNL     1      43.982 131.432  18.842  1.00  0.00    -0.018 A 
ATOM      2  C   UNL     1      42.933 132.322  19.174  1.00  0.00     0.009 A 
ATOM      3  C   UNL     1      42.522 132.477  20.507  1.00  0.00     0.004 A 
ATOM      4  C   UNL     1      43.168 131.743  21.500  1.00  0.00    -0.044 A 
ATOM      5  C   UNL     1      44.183 130.874  21.191  1.00  0.00    -0.035 A 
ATOM      6  C   UNL     1      44.611 130.701  19.874  1.00  0.00     0.013 A 
ATOM      7  C   UNL     1      44.706 130.182  22.398  1.00  0.00     0.104 C 
ATOM      8  C   UNL     1      43.950 130.855  23.569  1.00  0.00     0.019 C 
ATOM      9  C   UNL     1      42.867 131.761  22.952  1.00  0.00     0.036 C 
ENDROOT
BRANCH   1  10
ATOM     10  C   UNL     1      44.416 131.267  17.432  1.00  0.00    -0.018 A 
ATOM     11  C   UNL     1      46.034 130.440  15.789  1.00  0.00    -0.026 A 
ATOM     12  C   UNL     1      45.237 130.971  14.762  1.00  0.00     0.008 A 
ATOM     13  C   UNL     1      45.619 130.606  17.127  1.00  0.00     0.016 A 
ATOM     14  C   UNL     1      44.043 131.628  15.058  1.00  0.00     0.001 A 
ATOM     15  C   UNL     1      43.631 131.775  16.382  1.00  0.00     0.009 A 
BRANCH  11  16
ATOM     16  C   UNL     1      47.299 129.758  15.423  1.00  0.00     0.000 C 
ATOM     17  C   UNL     1      47.646 129.444  14.175  1.00  0.00     0.009 C 
ENDBRANCH  11  16
ENDBRANCH   1  10
BRANCH   7  18
ATOM     18  N   UNL     1      44.438 128.744  22.336  1.00  0.00    -0.086 NA
BRANCH  18  19
ATOM     19  N   UNL     1      45.327 127.929  22.083  1.00  0.00     0.002 N 
ATOM     20  N   UNL     1      46.215 127.116  21.832  1.00  0.00    -0.003 NA
ENDBRANCH  18  19
ENDBRANCH   7  18
TORSDOF 4
ENDMDL
MODEL 5
REMARK VINA RESULT:      -7.0      2.393      2.845
REMARK SMILES C=Cc1cccc(-c2ccc3c(c2)[C@H](N=[N+]=[N-])CC3)c1
REMARK SMILES IDX 8 1 9 2 10 3 11 4 12 5 13 6 14 7 18 8 19 9 7 10 3 11 4 12
REMARK SMILES IDX 20 13 5 14 6 15 2 16 1 17 15 18 16 19 17 20
REMARK H PARENT
ROOT
ATOM      1  C   UNL     1      45.008 131.193  17.941  1.00  0.00    -0.018 A 
ATOM      2  C   UNL     1      46.153 130.997  18.750  1.00  0.00     0.009 A 
ATOM      3  C   UNL     1      46.051 131.017  20.149  1.00  0.00     0.004 A 
ATOM      4  C   UNL     1      44.801 131.230  20.731  1.00  0.00    -0.044 A 
ATOM      5  C   UNL     1      43.686 131.426  19.958  1.00  0.00    -0.035 A 
ATOM      6  C   UNL     1      43.759 131.411  18.564  1.00  0.00     0.013 A 
ATOM      7  C   UNL     1      42.474 131.659  20.786  1.00  0.00     0.104 C 
ATOM      8  C   UNL     1      42.966 131.441  22.236  1.00  0.00     0.019 C 
ATOM      9  C   UNL     1      44.501 131.300  22.180  1.00  0.00     0.036 C 
ENDROOT
BRANCH   1  10
ATOM     10  C   UNL     1      45.116 131.173  16.461  1.00  0.00    -0.018 A 
ATOM     11  C   UNL     1      46.468 130.936  14.432  1.00  0.00    -0.026 A 
ATOM     12  C   UNL     1      45.316 131.150  13.659  1.00  0.00     0.008 A 
ATOM     13  C   UNL     1      46.360 130.962  15.837  1.00  0.00     0.016 A 
ATOM     14  C   UNL     1      44.080 131.360  14.270  1.00  0.00     0.001 A 
ATOM     15  C   UNL     1      43.977 131.369  15.661  1.00  0.00     0.009 A 
BRANCH  11  16
ATOM     16  C   UNL     1      47.761 130.726  13.734  1.00  0.00     0.000 C 
ATOM     17  C   UNL     1      48.298 129.529  13.497  1.00  0.00     0.009 C 
ENDBRANCH  11  16
ENDBRANCH   1  10
BRANCH   7  18
ATOM     18  N   UNL     1      41.955 133.013  20.589  1.00  0.00    -0.086 NA
BRANCH  18  19
ATOM     19  N   UNL     1      41.007 133.448  21.246  1.00  0.00     0.002 N 
ATOM     20  N   UNL     1      40.060 133.880  21.901  1.00  0.00    -0.003 NA
ENDBRANCH  18  19
ENDBRANCH   7  18
TORSDOF 4
ENDMDL
MODEL 6
REMARK VINA RESULT:      -7.0      1.255      1.353
REMARK SMILES C=Cc1cccc(-c2ccc3c(c2)[C@H](N=[N+]=[N-])CC3)c1
REMARK SMILES IDX 8 1 9 2 10 3 11 4 12 5 13 6 14 7 18 8 19 9 7 10 3 11 4 12
REMARK SMILES IDX 20 13 5 14 6 15 2 16 1 17 15 18 16 19 17 20
REMARK H PARENT
ROOT
ATOM      1  C   UNL     1      44.776 131.190  18.549  1.00  0.00    -0.018 A 
ATOM      2  C   UNL     1      43.559 131.866  18.804  1.00  0.00     0.009 A 
ATOM      3  C   UNL     1      42.952 131.792  20.067  1.00  0.00     0.004 A 
ATOM      4  C   UNL     1      43.570 131.044  21.069  1.00  0.00    -0.044 A 
ATOM      5  C   UNL     1      44.746 130.381  20.832  1.00  0.00    -0.035 A 
ATOM      6  C   UNL     1      45.372 130.438  19.585  1.00  0.00     0.013 A 
ATOM      7  C   UNL     1      45.208 129.630  22.029  1.00  0.00     0.104 C 
ATOM      8  C   UNL     1      44.200 130.032  23.132  1.00  0.00     0.019 C 
ATOM      9  C   UNL     1      43.076 130.837  22.451  1.00  0.00     0.036 C 
ENDROOT
BRANCH   1  10
ATOM     10  C   UNL     1      45.417 131.268  17.212  1.00  0.00    -0.018 A 
ATOM     11  C   UNL     1      46.673 130.211  15.393  1.00  0.00    -0.026 A 
ATOM     12  C   UNL     1      46.641 131.425  14.689  1.00  0.00     0.008 A 
ATOM     13  C   UNL     1      46.067 130.146  16.665  1.00  0.00     0.016 A 
ATOM     14  C   UNL     1      45.999 132.541  15.225  1.00  0.00     0.001 A 
ATOM     15  C   UNL     1      45.388 132.465  16.477  1.00  0.00     0.009 A 
BRANCH  11  16
ATOM     16  C   UNL     1      47.376 129.056  14.783  1.00  0.00     0.000 C 
ATOM     17  C   UNL     1      48.170 129.142  13.715  1.00  0.00     0.009 C 
ENDBRANCH  11  16
ENDBRANCH   1  10
BRANCH   7  18
ATOM     18  N   UNL     1      45.192 128.187  21.782  1.00  0.00    -0.086 NA
BRANCH  18  19
ATOM     19  N   UNL     1      45.418 127.373  22.678  1.00  0.00     0.002 N 
ATOM     20  N   UNL     1      45.642 126.559  23.574  1.00  0.00    -0.003 NA
ENDBRANCH  18  19
ENDBRANCH   7  18
TORSDOF 4
ENDMDL
MODEL 7
REMARK VINA RESULT:      -6.9      1.352      2.597
REMARK SMILES C=Cc1cccc(-c2ccc3c(c2)[C@H](N=[N+]=[N-])CC3)c1
REMARK SMILES IDX 8 1 9 2 10 3 11 4 12 5 13 6 14 7 18 8 19 9 7 10 3 11 4 12
REMARK SMILES IDX 20 13 5 14 6 15 2 16 1 17 15 18 16 19 17 20
REMARK H PARENT
ROOT
ATOM      1  C   UNL     1      44.018 131.363  19.724  1.00  0.00    -0.018 A 
ATOM      2  C   UNL     1      42.940 132.268  19.878  1.00  0.00     0.009 A 
ATOM      3  C   UNL     1      42.367 132.487  21.140  1.00  0.00     0.004 A 
ATOM      4  C   UNL     1      42.881 131.803  22.241  1.00  0.00    -0.044 A 
ATOM      5  C   UNL     1      43.922 130.921  22.104  1.00  0.00    -0.035 A 
ATOM      6  C   UNL     1      44.510 130.684  20.860  1.00  0.00     0.013 A 
ATOM      7  C   UNL     1      44.286 130.290  23.399  1.00  0.00     0.104 C 
ATOM      8  C   UNL     1      43.393 131.018  24.432  1.00  0.00     0.019 C 
ATOM      9  C   UNL     1      42.400 131.892  23.641  1.00  0.00     0.036 C 
ENDROOT
BRANCH   1  10
ATOM     10  C   UNL     1      44.623 131.130  18.389  1.00  0.00    -0.018 A 
ATOM     11  C   UNL     1      44.599 131.447  15.959  1.00  0.00    -0.026 A 
ATOM     12  C   UNL     1      45.765 130.672  15.863  1.00  0.00     0.008 A 
ATOM     13  C   UNL     1      44.026 131.661  17.230  1.00  0.00     0.016 A 
ATOM     14  C   UNL     1      46.362 130.142  17.007  1.00  0.00     0.001 A 
ATOM     15  C   UNL     1      45.799 130.370  18.263  1.00  0.00     0.009 A 
BRANCH  11  16
ATOM     16  C   UNL     1      43.998 131.981  14.712  1.00  0.00     0.000 C 
ATOM     17  C   UNL     1      43.256 131.261  13.871  1.00  0.00     0.009 C 
ENDBRANCH  11  16
ENDBRANCH   1  10
BRANCH   7  18
ATOM     18  N   UNL     1      44.020 128.850  23.374  1.00  0.00    -0.086 NA
BRANCH  18  19
ATOM     19  N   UNL     1      44.748 128.066  22.762  1.00  0.00     0.002 N 
ATOM     20  N   UNL     1      45.474 127.284  22.150  1.00  0.00    -0.003 NA
ENDBRANCH  18  19
ENDBRANCH   7  18
TORSDOF 4
ENDMDL
MODEL 8
REMARK VINA RESULT:      -6.6      2.186      2.850
REMARK SMILES C=Cc1cccc(-c2ccc3c(c2)[C@H](N=[N+]=[N-])CC3)c1
REMARK SMILES IDX 8 1 9 2 10 3 11 4 12 5 13 6 14 7 18 8 19 9 7 10 3 11 4 12
REMARK SMILES IDX 20 13 5 14 6 15 2 16 1 17 15 18 16 19 17 20
REMARK H PARENT
ROOT
ATOM      1  C   UNL     1      45.019 131.073  18.519  1.00  0.00    -0.018 A 
ATOM      2  C   UNL     1      46.235 130.956  19.233  1.00  0.00     0.009 A 
ATOM      3  C   UNL     1      46.240 130.924  20.636  1.00  0.00     0.004 A 
ATOM      4  C   UNL     1      45.025 131.005  21.316  1.00  0.00    -0.044 A 
ATOM      5  C   UNL     1      43.841 131.124  20.636  1.00  0.00    -0.035 A 
ATOM      6  C   UNL     1      43.807 131.159  19.240  1.00  0.00     0.013 A 
ATOM      7  C   UNL     1      42.680 131.220  21.559  1.00  0.00     0.104 C 
ATOM      8  C   UNL     1      43.300 131.003  22.960  1.00  0.00     0.019 C 
ATOM      9  C   UNL     1      44.832 131.002  22.785  1.00  0.00     0.036 C 
ENDROOT
BRANCH   1  10
ATOM     10  C   UNL     1      45.014 131.109  17.035  1.00  0.00    -0.018 A 
ATOM     11  C   UNL     1      46.151 130.739  14.897  1.00  0.00    -0.026 A 
ATOM     12  C   UNL     1      45.004 131.192  14.227  1.00  0.00     0.008 A 
ATOM     13  C   UNL     1      46.151 130.713  16.307  1.00  0.00     0.016 A 
ATOM     14  C   UNL     1      43.873 131.587  14.943  1.00  0.00     0.001 A 
ATOM     15  C   UNL     1      43.874 131.544  16.337  1.00  0.00     0.009 A 
BRANCH  11  16
ATOM     16  C   UNL     1      47.330 130.339  14.090  1.00  0.00     0.000 C 
ATOM     17  C   UNL     1      47.726 130.965  12.982  1.00  0.00     0.009 C 
ENDBRANCH  11  16
ENDBRANCH   1  10
BRANCH   7  18
ATOM     18  N   UNL     1      42.032 132.529  21.452  1.00  0.00    -0.086 NA
BRANCH  18  19
ATOM     19  N   UNL     1      41.732 133.017  20.361  1.00  0.00     0.002 N 
ATOM     20  N   UNL     1      41.431 133.505  19.272  1.00  0.00    -0.003 NA
ENDBRANCH  18  19
ENDBRANCH   7  18
TORSDOF 4
ENDMDL


