REMARK SMILES Cc1ccc(-c2cc(C=O)c3cn(C)[nH+]c3c2F)cc1
REMARK SMILES IDX 6 1 7 2 8 3 11 4 12 5 13 6 14 7 15 8 16 9 17 10 18 11 5 13
REMARK SMILES IDX 2 14 3 15 20 16 4 17 19 18 1 19 9 20 10 21
REMARK H PARENT 15 12
ROOT
ATOM      1  C   UNL     1       0.024   0.287  -0.495  1.00  0.00     0.025 A 
ATOM      2  C   UNL     1       1.437   0.238  -0.348  1.00  0.00     0.024 A 
ATOM      3  C   UNL     1       2.052   0.391   0.914  1.00  0.00     0.031 A 
ATOM      4  C   UNL     1       1.206   0.594   2.015  1.00  0.00     0.084 A 
ATOM      5  C   UNL     1       1.439   0.758   3.372  1.00  0.00     0.166 A 
ATOM      6  N   UNL     1       0.237   0.903   3.978  1.00  0.00    -0.165 N 
ATOM      7  C   UNL     1       0.017   1.022   5.413  1.00  0.00     0.223 C 
ATOM      8  N   UNL     1      -0.735   0.818   3.079  1.00  0.00    -0.121 N 
ATOM      9  C   UNL     1      -0.160   0.638   1.879  1.00  0.00     0.272 A 
ATOM     10  C   UNL     1      -0.788   0.487   0.646  1.00  0.00     0.205 A 
ATOM     11  F   UNL     1      -2.143   0.495   0.565  1.00  0.00    -0.199 F 
ATOM     12  H   UNL     1      -1.758   0.870   3.287  1.00  0.00     0.489 HD
ENDROOT
BRANCH   1  13
ATOM     13  C   UNL     1      -0.584   0.124  -1.837  1.00  0.00    -0.015 A 
ATOM     14  C   UNL     1      -1.735  -0.188  -4.391  1.00  0.00    -0.051 A 
ATOM     15  C   UNL     1      -0.720  -1.055  -3.962  1.00  0.00     0.004 A 
ATOM     16  C   UNL     1      -2.152   0.853  -3.549  1.00  0.00     0.004 A 
ATOM     17  C   UNL     1      -0.152  -0.904  -2.693  1.00  0.00     0.009 A 
ATOM     18  C   UNL     1      -1.585   1.005  -2.281  1.00  0.00     0.009 A 
ATOM     19  C   UNL     1      -2.315  -0.327  -5.767  1.00  0.00     0.044 C 
ENDBRANCH   1  13
BRANCH   3  20
ATOM     20  C   UNL     1       3.524   0.335   1.017  1.00  0.00     0.260 C 
ATOM     21  O   UNL     1       4.116   0.481   2.118  1.00  0.00    -0.298 OA
ENDBRANCH   3  20
TORSDOF 2


