MODEL 1
REMARK VINA RESULT:      -4.6      0.000      0.000
REMARK SMILES C=C[C@H]1CN[C@H](c2c[nH+]c3ocnc3c2)N(C(=S)[NH2+]c2cc(F)c(Cl)cc2F)C1
REMARK SMILES IDX 17 1 18 2 16 3 3 4 4 5 29 6 5 7 6 8 2 10 1 11 7 12 8 13
REMARK SMILES IDX 15 14 9 15 14 16 10 17 13 18 11 19 12 20 19 22 20 25 21 26
REMARK SMILES IDX 27 27 22 28 26 29 24 30 28 31 23 32 25 33
REMARK H PARENT 5 9 9 21 19 23 19 24
ROOT
ATOM      1  C   UNL     1      45.679 131.377  19.856  1.00  0.00     0.275 C 
ATOM      2  S   UNL     1      46.573 132.576  20.540  1.00  0.00     0.004 S 
ENDROOT
BRANCH   1   3
ATOM      3  N   UNL     1      44.411 131.704  19.252  1.00  0.00    -0.297 N 
ATOM      4  C   UNL     1      41.991 132.085  19.541  1.00  0.00     0.045 C 
ATOM      5  C   UNL     1      42.014 132.733  18.157  1.00  0.00     0.092 C 
ATOM      6  C   UNL     1      43.381 132.205  20.170  1.00  0.00     0.133 C 
ATOM      7  N   UNL     1      42.986 132.041  17.305  1.00  0.00    -0.292 NA
ATOM      8  C   UNL     1      44.359 132.142  17.838  1.00  0.00     0.193 C 
ATOM      9  H   UNL     1      42.963 132.499  16.362  1.00  0.00     0.125 HD
BRANCH   4  10
ATOM     10  C   UNL     1      40.961 132.759  20.418  1.00  0.00    -0.028 C 
ATOM     11  C   UNL     1      41.211 133.071  21.693  1.00  0.00     0.004 C 
ENDBRANCH   4  10
BRANCH   8  12
ATOM     12  C   UNL     1      45.272 131.295  16.972  1.00  0.00     0.056 A 
ATOM     13  C   UNL     1      45.596 129.960  17.348  1.00  0.00     0.317 A 
ATOM     14  C   UNL     1      45.806 131.818  15.770  1.00  0.00     0.053 A 
ATOM     15  N   UNL     1      46.410 129.190  16.561  1.00  0.00    -0.177 N 
ATOM     16  C   UNL     1      46.644 130.994  15.029  1.00  0.00     0.179 A 
ATOM     17  C   UNL     1      46.916 129.728  15.425  1.00  0.00     0.399 A 
ATOM     18  N   UNL     1      47.286 131.264  13.880  1.00  0.00    -0.209 NA
ATOM     19  O   UNL     1      47.716 129.165  14.562  1.00  0.00    -0.391 OA
ATOM     20  C   UNL     1      47.936 130.090  13.638  1.00  0.00     0.316 A 
ATOM     21  H   UNL     1      46.646 128.210  16.839  1.00  0.00     0.457 HD
ENDBRANCH   8  12
ENDBRANCH   1   3
BRANCH   1  22
ATOM     22  N   UNL     1      46.021 130.000  20.110  1.00  0.00    -0.254 N 
ATOM     23  H   UNL     1      45.896 129.433  19.237  1.00  0.00     0.360 HD
ATOM     24  H   UNL     1      47.029 129.931  20.381  1.00  0.00     0.360 HD
BRANCH  22  25
ATOM     25  C   UNL     1      45.197 129.476  21.172  1.00  0.00     0.175 A 
ATOM     26  C   UNL     1      44.177 130.269  21.735  1.00  0.00     0.112 A 
ATOM     27  C   UNL     1      45.400 128.169  21.668  1.00  0.00     0.185 A 
ATOM     28  C   UNL     1      43.373 129.765  22.764  1.00  0.00     0.147 A 
ATOM     29  C   UNL     1      44.583 127.664  22.684  1.00  0.00     0.069 A 
ATOM     30  C   UNL     1      43.568 128.458  23.230  1.00  0.00     0.080 A 
ATOM     31  F   UNL     1      46.399 127.386  21.181  1.00  0.00    -0.200 F 
ATOM     32  F   UNL     1      42.413 130.553  23.316  1.00  0.00    -0.205 F 
ATOM     33  Cl  UNL     1      42.550 127.809  24.503  1.00  0.00    -0.081 Cl
ENDBRANCH  22  25
ENDBRANCH   1  22
TORSDOF 5
ENDMDL
MODEL 2
REMARK VINA RESULT:      -4.4      4.451      7.668
REMARK SMILES C=C[C@H]1CN[C@H](c2c[nH+]c3ocnc3c2)N(C(=S)[NH2+]c2cc(F)c(Cl)cc2F)C1
REMARK SMILES IDX 17 1 18 2 16 3 3 4 4 5 29 6 5 7 6 8 2 10 1 11 7 12 8 13
REMARK SMILES IDX 15 14 9 15 14 16 10 17 13 18 11 19 12 20 19 22 20 25 21 26
REMARK SMILES IDX 27 27 22 28 26 29 24 30 28 31 23 32 25 33
REMARK H PARENT 5 9 9 21 19 23 19 24
ROOT
ATOM      1  C   UNL     1      44.912 131.109  21.045  1.00  0.00     0.275 C 
ATOM      2  S   UNL     1      45.537 129.612  20.775  1.00  0.00     0.004 S 
ENDROOT
BRANCH   1   3
ATOM      3  N   UNL     1      45.371 131.866  22.183  1.00  0.00    -0.297 N 
ATOM      4  C   UNL     1      47.048 133.405  23.136  1.00  0.00     0.045 C 
ATOM      5  C   UNL     1      46.049 133.659  24.265  1.00  0.00     0.092 C 
ATOM      6  C   UNL     1      46.284 132.976  21.881  1.00  0.00     0.133 C 
ATOM      7  N   UNL     1      45.308 132.428  24.554  1.00  0.00    -0.292 NA
ATOM      8  C   UNL     1      44.520 131.972  23.391  1.00  0.00     0.193 C 
ATOM      9  H   UNL     1      44.646 132.634  25.340  1.00  0.00     0.125 HD
BRANCH   4  10
ATOM     10  C   UNL     1      47.853 134.653  22.856  1.00  0.00    -0.028 C 
ATOM     11  C   UNL     1      49.182 134.682  22.984  1.00  0.00     0.004 C 
ENDBRANCH   4  10
BRANCH   8  12
ATOM     12  C   UNL     1      43.893 130.633  23.733  1.00  0.00     0.056 A 
ATOM     13  C   UNL     1      44.709 129.511  24.052  1.00  0.00     0.317 A 
ATOM     14  C   UNL     1      42.486 130.485  23.752  1.00  0.00     0.053 A 
ATOM     15  N   UNL     1      44.145 128.305  24.373  1.00  0.00    -0.177 N 
ATOM     16  C   UNL     1      41.977 129.231  24.063  1.00  0.00     0.179 A 
ATOM     17  C   UNL     1      42.794 128.195  24.366  1.00  0.00     0.399 A 
ATOM     18  N   UNL     1      40.694 128.836  24.121  1.00  0.00    -0.209 NA
ATOM     19  O   UNL     1      42.077 127.137  24.625  1.00  0.00    -0.391 OA
ATOM     20  C   UNL     1      40.818 127.525  24.476  1.00  0.00     0.316 A 
ATOM     21  H   UNL     1      44.746 127.482  24.608  1.00  0.00     0.457 HD
ENDBRANCH   8  12
ENDBRANCH   1   3
BRANCH   1  22
ATOM     22  N   UNL     1      43.734 131.529  20.331  1.00  0.00    -0.254 N 
ATOM     23  H   UNL     1      42.923 130.915  20.583  1.00  0.00     0.360 HD
ATOM     24  H   UNL     1      43.480 132.504  20.611  1.00  0.00     0.360 HD
BRANCH  22  25
ATOM     25  C   UNL     1      43.977 131.482  18.909  1.00  0.00     0.175 A 
ATOM     26  C   UNL     1      45.231 131.065  18.418  1.00  0.00     0.112 A 
ATOM     27  C   UNL     1      42.971 131.855  17.990  1.00  0.00     0.185 A 
ATOM     28  C   UNL     1      45.471 131.015  17.041  1.00  0.00     0.147 A 
ATOM     29  C   UNL     1      43.211 131.787  16.614  1.00  0.00     0.069 A 
ATOM     30  C   UNL     1      44.457 131.364  16.138  1.00  0.00     0.080 A 
ATOM     31  F   UNL     1      41.763 132.302  18.422  1.00  0.00    -0.200 F 
ATOM     32  F   UNL     1      46.695 130.638  16.583  1.00  0.00    -0.205 F 
ATOM     33  Cl  UNL     1      44.742 131.282  14.408  1.00  0.00    -0.081 Cl
ENDBRANCH  22  25
ENDBRANCH   1  22
TORSDOF 5
ENDMDL
MODEL 3
REMARK VINA RESULT:      -4.2      4.293      7.481
REMARK SMILES C=C[C@H]1CN[C@H](c2c[nH+]c3ocnc3c2)N(C(=S)[NH2+]c2cc(F)c(Cl)cc2F)C1
REMARK SMILES IDX 17 1 18 2 16 3 3 4 4 5 29 6 5 7 6 8 2 10 1 11 7 12 8 13
REMARK SMILES IDX 15 14 9 15 14 16 10 17 13 18 11 19 12 20 19 22 20 25 21 26
REMARK SMILES IDX 27 27 22 28 26 29 24 30 28 31 23 32 25 33
REMARK H PARENT 5 9 9 21 19 23 19 24
ROOT
ATOM      1  C   UNL     1      44.679 131.127  20.871  1.00  0.00     0.275 C 
ATOM      2  S   UNL     1      45.024 129.530  20.682  1.00  0.00     0.004 S 
ENDROOT
BRANCH   1   3
ATOM      3  N   UNL     1      45.075 131.791  22.089  1.00  0.00    -0.297 N 
ATOM      4  C   UNL     1      46.662 133.295  23.232  1.00  0.00     0.045 C 
ATOM      5  C   UNL     1      45.622 133.404  24.348  1.00  0.00     0.092 C 
ATOM      6  C   UNL     1      45.951 132.957  21.920  1.00  0.00     0.133 C 
ATOM      7  N   UNL     1      44.923 132.125  24.498  1.00  0.00    -0.292 NA
ATOM      8  C   UNL     1      44.187 131.750  23.274  1.00  0.00     0.193 C 
ATOM      9  H   UNL     1      44.232 132.231  25.279  1.00  0.00     0.125 HD
BRANCH   4  10
ATOM     10  C   UNL     1      47.423 134.593  23.095  1.00  0.00    -0.028 C 
ATOM     11  C   UNL     1      48.259 134.820  22.078  1.00  0.00     0.004 C 
ENDBRANCH   4  10
BRANCH   8  12
ATOM     12  C   UNL     1      43.606 130.363  23.470  1.00  0.00     0.056 A 
ATOM     13  C   UNL     1      42.213 130.128  23.284  1.00  0.00     0.317 A 
ATOM     14  C   UNL     1      44.442 129.280  23.830  1.00  0.00     0.053 A 
ATOM     15  N   UNL     1      41.689 128.873  23.450  1.00  0.00    -0.177 N 
ATOM     16  C   UNL     1      43.845 128.038  24.005  1.00  0.00     0.179 A 
ATOM     17  C   UNL     1      42.517 127.862  23.809  1.00  0.00     0.399 A 
ATOM     18  N   UNL     1      44.414 126.876  24.365  1.00  0.00    -0.209 NA
ATOM     19  O   UNL     1      42.207 126.615  24.028  1.00  0.00    -0.391 OA
ATOM     20  C   UNL     1      43.347 126.027  24.363  1.00  0.00     0.316 A 
ATOM     21  H   UNL     1      40.667 128.702  23.311  1.00  0.00     0.457 HD
ENDBRANCH   8  12
ENDBRANCH   1   3
BRANCH   1  22
ATOM     22  N   UNL     1      43.755 131.768  19.971  1.00  0.00    -0.254 N 
ATOM     23  H   UNL     1      42.783 131.420  20.148  1.00  0.00     0.360 HD
ATOM     24  H   UNL     1      43.750 132.799  20.146  1.00  0.00     0.360 HD
BRANCH  22  25
ATOM     25  C   UNL     1      44.140 131.511  18.604  1.00  0.00     0.175 A 
ATOM     26  C   UNL     1      45.360 130.865  18.322  1.00  0.00     0.112 A 
ATOM     27  C   UNL     1      43.309 131.905  17.532  1.00  0.00     0.185 A 
ATOM     28  C   UNL     1      45.737 130.610  16.999  1.00  0.00     0.147 A 
ATOM     29  C   UNL     1      43.683 131.634  16.212  1.00  0.00     0.069 A 
ATOM     30  C   UNL     1      44.893 130.984  15.944  1.00  0.00     0.080 A 
ATOM     31  F   UNL     1      42.145 132.567  17.760  1.00  0.00    -0.200 F 
ATOM     32  F   UNL     1      46.931 130.012  16.741  1.00  0.00    -0.205 F 
ATOM     33  Cl  UNL     1      45.347 130.648  14.282  1.00  0.00    -0.081 Cl
ENDBRANCH  22  25
ENDBRANCH   1  22
TORSDOF 5
ENDMDL
MODEL 4
REMARK VINA RESULT:      -3.8      4.290      7.220
REMARK SMILES C=C[C@H]1CN[C@H](c2c[nH+]c3ocnc3c2)N(C(=S)[NH2+]c2cc(F)c(Cl)cc2F)C1
REMARK SMILES IDX 17 1 18 2 16 3 3 4 4 5 29 6 5 7 6 8 2 10 1 11 7 12 8 13
REMARK SMILES IDX 15 14 9 15 14 16 10 17 13 18 11 19 12 20 19 22 20 25 21 26
REMARK SMILES IDX 27 27 22 28 26 29 24 30 28 31 23 32 25 33
REMARK H PARENT 5 9 9 21 19 23 19 24
ROOT
ATOM      1  C   UNL     1      44.683 131.367  20.791  1.00  0.00     0.275 C 
ATOM      2  S   UNL     1      43.114 131.619  20.368  1.00  0.00     0.004 S 
ENDROOT
BRANCH   1   3
ATOM      3  N   UNL     1      45.194 131.981  21.992  1.00  0.00    -0.297 N 
ATOM      4  C   UNL     1      46.955 133.335  23.065  1.00  0.00     0.045 C 
ATOM      5  C   UNL     1      45.986 133.516  24.233  1.00  0.00     0.092 C 
ATOM      6  C   UNL     1      46.153 133.074  21.788  1.00  0.00     0.133 C 
ATOM      7  N   UNL     1      45.192 132.297  24.408  1.00  0.00    -0.292 NA
ATOM      8  C   UNL     1      44.366 131.999  23.221  1.00  0.00     0.193 C 
ATOM      9  H   UNL     1      44.552 132.450  25.225  1.00  0.00     0.125 HD
BRANCH   4  10
ATOM     10  C   UNL     1      47.813 134.568  22.899  1.00  0.00    -0.028 C 
ATOM     11  C   UNL     1      48.481 134.820  21.770  1.00  0.00     0.004 C 
ENDBRANCH   4  10
BRANCH   8  12
ATOM     12  C   UNL     1      43.683 130.663  23.436  1.00  0.00     0.056 A 
ATOM     13  C   UNL     1      42.312 130.602  23.819  1.00  0.00     0.317 A 
ATOM     14  C   UNL     1      44.396 129.455  23.247  1.00  0.00     0.053 A 
ATOM     15  N   UNL     1      41.690 129.396  24.001  1.00  0.00    -0.177 N 
ATOM     16  C   UNL     1      43.714 128.266  23.470  1.00  0.00     0.179 A 
ATOM     17  C   UNL     1      42.408 128.259  23.826  1.00  0.00     0.399 A 
ATOM     18  N   UNL     1      44.171 127.006  23.382  1.00  0.00    -0.209 NA
ATOM     19  O   UNL     1      42.001 127.028  23.968  1.00  0.00    -0.391 OA
ATOM     20  C   UNL     1      43.063 126.279  23.702  1.00  0.00     0.316 A 
ATOM     21  H   UNL     1      40.683 129.354  24.281  1.00  0.00     0.457 HD
ENDBRANCH   8  12
ENDBRANCH   1   3
BRANCH   1  22
ATOM     22  N   UNL     1      45.594 130.787  19.838  1.00  0.00    -0.254 N 
ATOM     23  H   UNL     1      46.540 131.227  19.932  1.00  0.00     0.360 HD
ATOM     24  H   UNL     1      45.708 129.766  20.036  1.00  0.00     0.360 HD
BRANCH  22  25
ATOM     25  C   UNL     1      45.086 130.967  18.499  1.00  0.00     0.175 A 
ATOM     26  C   UNL     1      43.859 131.626  18.290  1.00  0.00     0.112 A 
ATOM     27  C   UNL     1      45.805 130.484  17.382  1.00  0.00     0.185 A 
ATOM     28  C   UNL     1      43.363 131.806  16.994  1.00  0.00     0.147 A 
ATOM     29  C   UNL     1      45.313 130.682  16.088  1.00  0.00     0.069 A 
ATOM     30  C   UNL     1      44.097 131.345  15.892  1.00  0.00     0.080 A 
ATOM     31  F   UNL     1      46.971 129.807  17.543  1.00  0.00    -0.200 F 
ATOM     32  F   UNL     1      42.163 132.419  16.810  1.00  0.00    -0.205 F 
ATOM     33  Cl  UNL     1      43.494 131.587  14.261  1.00  0.00    -0.081 Cl
ENDBRANCH  22  25
ENDBRANCH   1  22
TORSDOF 5
ENDMDL
MODEL 5
REMARK VINA RESULT:      -3.7      4.323      7.471
REMARK SMILES C=C[C@H]1CN[C@H](c2c[nH+]c3ocnc3c2)N(C(=S)[NH2+]c2cc(F)c(Cl)cc2F)C1
REMARK SMILES IDX 17 1 18 2 16 3 3 4 4 5 29 6 5 7 6 8 2 10 1 11 7 12 8 13
REMARK SMILES IDX 15 14 9 15 14 16 10 17 13 18 11 19 12 20 19 22 20 25 21 26
REMARK SMILES IDX 27 27 22 28 26 29 24 30 28 31 23 32 25 33
REMARK H PARENT 5 9 9 21 19 23 19 24
ROOT
ATOM      1  C   UNL     1      44.860 131.025  20.554  1.00  0.00     0.275 C 
ATOM      2  S   UNL     1      43.352 131.264  19.943  1.00  0.00     0.004 S 
ENDROOT
BRANCH   1   3
ATOM      3  N   UNL     1      45.252 131.725  21.752  1.00  0.00    -0.297 N 
ATOM      4  C   UNL     1      46.818 133.286  22.847  1.00  0.00     0.045 C 
ATOM      5  C   UNL     1      45.784 133.403  23.967  1.00  0.00     0.092 C 
ATOM      6  C   UNL     1      46.105 132.903  21.549  1.00  0.00     0.133 C 
ATOM      7  N   UNL     1      45.110 132.115  24.153  1.00  0.00    -0.292 NA
ATOM      8  C   UNL     1      44.373 131.697  22.944  1.00  0.00     0.193 C 
ATOM      9  H   UNL     1      44.422 132.228  24.936  1.00  0.00     0.125 HD
BRANCH   4  10
ATOM     10  C   UNL     1      47.554 134.594  22.673  1.00  0.00    -0.028 C 
ATOM     11  C   UNL     1      48.850 134.641  22.353  1.00  0.00     0.004 C 
ENDBRANCH   4  10
BRANCH   8  12
ATOM     12  C   UNL     1      43.818 130.305  23.178  1.00  0.00     0.056 A 
ATOM     13  C   UNL     1      44.650 129.159  23.031  1.00  0.00     0.317 A 
ATOM     14  C   UNL     1      42.467 130.127  23.559  1.00  0.00     0.053 A 
ATOM     15  N   UNL     1      44.154 127.902  23.254  1.00  0.00    -0.177 N 
ATOM     16  C   UNL     1      42.019 128.826  23.748  1.00  0.00     0.179 A 
ATOM     17  C   UNL     1      42.851 127.768  23.603  1.00  0.00     0.399 A 
ATOM     18  N   UNL     1      40.790 128.400  24.083  1.00  0.00    -0.209 NA
ATOM     19  O   UNL     1      42.197 126.665  23.838  1.00  0.00    -0.391 OA
ATOM     20  C   UNL     1      40.961 127.048  24.125  1.00  0.00     0.316 A 
ATOM     21  H   UNL     1      44.767 127.062  23.147  1.00  0.00     0.457 HD
ENDBRANCH   8  12
ENDBRANCH   1   3
BRANCH   1  22
ATOM     22  N   UNL     1      45.855 130.358  19.754  1.00  0.00    -0.254 N 
ATOM     23  H   UNL     1      46.810 130.712  20.001  1.00  0.00     0.360 HD
ATOM     24  H   UNL     1      45.844 129.333  19.959  1.00  0.00     0.360 HD
BRANCH  22  25
ATOM     25  C   UNL     1      45.586 130.574  18.352  1.00  0.00     0.175 A 
ATOM     26  C   UNL     1      45.667 129.501  17.442  1.00  0.00     0.112 A 
ATOM     27  C   UNL     1      45.245 131.857  17.870  1.00  0.00     0.185 A 
ATOM     28  C   UNL     1      45.404 129.703  16.083  1.00  0.00     0.147 A 
ATOM     29  C   UNL     1      44.967 132.050  16.513  1.00  0.00     0.069 A 
ATOM     30  C   UNL     1      45.042 130.976  15.620  1.00  0.00     0.080 A 
ATOM     31  F   UNL     1      45.197 132.926  18.707  1.00  0.00    -0.200 F 
ATOM     32  F   UNL     1      45.514 128.664  15.213  1.00  0.00    -0.205 F 
ATOM     33  Cl  UNL     1      44.688 131.235  13.921  1.00  0.00    -0.081 Cl
ENDBRANCH  22  25
ENDBRANCH   1  22
TORSDOF 5
ENDMDL
MODEL 6
REMARK VINA RESULT:      -3.5      4.441      7.586
REMARK SMILES C=C[C@H]1CN[C@H](c2c[nH+]c3ocnc3c2)N(C(=S)[NH2+]c2cc(F)c(Cl)cc2F)C1
REMARK SMILES IDX 17 1 18 2 16 3 3 4 4 5 29 6 5 7 6 8 2 10 1 11 7 12 8 13
REMARK SMILES IDX 15 14 9 15 14 16 10 17 13 18 11 19 12 20 19 22 20 25 21 26
REMARK SMILES IDX 27 27 22 28 26 29 24 30 28 31 23 32 25 33
REMARK H PARENT 5 9 9 21 19 23 19 24
ROOT
ATOM      1  C   UNL     1      45.424 131.918  20.577  1.00  0.00     0.275 C 
ATOM      2  S   UNL     1      45.660 130.316  20.287  1.00  0.00     0.004 S 
ENDROOT
BRANCH   1   3
ATOM      3  N   UNL     1      46.014 132.513  21.751  1.00  0.00    -0.297 N 
ATOM      4  C   UNL     1      47.964 133.618  22.783  1.00  0.00     0.045 C 
ATOM      5  C   UNL     1      47.023 134.033  23.913  1.00  0.00     0.092 C 
ATOM      6  C   UNL     1      47.148 133.413  21.505  1.00  0.00     0.133 C 
ATOM      7  N   UNL     1      46.031 132.979  24.142  1.00  0.00    -0.292 NA
ATOM      8  C   UNL     1      45.184 132.749  22.955  1.00  0.00     0.193 C 
ATOM      9  H   UNL     1      45.415 133.290  24.932  1.00  0.00     0.125 HD
BRANCH   4  10
ATOM     10  C   UNL     1      49.021 134.675  22.564  1.00  0.00    -0.028 C 
ATOM     11  C   UNL     1      50.086 134.789  23.363  1.00  0.00     0.004 C 
ENDBRANCH   4  10
BRANCH   8  12
ATOM     12  C   UNL     1      44.281 131.563  23.233  1.00  0.00     0.056 A 
ATOM     13  C   UNL     1      42.898 131.610  22.897  1.00  0.00     0.317 A 
ATOM     14  C   UNL     1      44.804 130.387  23.822  1.00  0.00     0.053 A 
ATOM     15  N   UNL     1      42.083 130.535  23.136  1.00  0.00    -0.177 N 
ATOM     16  C   UNL     1      43.921 129.341  24.060  1.00  0.00     0.179 A 
ATOM     17  C   UNL     1      42.615 129.431  23.715  1.00  0.00     0.399 A 
ATOM     18  N   UNL     1      44.166 128.147  24.623  1.00  0.00    -0.209 NA
ATOM     19  O   UNL     1      42.004 128.324  24.035  1.00  0.00    -0.391 OA
ATOM     20  C   UNL     1      42.937 127.557  24.580  1.00  0.00     0.316 A 
ATOM     21  H   UNL     1      41.068 130.571  22.887  1.00  0.00     0.457 HD
ENDBRANCH   8  12
ENDBRANCH   1   3
BRANCH   1  22
ATOM     22  N   UNL     1      44.420 132.637  19.835  1.00  0.00    -0.254 N 
ATOM     23  H   UNL     1      43.481 132.500  20.277  1.00  0.00     0.360 HD
ATOM     24  H   UNL     1      44.627 133.662  19.863  1.00  0.00     0.360 HD
BRANCH  22  25
ATOM     25  C   UNL     1      44.402 132.184  18.464  1.00  0.00     0.175 A 
ATOM     26  C   UNL     1      45.537 132.356  17.647  1.00  0.00     0.112 A 
ATOM     27  C   UNL     1      43.252 131.568  17.921  1.00  0.00     0.185 A 
ATOM     28  C   UNL     1      45.526 131.917  16.318  1.00  0.00     0.147 A 
ATOM     29  C   UNL     1      43.253 131.116  16.598  1.00  0.00     0.069 A 
ATOM     30  C   UNL     1      44.388 131.285  15.797  1.00  0.00     0.080 A 
ATOM     31  F   UNL     1      42.124 131.420  18.663  1.00  0.00    -0.200 F 
ATOM     32  F   UNL     1      46.618 132.116  15.533  1.00  0.00    -0.205 F 
ATOM     33  Cl  UNL     1      44.373 130.709  14.139  1.00  0.00    -0.081 Cl
ENDBRANCH  22  25
ENDBRANCH   1  22
TORSDOF 5
ENDMDL
MODEL 7
REMARK VINA RESULT:      -3.0      4.366      7.387
REMARK SMILES C=C[C@H]1CN[C@H](c2c[nH+]c3ocnc3c2)N(C(=S)[NH2+]c2cc(F)c(Cl)cc2F)C1
REMARK SMILES IDX 17 1 18 2 16 3 3 4 4 5 29 6 5 7 6 8 2 10 1 11 7 12 8 13
REMARK SMILES IDX 15 14 9 15 14 16 10 17 13 18 11 19 12 20 19 22 20 25 21 26
REMARK SMILES IDX 27 27 22 28 26 29 24 30 28 31 23 32 25 33
REMARK H PARENT 5 9 9 21 19 23 19 24
ROOT
ATOM      1  C   UNL     1      44.970 131.283  20.614  1.00  0.00     0.275 C 
ATOM      2  S   UNL     1      43.356 131.348  20.305  1.00  0.00     0.004 S 
ENDROOT
BRANCH   1   3
ATOM      3  N   UNL     1      45.489 131.957  21.779  1.00  0.00    -0.297 N 
ATOM      4  C   UNL     1      47.239 133.392  22.761  1.00  0.00     0.045 C 
ATOM      5  C   UNL     1      46.288 133.600  23.939  1.00  0.00     0.092 C 
ATOM      6  C   UNL     1      46.420 133.061  21.512  1.00  0.00     0.133 C 
ATOM      7  N   UNL     1      45.525 132.372  24.180  1.00  0.00    -0.292 NA
ATOM      8  C   UNL     1      44.685 132.008  23.022  1.00  0.00     0.193 C 
ATOM      9  H   UNL     1      44.898 132.544  25.002  1.00  0.00     0.125 HD
BRANCH   4  10
ATOM     10  C   UNL     1      48.066 134.635  22.528  1.00  0.00    -0.028 C 
ATOM     11  C   UNL     1      49.294 134.775  23.036  1.00  0.00     0.004 C 
ENDBRANCH   4  10
BRANCH   8  12
ATOM     12  C   UNL     1      44.035 130.666  23.304  1.00  0.00     0.056 A 
ATOM     13  C   UNL     1      44.762 129.456  23.118  1.00  0.00     0.317 A 
ATOM     14  C   UNL     1      42.700 130.600  23.769  1.00  0.00     0.053 A 
ATOM     15  N   UNL     1      44.181 128.244  23.384  1.00  0.00    -0.177 N 
ATOM     16  C   UNL     1      42.162 129.341  23.999  1.00  0.00     0.179 A 
ATOM     17  C   UNL     1      42.896 128.218  23.814  1.00  0.00     0.399 A 
ATOM     18  N   UNL     1      40.926 129.018  24.413  1.00  0.00    -0.209 NA
ATOM     19  O   UNL     1      42.171 127.173  24.101  1.00  0.00    -0.391 OA
ATOM     20  C   UNL     1      40.989 127.657  24.459  1.00  0.00     0.316 A 
ATOM     21  H   UNL     1      44.716 127.356  23.248  1.00  0.00     0.457 HD
ENDBRANCH   8  12
ENDBRANCH   1   3
BRANCH   1  22
ATOM     22  N   UNL     1      45.872 130.811  19.596  1.00  0.00    -0.254 N 
ATOM     23  H   UNL     1      46.777 131.338  19.645  1.00  0.00     0.360 HD
ATOM     24  H   UNL     1      46.094 129.802  19.761  1.00  0.00     0.360 HD
BRANCH  22  25
ATOM     25  C   UNL     1      45.271 130.966  18.293  1.00  0.00     0.175 A 
ATOM     26  C   UNL     1      44.052 131.660  18.154  1.00  0.00     0.112 A 
ATOM     27  C   UNL     1      45.886 130.424  17.142  1.00  0.00     0.185 A 
ATOM     28  C   UNL     1      43.465 131.817  16.894  1.00  0.00     0.147 A 
ATOM     29  C   UNL     1      45.304 130.598  15.883  1.00  0.00     0.069 A 
ATOM     30  C   UNL     1      44.098 131.296  15.756  1.00  0.00     0.080 A 
ATOM     31  F   UNL     1      47.039 129.713  17.238  1.00  0.00    -0.200 F 
ATOM     32  F   UNL     1      42.275 132.464  16.780  1.00  0.00    -0.205 F 
ATOM     33  Cl  UNL     1      43.381 131.507  14.168  1.00  0.00    -0.081 Cl
ENDBRANCH  22  25
ENDBRANCH   1  22
TORSDOF 5
ENDMDL
MODEL 8
REMARK VINA RESULT:      -2.6      4.369      7.519
REMARK SMILES C=C[C@H]1CN[C@H](c2c[nH+]c3ocnc3c2)N(C(=S)[NH2+]c2cc(F)c(Cl)cc2F)C1
REMARK SMILES IDX 17 1 18 2 16 3 3 4 4 5 29 6 5 7 6 8 2 10 1 11 7 12 8 13
REMARK SMILES IDX 15 14 9 15 14 16 10 17 13 18 11 19 12 20 19 22 20 25 21 26
REMARK SMILES IDX 27 27 22 28 26 29 24 30 28 31 23 32 25 33
REMARK H PARENT 5 9 9 21 19 23 19 24
ROOT
ATOM      1  C   UNL     1      45.022 130.972  20.735  1.00  0.00     0.275 C 
ATOM      2  S   UNL     1      43.444 131.085  20.284  1.00  0.00     0.004 S 
ENDROOT
BRANCH   1   3
ATOM      3  N   UNL     1      45.488 131.747  21.859  1.00  0.00    -0.297 N 
ATOM      4  C   UNL     1      47.266 133.144  22.845  1.00  0.00     0.045 C 
ATOM      5  C   UNL     1      46.229 133.586  23.877  1.00  0.00     0.092 C 
ATOM      6  C   UNL     1      46.546 132.722  21.563  1.00  0.00     0.133 C 
ATOM      7  N   UNL     1      45.328 132.471  24.180  1.00  0.00    -0.292 NA
ATOM      8  C   UNL     1      44.573 132.031  22.989  1.00  0.00     0.193 C 
ATOM      9  H   UNL     1      44.642 132.805  24.900  1.00  0.00     0.125 HD
BRANCH   4  10
ATOM     10  C   UNL     1      48.232 134.269  22.555  1.00  0.00    -0.028 C 
ATOM     11  C   UNL     1      48.898 134.900  23.526  1.00  0.00     0.004 C 
ENDBRANCH   4  10
BRANCH   8  12
ATOM     12  C   UNL     1      43.769 130.800  23.360  1.00  0.00     0.056 A 
ATOM     13  C   UNL     1      42.345 130.836  23.357  1.00  0.00     0.317 A 
ATOM     14  C   UNL     1      44.424 129.593  23.703  1.00  0.00     0.053 A 
ATOM     15  N   UNL     1      41.618 129.721  23.680  1.00  0.00    -0.177 N 
ATOM     16  C   UNL     1      43.629 128.506  24.043  1.00  0.00     0.179 A 
ATOM     17  C   UNL     1      42.278 128.587  24.018  1.00  0.00     0.399 A 
ATOM     18  N   UNL     1      44.008 127.275  24.424  1.00  0.00    -0.209 NA
ATOM     19  O   UNL     1      41.767 127.440  24.369  1.00  0.00    -0.391 OA
ATOM     20  C   UNL     1      42.808 126.655  24.613  1.00  0.00     0.316 A 
ATOM     21  H   UNL     1      40.572 129.749  23.676  1.00  0.00     0.457 HD
ENDBRANCH   8  12
ENDBRANCH   1   3
BRANCH   1  22
ATOM     22  N   UNL     1      45.971 130.340  19.855  1.00  0.00    -0.254 N 
ATOM     23  H   UNL     1      46.927 130.740  20.012  1.00  0.00     0.360 HD
ATOM     24  H   UNL     1      46.025 129.318  20.071  1.00  0.00     0.360 HD
BRANCH  22  25
ATOM     25  C   UNL     1      45.568 130.525  18.481  1.00  0.00     0.175 A 
ATOM     26  C   UNL     1      45.623 129.446  17.577  1.00  0.00     0.112 A 
ATOM     27  C   UNL     1      45.121 131.784  18.021  1.00  0.00     0.185 A 
ATOM     28  C   UNL     1      45.231 129.618  16.245  1.00  0.00     0.147 A 
ATOM     29  C   UNL     1      44.714 131.946  16.693  1.00  0.00     0.069 A 
ATOM     30  C   UNL     1      44.765 130.865  15.806  1.00  0.00     0.080 A 
ATOM     31  F   UNL     1      45.092 132.859  18.851  1.00  0.00    -0.200 F 
ATOM     32  F   UNL     1      45.317 128.575  15.377  1.00  0.00    -0.205 F 
ATOM     33  Cl  UNL     1      44.250 131.085  14.142  1.00  0.00    -0.081 Cl
ENDBRANCH  22  25
ENDBRANCH   1  22
TORSDOF 5
ENDMDL
MODEL 9
REMARK VINA RESULT:      -2.0      4.355      7.531
REMARK SMILES C=C[C@H]1CN[C@H](c2c[nH+]c3ocnc3c2)N(C(=S)[NH2+]c2cc(F)c(Cl)cc2F)C1
REMARK SMILES IDX 17 1 18 2 16 3 3 4 4 5 29 6 5 7 6 8 2 10 1 11 7 12 8 13
REMARK SMILES IDX 15 14 9 15 14 16 10 17 13 18 11 19 12 20 19 22 20 25 21 26
REMARK SMILES IDX 27 27 22 28 26 29 24 30 28 31 23 32 25 33
REMARK H PARENT 5 9 9 21 19 23 19 24
ROOT
ATOM      1  C   UNL     1      44.030 131.821  20.666  1.00  0.00     0.275 C 
ATOM      2  S   UNL     1      42.963 132.903  20.037  1.00  0.00     0.004 S 
ENDROOT
BRANCH   1   3
ATOM      3  N   UNL     1      44.949 132.254  21.689  1.00  0.00    -0.297 N 
ATOM      4  C   UNL     1      47.159 133.193  22.257  1.00  0.00     0.045 C 
ATOM      5  C   UNL     1      46.587 133.474  23.647  1.00  0.00     0.092 C 
ATOM      6  C   UNL     1      46.013 133.163  21.244  1.00  0.00     0.133 C 
ATOM      7  N   UNL     1      45.648 132.413  24.018  1.00  0.00    -0.292 NA
ATOM      8  C   UNL     1      44.496 132.347  23.097  1.00  0.00     0.193 C 
ATOM      9  H   UNL     1      45.289 132.629  24.979  1.00  0.00     0.125 HD
BRANCH   4  10
ATOM     10  C   UNL     1      48.164 134.255  21.878  1.00  0.00    -0.028 C 
ATOM     11  C   UNL     1      48.970 134.823  22.780  1.00  0.00     0.004 C 
ENDBRANCH   4  10
BRANCH   8  12
ATOM     12  C   UNL     1      43.648 131.147  23.475  1.00  0.00     0.056 A 
ATOM     13  C   UNL     1      42.292 131.315  23.875  1.00  0.00     0.317 A 
ATOM     14  C   UNL     1      44.192 129.841  23.424  1.00  0.00     0.053 A 
ATOM     15  N   UNL     1      41.522 130.232  24.205  1.00  0.00    -0.177 N 
ATOM     16  C   UNL     1      43.366 128.788  23.793  1.00  0.00     0.179 A 
ATOM     17  C   UNL     1      42.079 128.997  24.159  1.00  0.00     0.399 A 
ATOM     18  N   UNL     1      43.651 127.476  23.851  1.00  0.00    -0.209 NA
ATOM     19  O   UNL     1      41.519 127.856  24.450  1.00  0.00    -0.391 OA
ATOM     20  C   UNL     1      42.466 126.946  24.265  1.00  0.00     0.316 A 
ATOM     21  H   UNL     1      40.525 130.356  24.497  1.00  0.00     0.457 HD
ENDBRANCH   8  12
ENDBRANCH   1   3
BRANCH   1  22
ATOM     22  N   UNL     1      44.231 130.555  20.009  1.00  0.00    -0.254 N 
ATOM     23  H   UNL     1      45.026 130.041  20.458  1.00  0.00     0.360 HD
ATOM     24  H   UNL     1      43.378 129.960  20.119  1.00  0.00     0.360 HD
BRANCH  22  25
ATOM     25  C   UNL     1      44.497 130.765  18.606  1.00  0.00     0.175 A 
ATOM     26  C   UNL     1      45.754 130.428  18.065  1.00  0.00     0.112 A 
ATOM     27  C   UNL     1      43.510 131.314  17.757  1.00  0.00     0.185 A 
ATOM     28  C   UNL     1      46.016 130.627  16.705  1.00  0.00     0.147 A 
ATOM     29  C   UNL     1      43.772 131.495  16.395  1.00  0.00     0.069 A 
ATOM     30  C   UNL     1      45.020 131.149  15.867  1.00  0.00     0.080 A 
ATOM     31  F   UNL     1      42.300 131.691  18.247  1.00  0.00    -0.200 F 
ATOM     32  F   UNL     1      47.243 130.324  16.204  1.00  0.00    -0.205 F 
ATOM     33  Cl  UNL     1      45.332 131.380  14.155  1.00  0.00    -0.081 Cl
ENDBRANCH  22  25
ENDBRANCH   1  22
TORSDOF 5
ENDMDL


