REMARK SMILES [O-]c1ccc(-c2cc3cc(/N=C4/[CH]C=CC4)ncc3[nH+]c2Cl)cc1
REMARK SMILES IDX 10 1 17 2 18 3 19 4 8 5 9 6 7 7 6 8 21 9 22 10 20 11 11 13
REMARK SMILES IDX 12 14 13 15 14 16 15 17 16 18 5 19 4 20 23 21 3 22 24 23
REMARK SMILES IDX 2 24 1 25
REMARK H PARENT 20 12
ROOT
ATOM      1  C   UNL     1      -1.779   0.718   0.790  1.00  0.00     0.152 A 
ATOM      2  N   UNL     1      -1.493   2.011   0.468  1.00  0.00    -0.230 NA
ATOM      3  C   UNL     1      -0.778   2.342  -0.639  1.00  0.00     0.193 A 
ATOM      4  C   UNL     1      -0.308   1.339  -1.496  1.00  0.00     0.230 A 
ATOM      5  C   UNL     1      -0.588  -0.006  -1.188  1.00  0.00     0.052 A 
ATOM      6  C   UNL     1      -1.327  -0.315  -0.039  1.00  0.00     0.064 A 
ATOM      7  C   UNL     1      -0.120  -1.010  -2.041  1.00  0.00     0.032 A 
ATOM      8  C   UNL     1       0.612  -0.677  -3.190  1.00  0.00     0.067 A 
ATOM      9  C   UNL     1       0.879   0.684  -3.454  1.00  0.00     0.281 A 
ATOM     10  Cl  UNL     1       1.865   1.176  -4.830  1.00  0.00    -0.010 Cl
ATOM     11  N   UNL     1       0.415   1.648  -2.610  1.00  0.00    -0.193 N 
ATOM     12  H   UNL     1       0.629   2.649  -2.826  1.00  0.00     0.455 HD
ENDROOT
BRANCH   1  13
ATOM     13  N   UNL     1      -2.536   0.384   1.965  1.00  0.00    -0.237 NA
BRANCH  13  14
ATOM     14  C   UNL     1      -3.036   1.196   2.851  1.00  0.00     0.032 C 
ATOM     15  C   UNL     1      -3.800   0.701   4.027  1.00  0.00     0.069 C 
ATOM     16  C   UNL     1      -4.145   1.974   4.720  1.00  0.00    -0.020 C 
ATOM     17  C   UNL     1      -3.674   3.044   4.086  1.00  0.00    -0.025 C 
ATOM     18  C   UNL     1      -2.926   2.687   2.849  1.00  0.00     0.079 C 
ENDBRANCH  13  14
ENDBRANCH   1  13
BRANCH   8  19
ATOM     19  C   UNL     1       1.083  -1.757  -4.086  1.00  0.00    -0.011 A 
ATOM     20  C   UNL     1       0.713  -1.772  -5.442  1.00  0.00     0.008 A 
ATOM     21  C   UNL     1       1.873  -2.801  -3.578  1.00  0.00     0.008 A 
ATOM     22  C   UNL     1       1.146  -2.805  -6.279  1.00  0.00    -0.008 A 
ATOM     23  C   UNL     1       2.305  -3.832  -4.418  1.00  0.00    -0.008 A 
ATOM     24  C   UNL     1       1.943  -3.834  -5.768  1.00  0.00    -0.109 A 
ATOM     25  O   UNL     1       2.373  -4.860  -6.601  1.00  0.00    -0.872 OA
ENDBRANCH   8  19
TORSDOF 3


