REMARK SMILES C=Cc1cc(-c2ccc(C(C)=O)cc2)c(F)cc1O
REMARK SMILES IDX 3 1 4 2 5 3 15 4 16 5 17 6 18 7 2 8 1 9 19 10 6 12 7 13
REMARK SMILES IDX 14 14 8 15 13 16 9 17 10 18 11 19 12 20
REMARK H PARENT 19 11
ROOT
ATOM      1  C   UNL     1      -2.708   0.588   1.093  1.00  0.00     0.016 A 
ATOM      2  C   UNL     1      -1.695   0.584   0.113  1.00  0.00     0.023 A 
ATOM      3  C   UNL     1      -0.353   0.818   0.458  1.00  0.00     0.018 A 
ATOM      4  C   UNL     1      -0.024   1.057   1.804  1.00  0.00     0.134 A 
ATOM      5  F   UNL     1       1.255   1.330   2.170  1.00  0.00    -0.206 F 
ATOM      6  C   UNL     1      -1.019   1.047   2.783  1.00  0.00     0.086 A 
ATOM      7  C   UNL     1      -2.355   0.810   2.438  1.00  0.00     0.125 A 
ENDROOT
BRANCH   1   8
ATOM      8  C   UNL     1      -4.129   0.325   0.745  1.00  0.00     0.004 C 
ATOM      9  C   UNL     1      -4.649   0.545  -0.463  1.00  0.00     0.009 C 
ENDBRANCH   1   8
BRANCH   7  10
ATOM     10  O   UNL     1      -3.335   0.806   3.432  1.00  0.00    -0.507 OA
ATOM     11  H   UNL     1      -3.105   0.966   4.406  1.00  0.00     0.293 HD
ENDBRANCH   7  10
BRANCH   3  12
ATOM     12  C   UNL     1       0.694   0.808  -0.593  1.00  0.00    -0.015 A 
ATOM     13  C   UNL     1       1.884   0.086  -0.410  1.00  0.00     0.009 A 
ATOM     14  C   UNL     1       0.500   1.507  -1.794  1.00  0.00     0.009 A 
ATOM     15  C   UNL     1       2.866   0.071  -1.405  1.00  0.00     0.012 A 
ATOM     16  C   UNL     1       1.481   1.494  -2.790  1.00  0.00     0.012 A 
ATOM     17  C   UNL     1       2.678   0.777  -2.609  1.00  0.00     0.017 A 
BRANCH  17  18
ATOM     18  C   UNL     1       3.713   0.772  -3.678  1.00  0.00     0.159 C 
ATOM     19  C   UNL     1       5.005   0.026  -3.529  1.00  0.00     0.093 C 
ATOM     20  O   UNL     1       3.511   1.411  -4.747  1.00  0.00    -0.295 OA
ENDBRANCH  17  18
ENDBRANCH   3  12
TORSDOF 4


