MODEL 1
REMARK VINA RESULT:      -9.5      0.000      0.000
REMARK SMILES Cc1ccc(-c2cc([O-])c(F)c(C(=O)[O-])c2)c2ocnc12
REMARK SMILES IDX 6 1 7 2 8 3 9 4 10 5 11 6 12 7 16 8 5 9 2 10 3 11 21 12 4 13
REMARK SMILES IDX 20 14 17 15 19 16 18 17 1 18 13 19 14 20 15 21
REMARK H PARENT
ROOT
ATOM      1  C   UNL     1      44.907 131.151  16.962  1.00  0.00    -0.014 A 
ATOM      2  C   UNL     1      43.826 131.558  16.163  1.00  0.00     0.003 A 
ATOM      3  C   UNL     1      43.927 131.535  14.771  1.00  0.00    -0.071 A 
ATOM      4  O   UNL     1      42.847 131.939  13.996  1.00  0.00    -0.870 OA
ATOM      5  C   UNL     1      45.107 131.106  14.155  1.00  0.00     0.124 A 
ATOM      6  F   UNL     1      45.170 131.097  12.800  1.00  0.00    -0.207 F 
ATOM      7  C   UNL     1      46.205 130.690  14.936  1.00  0.00     0.033 A 
ATOM      8  C   UNL     1      46.090 130.716  16.340  1.00  0.00     0.021 A 
ENDROOT
BRANCH   1   9
ATOM      9  C   UNL     1      44.800 131.171  18.442  1.00  0.00     0.027 A 
ATOM     10  C   UNL     1      44.575 131.228  21.289  1.00  0.00    -0.021 A 
ATOM     11  C   UNL     1      45.704 130.654  20.668  1.00  0.00     0.006 A 
ATOM     12  C   UNL     1      43.580 131.744  20.455  1.00  0.00     0.113 A 
ATOM     13  C   UNL     1      45.820 130.632  19.260  1.00  0.00     0.013 A 
ATOM     14  N   UNL     1      42.423 132.330  20.812  1.00  0.00    -0.216 NA
ATOM     15  C   UNL     1      43.691 131.720  19.096  1.00  0.00     0.162 A 
ATOM     16  C   UNL     1      41.876 132.645  19.611  1.00  0.00     0.309 A 
ATOM     17  O   UNL     1      42.630 132.287  18.586  1.00  0.00    -0.443 OA
ATOM     18  C   UNL     1      44.422 131.229  22.781  1.00  0.00     0.047 C 
ENDBRANCH   1   9
BRANCH   7  19
ATOM     19  C   UNL     1      47.468 130.232  14.306  1.00  0.00     0.074 C 
ATOM     20  O   UNL     1      47.988 129.135  14.643  1.00  0.00    -0.545 OA
ATOM     21  O   UNL     1      48.100 131.000  13.335  1.00  0.00    -0.545 OA
ENDBRANCH   7  19
TORSDOF 2
ENDMDL
MODEL 2
REMARK VINA RESULT:      -7.7      3.291      6.339
REMARK SMILES Cc1ccc(-c2cc([O-])c(F)c(C(=O)[O-])c2)c2ocnc12
REMARK SMILES IDX 6 1 7 2 8 3 9 4 10 5 11 6 12 7 16 8 5 9 2 10 3 11 21 12 4 13
REMARK SMILES IDX 20 14 17 15 19 16 18 17 1 18 13 19 14 20 15 21
REMARK H PARENT
ROOT
ATOM      1  C   UNL     1      44.259 131.258  18.728  1.00  0.00    -0.014 A 
ATOM      2  C   UNL     1      43.112 132.063  18.645  1.00  0.00     0.003 A 
ATOM      3  C   UNL     1      42.411 132.417  19.800  1.00  0.00    -0.071 A 
ATOM      4  O   UNL     1      41.280 133.217  19.700  1.00  0.00    -0.870 OA
ATOM      5  C   UNL     1      42.845 131.973  21.053  1.00  0.00     0.124 A 
ATOM      6  F   UNL     1      42.139 132.337  22.154  1.00  0.00    -0.207 F 
ATOM      7  C   UNL     1      43.996 131.166  21.162  1.00  0.00     0.033 A 
ATOM      8  C   UNL     1      44.695 130.817  19.989  1.00  0.00     0.021 A 
ENDROOT
BRANCH   1   9
ATOM      9  C   UNL     1      45.008 130.883  17.503  1.00  0.00     0.027 A 
ATOM     10  C   UNL     1      46.425 130.166  15.128  1.00  0.00    -0.021 A 
ATOM     11  C   UNL     1      46.950 129.856  16.400  1.00  0.00     0.006 A 
ATOM     12  C   UNL     1      45.205 130.846  15.088  1.00  0.00     0.113 A 
ATOM     13  C   UNL     1      46.246 130.203  17.575  1.00  0.00     0.013 A 
ATOM     14  N   UNL     1      44.517 131.249  14.004  1.00  0.00    -0.216 NA
ATOM     15  C   UNL     1      44.528 131.183  16.222  1.00  0.00     0.162 A 
ATOM     16  C   UNL     1      43.420 131.825  14.556  1.00  0.00     0.309 A 
ATOM     17  O   UNL     1      43.420 131.786  15.877  1.00  0.00    -0.443 OA
ATOM     18  C   UNL     1      47.177 129.834  13.874  1.00  0.00     0.047 C 
ENDBRANCH   1   9
BRANCH   7  19
ATOM     19  C   UNL     1      44.475 130.682  22.480  1.00  0.00     0.074 C 
ATOM     20  O   UNL     1      44.579 131.477  23.453  1.00  0.00    -0.545 OA
ATOM     21  O   UNL     1      44.816 129.348  22.669  1.00  0.00    -0.545 OA
ENDBRANCH   7  19
TORSDOF 2
ENDMDL
MODEL 3
REMARK VINA RESULT:      -7.1      1.328      2.086
REMARK SMILES Cc1ccc(-c2cc([O-])c(F)c(C(=O)[O-])c2)c2ocnc12
REMARK SMILES IDX 6 1 7 2 8 3 9 4 10 5 11 6 12 7 16 8 5 9 2 10 3 11 21 12 4 13
REMARK SMILES IDX 20 14 17 15 19 16 18 17 1 18 13 19 14 20 15 21
REMARK H PARENT
ROOT
ATOM      1  C   UNL     1      44.178 131.425  16.924  1.00  0.00    -0.014 A 
ATOM      2  C   UNL     1      43.301 131.772  15.885  1.00  0.00     0.003 A 
ATOM      3  C   UNL     1      43.686 131.618  14.552  1.00  0.00    -0.071 A 
ATOM      4  O   UNL     1      42.805 131.965  13.536  1.00  0.00    -0.870 OA
ATOM      5  C   UNL     1      44.953 131.116  14.237  1.00  0.00     0.124 A 
ATOM      6  F   UNL     1      45.294 130.980  12.931  1.00  0.00    -0.207 F 
ATOM      7  C   UNL     1      45.851 130.757  15.264  1.00  0.00     0.033 A 
ATOM      8  C   UNL     1      45.448 130.915  16.605  1.00  0.00     0.021 A 
ENDROOT
BRANCH   1   9
ATOM      9  C   UNL     1      43.769 131.584  18.342  1.00  0.00     0.027 A 
ATOM     10  C   UNL     1      42.999 131.871  21.078  1.00  0.00    -0.021 A 
ATOM     11  C   UNL     1      42.145 132.304  20.042  1.00  0.00     0.006 A 
ATOM     12  C   UNL     1      44.227 131.318  20.706  1.00  0.00     0.113 A 
ATOM     13  C   UNL     1      42.522 132.155  18.687  1.00  0.00     0.013 A 
ATOM     14  N   UNL     1      45.198 130.844  21.508  1.00  0.00    -0.216 NA
ATOM     15  C   UNL     1      44.591 131.178  19.400  1.00  0.00     0.162 A 
ATOM     16  C   UNL     1      46.130 130.423  20.615  1.00  0.00     0.309 A 
ATOM     17  O   UNL     1      45.771 130.617  19.358  1.00  0.00    -0.443 OA
ATOM     18  C   UNL     1      42.628 132.052  22.520  1.00  0.00     0.047 C 
ENDBRANCH   1   9
BRANCH   7  19
ATOM     19  C   UNL     1      47.200 130.222  14.954  1.00  0.00     0.074 C 
ATOM     20  O   UNL     1      47.761 129.411  15.739  1.00  0.00    -0.545 OA
ATOM     21  O   UNL     1      47.869 130.603  13.798  1.00  0.00    -0.545 OA
ENDBRANCH   7  19
TORSDOF 2
ENDMDL


