REMARK SMILES C=Cc1cccc(-c2ccc3c(c2)[C@H](N)CC3)c1
REMARK SMILES IDX 8 1 9 2 10 3 11 4 12 5 13 6 14 7 16 8 17 9 7 10 3 11 4 12
REMARK SMILES IDX 18 13 5 14 6 15 2 16 1 17 15 18
REMARK H PARENT 15 19 15 20
ROOT
ATOM      1  C   UNL     1       1.265   0.547   0.259  1.00  0.00    -0.018 A 
ATOM      2  C   UNL     1       2.633   0.190   0.189  1.00  0.00     0.009 A 
ATOM      3  C   UNL     1       3.014  -1.154   0.065  1.00  0.00     0.005 A 
ATOM      4  C   UNL     1       2.022  -2.133   0.012  1.00  0.00    -0.043 A 
ATOM      5  C   UNL     1       0.694  -1.803   0.089  1.00  0.00    -0.027 A 
ATOM      6  C   UNL     1       0.287  -0.471   0.207  1.00  0.00     0.014 A 
ATOM      7  C   UNL     1      -0.184  -3.001   0.028  1.00  0.00     0.081 C 
ATOM      8  C   UNL     1       0.803  -4.159  -0.253  1.00  0.00     0.028 C 
ATOM      9  C   UNL     1       2.229  -3.593  -0.118  1.00  0.00     0.038 C 
ENDROOT
BRANCH   1  10
ATOM     10  C   UNL     1       0.863   1.970   0.388  1.00  0.00    -0.018 A 
ATOM     11  C   UNL     1      -0.633   3.814  -0.212  1.00  0.00    -0.026 A 
ATOM     12  C   UNL     1       0.106   4.667   0.631  1.00  0.00     0.008 A 
ATOM     13  C   UNL     1      -0.237   2.470  -0.333  1.00  0.00     0.016 A 
ATOM     14  C   UNL     1       1.200   4.177   1.347  1.00  0.00     0.001 A 
ATOM     15  C   UNL     1       1.576   2.839   1.231  1.00  0.00     0.009 A 
BRANCH  11  16
ATOM     16  C   UNL     1      -1.795   4.285  -1.006  1.00  0.00     0.000 C 
ATOM     17  C   UNL     1      -2.466   5.410  -0.759  1.00  0.00     0.009 C 
ENDBRANCH  11  16
ENDBRANCH   1  10
BRANCH   7  18
ATOM     18  N   UNL     1      -0.867  -3.196   1.306  1.00  0.00    -0.324 NA
ATOM     19  H   UNL     1      -1.465  -4.051   1.225  1.00  0.00     0.119 HD
ATOM     20  H   UNL     1      -1.529  -2.399   1.450  1.00  0.00     0.119 HD
ENDBRANCH   7  18
TORSDOF 3


