REMARK SMILES C[C@@H]1CCc2ccc(-c3cccnc3F)nc2[C@@H]1F
REMARK SMILES IDX 1 1 2 2 3 3 4 4 5 5 6 6 7 7 8 8 16 9 17 10 18 11 19 12 9 13
REMARK SMILES IDX 10 14 14 15 11 16 13 17 12 18 15 19
REMARK H PARENT
ROOT
ATOM      1  C   UNL     1       1.383  -0.554   4.301  1.00  0.00     0.011 C 
ATOM      2  C   UNL     1       0.241  -0.424   3.285  1.00  0.00     0.027 C 
ATOM      3  C   UNL     1      -0.549  -1.738   3.180  1.00  0.00     0.011 C 
ATOM      4  C   UNL     1      -1.782  -1.552   2.288  1.00  0.00     0.038 C 
ATOM      5  C   UNL     1      -1.469  -0.833   0.998  1.00  0.00    -0.023 A 
ATOM      6  C   UNL     1      -2.402  -0.860  -0.046  1.00  0.00     0.008 A 
ATOM      7  C   UNL     1      -2.167  -0.143  -1.220  1.00  0.00     0.029 A 
ATOM      8  C   UNL     1      -0.994   0.618  -1.345  1.00  0.00     0.075 A 
ATOM      9  N   UNL     1      -0.104   0.635  -0.315  1.00  0.00    -0.249 NA
ATOM     10  C   UNL     1      -0.308  -0.044   0.847  1.00  0.00     0.079 A 
ATOM     11  C   UNL     1       0.772  -0.016   1.897  1.00  0.00     0.218 C 
ATOM     12  F   UNL     1       1.790  -0.867   1.498  1.00  0.00    -0.240 F 
ENDROOT
BRANCH   8  13
ATOM     13  C   UNL     1      -0.702   1.394  -2.577  1.00  0.00     0.055 A 
ATOM     14  C   UNL     1      -1.738   1.992  -3.319  1.00  0.00     0.017 A 
ATOM     15  C   UNL     1       0.623   1.574  -3.022  1.00  0.00     0.222 A 
ATOM     16  C   UNL     1      -1.446   2.729  -4.467  1.00  0.00     0.021 A 
ATOM     17  N   UNL     1       0.876   2.296  -4.146  1.00  0.00    -0.228 NA
ATOM     18  C   UNL     1      -0.119   2.871  -4.870  1.00  0.00     0.114 A 
ATOM     19  F   UNL     1       1.663   1.010  -2.358  1.00  0.00    -0.184 F 
ENDBRANCH   8  13
TORSDOF 1


