REMARK SMILES C=C[C@H]1CN[C@H](c2c[nH+]c3ocnc3c2)N(C(=S)[NH2+]c2cc(F)c(Cl)cc2F)C1
REMARK SMILES IDX 17 1 18 2 16 3 3 4 4 5 29 6 5 7 6 8 2 10 1 11 7 12 8 13
REMARK SMILES IDX 15 14 9 15 14 16 10 17 13 18 11 19 12 20 19 22 20 25 21 26
REMARK SMILES IDX 27 27 22 28 26 29 24 30 28 31 23 32 25 33
REMARK H PARENT 5 9 9 21 19 23 19 24
ROOT
ATOM      1  C   UNL     1      -0.051   1.712  -0.193  1.00  0.00     0.275 C 
ATOM      2  S   UNL     1      -0.318   3.235   0.365  1.00  0.00     0.004 S 
ENDROOT
BRANCH   1   3
ATOM      3  N   UNL     1       0.371   0.684   0.724  1.00  0.00    -0.297 N 
ATOM      4  C   UNL     1      -0.622  -1.031   2.206  1.00  0.00     0.045 C 
ATOM      5  C   UNL     1       0.529  -1.913   1.653  1.00  0.00     0.092 C 
ATOM      6  C   UNL     1      -0.347   0.473   1.986  1.00  0.00     0.133 C 
ATOM      7  N   UNL     1       1.766  -1.140   1.488  1.00  0.00    -0.292 NA
ATOM      8  C   UNL     1       1.581  -0.112   0.450  1.00  0.00     0.193 C 
ATOM      9  H   UNL     1       2.514  -1.798   1.165  1.00  0.00     0.125 HD
BRANCH   4  10
ATOM     10  C   UNL     1      -1.945  -1.431   1.591  1.00  0.00    -0.028 C 
ATOM     11  C   UNL     1      -2.487  -2.632   1.815  1.00  0.00     0.004 C 
ENDBRANCH   4  10
BRANCH   8  12
ATOM     12  C   UNL     1       2.789   0.795   0.412  1.00  0.00     0.056 A 
ATOM     13  C   UNL     1       3.241   1.449   1.594  1.00  0.00     0.317 A 
ATOM     14  C   UNL     1       3.450   1.054  -0.812  1.00  0.00     0.053 A 
ATOM     15  N   UNL     1       4.303   2.312   1.551  1.00  0.00    -0.177 N 
ATOM     16  C   UNL     1       4.519   1.941  -0.789  1.00  0.00     0.179 A 
ATOM     17  C   UNL     1       4.912   2.536   0.361  1.00  0.00     0.399 A 
ATOM     18  N   UNL     1       5.292   2.357  -1.809  1.00  0.00    -0.209 NA
ATOM     19  O   UNL     1       5.923   3.325   0.116  1.00  0.00    -0.391 OA
ATOM     20  C   UNL     1       6.147   3.214  -1.187  1.00  0.00     0.316 A 
ATOM     21  H   UNL     1       4.635   2.793   2.417  1.00  0.00     0.457 HD
ENDBRANCH   8  12
ENDBRANCH   1   3
BRANCH   1  22
ATOM     22  N   UNL     1      -0.317   1.396  -1.574  1.00  0.00    -0.254 N 
ATOM     23  H   UNL     1      -0.481   2.271  -2.125  1.00  0.00     0.360 HD
ATOM     24  H   UNL     1       0.520   0.928  -1.990  1.00  0.00     0.360 HD
BRANCH  22  25
ATOM     25  C   UNL     1      -1.492   0.561  -1.663  1.00  0.00     0.175 A 
ATOM     26  C   UNL     1      -2.764   1.108  -1.403  1.00  0.00     0.112 A 
ATOM     27  C   UNL     1      -1.393  -0.810  -1.988  1.00  0.00     0.185 A 
ATOM     28  C   UNL     1      -3.908   0.304  -1.448  1.00  0.00     0.147 A 
ATOM     29  C   UNL     1      -2.540  -1.609  -2.033  1.00  0.00     0.069 A 
ATOM     30  C   UNL     1      -3.796  -1.057  -1.759  1.00  0.00     0.080 A 
ATOM     31  F   UNL     1      -0.193  -1.371  -2.280  1.00  0.00    -0.200 F 
ATOM     32  F   UNL     1      -5.121   0.850  -1.182  1.00  0.00    -0.205 F 
ATOM     33  Cl  UNL     1      -5.224  -2.078  -1.805  1.00  0.00    -0.081 Cl
ENDBRANCH  22  25
ENDBRANCH   1  22
TORSDOF 5


