REMARK SMILES C=C/C=C(\O)Nc1ccc(-c2ccc(C)cc2)cc1C=O
REMARK SMILES IDX 4 1 5 2 3 4 2 5 1 6 6 7 7 9 8 10 19 11 9 12 18 13 10 14
REMARK SMILES IDX 20 15 21 16 11 17 12 18 17 19 13 20 16 21 14 22 15 23
REMARK H PARENT 5 3 6 8
ROOT
ATOM      1  C   UNL     1      -1.975   0.861  -3.413  1.00  0.00     0.188 C 
ENDROOT
BRANCH   1   2
ATOM      2  O   UNL     1      -2.160   0.654  -4.783  1.00  0.00    -0.495 OA
ATOM      3  H   UNL     1      -3.059   0.520  -5.225  1.00  0.00     0.295 HD
ENDBRANCH   1   2
BRANCH   1   4
ATOM      4  C   UNL     1      -2.998   0.830  -2.535  1.00  0.00     0.065 C 
BRANCH   4   5
ATOM      5  C   UNL     1      -4.392   0.482  -2.882  1.00  0.00    -0.002 C 
ATOM      6  C   UNL     1      -5.361   0.576  -1.976  1.00  0.00     0.009 C 
ENDBRANCH   4   5
ENDBRANCH   1   4
BRANCH   1   7
ATOM      7  N   UNL     1      -0.640   1.159  -2.966  1.00  0.00    -0.326 N 
ATOM      8  H   UNL     1       0.046   1.481  -3.684  1.00  0.00     0.170 HD
BRANCH   7   9
ATOM      9  C   UNL     1      -0.149   0.895  -1.640  1.00  0.00     0.051 A 
ATOM     10  C   UNL     1      -0.407  -0.351  -1.046  1.00  0.00     0.027 A 
ATOM     11  C   UNL     1       0.662   1.834  -0.957  1.00  0.00     0.038 A 
ATOM     12  C   UNL     1       0.118  -0.668   0.206  1.00  0.00     0.011 A 
ATOM     13  C   UNL     1       1.197   1.496   0.298  1.00  0.00     0.022 A 
ATOM     14  C   UNL     1       0.930   0.250   0.890  1.00  0.00    -0.018 A 
BRANCH  11  15
ATOM     15  C   UNL     1       0.947   3.188  -1.487  1.00  0.00     0.262 C 
ATOM     16  O   UNL     1       0.309   3.669  -2.460  1.00  0.00    -0.298 OA
ENDBRANCH  11  15
BRANCH  14  17
ATOM     17  C   UNL     1       1.496  -0.092   2.221  1.00  0.00    -0.018 A 
ATOM     18  C   UNL     1       2.819   0.256   2.546  1.00  0.00     0.009 A 
ATOM     19  C   UNL     1       0.715  -0.764   3.178  1.00  0.00     0.009 A 
ATOM     20  C   UNL     1       3.351  -0.066   3.798  1.00  0.00     0.004 A 
ATOM     21  C   UNL     1       1.247  -1.084   4.430  1.00  0.00     0.004 A 
ATOM     22  C   UNL     1       2.573  -0.751   4.742  1.00  0.00    -0.051 A 
ATOM     23  C   UNL     1       3.131  -1.061   6.100  1.00  0.00     0.044 C 
ENDBRANCH  14  17
ENDBRANCH   7   9
ENDBRANCH   1   7
TORSDOF 7


