REMARK SMILES CCC[C@@H]([NH3+])/C=C(\O)N1CC[C@H](C)[C@H](c2cc3cc(F)ccc3[nH]2)[C@@H]1F
REMARK SMILES IDX 6 1 7 2 8 3 9 5 10 6 25 7 11 8 14 9 12 10 26 11 13 12 15 13
REMARK SMILES IDX 16 14 24 15 17 16 23 17 18 18 22 19 19 20 21 21 20 23 4 24
REMARK SMILES IDX 3 25 2 26 1 27 5 28
REMARK H PARENT 8 4 24 22 5 29 5 30 5 31
ROOT
ATOM      1  C   UNL     1      -1.200   2.544  -0.135  1.00  0.00     0.102 C 
ENDROOT
BRANCH   1   2
ATOM      2  C   UNL     1      -1.079   2.167  -1.417  1.00  0.00     0.190 C 
BRANCH   2   3
ATOM      3  O   UNL     1      -1.248   3.101  -2.439  1.00  0.00    -0.495 OA
ATOM      4  H   UNL     1      -1.111   2.850  -3.411  1.00  0.00     0.295 HD
ENDBRANCH   2   3
BRANCH   2   5
ATOM      5  N   UNL     1      -0.787   0.797  -1.753  1.00  0.00    -0.313 N 
ATOM      6  C   UNL     1      -1.636   0.087  -2.716  1.00  0.00     0.123 C 
ATOM      7  C   UNL     1       0.217   0.029  -1.005  1.00  0.00     0.274 C 
ATOM      8  C   UNL     1      -0.769  -0.685  -3.716  1.00  0.00     0.026 C 
ATOM      9  C   UNL     1       1.090  -0.781  -1.989  1.00  0.00     0.094 C 
ATOM     10  C   UNL     1       0.256  -1.601  -3.012  1.00  0.00     0.001 C 
ATOM     11  F   UNL     1      -0.426  -0.783  -0.089  1.00  0.00    -0.223 F 
ATOM     12  C   UNL     1      -0.424  -2.851  -2.422  1.00  0.00     0.008 C 
BRANCH   9  13
ATOM     13  C   UNL     1       2.156  -1.603  -1.298  1.00  0.00     0.024 A 
ATOM     14  C   UNL     1       3.497  -1.627  -1.683  1.00  0.00     0.032 A 
ATOM     15  N   UNL     1       1.937  -2.457  -0.266  1.00  0.00    -0.358 N 
ATOM     16  C   UNL     1       4.098  -2.528  -0.833  1.00  0.00     0.003 A 
ATOM     17  C   UNL     1       3.130  -3.010   0.008  1.00  0.00     0.046 A 
ATOM     18  C   UNL     1       5.421  -2.958  -0.755  1.00  0.00     0.049 A 
ATOM     19  C   UNL     1       3.417  -3.960   0.987  1.00  0.00     0.029 A 
ATOM     20  C   UNL     1       5.744  -3.915   0.225  1.00  0.00     0.123 A 
ATOM     21  C   UNL     1       4.745  -4.414   1.092  1.00  0.00     0.041 A 
ATOM     22  H   UNL     1       1.034  -2.673   0.210  1.00  0.00     0.166 HD
ATOM     23  F   UNL     1       7.019  -4.362   0.337  1.00  0.00    -0.207 F 
ENDBRANCH   9  13
ENDBRANCH   2   5
ENDBRANCH   1   2
BRANCH   1  24
ATOM     24  C   UNL     1      -1.527   3.959   0.291  1.00  0.00     0.209 C 
BRANCH  24  25
ATOM     25  C   UNL     1      -2.916   4.012   0.968  1.00  0.00     0.069 C 
BRANCH  25  26
ATOM     26  C   UNL     1      -4.082   3.616   0.042  1.00  0.00     0.003 C 
ATOM     27  C   UNL     1      -4.342   4.644  -1.059  1.00  0.00     0.004 C 
ENDBRANCH  25  26
ENDBRANCH  24  25
BRANCH  24  28
ATOM     28  N   UNL     1      -0.497   4.438   1.219  1.00  0.00    -0.352 N 
ATOM     29  H   UNL     1      -0.472   3.848   2.083  1.00  0.00     0.345 HD
ATOM     30  H   UNL     1       0.441   4.405   0.755  1.00  0.00     0.345 HD
ATOM     31  H   UNL     1      -0.693   5.430   1.488  1.00  0.00     0.345 HD
ENDBRANCH  24  28
ENDBRANCH   1  24
TORSDOF 8


