REMARK SMILES [H]/N=c1\[nH]c(C(=O)N2N[C@@H](C)O[C@H]2c2ccc3cc(C)[nH]c3c2)cs1
REMARK SMILES IDX 6 1 7 2 5 3 3 4 25 5 4 6 24 7 2 9 1 10 8 11 9 12 13 13 10 14
REMARK SMILES IDX 12 15 11 17 14 18 15 19 23 20 16 21 22 22 17 23 21 24 18 25
REMARK SMILES IDX 19 26 20 28
REMARK H PARENT 4 8 9 16 21 27
ROOT
ATOM      1  C   UNL     1      -0.328   1.042   2.581  1.00  0.00     0.288 C 
ATOM      2  O   UNL     1      -1.332   0.618   3.213  1.00  0.00    -0.266 OA
ENDROOT
BRANCH   1   3
ATOM      3  C   UNL     1       1.018   0.592   2.989  1.00  0.00     0.118 A 
ATOM      4  C   UNL     1       2.550  -0.293   4.378  1.00  0.00     0.179 A 
ATOM      5  S   UNL     1       3.444  -0.039   2.983  1.00  0.00    -0.105 S 
ATOM      6  N   UNL     1       1.263   0.086   4.230  1.00  0.00    -0.327 N 
ATOM      7  C   UNL     1       2.129   0.594   2.139  1.00  0.00     0.100 A 
ATOM      8  H   UNL     1       0.542   0.005   4.983  1.00  0.00     0.169 HD
BRANCH   4   9
ATOM      9  N   UNL     1       3.029  -0.799   5.468  1.00  0.00    -0.275 NA
ATOM     10  H   UNL     1       2.430  -0.940   6.311  1.00  0.00     0.190 HD
ENDBRANCH   4   9
ENDBRANCH   1   3
BRANCH   1  11
ATOM     11  N   UNL     1      -0.518   1.946   1.478  1.00  0.00    -0.237 N 
ATOM     12  N   UNL     1       0.441   2.868   1.075  1.00  0.00    -0.201 NA
ATOM     13  C   UNL     1      -1.764   2.120   0.776  1.00  0.00     0.267 C 
ATOM     14  C   UNL     1      -0.273   3.683   0.088  1.00  0.00     0.204 C 
ATOM     15  O   UNL     1      -1.554   3.133  -0.172  1.00  0.00    -0.333 OA
ATOM     16  H   UNL     1       0.666   3.468   1.903  1.00  0.00     0.151 HD
ATOM     17  C   UNL     1       0.531   3.740  -1.205  1.00  0.00     0.058 C 
BRANCH  13  18
ATOM     18  C   UNL     1      -2.173   0.846   0.078  1.00  0.00     0.005 A 
ATOM     19  C   UNL     1      -3.488   0.337   0.240  1.00  0.00     0.009 A 
ATOM     20  C   UNL     1      -1.256   0.163  -0.755  1.00  0.00     0.035 A 
ATOM     21  C   UNL     1      -3.885  -0.846  -0.410  1.00  0.00     0.011 A 
ATOM     22  C   UNL     1      -1.683  -1.004  -1.385  1.00  0.00     0.046 A 
ATOM     23  C   UNL     1      -2.953  -1.490  -1.217  1.00  0.00    -0.000 A 
ATOM     24  N   UNL     1      -0.968  -1.800  -2.196  1.00  0.00    -0.359 N 
ATOM     25  C   UNL     1      -3.054  -2.650  -1.954  1.00  0.00     0.031 A 
ATOM     26  C   UNL     1      -1.807  -2.801  -2.554  1.00  0.00     0.013 A 
ATOM     27  H   UNL     1       0.029  -1.679  -2.482  1.00  0.00     0.166 HD
ATOM     28  C   UNL     1      -1.399  -3.959  -3.405  1.00  0.00     0.064 C 
ENDBRANCH  13  18
ENDBRANCH   1  11
TORSDOF 4


