REMARK SMILES C[C@H](COC(=O)[N-]c1cc(F)cnc1Nc1c[nH]c2nccc-2c1)c1ccccc1[N+](=O)[O-]
REMARK SMILES IDX 4 1 3 2 2 3 1 4 25 5 26 6 30 7 27 8 29 9 28 10 31 11 32 12
REMARK SMILES IDX 33 13 5 14 6 15 7 16 8 17 9 18 14 19 10 20 13 21 12 22 11 23
REMARK SMILES IDX 15 24 16 26 17 27 24 28 18 29 23 30 19 31 22 32 20 33 21 34
REMARK H PARENT 15 25 18 35
ROOT
ATOM      1  O   UNL     1      -0.398  -1.558  -1.521  1.00  0.00    -0.477 OA
ENDROOT
BRANCH   1   2
ATOM      2  C   UNL     1      -0.298  -2.979  -1.503  1.00  0.00     0.239 C 
BRANCH   2   3
ATOM      3  C   UNL     1      -1.679  -3.598  -1.223  1.00  0.00     0.061 C 
ATOM      4  C   UNL     1      -1.595  -5.117  -1.032  1.00  0.00     0.016 C 
BRANCH   3   5
ATOM      5  C   UNL     1      -2.442  -2.931  -0.077  1.00  0.00     0.036 A 
ATOM      6  C   UNL     1      -3.797  -2.608  -0.297  1.00  0.00     0.011 A 
ATOM      7  C   UNL     1      -1.869  -2.616   1.190  1.00  0.00     0.272 A 
ATOM      8  C   UNL     1      -4.550  -1.958   0.683  1.00  0.00     0.001 A 
ATOM      9  C   UNL     1      -2.639  -1.957   2.160  1.00  0.00     0.086 A 
ATOM     10  C   UNL     1      -3.970  -1.627   1.907  1.00  0.00     0.007 A 
BRANCH   7  11
ATOM     11  N   UNL     1      -0.515  -2.936   1.516  1.00  0.00     0.063 N 
ATOM     12  O   UNL     1      -0.216  -4.110   1.811  1.00  0.00    -0.258 OA
ATOM     13  O   UNL     1       0.347  -1.922   1.863  1.00  0.00    -0.258 OA
ENDBRANCH   7  11
ENDBRANCH   3   5
ENDBRANCH   2   3
ENDBRANCH   1   2
BRANCH   1  14
ATOM     14  C   UNL     1       0.707  -0.716  -1.649  1.00  0.00     0.232 C 
ATOM     15  O   UNL     1       1.871  -1.197  -1.711  1.00  0.00    -0.274 OA
BRANCH  14  16
ATOM     16  N   UNL     1       0.492   0.699  -1.652  1.00  0.00    -0.588 NA
BRANCH  16  17
ATOM     17  C   UNL     1       1.438   1.744  -1.944  1.00  0.00    -0.085 A 
ATOM     18  C   UNL     1       2.596   1.514  -2.710  1.00  0.00     0.029 A 
ATOM     19  C   UNL     1       1.152   3.064  -1.536  1.00  0.00     0.115 A 
ATOM     20  C   UNL     1       3.443   2.579  -3.036  1.00  0.00     0.140 A 
ATOM     21  N   UNL     1       1.984   4.085  -1.899  1.00  0.00    -0.237 NA
ATOM     22  C   UNL     1       3.115   3.872  -2.621  1.00  0.00     0.152 A 
ATOM     23  F   UNL     1       4.562   2.365  -3.773  1.00  0.00    -0.205 F 
BRANCH  19  24
ATOM     24  N   UNL     1      -0.034   3.366  -0.787  1.00  0.00    -0.340 N 
ATOM     25  H   UNL     1      -0.681   4.106  -1.180  1.00  0.00     0.168 HD
BRANCH  24  26
ATOM     26  C   UNL     1      -0.402   2.692   0.432  1.00  0.00     0.057 A 
ATOM     27  C   UNL     1       0.568   1.986   1.210  1.00  0.00     0.110 A 
ATOM     28  C   UNL     1      -1.741   2.760   0.879  1.00  0.00     0.039 A 
ATOM     29  N   UNL     1       0.226   1.352   2.377  1.00  0.00    -0.344 N 
ATOM     30  C   UNL     1      -2.056   2.106   2.062  1.00  0.00     0.021 A 
ATOM     31  C   UNL     1      -1.058   1.408   2.800  1.00  0.00     0.137 A 
ATOM     32  C   UNL     1      -3.218   1.969   2.778  1.00  0.00     0.032 A 
ATOM     33  N   UNL     1      -1.559   0.865   3.923  1.00  0.00    -0.239 NA
ATOM     34  C   UNL     1      -2.875   1.209   3.901  1.00  0.00     0.114 A 
ATOM     35  H   UNL     1       0.947   0.839   2.934  1.00  0.00     0.168 HD
ENDBRANCH  24  26
ENDBRANCH  19  24
ENDBRANCH  16  17
ENDBRANCH  14  16
ENDBRANCH   1  14
TORSDOF 9


