REMARK SMILES Cc1cc(N)c(OC(=O)C[C@H]2CC[C@@H](C)N2)c(-n2nc3ccccc3[nH+]2)c1
REMARK SMILES IDX 7 1 6 2 2 3 3 4 27 5 4 6 17 7 1 8 5 9 18 12 19 13 26 14
REMARK SMILES IDX 20 15 25 16 21 17 24 18 22 19 23 20 8 22 9 23 10 24 11 25
REMARK SMILES IDX 12 26 16 27 13 28 14 29 15 31
REMARK H PARENT 5 10 5 11 26 21 16 30
ROOT
ATOM      1  O   UNL     1      -0.309   1.760  -1.050  1.00  0.00    -0.422 OA
ENDROOT
BRANCH   1   2
ATOM      2  C   UNL     1      -1.230   2.166  -0.078  1.00  0.00     0.185 A 
ATOM      3  C   UNL     1      -3.163   2.817   1.859  1.00  0.00    -0.046 A 
ATOM      4  C   UNL     1      -3.190   3.435   0.602  1.00  0.00     0.033 A 
ATOM      5  C   UNL     1      -2.134   1.918   2.164  1.00  0.00     0.042 A 
ATOM      6  C   UNL     1      -2.227   3.124  -0.367  1.00  0.00     0.078 A 
ATOM      7  C   UNL     1      -1.161   1.591   1.207  1.00  0.00     0.173 A 
ATOM      8  C   UNL     1      -4.174   3.192   2.902  1.00  0.00     0.044 C 
BRANCH   6   9
ATOM      9  N   UNL     1      -2.244   3.818  -1.620  1.00  0.00    -0.396 N 
ATOM     10  H   UNL     1      -3.014   4.488  -1.847  1.00  0.00     0.156 HD
ATOM     11  H   UNL     1      -1.463   3.729  -2.306  1.00  0.00     0.156 HD
ENDBRANCH   6   9
BRANCH   7  12
ATOM     12  N   UNL     1      -0.101   0.678   1.542  1.00  0.00    -0.009 N 
ATOM     13  N   UNL     1       1.145   0.795   1.082  1.00  0.00     0.054 NA
ATOM     14  N   UNL     1      -0.233  -0.356   2.371  1.00  0.00    -0.161 N 
ATOM     15  C   UNL     1       1.824  -0.217   1.649  1.00  0.00     0.249 A 
ATOM     16  C   UNL     1       0.976  -0.928   2.442  1.00  0.00     0.198 A 
ATOM     17  C   UNL     1       3.168  -0.549   1.520  1.00  0.00     0.064 A 
ATOM     18  C   UNL     1       1.389  -2.041   3.168  1.00  0.00     0.058 A 
ATOM     19  C   UNL     1       3.630  -1.669   2.241  1.00  0.00     0.005 A 
ATOM     20  C   UNL     1       2.744  -2.412   3.059  1.00  0.00     0.005 A 
ATOM     21  H   UNL     1      -1.110  -0.660   2.850  1.00  0.00     0.340 HD
ENDBRANCH   7  12
ENDBRANCH   1   2
BRANCH   1  22
ATOM     22  C   UNL     1      -0.681   1.133  -2.245  1.00  0.00     0.312 C 
ATOM     23  O   UNL     1      -1.897   0.944  -2.525  1.00  0.00    -0.252 OA
BRANCH  22  24
ATOM     24  C   UNL     1       0.380   0.619  -3.167  1.00  0.00     0.142 C 
BRANCH  24  25
ATOM     25  C   UNL     1       0.452  -0.915  -3.116  1.00  0.00     0.065 C 
ATOM     26  C   UNL     1       1.461  -1.475  -4.117  1.00  0.00     0.021 C 
ATOM     27  N   UNL     1       0.875  -1.375  -1.794  1.00  0.00    -0.311 NA
ATOM     28  C   UNL     1       2.090  -2.670  -3.418  1.00  0.00     0.020 C 
ATOM     29  C   UNL     1       1.473  -2.689  -2.019  1.00  0.00     0.050 C 
ATOM     30  H   UNL     1       0.031  -1.484  -1.181  1.00  0.00     0.123 HD
ATOM     31  C   UNL     1       2.506  -2.993  -0.935  1.00  0.00     0.024 C 
ENDBRANCH  24  25
ENDBRANCH  22  24
ENDBRANCH   1  22
TORSDOF 6


