REMARK SMILES O=Cc1c(NC2CC(=O)C2)ccc2cc3ccccc3cc12
REMARK SMILES IDX 3 1 4 2 11 3 12 4 13 5 14 6 15 7 16 8 17 9 18 10 19 11 20 12
REMARK SMILES IDX 21 13 22 14 2 15 1 16 5 17 6 19 7 20 10 21 8 22 9 23
REMARK H PARENT 5 18
ROOT
ATOM      1  C   UNL     1      -0.237  -0.839   0.329  1.00  0.00     0.045 A 
ATOM      2  C   UNL     1      -0.218  -0.563   1.721  1.00  0.00     0.046 A 
ATOM      3  C   UNL     1       0.912  -0.873   2.482  1.00  0.00     0.027 A 
ATOM      4  C   UNL     1       2.046  -1.411   1.886  1.00  0.00     0.011 A 
ATOM      5  C   UNL     1       2.069  -1.669   0.511  1.00  0.00    -0.017 A 
ATOM      6  C   UNL     1       3.225  -2.213  -0.070  1.00  0.00     0.017 A 
ATOM      7  C   UNL     1       3.263  -2.507  -1.436  1.00  0.00    -0.018 A 
ATOM      8  C   UNL     1       4.420  -3.052  -2.018  1.00  0.00     0.009 A 
ATOM      9  C   UNL     1       4.445  -3.352  -3.382  1.00  0.00     0.001 A 
ATOM     10  C   UNL     1       3.320  -3.112  -4.175  1.00  0.00     0.001 A 
ATOM     11  C   UNL     1       2.163  -2.571  -3.607  1.00  0.00     0.009 A 
ATOM     12  C   UNL     1       2.125  -2.263  -2.237  1.00  0.00    -0.018 A 
ATOM     13  C   UNL     1       0.968  -1.718  -1.660  1.00  0.00     0.018 A 
ATOM     14  C   UNL     1       0.924  -1.396  -0.284  1.00  0.00    -0.005 A 
ENDROOT
BRANCH   1  15
ATOM     15  C   UNL     1      -1.466  -0.568  -0.459  1.00  0.00     0.262 C 
ATOM     16  O   UNL     1      -2.607  -0.750   0.042  1.00  0.00    -0.298 OA
ENDBRANCH   1  15
BRANCH   2  17
ATOM     17  N   UNL     1      -1.328   0.062   2.380  1.00  0.00    -0.381 N 
ATOM     18  H   UNL     1      -1.614  -0.325   3.309  1.00  0.00     0.160 HD
BRANCH  17  19
ATOM     19  C   UNL     1      -1.696   1.446   2.065  1.00  0.00     0.094 C 
ATOM     20  C   UNL     1      -3.107   1.773   2.453  1.00  0.00     0.100 C 
ATOM     21  C   UNL     1      -1.262   2.410   3.128  1.00  0.00     0.100 C 
ATOM     22  C   UNL     1      -2.685   2.751   3.535  1.00  0.00     0.137 C 
ATOM     23  O   UNL     1      -3.233   3.475   4.349  1.00  0.00    -0.300 OA
ENDBRANCH  17  19
ENDBRANCH   2  17
TORSDOF 3


