REMARK SMILES Cc1ccc([NH2+]c2cccc(N=[N+]=[N-])c2[O-])cc1F
REMARK SMILES IDX 9 1 10 2 11 3 15 4 16 5 7 6 8 7 12 8 13 9 14 10 6 11 5 14
REMARK SMILES IDX 4 15 17 16 3 17 18 18 2 19 19 20 1 21
REMARK H PARENT 6 12 6 13
ROOT
ATOM      1  C   UNL     1      -1.790   0.785  -2.939  1.00  0.00     0.007 A 
ATOM      2  C   UNL     1      -1.261   2.062  -3.123  1.00  0.00     0.010 A 
ATOM      3  C   UNL     1      -0.073   2.442  -2.489  1.00  0.00     0.036 A 
ATOM      4  C   UNL     1       0.594   1.512  -1.655  1.00  0.00    -0.035 A 
ATOM      5  O   UNL     1       1.779   1.860  -1.014  1.00  0.00    -0.868 OA
ATOM      6  C   UNL     1       0.061   0.216  -1.469  1.00  0.00     0.127 A 
ATOM      7  C   UNL     1      -1.137  -0.132  -2.118  1.00  0.00     0.067 A 
ENDROOT
BRANCH   3   8
ATOM      8  N   UNL     1       0.412   3.775  -2.721  1.00  0.00    -0.061 NA
BRANCH   8   9
ATOM      9  N   UNL     1       1.439   4.223  -2.211  1.00  0.00     0.005 N 
ATOM     10  N   UNL     1       2.465   4.677  -1.704  1.00  0.00    -0.003 NA
ENDBRANCH   8   9
ENDBRANCH   3   8
BRANCH   6  11
ATOM     11  N   UNL     1       0.707  -0.737  -0.597  1.00  0.00    -0.282 N 
ATOM     12  H   UNL     1       1.746  -0.607  -0.615  1.00  0.00     0.358 HD
ATOM     13  H   UNL     1       0.529  -1.712  -0.935  1.00  0.00     0.358 HD
BRANCH  11  14
ATOM     14  C   UNL     1       0.204  -0.591   0.747  1.00  0.00     0.137 A 
ATOM     15  C   UNL     1      -0.987  -1.229   1.134  1.00  0.00     0.068 A 
ATOM     16  C   UNL     1       0.877   0.220   1.678  1.00  0.00     0.107 A 
ATOM     17  C   UNL     1      -1.491  -1.067   2.427  1.00  0.00     0.012 A 
ATOM     18  C   UNL     1       0.373   0.383   2.973  1.00  0.00     0.132 A 
ATOM     19  C   UNL     1      -0.809  -0.269   3.359  1.00  0.00    -0.015 A 
ATOM     20  F   UNL     1       1.038   1.179   3.849  1.00  0.00    -0.206 F 
ATOM     21  C   UNL     1      -1.365  -0.072   4.740  1.00  0.00     0.047 C 
ENDBRANCH  11  14
ENDBRANCH   6  11
TORSDOF 4


