REMARK SMILES O=c1[n-]ccc2cc(F)c(-c3c[n-]c4nccc-4c3)c(F)c12
REMARK SMILES IDX 1 1 2 2 3 3 4 4 5 5 6 6 7 7 8 8 9 9 10 10 20 11 21 12 22 13
REMARK SMILES IDX 11 14 12 15 19 16 13 17 18 18 14 19 17 20 15 21 16 22
REMARK H PARENT
ROOT
ATOM      1  O   UNL     1       3.945  -0.777  -2.567  1.00  0.00    -0.315 OA
ATOM      2  C   UNL     1       3.355   0.222  -3.057  1.00  0.00     0.088 A 
ATOM      3  N   UNL     1       3.863   0.798  -4.179  1.00  0.00    -0.629 NA
ATOM      4  C   UNL     1       3.284   1.877  -4.764  1.00  0.00    -0.136 A 
ATOM      5  C   UNL     1       2.130   2.435  -4.218  1.00  0.00    -0.015 A 
ATOM      6  C   UNL     1       1.572   1.873  -3.063  1.00  0.00    -0.012 A 
ATOM      7  C   UNL     1       0.411   2.420  -2.503  1.00  0.00     0.048 A 
ATOM      8  C   UNL     1      -0.149   1.865  -1.352  1.00  0.00     0.134 A 
ATOM      9  F   UNL     1      -1.258   2.439  -0.819  1.00  0.00    -0.206 F 
ATOM     10  C   UNL     1       0.445   0.748  -0.739  1.00  0.00     0.054 A 
ATOM     11  C   UNL     1       1.612   0.189  -1.296  1.00  0.00     0.143 A 
ATOM     12  F   UNL     1       2.163  -0.911  -0.717  1.00  0.00    -0.205 F 
ATOM     13  C   UNL     1       2.185   0.747  -2.461  1.00  0.00     0.043 A 
ENDROOT
BRANCH  10  14
ATOM     14  C   UNL     1      -0.154   0.165   0.484  1.00  0.00    -0.016 A 
ATOM     15  C   UNL     1      -1.532  -0.202   0.502  1.00  0.00    -0.013 A 
ATOM     16  C   UNL     1       0.640  -0.028   1.638  1.00  0.00     0.016 A 
ATOM     17  N   UNL     1      -2.112  -0.741   1.617  1.00  0.00    -0.442 NA
ATOM     18  C   UNL     1       0.024  -0.576   2.751  1.00  0.00    -0.026 A 
ATOM     19  C   UNL     1      -1.355  -0.926   2.722  1.00  0.00    -0.052 A 
ATOM     20  C   UNL     1       0.466  -0.893   4.009  1.00  0.00     0.003 A 
ATOM     21  N   UNL     1      -1.762  -1.436   3.894  1.00  0.00    -0.442 NA
ATOM     22  C   UNL     1      -0.648  -1.413   4.673  1.00  0.00    -0.022 A 
ENDBRANCH  10  14
TORSDOF 1


