REMARK SMILES C=Cc1ccc([C@H]2CCC[C@]3(Cl)C=CO[C@H]23)nc1
REMARK SMILES IDX 3 1 4 2 5 3 6 4 17 5 18 6 2 7 1 8 7 9 8 10 16 11 9 12 15 13
REMARK SMILES IDX 11 14 10 15 14 16 13 17 12 18
REMARK H PARENT
ROOT
ATOM      1  C   UNL     1       1.428   1.544   3.026  1.00  0.00    -0.008 A 
ATOM      2  C   UNL     1       0.361   2.131   2.322  1.00  0.00     0.011 A 
ATOM      3  C   UNL     1      -0.288   1.421   1.310  1.00  0.00     0.025 A 
ATOM      4  C   UNL     1       0.133   0.120   0.994  1.00  0.00     0.047 A 
ATOM      5  N   UNL     1       1.177  -0.424   1.678  1.00  0.00    -0.260 NA
ATOM      6  C   UNL     1       1.825   0.247   2.667  1.00  0.00     0.119 A 
ENDROOT
BRANCH   1   7
ATOM      7  C   UNL     1       2.167   2.243   4.106  1.00  0.00     0.002 C 
ATOM      8  C   UNL     1       1.729   3.338   4.729  1.00  0.00     0.009 C 
ENDBRANCH   1   7
BRANCH   4   9
ATOM      9  C   UNL     1      -0.530  -0.691  -0.098  1.00  0.00     0.081 C 
ATOM     10  C   UNL     1      -2.026  -0.919   0.194  1.00  0.00     0.014 C 
ATOM     11  C   UNL     1      -0.350  -0.032  -1.483  1.00  0.00     0.206 C 
ATOM     12  C   UNL     1      -2.731  -1.771  -0.888  1.00  0.00     0.003 C 
ATOM     13  O   UNL     1       1.004  -0.130  -1.903  1.00  0.00    -0.495 OA
ATOM     14  C   UNL     1      -1.153  -0.742  -2.615  1.00  0.00     0.103 C 
ATOM     15  C   UNL     1      -1.876  -2.021  -2.143  1.00  0.00     0.031 C 
ATOM     16  C   UNL     1       1.098  -0.729  -3.144  1.00  0.00     0.185 C 
ATOM     17  C   UNL     1      -0.083  -1.086  -3.601  1.00  0.00     0.038 C 
ATOM     18  Cl  UNL     1      -2.317   0.383  -3.385  1.00  0.00    -0.111 Cl
ENDBRANCH   4   9
TORSDOF 2


