REMARK SMILES CC(C)(C)c1cccc(/N=C(\O)NC(=O)c2ccc(-c3cc(F)cc(F)c3O)cc2)c1
REMARK SMILES IDX 11 1 13 2 14 4 15 5 12 6 10 8 9 9 8 10 31 11 7 12 5 13 6 14
REMARK SMILES IDX 2 15 1 16 3 17 4 18 16 19 17 20 30 21 18 22 29 23 19 24
REMARK SMILES IDX 20 25 21 26 27 27 22 28 25 29 24 30 23 31 26 32 28 33
REMARK H PARENT 13 3 12 7 28 34
ROOT
ATOM      1  C   UNL     1      -0.073   0.553  -0.343  1.00  0.00     0.294 C 
ATOM      2  N   UNL     1       0.621  -0.082   0.744  1.00  0.00    -0.276 N 
ATOM      3  H   UNL     1       0.089  -0.225   1.631  1.00  0.00     0.175 HD
ATOM      4  C   UNL     1       2.006  -0.469   0.701  1.00  0.00     0.259 C 
ATOM      5  O   UNL     1       2.767   0.014  -0.182  1.00  0.00    -0.269 OA
ENDROOT
BRANCH   1   6
ATOM      6  O   UNL     1      -1.371   1.020  -0.140  1.00  0.00    -0.480 OA
ATOM      7  H   UNL     1      -1.822   0.942   0.764  1.00  0.00     0.296 HD
ENDBRANCH   1   6
BRANCH   1   8
ATOM      8  N   UNL     1       0.487   0.646  -1.515  1.00  0.00    -0.198 NA
BRANCH   8   9
ATOM      9  C   UNL     1      -0.066   1.289  -2.674  1.00  0.00     0.069 A 
ATOM     10  C   UNL     1       0.202   0.746  -3.932  1.00  0.00     0.028 A 
ATOM     11  C   UNL     1      -0.792   2.491  -2.583  1.00  0.00     0.032 A 
ATOM     12  C   UNL     1      -0.292   1.357  -5.082  1.00  0.00     0.003 A 
ATOM     13  C   UNL     1      -1.309   3.127  -3.735  1.00  0.00    -0.040 A 
ATOM     14  C   UNL     1      -1.044   2.530  -4.991  1.00  0.00     0.004 A 
BRANCH  13  15
ATOM     15  C   UNL     1      -2.111   4.437  -3.588  1.00  0.00    -0.013 C 
ATOM     16  C   UNL     1      -2.641   4.979  -4.937  1.00  0.00     0.016 C 
ATOM     17  C   UNL     1      -3.330   4.197  -2.670  1.00  0.00     0.016 C 
ATOM     18  C   UNL     1      -1.208   5.524  -2.967  1.00  0.00     0.016 C 
ENDBRANCH  13  15
ENDBRANCH   8   9
ENDBRANCH   1   8
BRANCH   4  19
ATOM     19  C   UNL     1       2.568  -1.402   1.708  1.00  0.00     0.040 A 
ATOM     20  C   UNL     1       1.742  -2.309   2.397  1.00  0.00     0.014 A 
ATOM     21  C   UNL     1       3.949  -1.411   1.969  1.00  0.00     0.014 A 
ATOM     22  C   UNL     1       2.284  -3.188   3.338  1.00  0.00     0.010 A 
ATOM     23  C   UNL     1       4.490  -2.289   2.912  1.00  0.00     0.010 A 
ATOM     24  C   UNL     1       3.661  -3.181   3.612  1.00  0.00    -0.014 A 
BRANCH  24  25
ATOM     25  C   UNL     1       4.232  -4.123   4.604  1.00  0.00     0.029 A 
ATOM     26  C   UNL     1       3.902  -5.488   4.536  1.00  0.00     0.052 A 
ATOM     27  C   UNL     1       5.100  -3.674   5.624  1.00  0.00     0.159 A 
ATOM     28  C   UNL     1       4.438  -6.395   5.454  1.00  0.00     0.127 A 
ATOM     29  C   UNL     1       5.637  -4.595   6.540  1.00  0.00     0.168 A 
ATOM     30  C   UNL     1       5.306  -5.949   6.452  1.00  0.00     0.082 A 
ATOM     31  F   UNL     1       4.119  -7.710   5.372  1.00  0.00    -0.207 F 
ATOM     32  F   UNL     1       6.474  -4.178   7.522  1.00  0.00    -0.203 F 
BRANCH  27  33
ATOM     33  O   UNL     1       5.407  -2.317   5.734  1.00  0.00    -0.504 OA
ATOM     34  H   UNL     1       6.022  -1.962   6.457  1.00  0.00     0.293 HD
ENDBRANCH  27  33
ENDBRANCH  24  25
ENDBRANCH   4  19
TORSDOF 7


