REMARK SMILES Cc1cc(-c2cccc3[nH+]coc23)cc(O)c1F
REMARK SMILES IDX 1 1 2 2 3 3 4 4 14 5 15 6 17 7 18 8 5 9 6 10 13 11 7 12
REMARK SMILES IDX 12 13 9 14 8 15 11 16 10 17 16 19
REMARK H PARENT 10 18 16 20
ROOT
ATOM      1  C   UNL     1       0.862   0.101   4.624  1.00  0.00     0.048 C 
ATOM      2  C   UNL     1       0.329   0.510   3.281  1.00  0.00    -0.011 A 
ATOM      3  C   UNL     1       0.761  -0.147   2.118  1.00  0.00     0.015 A 
ATOM      4  C   UNL     1       0.244   0.206   0.859  1.00  0.00    -0.010 A 
ATOM      5  C   UNL     1      -0.720   1.227   0.779  1.00  0.00     0.058 A 
ATOM      6  C   UNL     1      -1.166   1.876   1.937  1.00  0.00     0.152 A 
ATOM      7  C   UNL     1      -0.648   1.514   3.185  1.00  0.00     0.167 A 
ATOM      8  F   UNL     1      -1.097   2.142   4.302  1.00  0.00    -0.203 F 
ENDROOT
BRANCH   4   9
ATOM      9  C   UNL     1       0.713  -0.486  -0.366  1.00  0.00     0.032 A 
ATOM     10  C   UNL     1       2.081  -0.799  -0.558  1.00  0.00     0.013 A 
ATOM     11  C   UNL     1      -0.169  -0.868  -1.385  1.00  0.00     0.212 A 
ATOM     12  C   UNL     1       2.515  -1.458  -1.732  1.00  0.00     0.008 A 
ATOM     13  O   UNL     1      -1.471  -0.724  -1.452  1.00  0.00    -0.403 OA
ATOM     14  C   UNL     1       0.256  -1.503  -2.515  1.00  0.00     0.249 A 
ATOM     15  C   UNL     1       1.594  -1.819  -2.731  1.00  0.00     0.083 A 
ATOM     16  C   UNL     1      -1.845  -1.256  -2.605  1.00  0.00     0.521 A 
ATOM     17  N   UNL     1      -0.798  -1.756  -3.303  1.00  0.00    -0.176 N 
ATOM     18  H   UNL     1      -0.813  -2.231  -4.233  1.00  0.00     0.457 HD
ENDBRANCH   4   9
BRANCH   6  19
ATOM     19  O   UNL     1      -2.126   2.884   1.857  1.00  0.00    -0.505 OA
ATOM     20  H   UNL     1      -2.521   3.169   0.969  1.00  0.00     0.293 HD
ENDBRANCH   6  19
TORSDOF 2


