REMARK SMILES Cc1ccc(-c2ccc(NC(=O)c3cccc(C)c3)c(C(=O)O[C@H](C)[C@H](C)[N+](=O)[O-])c2)cc1
REMARK SMILES IDX 21 1 22 2 20 3 6 4 7 5 31 6 8 7 9 8 5 9 2 10 3 11 33 12 4 13
REMARK SMILES IDX 32 14 1 15 10 16 11 17 12 19 13 20 14 21 19 22 15 23 17 24
REMARK SMILES IDX 16 25 18 26 23 27 24 28 25 29 26 30 27 31 28 32 29 33 30 34
REMARK H PARENT 10 18
ROOT
ATOM      1  C   UNL     1      -0.450  -0.029   0.988  1.00  0.00     0.340 C 
ATOM      2  O   UNL     1      -0.902   0.652   1.949  1.00  0.00    -0.246 OA
ENDROOT
BRANCH   1   3
ATOM      3  C   UNL     1      -0.589  -1.509   1.001  1.00  0.00     0.084 A 
ATOM      4  C   UNL     1      -1.768  -3.491   1.829  1.00  0.00    -0.017 A 
ATOM      5  C   UNL     1      -1.026  -4.289   0.945  1.00  0.00     0.011 A 
ATOM      6  C   UNL     1      -1.543  -2.103   1.849  1.00  0.00     0.026 A 
ATOM      7  C   UNL     1      -0.068  -3.716   0.110  1.00  0.00     0.028 A 
ATOM      8  C   UNL     1       0.166  -2.336   0.136  1.00  0.00     0.056 A 
BRANCH   4   9
ATOM      9  C   UNL     1      -2.782  -4.103   2.726  1.00  0.00    -0.018 A 
ATOM     10  C   UNL     1      -4.698  -5.275   4.432  1.00  0.00    -0.051 A 
ATOM     11  C   UNL     1      -3.866  -4.249   4.901  1.00  0.00     0.004 A 
ATOM     12  C   UNL     1      -4.585  -5.697   3.099  1.00  0.00     0.004 A 
ATOM     13  C   UNL     1      -2.912  -3.672   4.058  1.00  0.00     0.009 A 
ATOM     14  C   UNL     1      -3.631  -5.121   2.255  1.00  0.00     0.009 A 
ATOM     15  C   UNL     1      -5.749  -5.867   5.325  1.00  0.00     0.044 C 
ENDBRANCH   4   9
BRANCH   8  16
ATOM     16  N   UNL     1       1.221  -1.796  -0.668  1.00  0.00    -0.321 N 
ATOM     17  C   UNL     1       1.135  -1.754  -2.100  1.00  0.00     0.255 C 
ATOM     18  H   UNL     1       1.961  -1.248  -0.178  1.00  0.00     0.170 HD
ATOM     19  O   UNL     1       0.149  -2.283  -2.684  1.00  0.00    -0.269 OA
BRANCH  17  20
ATOM     20  C   UNL     1       2.157  -1.041  -2.899  1.00  0.00     0.040 A 
ATOM     21  C   UNL     1       3.486  -0.941  -2.452  1.00  0.00     0.014 A 
ATOM     22  C   UNL     1       1.800  -0.436  -4.118  1.00  0.00     0.017 A 
ATOM     23  C   UNL     1       4.430  -0.227  -3.194  1.00  0.00     0.001 A 
ATOM     24  C   UNL     1       2.750   0.269  -4.872  1.00  0.00    -0.050 A 
ATOM     25  C   UNL     1       4.063   0.385  -4.394  1.00  0.00     0.003 A 
ATOM     26  C   UNL     1       2.344   0.962  -6.139  1.00  0.00     0.044 C 
ENDBRANCH  17  20
ENDBRANCH   8  16
ENDBRANCH   1   3
BRANCH   1  27
ATOM     27  O   UNL     1       0.132   0.615  -0.114  1.00  0.00    -0.452 OA
BRANCH  27  28
ATOM     28  C   UNL     1       0.177   2.034  -0.288  1.00  0.00     0.247 C 
ATOM     29  C   UNL     1      -0.048   2.351  -1.769  1.00  0.00     0.061 C 
BRANCH  28  30
ATOM     30  C   UNL     1       1.508   2.629   0.238  1.00  0.00     0.364 C 
ATOM     31  C   UNL     1       2.754   2.045  -0.449  1.00  0.00     0.098 C 
BRANCH  30  32
ATOM     32  N   UNL     1       1.599   2.467   1.691  1.00  0.00     0.026 N 
ATOM     33  O   UNL     1       2.047   1.414   2.192  1.00  0.00    -0.264 OA
ATOM     34  O   UNL     1       1.002   3.396   2.512  1.00  0.00    -0.264 OA
ENDBRANCH  30  32
ENDBRANCH  28  30
ENDBRANCH  27  28
ENDBRANCH   1  27
TORSDOF 8


