REMARK SMILES Cc1cc(-c2cccc3[nH+]coc23)cc(O/C(S)=N/c2ccc(-n3ccc[nH+]3)cc2)c1F
REMARK SMILES IDX 17 1 18 2 19 4 20 5 21 6 30 7 22 8 29 9 23 10 24 11 25 12
REMARK SMILES IDX 28 13 26 14 27 15 16 17 15 18 14 19 31 20 4 21 2 22 3 23
REMARK SMILES IDX 32 24 1 25 5 26 6 27 13 28 7 29 9 30 12 31 8 32 10 33 11 34
REMARK H PARENT 18 3 28 16 10 35
ROOT
ATOM      1  C   UNL     1      -2.518  -0.893  -1.501  1.00  0.00     0.253 C 
ENDROOT
BRANCH   1   2
ATOM      2  S   UNL     1      -4.104  -1.571  -0.998  1.00  0.00    -0.084 SA
ATOM      3  H   UNL     1      -3.788  -2.843  -1.510  1.00  0.00     0.113 HD
ENDBRANCH   1   2
BRANCH   1   4
ATOM      4  N   UNL     1      -1.499  -0.848  -0.690  1.00  0.00    -0.208 NA
BRANCH   4   5
ATOM      5  C   UNL     1      -1.458  -1.355   0.650  1.00  0.00     0.068 A 
ATOM      6  C   UNL     1      -1.035  -0.514   1.684  1.00  0.00     0.031 A 
ATOM      7  C   UNL     1      -1.740  -2.701   0.928  1.00  0.00     0.031 A 
ATOM      8  C   UNL     1      -0.938  -0.996   2.992  1.00  0.00     0.035 A 
ATOM      9  C   UNL     1      -1.643  -3.186   2.235  1.00  0.00     0.035 A 
ATOM     10  C   UNL     1      -1.245  -2.336   3.284  1.00  0.00     0.104 A 
BRANCH  10  11
ATOM     11  N   UNL     1      -1.144  -2.832   4.634  1.00  0.00    -0.130 N 
ATOM     12  C   UNL     1      -0.879  -4.103   5.005  1.00  0.00     0.163 A 
ATOM     13  N   UNL     1      -1.299  -2.095   5.724  1.00  0.00    -0.126 N 
ATOM     14  C   UNL     1      -0.866  -4.166   6.386  1.00  0.00     0.097 A 
ATOM     15  C   UNL     1      -1.137  -2.879   6.805  1.00  0.00     0.335 A 
ATOM     16  H   UNL     1      -1.536  -1.078   5.742  1.00  0.00     0.488 HD
ENDBRANCH  10  11
ENDBRANCH   4   5
ENDBRANCH   1   4
BRANCH   1  17
ATOM     17  O   UNL     1      -2.410  -0.403  -2.810  1.00  0.00    -0.431 OA
BRANCH  17  18
ATOM     18  C   UNL     1      -1.379   0.416  -3.300  1.00  0.00     0.166 A 
ATOM     19  C   UNL     1      -0.711   1.347  -2.485  1.00  0.00     0.059 A 
ATOM     20  C   UNL     1      -1.040   0.322  -4.655  1.00  0.00     0.168 A 
ATOM     21  C   UNL     1       0.325   2.141  -3.003  1.00  0.00    -0.010 A 
ATOM     22  C   UNL     1      -0.026   1.130  -5.194  1.00  0.00    -0.011 A 
ATOM     23  C   UNL     1       0.663   2.023  -4.361  1.00  0.00     0.015 A 
ATOM     24  F   UNL     1      -1.694  -0.569  -5.444  1.00  0.00    -0.203 F 
ATOM     25  C   UNL     1       0.359   0.993  -6.639  1.00  0.00     0.048 C 
BRANCH  21  26
ATOM     26  C   UNL     1       1.051   3.093  -2.129  1.00  0.00     0.032 A 
ATOM     27  C   UNL     1       1.377   4.399  -2.568  1.00  0.00     0.013 A 
ATOM     28  C   UNL     1       1.456   2.743  -0.835  1.00  0.00     0.212 A 
ATOM     29  C   UNL     1       2.070   5.294  -1.720  1.00  0.00     0.008 A 
ATOM     30  C   UNL     1       2.124   3.611  -0.022  1.00  0.00     0.249 A 
ATOM     31  O   UNL     1       1.309   1.605  -0.199  1.00  0.00    -0.403 OA
ATOM     32  C   UNL     1       2.453   4.902  -0.425  1.00  0.00     0.083 A 
ATOM     33  N   UNL     1       2.394   3.006   1.143  1.00  0.00    -0.176 N 
ATOM     34  C   UNL     1       1.872   1.767   0.988  1.00  0.00     0.521 A 
ATOM     35  H   UNL     1       2.896   3.394   1.973  1.00  0.00     0.457 HD
ENDBRANCH  21  26
ENDBRANCH  17  18
ENDBRANCH   1  17
TORSDOF 7


