MODEL 1
REMARK VINA RESULT:      -9.7      0.000      0.000
REMARK SMILES CC(=O)n1[nH+]c2cc(-c3cnc(F)cc3C)ccc2c1C
REMARK SMILES IDX 4 1 5 2 6 3 7 4 8 5 17 6 18 7 19 8 20 9 21 10 2 12 1 13 3 14
REMARK SMILES IDX 9 15 10 16 15 17 11 18 14 19 12 20 16 21 13 22
REMARK H PARENT 5 11
ROOT
ATOM      1  N   UNL     1      46.398 130.391  15.185  1.00  0.00    -0.091 N 
ATOM      2  N   UNL     1      46.642 130.220  16.483  1.00  0.00    -0.116 N 
ATOM      3  C   UNL     1      45.591 130.694  17.169  1.00  0.00     0.237 A 
ATOM      4  C   UNL     1      45.408 130.718  18.549  1.00  0.00     0.091 A 
ATOM      5  C   UNL     1      44.210 131.275  19.049  1.00  0.00    -0.010 A 
ATOM      6  C   UNL     1      43.231 131.767  18.145  1.00  0.00     0.010 A 
ATOM      7  C   UNL     1      43.449 131.725  16.755  1.00  0.00     0.018 A 
ATOM      8  C   UNL     1      44.650 131.179  16.303  1.00  0.00     0.074 A 
ATOM      9  C   UNL     1      45.178 130.981  15.038  1.00  0.00     0.097 A 
ATOM     10  C   UNL     1      44.526 131.344  13.735  1.00  0.00     0.072 C 
ATOM     11  H   UNL     1      47.501 129.790  16.893  1.00  0.00     0.489 HD
ENDROOT
BRANCH   1  12
ATOM     12  C   UNL     1      47.312 129.996  14.141  1.00  0.00     0.279 C 
ATOM     13  C   UNL     1      47.766 130.979  13.107  1.00  0.00     0.121 C 
ATOM     14  O   UNL     1      47.746 128.814  14.082  1.00  0.00    -0.269 OA
ENDBRANCH   1  12
BRANCH   5  15
ATOM     15  C   UNL     1      43.956 131.318  20.506  1.00  0.00     0.003 A 
ATOM     16  C   UNL     1      44.827 130.630  21.367  1.00  0.00     0.123 A 
ATOM     17  C   UNL     1      42.862 132.022  21.064  1.00  0.00    -0.037 A 
ATOM     18  N   UNL     1      44.640 130.671  22.712  1.00  0.00    -0.228 NA
ATOM     19  C   UNL     1      42.712 132.053  22.460  1.00  0.00     0.064 A 
ATOM     20  C   UNL     1      43.615 131.364  23.270  1.00  0.00     0.213 A 
ATOM     21  C   UNL     1      41.862 132.752  20.208  1.00  0.00     0.045 C 
ATOM     22  F   UNL     1      43.469 131.382  24.617  1.00  0.00    -0.185 F 
ENDBRANCH   5  15
TORSDOF 2
ENDMDL
MODEL 2
REMARK VINA RESULT:      -9.4      3.897      7.376
REMARK SMILES CC(=O)n1[nH+]c2cc(-c3cnc(F)cc3C)ccc2c1C
REMARK SMILES IDX 4 1 5 2 6 3 7 4 8 5 17 6 18 7 19 8 20 9 21 10 2 12 1 13 3 14
REMARK SMILES IDX 9 15 10 16 15 17 11 18 14 19 12 20 16 21 13 22
REMARK H PARENT 5 11
ROOT
ATOM      1  N   UNL     1      44.352 131.299  21.845  1.00  0.00    -0.091 N 
ATOM      2  N   UNL     1      45.343 130.981  21.015  1.00  0.00    -0.116 N 
ATOM      3  C   UNL     1      44.915 131.187  19.760  1.00  0.00     0.237 A 
ATOM      4  C   UNL     1      45.616 130.992  18.572  1.00  0.00     0.091 A 
ATOM      5  C   UNL     1      44.952 131.275  17.358  1.00  0.00    -0.010 A 
ATOM      6  C   UNL     1      43.619 131.764  17.380  1.00  0.00     0.010 A 
ATOM      7  C   UNL     1      42.941 131.949  18.600  1.00  0.00     0.018 A 
ATOM      8  C   UNL     1      43.627 131.646  19.776  1.00  0.00     0.074 A 
ATOM      9  C   UNL     1      43.278 131.713  21.114  1.00  0.00     0.097 A 
ATOM     10  C   UNL     1      41.957 132.164  21.667  1.00  0.00     0.072 C 
ATOM     11  H   UNL     1      46.287 130.634  21.293  1.00  0.00     0.489 HD
ENDROOT
BRANCH   1  12
ATOM     12  C   UNL     1      44.451 131.204  23.281  1.00  0.00     0.279 C 
ATOM     13  C   UNL     1      44.258 129.893  23.978  1.00  0.00     0.121 C 
ATOM     14  O   UNL     1      44.701 132.226  23.975  1.00  0.00    -0.269 OA
ENDBRANCH   1  12
BRANCH   5  15
ATOM     15  C   UNL     1      45.651 131.098  16.065  1.00  0.00     0.003 A 
ATOM     16  C   UNL     1      46.303 132.201  15.488  1.00  0.00     0.123 A 
ATOM     17  C   UNL     1      45.681 129.857  15.385  1.00  0.00    -0.037 A 
ATOM     18  N   UNL     1      46.977 132.067  14.317  1.00  0.00    -0.228 NA
ATOM     19  C   UNL     1      46.403 129.755  14.185  1.00  0.00     0.064 A 
ATOM     20  C   UNL     1      47.043 130.879  13.663  1.00  0.00     0.213 A 
ATOM     21  C   UNL     1      44.977 128.637  15.917  1.00  0.00     0.045 C 
ATOM     22  F   UNL     1      47.733 130.789  12.499  1.00  0.00    -0.185 F 
ENDBRANCH   5  15
TORSDOF 2
ENDMDL
MODEL 3
REMARK VINA RESULT:      -9.4      0.746      1.523
REMARK SMILES CC(=O)n1[nH+]c2cc(-c3cnc(F)cc3C)ccc2c1C
REMARK SMILES IDX 4 1 5 2 6 3 7 4 8 5 17 6 18 7 19 8 20 9 21 10 2 12 1 13 3 14
REMARK SMILES IDX 9 15 10 16 15 17 11 18 14 19 12 20 16 21 13 22
REMARK H PARENT 5 11
ROOT
ATOM      1  N   UNL     1      46.305 130.499  15.204  1.00  0.00    -0.091 N 
ATOM      2  N   UNL     1      46.549 130.385  16.507  1.00  0.00    -0.116 N 
ATOM      3  C   UNL     1      45.465 130.813  17.172  1.00  0.00     0.237 A 
ATOM      4  C   UNL     1      45.271 130.871  18.550  1.00  0.00     0.091 A 
ATOM      5  C   UNL     1      44.036 131.366  19.024  1.00  0.00    -0.010 A 
ATOM      6  C   UNL     1      43.035 131.766  18.100  1.00  0.00     0.010 A 
ATOM      7  C   UNL     1      43.266 131.694  16.714  1.00  0.00     0.018 A 
ATOM      8  C   UNL     1      44.502 131.211  16.286  1.00  0.00     0.074 A 
ATOM      9  C   UNL     1      45.051 131.005  15.031  1.00  0.00     0.097 A 
ATOM     10  C   UNL     1      44.387 131.285  13.714  1.00  0.00     0.072 C 
ATOM     11  H   UNL     1      47.430 130.024  16.936  1.00  0.00     0.489 HD
ENDROOT
BRANCH   1  12
ATOM     12  C   UNL     1      47.250 130.129  14.178  1.00  0.00     0.279 C 
ATOM     13  C   UNL     1      47.670 131.115  13.132  1.00  0.00     0.121 C 
ATOM     14  O   UNL     1      47.739 128.968  14.145  1.00  0.00    -0.269 OA
ENDBRANCH   1  12
BRANCH   5  15
ATOM     15  C   UNL     1      43.770 131.439  20.478  1.00  0.00     0.003 A 
ATOM     16  C   UNL     1      42.702 132.230  20.934  1.00  0.00     0.123 A 
ATOM     17  C   UNL     1      44.557 130.745  21.428  1.00  0.00    -0.037 A 
ATOM     18  N   UNL     1      42.413 132.298  22.259  1.00  0.00    -0.228 NA
ATOM     19  C   UNL     1      44.215 130.827  22.787  1.00  0.00     0.064 A 
ATOM     20  C   UNL     1      43.136 131.617  23.185  1.00  0.00     0.213 A 
ATOM     21  C   UNL     1      45.741 129.906  21.025  1.00  0.00     0.045 C 
ATOM     22  F   UNL     1      42.808 131.708  24.497  1.00  0.00    -0.185 F 
ENDBRANCH   5  15
TORSDOF 2
ENDMDL
MODEL 4
REMARK VINA RESULT:      -8.8      3.738      7.261
REMARK SMILES CC(=O)n1[nH+]c2cc(-c3cnc(F)cc3C)ccc2c1C
REMARK SMILES IDX 4 1 5 2 6 3 7 4 8 5 17 6 18 7 19 8 20 9 21 10 2 12 1 13 3 14
REMARK SMILES IDX 9 15 10 16 15 17 11 18 14 19 12 20 16 21 13 22
REMARK H PARENT 5 11
ROOT
ATOM      1  N   UNL     1      44.244 131.151  21.900  1.00  0.00    -0.091 N 
ATOM      2  N   UNL     1      45.216 130.720  21.098  1.00  0.00    -0.116 N 
ATOM      3  C   UNL     1      44.847 130.964  19.831  1.00  0.00     0.237 A 
ATOM      4  C   UNL     1      45.553 130.685  18.664  1.00  0.00     0.091 A 
ATOM      5  C   UNL     1      44.958 131.033  17.431  1.00  0.00    -0.010 A 
ATOM      6  C   UNL     1      43.687 131.666  17.415  1.00  0.00     0.010 A 
ATOM      7  C   UNL     1      43.001 131.933  18.615  1.00  0.00     0.018 A 
ATOM      8  C   UNL     1      43.617 131.563  19.811  1.00  0.00     0.074 A 
ATOM      9  C   UNL     1      43.242 131.677  21.139  1.00  0.00     0.097 A 
ATOM     10  C   UNL     1      41.965 132.274  21.654  1.00  0.00     0.072 C 
ATOM     11  H   UNL     1      46.108 130.273  21.403  1.00  0.00     0.489 HD
ENDROOT
BRANCH   1  12
ATOM     12  C   UNL     1      44.294 131.055  23.338  1.00  0.00     0.279 C 
ATOM     13  C   UNL     1      44.325 132.287  24.189  1.00  0.00     0.121 C 
ATOM     14  O   UNL     1      44.310 129.929  23.906  1.00  0.00    -0.269 OA
ENDBRANCH   1  12
BRANCH   5  15
ATOM     15  C   UNL     1      45.667 130.771  16.158  1.00  0.00     0.003 A 
ATOM     16  C   UNL     1      46.924 130.145  16.198  1.00  0.00     0.123 A 
ATOM     17  C   UNL     1      45.127 131.135  14.901  1.00  0.00    -0.037 A 
ATOM     18  N   UNL     1      47.589 129.865  15.048  1.00  0.00    -0.228 NA
ATOM     19  C   UNL     1      45.838 130.814  13.735  1.00  0.00     0.064 A 
ATOM     20  C   UNL     1      47.077 130.179  13.830  1.00  0.00     0.213 A 
ATOM     21  C   UNL     1      43.803 131.843  14.775  1.00  0.00     0.045 C 
ATOM     22  F   UNL     1      47.773 129.875  12.708  1.00  0.00    -0.185 F 
ENDBRANCH   5  15
TORSDOF 2
ENDMDL
MODEL 5
REMARK VINA RESULT:      -8.7      3.862      7.325
REMARK SMILES CC(=O)n1[nH+]c2cc(-c3cnc(F)cc3C)ccc2c1C
REMARK SMILES IDX 4 1 5 2 6 3 7 4 8 5 17 6 18 7 19 8 20 9 21 10 2 12 1 13 3 14
REMARK SMILES IDX 9 15 10 16 15 17 11 18 14 19 12 20 16 21 13 22
REMARK H PARENT 5 11
ROOT
ATOM      1  N   UNL     1      44.311 131.231  21.884  1.00  0.00    -0.091 N 
ATOM      2  N   UNL     1      45.315 130.785  21.133  1.00  0.00    -0.116 N 
ATOM      3  C   UNL     1      44.995 130.989  19.846  1.00  0.00     0.237 A 
ATOM      4  C   UNL     1      45.747 130.682  18.716  1.00  0.00     0.091 A 
ATOM      5  C   UNL     1      45.198 130.989  17.451  1.00  0.00    -0.010 A 
ATOM      6  C   UNL     1      43.924 131.611  17.368  1.00  0.00     0.010 A 
ATOM      7  C   UNL     1      43.191 131.907  18.532  1.00  0.00     0.018 A 
ATOM      8  C   UNL     1      43.762 131.577  19.761  1.00  0.00     0.074 A 
ATOM      9  C   UNL     1      43.335 131.726  21.070  1.00  0.00     0.097 A 
ATOM     10  C   UNL     1      42.035 132.328  21.518  1.00  0.00     0.072 C 
ATOM     11  H   UNL     1      46.198 130.353  21.485  1.00  0.00     0.489 HD
ENDROOT
BRANCH   1  12
ATOM     12  C   UNL     1      44.304 131.177  23.325  1.00  0.00     0.279 C 
ATOM     13  C   UNL     1      44.111 129.877  24.043  1.00  0.00     0.121 C 
ATOM     14  O   UNL     1      44.462 132.226  24.007  1.00  0.00    -0.269 OA
ENDBRANCH   1  12
BRANCH   5  15
ATOM     15  C   UNL     1      45.957 130.696  16.215  1.00  0.00     0.003 A 
ATOM     16  C   UNL     1      46.365 129.375  15.965  1.00  0.00     0.123 A 
ATOM     17  C   UNL     1      46.295 131.702  15.277  1.00  0.00    -0.037 A 
ATOM     18  N   UNL     1      47.040 129.067  14.827  1.00  0.00    -0.228 NA
ATOM     19  C   UNL     1      46.979 131.340  14.106  1.00  0.00     0.064 A 
ATOM     20  C   UNL     1      47.348 130.010  13.901  1.00  0.00     0.213 A 
ATOM     21  C   UNL     1      45.929 133.147  15.489  1.00  0.00     0.045 C 
ATOM     22  F   UNL     1      48.018 129.656  12.777  1.00  0.00    -0.185 F 
ENDBRANCH   5  15
TORSDOF 2
ENDMDL
MODEL 6
REMARK VINA RESULT:      -6.8      4.093      7.597
REMARK SMILES CC(=O)n1[nH+]c2cc(-c3cnc(F)cc3C)ccc2c1C
REMARK SMILES IDX 4 1 5 2 6 3 7 4 8 5 17 6 18 7 19 8 20 9 21 10 2 12 1 13 3 14
REMARK SMILES IDX 9 15 10 16 15 17 11 18 14 19 12 20 16 21 13 22
REMARK H PARENT 5 11
ROOT
ATOM      1  N   UNL     1      42.809 132.069  21.021  1.00  0.00    -0.091 N 
ATOM      2  N   UNL     1      42.803 132.331  19.716  1.00  0.00    -0.116 N 
ATOM      3  C   UNL     1      43.874 131.736  19.168  1.00  0.00     0.237 A 
ATOM      4  C   UNL     1      44.266 131.737  17.833  1.00  0.00     0.091 A 
ATOM      5  C   UNL     1      45.444 131.037  17.488  1.00  0.00    -0.010 A 
ATOM      6  C   UNL     1      46.172 130.344  18.491  1.00  0.00     0.010 A 
ATOM      7  C   UNL     1      45.745 130.365  19.832  1.00  0.00     0.018 A 
ATOM      8  C   UNL     1      44.585 131.077  20.134  1.00  0.00     0.074 A 
ATOM      9  C   UNL     1      43.895 131.298  21.314  1.00  0.00     0.097 A 
ATOM     10  C   UNL     1      44.268 130.781  22.673  1.00  0.00     0.072 C 
ATOM     11  H   UNL     1      42.089 132.899  19.208  1.00  0.00     0.489 HD
ENDROOT
BRANCH   1  12
ATOM     12  C   UNL     1      41.802 132.549  21.937  1.00  0.00     0.279 C 
ATOM     13  C   UNL     1      40.743 133.504  21.481  1.00  0.00     0.121 C 
ATOM     14  O   UNL     1      41.797 132.170  23.139  1.00  0.00    -0.269 OA
ENDBRANCH   1  12
BRANCH   5  15
ATOM     15  C   UNL     1      45.903 130.994  16.081  1.00  0.00     0.003 A 
ATOM     16  C   UNL     1      46.480 132.145  15.520  1.00  0.00     0.123 A 
ATOM     17  C   UNL     1      45.776 129.835  15.278  1.00  0.00    -0.037 A 
ATOM     18  N   UNL     1      46.937 132.131  14.241  1.00  0.00    -0.228 NA
ATOM     19  C   UNL     1      46.275 129.856  13.966  1.00  0.00     0.064 A 
ATOM     20  C   UNL     1      46.851 131.022  13.463  1.00  0.00     0.213 A 
ATOM     21  C   UNL     1      45.135 128.572  15.793  1.00  0.00     0.045 C 
ATOM     22  F   UNL     1      47.326 131.052  12.193  1.00  0.00    -0.185 F 
ENDBRANCH   5  15
TORSDOF 2
ENDMDL


