REMARK SMILES NNc1cc(F)c(F)cc1[NH2+]c1ccc(F)cc1
REMARK SMILES IDX 3 1 4 2 5 3 6 4 7 5 8 6 9 7 10 8 2 9 1 11 11 14 12 17 13 18
REMARK SMILES IDX 18 19 14 20 17 21 15 22 16 23
REMARK H PARENT 2 10 1 12 1 13 11 15 11 16
ROOT
ATOM      1  C   UNL     1      -0.260  -1.552  -0.541  1.00  0.00     0.114 A 
ATOM      2  C   UNL     1      -0.916  -1.858  -1.749  1.00  0.00     0.075 A 
ATOM      3  C   UNL     1      -2.241  -1.476  -1.961  1.00  0.00     0.161 A 
ATOM      4  F   UNL     1      -2.855  -1.785  -3.130  1.00  0.00    -0.204 F 
ATOM      5  C   UNL     1      -2.933  -0.778  -0.973  1.00  0.00     0.164 A 
ATOM      6  F   UNL     1      -4.220  -0.404  -1.180  1.00  0.00    -0.204 F 
ATOM      7  C   UNL     1      -2.302  -0.459   0.229  1.00  0.00     0.112 A 
ATOM      8  C   UNL     1      -0.964  -0.835   0.468  1.00  0.00     0.162 A 
ENDROOT
BRANCH   1   9
ATOM      9  N   UNL     1       1.103  -1.972  -0.350  1.00  0.00    -0.319 N 
ATOM     10  H   UNL     1       1.524  -2.009   0.603  1.00  0.00     0.181 HD
BRANCH   9  11
ATOM     11  N   UNL     1       1.890  -2.395  -1.432  1.00  0.00    -0.250 NA
ATOM     12  H   UNL     1       2.161  -3.387  -1.246  1.00  0.00     0.143 HD
ATOM     13  H   UNL     1       2.768  -1.828  -1.414  1.00  0.00     0.143 HD
ENDBRANCH   9  11
ENDBRANCH   1   9
BRANCH   8  14
ATOM     14  N   UNL     1      -0.332  -0.433   1.707  1.00  0.00    -0.280 N 
ATOM     15  H   UNL     1      -1.051  -0.138   2.408  1.00  0.00     0.358 HD
ATOM     16  H   UNL     1       0.161  -1.249   2.136  1.00  0.00     0.358 HD
BRANCH  14  17
ATOM     17  C   UNL     1       0.561   0.681   1.488  1.00  0.00     0.134 A 
ATOM     18  C   UNL     1       0.059   1.923   1.051  1.00  0.00     0.071 A 
ATOM     19  C   UNL     1       1.939   0.560   1.752  1.00  0.00     0.071 A 
ATOM     20  C   UNL     1       0.921   3.005   0.850  1.00  0.00     0.045 A 
ATOM     21  C   UNL     1       2.796   1.645   1.549  1.00  0.00     0.045 A 
ATOM     22  C   UNL     1       2.289   2.865   1.095  1.00  0.00     0.123 A 
ATOM     23  F   UNL     1       3.123   3.917   0.901  1.00  0.00    -0.207 F 
ENDBRANCH  14  17
ENDBRANCH   8  14
TORSDOF 4


