MODEL 1
REMARK VINA RESULT:      -6.4      0.000      0.000
REMARK SMILES Cn1nnc2cc(N(C(=O)c3cc(F)c[nH]3)C(=O)[C@H](F)Cl)ccc21
REMARK SMILES IDX 8 1 7 2 2 3 3 4 24 5 4 6 23 7 5 8 22 9 6 10 1 11 9 12 10 13
REMARK SMILES IDX 11 14 12 15 16 16 13 17 15 18 14 20 17 21 18 22 19 23 20 24
REMARK SMILES IDX 21 25
REMARK H PARENT 16 19
ROOT
ATOM      1  N   UNL     1      44.600 131.364  19.182  1.00  0.00    -0.241 N 
ENDROOT
BRANCH   1   2
ATOM      2  C   UNL     1      45.176 131.201  17.870  1.00  0.00     0.055 A 
ATOM      3  N   UNL     1      46.885 130.476  14.224  1.00  0.00    -0.248 N 
ATOM      4  N   UNL     1      47.054 129.163  14.342  1.00  0.00    -0.066 NA
ATOM      5  C   UNL     1      46.316 130.906  15.358  1.00  0.00     0.089 A 
ATOM      6  N   UNL     1      46.603 128.729  15.519  1.00  0.00    -0.130 NA
ATOM      7  C   UNL     1      45.947 132.189  15.750  1.00  0.00     0.032 A 
ATOM      8  C   UNL     1      46.139 129.821  16.156  1.00  0.00     0.115 A 
ATOM      9  C   UNL     1      45.370 132.331  17.027  1.00  0.00     0.029 A 
ATOM     10  C   UNL     1      45.574 129.918  17.423  1.00  0.00     0.059 A 
ATOM     11  C   UNL     1      47.293 131.269  13.072  1.00  0.00     0.176 C 
ENDBRANCH   1   2
BRANCH   1  12
ATOM     12  C   UNL     1      45.412 131.178  20.360  1.00  0.00     0.281 C 
ATOM     13  O   UNL     1      46.310 132.020  20.635  1.00  0.00    -0.266 OA
BRANCH  12  14
ATOM     14  C   UNL     1      45.223 130.018  21.256  1.00  0.00     0.108 A 
ATOM     15  C   UNL     1      45.598 128.719  20.964  1.00  0.00     0.072 A 
ATOM     16  N   UNL     1      44.693 130.085  22.496  1.00  0.00    -0.355 N 
ATOM     17  C   UNL     1      45.261 127.977  22.076  1.00  0.00     0.141 A 
ATOM     18  C   UNL     1      44.711 128.837  23.000  1.00  0.00     0.122 A 
ATOM     19  H   UNL     1      44.360 130.937  22.998  1.00  0.00     0.166 HD
ATOM     20  F   UNL     1      45.452 126.645  22.236  1.00  0.00    -0.205 F 
ENDBRANCH  12  14
ENDBRANCH   1  12
BRANCH   1  21
ATOM     21  C   UNL     1      43.231 131.794  19.337  1.00  0.00     0.284 C 
ATOM     22  O   UNL     1      42.462 131.781  18.337  1.00  0.00    -0.269 OA
BRANCH  21  23
ATOM     23  C   UNL     1      42.711 132.297  20.660  1.00  0.00     0.347 C 
ATOM     24  F   UNL     1      42.316 131.233  21.453  1.00  0.00    -0.219 F 
ATOM     25  Cl  UNL     1      41.308 133.378  20.440  1.00  0.00    -0.075 Cl
ENDBRANCH  21  23
ENDBRANCH   1  21
TORSDOF 5
ENDMDL
MODEL 2
REMARK VINA RESULT:      -6.0      1.270      1.793
REMARK SMILES Cn1nnc2cc(N(C(=O)c3cc(F)c[nH]3)C(=O)[C@H](F)Cl)ccc21
REMARK SMILES IDX 8 1 7 2 2 3 3 4 24 5 4 6 23 7 5 8 22 9 6 10 1 11 9 12 10 13
REMARK SMILES IDX 11 14 12 15 16 16 13 17 15 18 14 20 17 21 18 22 19 23 20 24
REMARK SMILES IDX 21 25
REMARK H PARENT 16 19
ROOT
ATOM      1  N   UNL     1      44.347 131.553  18.532  1.00  0.00    -0.241 N 
ENDROOT
BRANCH   1   2
ATOM      2  C   UNL     1      45.198 131.153  17.438  1.00  0.00     0.055 A 
ATOM      3  N   UNL     1      47.528 130.252  14.199  1.00  0.00    -0.248 N 
ATOM      4  N   UNL     1      47.451 131.420  13.569  1.00  0.00    -0.066 NA
ATOM      5  C   UNL     1      46.805 130.359  15.322  1.00  0.00     0.089 A 
ATOM      6  N   UNL     1      46.704 132.284  14.257  1.00  0.00    -0.130 NA
ATOM      7  C   UNL     1      46.546 129.424  16.318  1.00  0.00     0.032 A 
ATOM      8  C   UNL     1      46.299 131.620  15.356  1.00  0.00     0.115 A 
ATOM      9  C   UNL     1      45.730 129.834  17.390  1.00  0.00     0.029 A 
ATOM     10  C   UNL     1      45.488 132.064  16.394  1.00  0.00     0.059 A 
ATOM     11  C   UNL     1      48.246 129.085  13.705  1.00  0.00     0.176 C 
ENDBRANCH   1   2
BRANCH   1  12
ATOM     12  C   UNL     1      44.910 131.801  19.837  1.00  0.00     0.281 C 
ATOM     13  O   UNL     1      45.568 132.858  20.039  1.00  0.00    -0.266 OA
BRANCH  12  14
ATOM     14  C   UNL     1      44.742 130.842  20.948  1.00  0.00     0.108 A 
ATOM     15  C   UNL     1      45.368 129.611  21.037  1.00  0.00     0.072 A 
ATOM     16  N   UNL     1      43.983 131.061  22.043  1.00  0.00    -0.355 N 
ATOM     17  C   UNL     1      44.949 129.068  22.233  1.00  0.00     0.141 A 
ATOM     18  C   UNL     1      44.104 129.976  22.830  1.00  0.00     0.122 A 
ATOM     19  H   UNL     1      43.429 131.916  22.269  1.00  0.00     0.166 HD
ATOM     20  F   UNL     1      45.316 127.864  22.736  1.00  0.00    -0.205 F 
ENDBRANCH  12  14
ENDBRANCH   1  12
BRANCH   1  21
ATOM     21  C   UNL     1      42.940 131.792  18.322  1.00  0.00     0.284 C 
ATOM     22  O   UNL     1      42.539 132.166  17.185  1.00  0.00    -0.269 OA
BRANCH  21  23
ATOM     23  C   UNL     1      41.942 131.646  19.443  1.00  0.00     0.347 C 
ATOM     24  F   UNL     1      40.727 131.209  18.946  1.00  0.00    -0.219 F 
ATOM     25  Cl  UNL     1      41.674 133.198  20.284  1.00  0.00    -0.075 Cl
ENDBRANCH  21  23
ENDBRANCH   1  21
TORSDOF 5
ENDMDL
MODEL 3
REMARK VINA RESULT:      -5.9      1.143      1.797
REMARK SMILES Cn1nnc2cc(N(C(=O)c3cc(F)c[nH]3)C(=O)[C@H](F)Cl)ccc21
REMARK SMILES IDX 8 1 7 2 2 3 3 4 24 5 4 6 23 7 5 8 22 9 6 10 1 11 9 12 10 13
REMARK SMILES IDX 11 14 12 15 16 16 13 17 15 18 14 20 17 21 18 22 19 23 20 24
REMARK SMILES IDX 21 25
REMARK H PARENT 16 19
ROOT
ATOM      1  N   UNL     1      44.611 131.360  19.418  1.00  0.00    -0.241 N 
ENDROOT
BRANCH   1   2
ATOM      2  C   UNL     1      45.276 131.060  18.174  1.00  0.00     0.055 A 
ATOM      3  N   UNL     1      47.045 130.444  14.537  1.00  0.00    -0.248 N 
ATOM      4  N   UNL     1      46.799 131.632  13.994  1.00  0.00    -0.066 NA
ATOM      5  C   UNL     1      46.526 130.458  15.772  1.00  0.00     0.089 A 
ATOM      6  N   UNL     1      46.141 132.418  14.846  1.00  0.00    -0.130 NA
ATOM      7  C   UNL     1      46.494 129.466  16.747  1.00  0.00     0.032 A 
ATOM      8  C   UNL     1      45.970 131.683  15.961  1.00  0.00     0.115 A 
ATOM      9  C   UNL     1      45.858 129.779  17.964  1.00  0.00     0.029 A 
ATOM     10  C   UNL     1      45.331 132.032  17.146  1.00  0.00     0.059 A 
ATOM     11  C   UNL     1      47.724 129.345  13.865  1.00  0.00     0.176 C 
ENDBRANCH   1   2
BRANCH   1  12
ATOM     12  C   UNL     1      45.328 131.267  20.666  1.00  0.00     0.281 C 
ATOM     13  O   UNL     1      46.185 132.146  20.957  1.00  0.00    -0.266 OA
BRANCH  12  14
ATOM     14  C   UNL     1      45.090 130.160  21.616  1.00  0.00     0.108 A 
ATOM     15  C   UNL     1      44.468 130.288  22.845  1.00  0.00     0.072 A 
ATOM     16  N   UNL     1      45.416 128.870  21.388  1.00  0.00    -0.355 N 
ATOM     17  C   UNL     1      44.437 129.017  23.378  1.00  0.00     0.141 A 
ATOM     18  C   UNL     1      45.021 128.167  22.466  1.00  0.00     0.122 A 
ATOM     19  H   UNL     1      45.858 128.470  20.531  1.00  0.00     0.166 HD
ATOM     20  F   UNL     1      43.912 128.666  24.577  1.00  0.00    -0.205 F 
ENDBRANCH  12  14
ENDBRANCH   1  12
BRANCH   1  21
ATOM     21  C   UNL     1      43.249 131.837  19.430  1.00  0.00     0.284 C 
ATOM     22  O   UNL     1      42.589 131.848  18.354  1.00  0.00    -0.269 OA
BRANCH  21  23
ATOM     23  C   UNL     1      42.610 132.360  20.691  1.00  0.00     0.347 C 
ATOM     24  F   UNL     1      42.145 131.309  21.462  1.00  0.00    -0.219 F 
ATOM     25  Cl  UNL     1      41.231 133.434  20.327  1.00  0.00    -0.075 Cl
ENDBRANCH  21  23
ENDBRANCH   1  21
TORSDOF 5
ENDMDL
MODEL 4
REMARK VINA RESULT:      -5.4      1.996      3.444
REMARK SMILES Cn1nnc2cc(N(C(=O)c3cc(F)c[nH]3)C(=O)[C@H](F)Cl)ccc21
REMARK SMILES IDX 8 1 7 2 2 3 3 4 24 5 4 6 23 7 5 8 22 9 6 10 1 11 9 12 10 13
REMARK SMILES IDX 11 14 12 15 16 16 13 17 15 18 14 20 17 21 18 22 19 23 20 24
REMARK SMILES IDX 21 25
REMARK H PARENT 16 19
ROOT
ATOM      1  N   UNL     1      44.703 131.603  18.499  1.00  0.00    -0.241 N 
ENDROOT
BRANCH   1   2
ATOM      2  C   UNL     1      45.369 131.374  17.240  1.00  0.00     0.055 A 
ATOM      3  N   UNL     1      47.331 130.467  13.767  1.00  0.00    -0.248 N 
ATOM      4  N   UNL     1      47.519 129.169  13.979  1.00  0.00    -0.066 NA
ATOM      5  C   UNL     1      46.679 130.952  14.832  1.00  0.00     0.089 A 
ATOM      6  N   UNL     1      47.000 128.797  15.150  1.00  0.00    -0.130 NA
ATOM      7  C   UNL     1      46.258 132.247  15.117  1.00  0.00     0.032 A 
ATOM      8  C   UNL     1      46.472 129.915  15.684  1.00  0.00     0.115 A 
ATOM      9  C   UNL     1      45.594 132.454  16.342  1.00  0.00     0.029 A 
ATOM     10  C   UNL     1      45.822 130.075  16.903  1.00  0.00     0.059 A 
ATOM     11  C   UNL     1      47.798 131.197  12.596  1.00  0.00     0.176 C 
ENDBRANCH   1   2
BRANCH   1  12
ATOM     12  C   UNL     1      43.268 131.735  18.549  1.00  0.00     0.281 C 
ATOM     13  O   UNL     1      42.584 131.468  17.522  1.00  0.00    -0.266 OA
BRANCH  12  14
ATOM     14  C   UNL     1      42.572 132.182  19.773  1.00  0.00     0.108 A 
ATOM     15  C   UNL     1      42.765 131.649  21.036  1.00  0.00     0.072 A 
ATOM     16  N   UNL     1      41.684 133.197  19.824  1.00  0.00    -0.355 N 
ATOM     17  C   UNL     1      41.942 132.372  21.872  1.00  0.00     0.141 A 
ATOM     18  C   UNL     1      41.292 133.314  21.107  1.00  0.00     0.122 A 
ATOM     19  H   UNL     1      41.373 133.807  19.036  1.00  0.00     0.166 HD
ATOM     20  F   UNL     1      41.808 132.196  23.210  1.00  0.00    -0.205 F 
ENDBRANCH  12  14
ENDBRANCH   1  12
BRANCH   1  21
ATOM     21  C   UNL     1      45.449 131.622  19.734  1.00  0.00     0.284 C 
ATOM     22  O   UNL     1      45.755 132.730  20.255  1.00  0.00    -0.269 OA
BRANCH  21  23
ATOM     23  C   UNL     1      45.907 130.346  20.395  1.00  0.00     0.347 C 
ATOM     24  F   UNL     1      45.743 129.276  19.533  1.00  0.00    -0.219 F 
ATOM     25  Cl  UNL     1      44.975 130.011  21.881  1.00  0.00    -0.075 Cl
ENDBRANCH  21  23
ENDBRANCH   1  21
TORSDOF 5
ENDMDL
MODEL 5
REMARK VINA RESULT:      -5.4      3.515      6.845
REMARK SMILES Cn1nnc2cc(N(C(=O)c3cc(F)c[nH]3)C(=O)[C@H](F)Cl)ccc21
REMARK SMILES IDX 8 1 7 2 2 3 3 4 24 5 4 6 23 7 5 8 22 9 6 10 1 11 9 12 10 13
REMARK SMILES IDX 11 14 12 15 16 16 13 17 15 18 14 20 17 21 18 22 19 23 20 24
REMARK SMILES IDX 21 25
REMARK H PARENT 16 19
ROOT
ATOM      1  N   UNL     1      45.420 131.072  16.848  1.00  0.00    -0.241 N 
ENDROOT
BRANCH   1   2
ATOM      2  C   UNL     1      45.064 131.115  18.245  1.00  0.00     0.055 A 
ATOM      3  N   UNL     1      43.848 131.417  22.140  1.00  0.00    -0.248 N 
ATOM      4  N   UNL     1      42.692 132.040  21.938  1.00  0.00    -0.066 NA
ATOM      5  C   UNL     1      44.408 131.222  20.938  1.00  0.00     0.089 A 
ATOM      6  N   UNL     1      42.484 132.250  20.638  1.00  0.00    -0.130 NA
ATOM      7  C   UNL     1      45.621 130.634  20.595  1.00  0.00     0.032 A 
ATOM      8  C   UNL     1      43.559 131.736  20.011  1.00  0.00     0.115 A 
ATOM      9  C   UNL     1      45.948 130.583  19.226  1.00  0.00     0.029 A 
ATOM     10  C   UNL     1      43.844 131.708  18.650  1.00  0.00     0.059 A 
ATOM     11  C   UNL     1      44.387 131.061  23.446  1.00  0.00     0.176 C 
ENDBRANCH   1   2
BRANCH   1  12
ATOM     12  C   UNL     1      46.068 129.906  16.299  1.00  0.00     0.281 C 
ATOM     13  O   UNL     1      45.960 128.798  16.893  1.00  0.00    -0.266 OA
BRANCH  12  14
ATOM     14  C   UNL     1      46.862 129.975  15.055  1.00  0.00     0.108 A 
ATOM     15  C   UNL     1      46.979 131.093  14.248  1.00  0.00     0.072 A 
ATOM     16  N   UNL     1      47.611 128.964  14.566  1.00  0.00    -0.355 N 
ATOM     17  C   UNL     1      47.824 130.723  13.223  1.00  0.00     0.141 A 
ATOM     18  C   UNL     1      48.199 129.416  13.443  1.00  0.00     0.122 A 
ATOM     19  H   UNL     1      47.748 128.017  14.984  1.00  0.00     0.166 HD
ATOM     20  F   UNL     1      48.226 131.509  12.195  1.00  0.00    -0.205 F 
ENDBRANCH  12  14
ENDBRANCH   1  12
BRANCH   1  21
ATOM     21  C   UNL     1      45.061 132.154  15.963  1.00  0.00     0.284 C 
ATOM     22  O   UNL     1      45.857 133.122  15.817  1.00  0.00    -0.269 OA
BRANCH  21  23
ATOM     23  C   UNL     1      43.737 132.173  15.242  1.00  0.00     0.347 C 
ATOM     24  F   UNL     1      42.722 131.783  16.097  1.00  0.00    -0.219 F 
ATOM     25  Cl  UNL     1      43.742 131.066  13.842  1.00  0.00    -0.075 Cl
ENDBRANCH  21  23
ENDBRANCH   1  21
TORSDOF 5
ENDMDL
MODEL 6
REMARK VINA RESULT:      -5.0      2.645      3.668
REMARK SMILES Cn1nnc2cc(N(C(=O)c3cc(F)c[nH]3)C(=O)[C@H](F)Cl)ccc21
REMARK SMILES IDX 8 1 7 2 2 3 3 4 24 5 4 6 23 7 5 8 22 9 6 10 1 11 9 12 10 13
REMARK SMILES IDX 11 14 12 15 16 16 13 17 15 18 14 20 17 21 18 22 19 23 20 24
REMARK SMILES IDX 21 25
REMARK H PARENT 16 19
ROOT
ATOM      1  N   UNL     1      44.779 131.346  18.448  1.00  0.00    -0.241 N 
ENDROOT
BRANCH   1   2
ATOM      2  C   UNL     1      45.457 131.190  17.185  1.00  0.00     0.055 A 
ATOM      3  N   UNL     1      47.469 130.495  13.692  1.00  0.00    -0.248 N 
ATOM      4  N   UNL     1      47.729 129.203  13.867  1.00  0.00    -0.066 NA
ATOM      5  C   UNL     1      46.790 130.912  14.769  1.00  0.00     0.089 A 
ATOM      6  N   UNL     1      47.231 128.770  15.026  1.00  0.00    -0.130 NA
ATOM      7  C   UNL     1      46.297 132.172  15.089  1.00  0.00     0.032 A 
ATOM      8  C   UNL     1      46.641 129.840  15.591  1.00  0.00     0.115 A 
ATOM      9  C   UNL     1      45.622 132.307  16.318  1.00  0.00     0.029 A 
ATOM     10  C   UNL     1      45.982 129.930  16.812  1.00  0.00     0.059 A 
ATOM     11  C   UNL     1      47.895 131.282  12.543  1.00  0.00     0.176 C 
ENDBRANCH   1   2
BRANCH   1  12
ATOM     12  C   UNL     1      43.372 131.661  18.484  1.00  0.00     0.281 C 
ATOM     13  O   UNL     1      42.694 131.596  17.421  1.00  0.00    -0.266 OA
BRANCH  12  14
ATOM     14  C   UNL     1      42.699 132.064  19.736  1.00  0.00     0.108 A 
ATOM     15  C   UNL     1      41.712 133.029  19.832  1.00  0.00     0.072 A 
ATOM     16  N   UNL     1      42.934 131.512  20.945  1.00  0.00    -0.355 N 
ATOM     17  C   UNL     1      41.355 133.062  21.164  1.00  0.00     0.141 A 
ATOM     18  C   UNL     1      42.116 132.123  21.823  1.00  0.00     0.122 A 
ATOM     19  H   UNL     1      43.594 130.735  21.170  1.00  0.00     0.166 HD
ATOM     20  F   UNL     1      40.415 133.864  21.719  1.00  0.00    -0.205 F 
ENDBRANCH  12  14
ENDBRANCH   1  12
BRANCH   1  21
ATOM     21  C   UNL     1      45.473 131.110  19.691  1.00  0.00     0.284 C 
ATOM     22  O   UNL     1      45.751 129.926  20.029  1.00  0.00    -0.269 OA
BRANCH  21  23
ATOM     23  C   UNL     1      45.838 132.245  20.615  1.00  0.00     0.347 C 
ATOM     24  F   UNL     1      45.554 133.459  20.015  1.00  0.00    -0.219 F 
ATOM     25  Cl  UNL     1      47.575 132.219  21.025  1.00  0.00    -0.075 Cl
ENDBRANCH  21  23
ENDBRANCH   1  21
TORSDOF 5
ENDMDL
MODEL 7
REMARK VINA RESULT:      -4.9      1.240      1.304
REMARK SMILES Cn1nnc2cc(N(C(=O)c3cc(F)c[nH]3)C(=O)[C@H](F)Cl)ccc21
REMARK SMILES IDX 8 1 7 2 2 3 3 4 24 5 4 6 23 7 5 8 22 9 6 10 1 11 9 12 10 13
REMARK SMILES IDX 11 14 12 15 16 16 13 17 15 18 14 20 17 21 18 22 19 23 20 24
REMARK SMILES IDX 21 25
REMARK H PARENT 16 19
ROOT
ATOM      1  N   UNL     1      44.526 131.224  19.665  1.00  0.00    -0.241 N 
ENDROOT
BRANCH   1   2
ATOM      2  C   UNL     1      45.016 131.121  18.312  1.00  0.00     0.055 A 
ATOM      3  N   UNL     1      46.466 130.557  14.529  1.00  0.00    -0.248 N 
ATOM      4  N   UNL     1      46.549 129.230  14.544  1.00  0.00    -0.066 NA
ATOM      5  C   UNL     1      45.992 130.938  15.722  1.00  0.00     0.089 A 
ATOM      6  N   UNL     1      46.134 128.740  15.713  1.00  0.00    -0.130 NA
ATOM      7  C   UNL     1      45.736 132.210  16.225  1.00  0.00     0.032 A 
ATOM      8  C   UNL     1      45.784 129.811  16.452  1.00  0.00     0.115 A 
ATOM      9  C   UNL     1      45.241 132.295  17.540  1.00  0.00     0.029 A 
ATOM     10  C   UNL     1      45.298 129.851  17.754  1.00  0.00     0.059 A 
ATOM     11  C   UNL     1      46.864 131.403  13.412  1.00  0.00     0.176 C 
ENDBRANCH   1   2
BRANCH   1  12
ATOM     12  C   UNL     1      45.412 130.989  20.778  1.00  0.00     0.281 C 
ATOM     13  O   UNL     1      46.589 131.443  20.742  1.00  0.00    -0.266 OA
BRANCH  12  14
ATOM     14  C   UNL     1      44.979 130.223  21.965  1.00  0.00     0.108 A 
ATOM     15  C   UNL     1      45.019 128.844  22.079  1.00  0.00     0.072 A 
ATOM     16  N   UNL     1      44.524 130.774  23.110  1.00  0.00    -0.355 N 
ATOM     17  C   UNL     1      44.552 128.564  23.345  1.00  0.00     0.141 A 
ATOM     18  C   UNL     1      44.257 129.762  23.956  1.00  0.00     0.122 A 
ATOM     19  H   UNL     1      44.423 131.790  23.328  1.00  0.00     0.166 HD
ATOM     20  F   UNL     1      44.420 127.331  23.894  1.00  0.00    -0.205 F 
ENDBRANCH  12  14
ENDBRANCH   1  12
BRANCH   1  21
ATOM     21  C   UNL     1      43.170 131.642  19.927  1.00  0.00     0.284 C 
ATOM     22  O   UNL     1      42.470 130.989  20.750  1.00  0.00    -0.269 OA
BRANCH  21  23
ATOM     23  C   UNL     1      42.557 132.817  19.209  1.00  0.00     0.347 C 
ATOM     24  F   UNL     1      41.604 133.421  20.010  1.00  0.00    -0.219 F 
ATOM     25  Cl  UNL     1      41.769 132.313  17.689  1.00  0.00    -0.075 Cl
ENDBRANCH  21  23
ENDBRANCH   1  21
TORSDOF 5
ENDMDL
MODEL 8
REMARK VINA RESULT:      -4.9      3.711      6.897
REMARK SMILES Cn1nnc2cc(N(C(=O)c3cc(F)c[nH]3)C(=O)[C@H](F)Cl)ccc21
REMARK SMILES IDX 8 1 7 2 2 3 3 4 24 5 4 6 23 7 5 8 22 9 6 10 1 11 9 12 10 13
REMARK SMILES IDX 11 14 12 15 16 16 13 17 15 18 14 20 17 21 18 22 19 23 20 24
REMARK SMILES IDX 21 25
REMARK H PARENT 16 19
ROOT
ATOM      1  N   UNL     1      45.032 131.029  16.129  1.00  0.00    -0.241 N 
ENDROOT
BRANCH   1   2
ATOM      2  C   UNL     1      44.728 131.142  17.535  1.00  0.00     0.055 A 
ATOM      3  N   UNL     1      43.653 131.638  21.451  1.00  0.00    -0.248 N 
ATOM      4  N   UNL     1      42.482 132.238  21.260  1.00  0.00    -0.066 NA
ATOM      5  C   UNL     1      44.170 131.386  20.241  1.00  0.00     0.089 A 
ATOM      6  N   UNL     1      42.224 132.376  19.959  1.00  0.00    -0.130 NA
ATOM      7  C   UNL     1      45.377 130.793  19.884  1.00  0.00     0.032 A 
ATOM      8  C   UNL     1      43.282 131.841  19.320  1.00  0.00     0.115 A 
ATOM      9  C   UNL     1      45.653 130.672  18.508  1.00  0.00     0.029 A 
ATOM     10  C   UNL     1      43.516 131.743  17.953  1.00  0.00     0.059 A 
ATOM     11  C   UNL     1      44.243 131.358  22.752  1.00  0.00     0.176 C 
ENDBRANCH   1   2
BRANCH   1  12
ATOM     12  C   UNL     1      46.117 131.788  15.557  1.00  0.00     0.281 C 
ATOM     13  O   UNL     1      46.314 132.974  15.940  1.00  0.00    -0.266 OA
BRANCH  12  14
ATOM     14  C   UNL     1      47.005 131.214  14.526  1.00  0.00     0.108 A 
ATOM     15  C   UNL     1      47.571 129.952  14.577  1.00  0.00     0.072 A 
ATOM     16  N   UNL     1      47.349 131.834  13.377  1.00  0.00    -0.355 N 
ATOM     17  C   UNL     1      48.296 129.823  13.412  1.00  0.00     0.141 A 
ATOM     18  C   UNL     1      48.142 130.988  12.694  1.00  0.00     0.122 A 
ATOM     19  H   UNL     1      47.040 132.776  13.049  1.00  0.00     0.166 HD
ATOM     20  F   UNL     1      49.018 128.740  13.035  1.00  0.00    -0.205 F 
ENDBRANCH  12  14
ENDBRANCH   1  12
BRANCH   1  21
ATOM     21  C   UNL     1      44.313 130.098  15.293  1.00  0.00     0.284 C 
ATOM     22  O   UNL     1      44.371 128.864  15.551  1.00  0.00    -0.269 OA
BRANCH  21  23
ATOM     23  C   UNL     1      43.529 130.564  14.092  1.00  0.00     0.347 C 
ATOM     24  F   UNL     1      44.373 130.736  13.009  1.00  0.00    -0.219 F 
ATOM     25  Cl  UNL     1      42.710 132.117  14.411  1.00  0.00    -0.075 Cl
ENDBRANCH  21  23
ENDBRANCH   1  21
TORSDOF 5
ENDMDL
MODEL 9
REMARK VINA RESULT:      -4.9      1.483      1.652
REMARK SMILES Cn1nnc2cc(N(C(=O)c3cc(F)c[nH]3)C(=O)[C@H](F)Cl)ccc21
REMARK SMILES IDX 8 1 7 2 2 3 3 4 24 5 4 6 23 7 5 8 22 9 6 10 1 11 9 12 10 13
REMARK SMILES IDX 11 14 12 15 16 16 13 17 15 18 14 20 17 21 18 22 19 23 20 24
REMARK SMILES IDX 21 25
REMARK H PARENT 16 19
ROOT
ATOM      1  N   UNL     1      43.956 131.573  19.098  1.00  0.00    -0.241 N 
ENDROOT
BRANCH   1   2
ATOM      2  C   UNL     1      44.597 131.331  17.829  1.00  0.00     0.055 A 
ATOM      3  N   UNL     1      46.618 130.507  14.369  1.00  0.00    -0.248 N 
ATOM      4  N   UNL     1      47.481 129.618  14.851  1.00  0.00    -0.066 NA
ATOM      5  C   UNL     1      45.844 130.901  15.389  1.00  0.00     0.089 A 
ATOM      6  N   UNL     1      47.283 129.421  16.154  1.00  0.00    -0.130 NA
ATOM      7  C   UNL     1      44.804 131.824  15.425  1.00  0.00     0.032 A 
ATOM      8  C   UNL     1      46.256 130.224  16.492  1.00  0.00     0.115 A 
ATOM      9  C   UNL     1      44.175 132.037  16.667  1.00  0.00     0.029 A 
ATOM     10  C   UNL     1      45.665 130.406  17.737  1.00  0.00     0.059 A 
ATOM     11  C   UNL     1      46.579 130.967  12.987  1.00  0.00     0.176 C 
ENDBRANCH   1   2
BRANCH   1  12
ATOM     12  C   UNL     1      44.748 131.727  20.294  1.00  0.00     0.281 C 
ATOM     13  O   UNL     1      45.575 132.677  20.372  1.00  0.00    -0.266 OA
BRANCH  12  14
ATOM     14  C   UNL     1      44.620 130.796  21.434  1.00  0.00     0.108 A 
ATOM     15  C   UNL     1      43.963 131.076  22.618  1.00  0.00     0.072 A 
ATOM     16  N   UNL     1      45.098 129.533  21.450  1.00  0.00    -0.355 N 
ATOM     17  C   UNL     1      44.068 129.931  23.380  1.00  0.00     0.141 A 
ATOM     18  C   UNL     1      44.765 129.001  22.641  1.00  0.00     0.122 A 
ATOM     19  H   UNL     1      45.600 129.036  20.682  1.00  0.00     0.166 HD
ATOM     20  F   UNL     1      43.562 129.749  24.624  1.00  0.00    -0.205 F 
ENDBRANCH  12  14
ENDBRANCH   1  12
BRANCH   1  21
ATOM     21  C   UNL     1      42.526 131.745  19.180  1.00  0.00     0.284 C 
ATOM     22  O   UNL     1      41.768 130.875  18.669  1.00  0.00    -0.269 OA
BRANCH  21  23
ATOM     23  C   UNL     1      41.917 132.964  19.827  1.00  0.00     0.347 C 
ATOM     24  F   UNL     1      42.780 134.040  19.724  1.00  0.00    -0.219 F 
ATOM     25  Cl  UNL     1      41.581 132.684  21.558  1.00  0.00    -0.075 Cl
ENDBRANCH  21  23
ENDBRANCH   1  21
TORSDOF 5
ENDMDL


