MODEL 1
REMARK VINA RESULT:      -9.5      0.000      0.000
REMARK SMILES Cc1ccc([NH2+]c2cc(-c3c[nH+]c4c(c3)C(=O)NC4)cc(N)c2[O-])cc1F
REMARK SMILES IDX 7 1 8 2 9 3 20 4 21 5 23 6 24 7 6 8 5 11 2 12 3 13 26 14
REMARK SMILES IDX 4 15 25 16 1 17 27 18 10 19 11 20 15 21 12 22 14 23 13 24
REMARK SMILES IDX 16 25 19 26 18 27 17 29 22 31
REMARK H PARENT 6 9 6 10 12 28 18 30 22 32 22 33
ROOT
ATOM      1  C   UNL     1      44.006 131.116  21.986  1.00  0.00     0.129 A 
ATOM      2  C   UNL     1      44.652 130.841  20.767  1.00  0.00     0.076 A 
ATOM      3  C   UNL     1      44.166 131.362  19.558  1.00  0.00    -0.004 A 
ATOM      4  C   UNL     1      43.019 132.172  19.576  1.00  0.00     0.034 A 
ATOM      5  C   UNL     1      42.361 132.455  20.779  1.00  0.00     0.030 A 
ATOM      6  C   UNL     1      42.852 131.926  21.985  1.00  0.00    -0.021 A 
ATOM      7  O   UNL     1      42.196 132.206  23.180  1.00  0.00    -0.867 OA
ENDROOT
BRANCH   1   8
ATOM      8  N   UNL     1      44.505 130.533  23.209  1.00  0.00    -0.282 N 
ATOM      9  H   UNL     1      45.551 130.587  23.231  1.00  0.00     0.358 HD
ATOM     10  H   UNL     1      44.167 131.072  24.042  1.00  0.00     0.358 HD
BRANCH   8  11
ATOM     11  C   UNL     1      44.086 129.155  23.301  1.00  0.00     0.137 A 
ATOM     12  C   UNL     1      43.239 126.469  23.412  1.00  0.00    -0.015 A 
ATOM     13  C   UNL     1      42.413 127.493  23.899  1.00  0.00     0.012 A 
ATOM     14  C   UNL     1      44.500 126.792  22.885  1.00  0.00     0.132 A 
ATOM     15  C   UNL     1      42.830 128.826  23.839  1.00  0.00     0.068 A 
ATOM     16  C   UNL     1      44.915 128.125  22.824  1.00  0.00     0.107 A 
ATOM     17  C   UNL     1      42.801 125.035  23.503  1.00  0.00     0.047 C 
ATOM     18  F   UNL     1      45.328 125.817  22.430  1.00  0.00    -0.206 F 
ENDBRANCH   8  11
ENDBRANCH   1   8
BRANCH   3  19
ATOM     19  C   UNL     1      44.854 131.058  18.276  1.00  0.00     0.047 A 
ATOM     20  C   UNL     1      46.113 130.401  18.267  1.00  0.00     0.315 A 
ATOM     21  C   UNL     1      44.270 131.422  17.043  1.00  0.00     0.035 A 
ATOM     22  N   UNL     1      46.749 130.123  17.090  1.00  0.00    -0.212 N 
ATOM     23  C   UNL     1      44.962 131.117  15.878  1.00  0.00     0.109 A 
ATOM     24  C   UNL     1      46.176 130.479  15.912  1.00  0.00     0.211 A 
ATOM     25  C   UNL     1      44.645 131.346  14.491  1.00  0.00     0.258 C 
ATOM     26  C   UNL     1      46.723 130.257  14.533  1.00  0.00     0.225 C 
ATOM     27  N   UNL     1      45.690 130.838  13.670  1.00  0.00    -0.342 N 
ATOM     28  H   UNL     1      47.676 129.642  17.098  1.00  0.00     0.453 HD
ATOM     29  O   UNL     1      43.608 131.907  14.050  1.00  0.00    -0.269 OA
ATOM     30  H   UNL     1      45.712 130.865  12.627  1.00  0.00     0.164 HD
ENDBRANCH   3  19
BRANCH   5  31
ATOM     31  N   UNL     1      41.192 133.283  20.769  1.00  0.00    -0.399 N 
ATOM     32  H   UNL     1      41.252 134.314  20.924  1.00  0.00     0.156 HD
ATOM     33  H   UNL     1      40.246 132.868  20.609  1.00  0.00     0.156 HD
ENDBRANCH   5  31
TORSDOF 4
ENDMDL
MODEL 2
REMARK VINA RESULT:      -9.5      0.913      1.305
REMARK SMILES Cc1ccc([NH2+]c2cc(-c3c[nH+]c4c(c3)C(=O)NC4)cc(N)c2[O-])cc1F
REMARK SMILES IDX 7 1 8 2 9 3 20 4 21 5 23 6 24 7 6 8 5 11 2 12 3 13 26 14
REMARK SMILES IDX 4 15 25 16 1 17 27 18 10 19 11 20 15 21 12 22 14 23 13 24
REMARK SMILES IDX 16 25 19 26 18 27 17 29 22 31
REMARK H PARENT 6 9 6 10 12 28 18 30 22 32 22 33
ROOT
ATOM      1  C   UNL     1      44.020 131.086  21.972  1.00  0.00     0.129 A 
ATOM      2  C   UNL     1      44.661 130.811  20.751  1.00  0.00     0.076 A 
ATOM      3  C   UNL     1      44.178 131.344  19.545  1.00  0.00    -0.004 A 
ATOM      4  C   UNL     1      43.039 132.164  19.570  1.00  0.00     0.034 A 
ATOM      5  C   UNL     1      42.385 132.447  20.776  1.00  0.00     0.030 A 
ATOM      6  C   UNL     1      42.874 131.906  21.978  1.00  0.00    -0.021 A 
ATOM      7  O   UNL     1      42.221 132.186  23.176  1.00  0.00    -0.867 OA
ENDROOT
BRANCH   1   8
ATOM      8  N   UNL     1      44.515 130.491  23.192  1.00  0.00    -0.282 N 
ATOM      9  H   UNL     1      45.560 130.549  23.219  1.00  0.00     0.358 HD
ATOM     10  H   UNL     1      44.171 131.019  24.028  1.00  0.00     0.358 HD
BRANCH   8  11
ATOM     11  C   UNL     1      44.101 129.110  23.266  1.00  0.00     0.137 A 
ATOM     12  C   UNL     1      43.318 126.411  23.482  1.00  0.00    -0.015 A 
ATOM     13  C   UNL     1      44.581 126.744  22.971  1.00  0.00     0.012 A 
ATOM     14  C   UNL     1      42.439 127.436  23.868  1.00  0.00     0.132 A 
ATOM     15  C   UNL     1      44.973 128.082  22.869  1.00  0.00     0.068 A 
ATOM     16  C   UNL     1      42.832 128.774  23.768  1.00  0.00     0.107 A 
ATOM     17  C   UNL     1      42.888 124.974  23.564  1.00  0.00     0.047 C 
ATOM     18  F   UNL     1      41.202 127.141  24.342  1.00  0.00    -0.206 F 
ENDBRANCH   8  11
ENDBRANCH   1   8
BRANCH   3  19
ATOM     19  C   UNL     1      44.861 131.041  18.261  1.00  0.00     0.047 A 
ATOM     20  C   UNL     1      46.114 130.374  18.246  1.00  0.00     0.315 A 
ATOM     21  C   UNL     1      44.278 131.416  17.031  1.00  0.00     0.035 A 
ATOM     22  N   UNL     1      46.746 130.096  17.066  1.00  0.00    -0.212 N 
ATOM     23  C   UNL     1      44.965 131.111  15.863  1.00  0.00     0.109 A 
ATOM     24  C   UNL     1      46.174 130.463  15.892  1.00  0.00     0.211 A 
ATOM     25  C   UNL     1      44.648 131.349  14.478  1.00  0.00     0.258 C 
ATOM     26  C   UNL     1      46.716 130.244  14.510  1.00  0.00     0.225 C 
ATOM     27  N   UNL     1      45.687 130.838  13.652  1.00  0.00    -0.342 N 
ATOM     28  H   UNL     1      47.669 129.607  17.070  1.00  0.00     0.453 HD
ATOM     29  O   UNL     1      43.615 131.922  14.042  1.00  0.00    -0.269 OA
ATOM     30  H   UNL     1      45.707 130.870  12.609  1.00  0.00     0.164 HD
ENDBRANCH   3  19
BRANCH   5  31
ATOM     31  N   UNL     1      41.224 133.286  20.773  1.00  0.00    -0.399 N 
ATOM     32  H   UNL     1      40.439 133.133  21.443  1.00  0.00     0.156 HD
ATOM     33  H   UNL     1      41.137 134.073  20.090  1.00  0.00     0.156 HD
ENDBRANCH   5  31
TORSDOF 4
ENDMDL
MODEL 3
REMARK VINA RESULT:      -7.8      1.333      1.686
REMARK SMILES Cc1ccc([NH2+]c2cc(-c3c[nH+]c4c(c3)C(=O)NC4)cc(N)c2[O-])cc1F
REMARK SMILES IDX 7 1 8 2 9 3 20 4 21 5 23 6 24 7 6 8 5 11 2 12 3 13 26 14
REMARK SMILES IDX 4 15 25 16 1 17 27 18 10 19 11 20 15 21 12 22 14 23 13 24
REMARK SMILES IDX 16 25 19 26 18 27 17 29 22 31
REMARK H PARENT 6 9 6 10 12 28 18 30 22 32 22 33
ROOT
ATOM      1  C   UNL     1      44.166 131.169  21.527  1.00  0.00     0.129 A 
ATOM      2  C   UNL     1      44.552 131.031  20.182  1.00  0.00     0.076 A 
ATOM      3  C   UNL     1      43.781 131.586  19.148  1.00  0.00    -0.004 A 
ATOM      4  C   UNL     1      42.609 132.288  19.473  1.00  0.00     0.034 A 
ATOM      5  C   UNL     1      42.207 132.434  20.807  1.00  0.00     0.030 A 
ATOM      6  C   UNL     1      42.984 131.872  21.834  1.00  0.00    -0.021 A 
ATOM      7  O   UNL     1      42.582 132.016  23.160  1.00  0.00    -0.867 OA
ENDROOT
BRANCH   1   8
ATOM      8  N   UNL     1      44.958 130.553  22.566  1.00  0.00    -0.282 N 
ATOM      9  H   UNL     1      45.966 130.532  22.283  1.00  0.00     0.358 HD
ATOM     10  H   UNL     1      44.914 131.117  23.448  1.00  0.00     0.358 HD
BRANCH   8  11
ATOM     11  C   UNL     1      44.490 129.210  22.807  1.00  0.00     0.137 A 
ATOM     12  C   UNL     1      43.539 126.588  23.212  1.00  0.00    -0.015 A 
ATOM     13  C   UNL     1      42.850 127.683  23.754  1.00  0.00     0.012 A 
ATOM     14  C   UNL     1      44.718 126.807  22.482  1.00  0.00     0.132 A 
ATOM     15  C   UNL     1      43.318 128.984  23.548  1.00  0.00     0.068 A 
ATOM     16  C   UNL     1      45.184 128.108  22.274  1.00  0.00     0.107 A 
ATOM     17  C   UNL     1      43.050 125.188  23.458  1.00  0.00     0.047 C 
ATOM     18  F   UNL     1      45.416 125.762  21.969  1.00  0.00    -0.206 F 
ENDBRANCH   8  11
ENDBRANCH   1   8
BRANCH   3  19
ATOM     19  C   UNL     1      44.196 131.427  17.729  1.00  0.00     0.047 A 
ATOM     20  C   UNL     1      43.392 131.940  16.678  1.00  0.00     0.315 A 
ATOM     21  C   UNL     1      45.395 130.757  17.403  1.00  0.00     0.035 A 
ATOM     22  N   UNL     1      43.769 131.792  15.372  1.00  0.00    -0.212 N 
ATOM     23  C   UNL     1      45.729 130.634  16.060  1.00  0.00     0.109 A 
ATOM     24  C   UNL     1      44.925 131.146  15.073  1.00  0.00     0.211 A 
ATOM     25  C   UNL     1      46.859 130.023  15.408  1.00  0.00     0.258 C 
ATOM     26  C   UNL     1      45.495 130.891  13.709  1.00  0.00     0.225 C 
ATOM     27  N   UNL     1      46.736 130.166  13.998  1.00  0.00    -0.342 N 
ATOM     28  H   UNL     1      43.168 132.172  14.608  1.00  0.00     0.453 HD
ATOM     29  O   UNL     1      47.821 129.445  15.980  1.00  0.00    -0.269 OA
ATOM     30  H   UNL     1      47.420 129.822  13.290  1.00  0.00     0.164 HD
ENDBRANCH   3  19
BRANCH   5  31
ATOM     31  N   UNL     1      41.008 133.155  21.110  1.00  0.00    -0.399 N 
ATOM     32  H   UNL     1      40.963 134.195  21.035  1.00  0.00     0.156 HD
ATOM     33  H   UNL     1      40.146 132.650  21.419  1.00  0.00     0.156 HD
ENDBRANCH   5  31
TORSDOF 4
ENDMDL
MODEL 4
REMARK VINA RESULT:      -7.2      1.905      2.451
REMARK SMILES Cc1ccc([NH2+]c2cc(-c3c[nH+]c4c(c3)C(=O)NC4)cc(N)c2[O-])cc1F
REMARK SMILES IDX 7 1 8 2 9 3 20 4 21 5 23 6 24 7 6 8 5 11 2 12 3 13 26 14
REMARK SMILES IDX 4 15 25 16 1 17 27 18 10 19 11 20 15 21 12 22 14 23 13 24
REMARK SMILES IDX 16 25 19 26 18 27 17 29 22 31
REMARK H PARENT 6 9 6 10 12 28 18 30 22 32 22 33
ROOT
ATOM      1  C   UNL     1      44.583 131.284  20.533  1.00  0.00     0.129 A 
ATOM      2  C   UNL     1      45.301 131.256  19.324  1.00  0.00     0.076 A 
ATOM      3  C   UNL     1      44.667 131.518  18.100  1.00  0.00    -0.004 A 
ATOM      4  C   UNL     1      43.294 131.813  18.093  1.00  0.00     0.034 A 
ATOM      5  C   UNL     1      42.561 131.844  19.286  1.00  0.00     0.030 A 
ATOM      6  C   UNL     1      43.204 131.576  20.507  1.00  0.00    -0.021 A 
ATOM      7  O   UNL     1      42.474 131.604  21.692  1.00  0.00    -0.867 OA
ENDROOT
BRANCH   1   8
ATOM      8  N   UNL     1      45.253 130.970  21.773  1.00  0.00    -0.282 N 
ATOM      9  H   UNL     1      46.291 131.035  21.645  1.00  0.00     0.358 HD
ATOM     10  H   UNL     1      45.007 131.668  22.515  1.00  0.00     0.358 HD
BRANCH   8  11
ATOM     11  C   UNL     1      44.897 129.639  22.199  1.00  0.00     0.137 A 
ATOM     12  C   UNL     1      44.251 127.043  23.087  1.00  0.00    -0.015 A 
ATOM     13  C   UNL     1      45.207 127.229  22.079  1.00  0.00     0.012 A 
ATOM     14  C   UNL     1      43.604 128.160  23.639  1.00  0.00     0.132 A 
ATOM     15  C   UNL     1      45.533 128.517  21.642  1.00  0.00     0.068 A 
ATOM     16  C   UNL     1      43.931 129.448  23.203  1.00  0.00     0.107 A 
ATOM     17  C   UNL     1      43.883 125.657  23.536  1.00  0.00     0.047 C 
ATOM     18  F   UNL     1      42.657 128.005  24.598  1.00  0.00    -0.206 F 
ENDBRANCH   8  11
ENDBRANCH   1   8
BRANCH   3  19
ATOM     19  C   UNL     1      45.436 131.479  16.829  1.00  0.00     0.047 A 
ATOM     20  C   UNL     1      45.666 132.665  16.084  1.00  0.00     0.315 A 
ATOM     21  C   UNL     1      45.947 130.258  16.336  1.00  0.00     0.035 A 
ATOM     22  N   UNL     1      46.370 132.631  14.913  1.00  0.00    -0.212 N 
ATOM     23  C   UNL     1      46.653 130.282  15.140  1.00  0.00     0.109 A 
ATOM     24  C   UNL     1      46.855 131.451  14.451  1.00  0.00     0.211 A 
ATOM     25  C   UNL     1      47.292 129.233  14.386  1.00  0.00     0.258 C 
ATOM     26  C   UNL     1      47.645 131.223  13.196  1.00  0.00     0.225 C 
ATOM     27  N   UNL     1      47.891 129.778  13.217  1.00  0.00    -0.342 N 
ATOM     28  H   UNL     1      46.531 133.511  14.374  1.00  0.00     0.453 HD
ATOM     29  O   UNL     1      47.326 128.013  14.697  1.00  0.00    -0.269 OA
ATOM     30  H   UNL     1      48.425 129.240  12.499  1.00  0.00     0.164 HD
ENDBRANCH   3  19
BRANCH   5  31
ATOM     31  N   UNL     1      41.162 132.147  19.250  1.00  0.00    -0.399 N 
ATOM     32  H   UNL     1      40.500 131.753  19.955  1.00  0.00     0.156 HD
ATOM     33  H   UNL     1      40.770 132.771  18.508  1.00  0.00     0.156 HD
ENDBRANCH   5  31
TORSDOF 4
ENDMDL
MODEL 5
REMARK VINA RESULT:      -6.8      1.385      1.773
REMARK SMILES Cc1ccc([NH2+]c2cc(-c3c[nH+]c4c(c3)C(=O)NC4)cc(N)c2[O-])cc1F
REMARK SMILES IDX 7 1 8 2 9 3 20 4 21 5 23 6 24 7 6 8 5 11 2 12 3 13 26 14
REMARK SMILES IDX 4 15 25 16 1 17 27 18 10 19 11 20 15 21 12 22 14 23 13 24
REMARK SMILES IDX 16 25 19 26 18 27 17 29 22 31
REMARK H PARENT 6 9 6 10 12 28 18 30 22 32 22 33
ROOT
ATOM      1  C   UNL     1      44.093 131.756  20.440  1.00  0.00     0.129 A 
ATOM      2  C   UNL     1      44.978 131.262  19.465  1.00  0.00     0.076 A 
ATOM      3  C   UNL     1      44.634 131.274  18.104  1.00  0.00    -0.004 A 
ATOM      4  C   UNL     1      43.387 131.791  17.721  1.00  0.00     0.034 A 
ATOM      5  C   UNL     1      42.491 132.285  18.677  1.00  0.00     0.030 A 
ATOM      6  C   UNL     1      42.842 132.266  20.038  1.00  0.00    -0.021 A 
ATOM      7  O   UNL     1      41.950 132.756  20.988  1.00  0.00    -0.867 OA
ENDROOT
BRANCH   1   8
ATOM      8  N   UNL     1      44.457 131.694  21.836  1.00  0.00    -0.282 N 
ATOM      9  H   UNL     1      45.486 131.857  21.945  1.00  0.00     0.358 HD
ATOM     10  H   UNL     1      43.983 132.455  22.378  1.00  0.00     0.358 HD
BRANCH   8  11
ATOM     11  C   UNL     1      44.108 130.402  22.376  1.00  0.00     0.137 A 
ATOM     12  C   UNL     1      43.394 127.861  23.366  1.00  0.00    -0.015 A 
ATOM     13  C   UNL     1      42.544 128.960  23.557  1.00  0.00     0.012 A 
ATOM     14  C   UNL     1      44.614 128.042  22.693  1.00  0.00     0.132 A 
ATOM     15  C   UNL     1      42.895 130.220  23.061  1.00  0.00     0.068 A 
ATOM     16  C   UNL     1      44.963 129.300  22.196  1.00  0.00     0.107 A 
ATOM     17  C   UNL     1      43.029 126.515  23.923  1.00  0.00     0.047 C 
ATOM     18  F   UNL     1      45.465 126.999  22.518  1.00  0.00    -0.206 F 
ENDBRANCH   8  11
ENDBRANCH   1   8
BRANCH   3  19
ATOM     19  C   UNL     1      45.576 130.742  17.084  1.00  0.00     0.047 A 
ATOM     20  C   UNL     1      46.590 129.817  17.448  1.00  0.00     0.315 A 
ATOM     21  C   UNL     1      45.481 131.151  15.736  1.00  0.00     0.035 A 
ATOM     22  N   UNL     1      47.460 129.329  16.512  1.00  0.00    -0.212 N 
ATOM     23  C   UNL     1      46.392 130.625  14.829  1.00  0.00     0.109 A 
ATOM     24  C   UNL     1      47.357 129.732  15.220  1.00  0.00     0.211 A 
ATOM     25  C   UNL     1      46.559 130.833  13.413  1.00  0.00     0.258 C 
ATOM     26  C   UNL     1      48.216 129.306  14.066  1.00  0.00     0.225 C 
ATOM     27  N   UNL     1      47.648 130.051  12.938  1.00  0.00    -0.342 N 
ATOM     28  H   UNL     1      48.203 128.652  16.793  1.00  0.00     0.453 HD
ATOM     29  O   UNL     1      45.859 131.586  12.687  1.00  0.00    -0.269 OA
ATOM     30  H   UNL     1      47.981 130.007  11.950  1.00  0.00     0.164 HD
ENDBRANCH   3  19
BRANCH   5  31
ATOM     31  N   UNL     1      41.224 132.807  18.259  1.00  0.00    -0.399 N 
ATOM     32  H   UNL     1      41.026 133.018  17.256  1.00  0.00     0.156 HD
ATOM     33  H   UNL     1      40.467 132.992  18.955  1.00  0.00     0.156 HD
ENDBRANCH   5  31
TORSDOF 4
ENDMDL
MODEL 6
REMARK VINA RESULT:      -6.7      1.863      2.353
REMARK SMILES Cc1ccc([NH2+]c2cc(-c3c[nH+]c4c(c3)C(=O)NC4)cc(N)c2[O-])cc1F
REMARK SMILES IDX 7 1 8 2 9 3 20 4 21 5 23 6 24 7 6 8 5 11 2 12 3 13 26 14
REMARK SMILES IDX 4 15 25 16 1 17 27 18 10 19 11 20 15 21 12 22 14 23 13 24
REMARK SMILES IDX 16 25 19 26 18 27 17 29 22 31
REMARK H PARENT 6 9 6 10 12 28 18 30 22 32 22 33
ROOT
ATOM      1  C   UNL     1      44.288 131.515  20.449  1.00  0.00     0.129 A 
ATOM      2  C   UNL     1      45.005 131.007  19.352  1.00  0.00     0.076 A 
ATOM      3  C   UNL     1      44.503 131.119  18.045  1.00  0.00    -0.004 A 
ATOM      4  C   UNL     1      43.265 131.749  17.842  1.00  0.00     0.034 A 
ATOM      5  C   UNL     1      42.534 132.259  18.923  1.00  0.00     0.030 A 
ATOM      6  C   UNL     1      43.044 132.140  20.228  1.00  0.00    -0.021 A 
ATOM      7  O   UNL     1      42.315 132.644  21.301  1.00  0.00    -0.867 OA
ENDROOT
BRANCH   1   8
ATOM      8  N   UNL     1      44.810 131.350  21.786  1.00  0.00    -0.282 N 
ATOM      9  H   UNL     1      45.857 131.322  21.759  1.00  0.00     0.358 HD
ATOM     10  H   UNL     1      44.555 132.168  22.387  1.00  0.00     0.358 HD
BRANCH   8  11
ATOM     11  C   UNL     1      44.303 130.128  22.362  1.00  0.00     0.137 A 
ATOM     12  C   UNL     1      43.346 127.760  23.554  1.00  0.00    -0.015 A 
ATOM     13  C   UNL     1      44.570 127.764  22.870  1.00  0.00     0.012 A 
ATOM     14  C   UNL     1      42.591 128.942  23.623  1.00  0.00     0.132 A 
ATOM     15  C   UNL     1      45.049 128.940  22.284  1.00  0.00     0.068 A 
ATOM     16  C   UNL     1      43.071 130.117  23.039  1.00  0.00     0.107 A 
ATOM     17  C   UNL     1      42.819 126.489  24.158  1.00  0.00     0.047 C 
ATOM     18  F   UNL     1      41.391 128.958  24.257  1.00  0.00    -0.206 F 
ENDBRANCH   8  11
ENDBRANCH   1   8
BRANCH   3  19
ATOM     19  C   UNL     1      45.269 130.572  16.895  1.00  0.00     0.047 A 
ATOM     20  C   UNL     1      45.299 129.175  16.643  1.00  0.00     0.315 A 
ATOM     21  C   UNL     1      45.985 131.433  16.034  1.00  0.00     0.035 A 
ATOM     22  N   UNL     1      46.005 128.669  15.587  1.00  0.00    -0.212 N 
ATOM     23  C   UNL     1      46.687 130.864  14.979  1.00  0.00     0.109 A 
ATOM     24  C   UNL     1      46.689 129.509  14.769  1.00  0.00     0.211 A 
ATOM     25  C   UNL     1      47.497 131.453  13.943  1.00  0.00     0.258 C 
ATOM     26  C   UNL     1      47.512 129.137  13.571  1.00  0.00     0.225 C 
ATOM     27  N   UNL     1      48.002 130.433  13.090  1.00  0.00    -0.342 N 
ATOM     28  H   UNL     1      46.021 127.640  15.414  1.00  0.00     0.453 HD
ATOM     29  O   UNL     1      47.736 132.680  13.797  1.00  0.00    -0.269 OA
ATOM     30  H   UNL     1      48.610 130.583  12.255  1.00  0.00     0.164 HD
ENDBRANCH   3  19
BRANCH   5  31
ATOM     31  N   UNL     1      41.274 132.897  18.688  1.00  0.00    -0.399 N 
ATOM     32  H   UNL     1      41.212 133.912  18.453  1.00  0.00     0.156 HD
ATOM     33  H   UNL     1      40.382 132.356  18.750  1.00  0.00     0.156 HD
ENDBRANCH   5  31
TORSDOF 4
ENDMDL
MODEL 7
REMARK VINA RESULT:      -6.7      1.503      1.852
REMARK SMILES Cc1ccc([NH2+]c2cc(-c3c[nH+]c4c(c3)C(=O)NC4)cc(N)c2[O-])cc1F
REMARK SMILES IDX 7 1 8 2 9 3 20 4 21 5 23 6 24 7 6 8 5 11 2 12 3 13 26 14
REMARK SMILES IDX 4 15 25 16 1 17 27 18 10 19 11 20 15 21 12 22 14 23 13 24
REMARK SMILES IDX 16 25 19 26 18 27 17 29 22 31
REMARK H PARENT 6 9 6 10 12 28 18 30 22 32 22 33
ROOT
ATOM      1  C   UNL     1      44.177 131.155  21.822  1.00  0.00     0.129 A 
ATOM      2  C   UNL     1      44.762 131.080  20.546  1.00  0.00     0.076 A 
ATOM      3  C   UNL     1      44.137 131.657  19.429  1.00  0.00    -0.004 A 
ATOM      4  C   UNL     1      42.910 132.317  19.600  1.00  0.00     0.034 A 
ATOM      5  C   UNL     1      42.311 132.400  20.863  1.00  0.00     0.030 A 
ATOM      6  C   UNL     1      42.942 131.817  21.974  1.00  0.00    -0.021 A 
ATOM      7  O   UNL     1      42.344 131.898  23.229  1.00  0.00    -0.867 OA
ENDROOT
BRANCH   1   8
ATOM      8  N   UNL     1      44.824 130.517  22.946  1.00  0.00    -0.282 N 
ATOM      9  H   UNL     1      45.863 130.542  22.821  1.00  0.00     0.358 HD
ATOM     10  H   UNL     1      44.624 131.038  23.833  1.00  0.00     0.358 HD
BRANCH   8  11
ATOM     11  C   UNL     1      44.377 129.150  23.056  1.00  0.00     0.137 A 
ATOM     12  C   UNL     1      43.542 126.472  23.337  1.00  0.00    -0.015 A 
ATOM     13  C   UNL     1      44.700 126.781  22.609  1.00  0.00     0.012 A 
ATOM     14  C   UNL     1      42.790 127.512  23.910  1.00  0.00     0.132 A 
ATOM     15  C   UNL     1      45.118 128.108  22.474  1.00  0.00     0.068 A 
ATOM     16  C   UNL     1      43.210 128.838  23.777  1.00  0.00     0.107 A 
ATOM     17  C   UNL     1      43.078 125.049  23.457  1.00  0.00     0.047 C 
ATOM     18  F   UNL     1      41.652 127.242  24.598  1.00  0.00    -0.206 F 
ENDBRANCH   8  11
ENDBRANCH   1   8
BRANCH   3  19
ATOM     19  C   UNL     1      44.763 131.564  18.084  1.00  0.00     0.047 A 
ATOM     20  C   UNL     1      45.289 132.720  17.449  1.00  0.00     0.315 A 
ATOM     21  C   UNL     1      44.841 130.326  17.411  1.00  0.00     0.035 A 
ATOM     22  N   UNL     1      45.863 132.639  16.211  1.00  0.00    -0.212 N 
ATOM     23  C   UNL     1      45.431 130.302  16.154  1.00  0.00     0.109 A 
ATOM     24  C   UNL     1      45.930 131.441  15.575  1.00  0.00     0.211 A 
ATOM     25  C   UNL     1      45.662 129.223  15.227  1.00  0.00     0.258 C 
ATOM     26  C   UNL     1      46.518 131.163  14.224  1.00  0.00     0.225 C 
ATOM     27  N   UNL     1      46.312 129.720  14.063  1.00  0.00    -0.342 N 
ATOM     28  H   UNL     1      46.244 133.497  15.754  1.00  0.00     0.453 HD
ATOM     29  O   UNL     1      45.346 128.017  15.400  1.00  0.00    -0.269 OA
ATOM     30  H   UNL     1      46.603 129.151  13.238  1.00  0.00     0.164 HD
ENDBRANCH   3  19
BRANCH   5  31
ATOM     31  N   UNL     1      41.058 133.079  21.009  1.00  0.00    -0.399 N 
ATOM     32  H   UNL     1      40.238 132.619  21.461  1.00  0.00     0.156 HD
ATOM     33  H   UNL     1      40.937 134.057  20.659  1.00  0.00     0.156 HD
ENDBRANCH   5  31
TORSDOF 4
ENDMDL


