REMARK SMILES [NH3+]CC[C@H]1CC[C@@]([S-])(c2cnc3ccnn3c2)CC1
REMARK SMILES IDX 2 1 1 2 3 6 4 7 5 8 19 9 6 10 18 11 7 12 8 13 9 14 10 15
REMARK SMILES IDX 17 16 11 17 16 18 12 19 15 20 13 21 14 22
REMARK H PARENT 1 3 1 4 1 5
ROOT
ATOM      1  C   UNL     1       3.648  -0.759  -0.722  1.00  0.00     0.259 C 
ENDROOT
BRANCH   1   2
ATOM      2  N   UNL     1       4.614  -0.053   0.122  1.00  0.00    -0.358 N 
ATOM      3  H   UNL     1       4.309   0.935   0.274  1.00  0.00     0.344 HD
ATOM      4  H   UNL     1       4.723  -0.541   1.040  1.00  0.00     0.344 HD
ATOM      5  H   UNL     1       5.541  -0.038  -0.362  1.00  0.00     0.344 HD
ENDBRANCH   1   2
BRANCH   1   6
ATOM      6  C   UNL     1       2.343  -1.090   0.029  1.00  0.00     0.065 C 
BRANCH   6   7
ATOM      7  C   UNL     1       1.583   0.137   0.589  1.00  0.00    -0.006 C 
ATOM      8  C   UNL     1       1.138   1.103  -0.531  1.00  0.00     0.003 C 
ATOM      9  C   UNL     1       0.359  -0.341   1.395  1.00  0.00     0.003 C 
ATOM     10  C   UNL     1       0.291   2.264   0.025  1.00  0.00    -0.014 C 
ATOM     11  C   UNL     1      -0.432   0.849   1.954  1.00  0.00    -0.014 C 
ATOM     12  C   UNL     1      -0.951   1.777   0.823  1.00  0.00    -0.123 C 
ATOM     13  S   UNL     1      -1.702   3.214   1.580  1.00  0.00    -0.781 S 
BRANCH  12  14
ATOM     14  C   UNL     1      -2.037   1.095  -0.035  1.00  0.00    -0.029 A 
ATOM     15  C   UNL     1      -3.136   0.436   0.591  1.00  0.00     0.117 A 
ATOM     16  C   UNL     1      -2.068   1.180  -1.451  1.00  0.00     0.119 A 
ATOM     17  N   UNL     1      -4.128  -0.142  -0.144  1.00  0.00    -0.237 NA
ATOM     18  N   UNL     1      -3.082   0.577  -2.113  1.00  0.00    -0.222 N 
ATOM     19  C   UNL     1      -4.069  -0.067  -1.491  1.00  0.00     0.154 A 
ATOM     20  N   UNL     1      -3.267   0.536  -3.421  1.00  0.00    -0.175 NA
ATOM     21  C   UNL     1      -4.959  -0.564  -2.411  1.00  0.00     0.071 A 
ATOM     22  C   UNL     1      -4.411  -0.160  -3.626  1.00  0.00     0.138 A 
ENDBRANCH  12  14
ENDBRANCH   6   7
ENDBRANCH   1   6
TORSDOF 4


