REMARK SMILES C=Cc1cc([S-])cc(-c2ccc3c(c2)CC3)c1
REMARK SMILES IDX 3 1 4 2 5 3 6 4 7 5 8 6 17 7 2 8 1 9 9 10 10 11 14 12 11 13
REMARK SMILES IDX 13 14 12 15 15 16 16 17
REMARK H PARENT
ROOT
ATOM      1  C   UNL     1       3.176   0.383  -0.261  1.00  0.00    -0.027 A 
ATOM      2  C   UNL     1       3.349   1.761  -0.055  1.00  0.00    -0.013 A 
ATOM      3  C   UNL     1       2.244   2.612   0.027  1.00  0.00    -0.174 A 
ATOM      4  S   UNL     1       2.487   4.381   0.276  1.00  0.00    -0.780 S 
ATOM      5  C   UNL     1       0.951   2.095  -0.087  1.00  0.00    -0.012 A 
ATOM      6  C   UNL     1       0.750   0.718  -0.279  1.00  0.00    -0.019 A 
ATOM      7  C   UNL     1       1.867  -0.133  -0.359  1.00  0.00     0.016 A 
ENDROOT
BRANCH   1   8
ATOM      8  C   UNL     1       4.381  -0.479  -0.331  1.00  0.00     0.000 C 
ATOM      9  C   UNL     1       4.396  -1.702  -0.863  1.00  0.00     0.009 C 
ENDBRANCH   1   8
BRANCH   6  10
ATOM     10  C   UNL     1      -0.625   0.168  -0.387  1.00  0.00    -0.018 A 
ATOM     11  C   UNL     1      -0.914  -0.851  -1.363  1.00  0.00     0.009 A 
ATOM     12  C   UNL     1      -1.649   0.653   0.477  1.00  0.00     0.012 A 
ATOM     13  C   UNL     1      -2.207  -1.411  -1.506  1.00  0.00     0.004 A 
ATOM     14  C   UNL     1      -2.896   0.087   0.312  1.00  0.00    -0.044 A 
ATOM     15  C   UNL     1      -3.167  -0.915  -0.651  1.00  0.00    -0.044 A 
ATOM     16  C   UNL     1      -4.313   0.053   0.772  1.00  0.00     0.040 C 
ATOM     17  C   UNL     1      -4.591  -0.972  -0.217  1.00  0.00     0.040 C 
ENDBRANCH   6  10
TORSDOF 2


