REMARK SMILES O=C([N-][C@H]1CC12CCC2)c1ccc(C(=O)N[C@@H]2C=CCC2)c(F)c1O
REMARK SMILES IDX 10 1 11 2 12 3 13 4 22 5 23 6 24 7 2 8 1 9 3 10 4 11 5 12
REMARK SMILES IDX 6 13 7 14 9 15 8 16 25 17 14 19 16 20 15 21 17 23 18 24
REMARK SMILES IDX 21 25 19 26 20 27
REMARK H PARENT 25 18 16 22
ROOT
ATOM      1  C   UNL     1       1.004   0.088   1.970  1.00  0.00     0.044 A 
ATOM      2  C   UNL     1       0.357   0.805   2.994  1.00  0.00     0.015 A 
ATOM      3  C   UNL     1      -0.927   1.317   2.809  1.00  0.00     0.018 A 
ATOM      4  C   UNL     1      -1.608   1.119   1.601  1.00  0.00     0.079 A 
ATOM      5  C   UNL     1      -0.967   0.420   0.561  1.00  0.00     0.178 A 
ATOM      6  F   UNL     1      -1.576   0.281  -0.645  1.00  0.00    -0.202 F 
ATOM      7  C   UNL     1       0.329  -0.098   0.740  1.00  0.00     0.161 A 
ENDROOT
BRANCH   1   8
ATOM      8  C   UNL     1       2.373  -0.446   2.213  1.00  0.00     0.086 C 
ATOM      9  O   UNL     1       2.923  -0.277   3.336  1.00  0.00    -0.315 OA
BRANCH   8  10
ATOM     10  N   UNL     1       3.077  -1.155   1.191  1.00  0.00    -0.646 NA
BRANCH  10  11
ATOM     11  C   UNL     1       4.404  -1.718   1.396  1.00  0.00    -0.100 C 
ATOM     12  C   UNL     1       4.390  -3.150   1.942  1.00  0.00    -0.010 C 
ATOM     13  C   UNL     1       4.688  -2.876   0.473  1.00  0.00    -0.044 C 
ATOM     14  C   UNL     1       3.831  -3.570  -0.546  1.00  0.00     0.006 C 
ATOM     15  C   UNL     1       5.991  -3.385  -0.072  1.00  0.00     0.006 C 
ATOM     16  C   UNL     1       5.148  -4.115  -1.139  1.00  0.00     0.001 C 
ENDBRANCH  10  11
ENDBRANCH   8  10
ENDBRANCH   1   8
BRANCH   7  17
ATOM     17  O   UNL     1       0.940  -0.791  -0.307  1.00  0.00    -0.504 OA
ATOM     18  H   UNL     1       0.485  -0.937  -1.200  1.00  0.00     0.293 HD
ENDBRANCH   7  17
BRANCH   4  19
ATOM     19  C   UNL     1      -2.972   1.668   1.433  1.00  0.00     0.254 C 
ATOM     20  N   UNL     1      -3.963   0.961   0.671  1.00  0.00    -0.346 N 
ATOM     21  O   UNL     1      -3.271   2.762   1.985  1.00  0.00    -0.269 OA
ATOM     22  H   UNL     1      -3.782  -0.036   0.412  1.00  0.00     0.164 HD
BRANCH  20  23
ATOM     23  C   UNL     1      -5.245   1.575   0.316  1.00  0.00     0.105 C 
ATOM     24  C   UNL     1      -6.157   0.574  -0.307  1.00  0.00    -0.007 C 
ATOM     25  C   UNL     1      -5.066   2.649  -0.772  1.00  0.00     0.033 C 
ATOM     26  C   UNL     1      -6.482   0.891  -1.548  1.00  0.00    -0.029 C 
ATOM     27  C   UNL     1      -5.852   2.160  -1.993  1.00  0.00     0.029 C 
ENDBRANCH  20  23
ENDBRANCH   4  19
TORSDOF 6


