REMARK SMILES C=CCC[C@H](O)Cn1cc(F)cc(N)/c1=N\c1c[nH]c2nccc-2c1
REMARK SMILES IDX 5 1 6 2 7 4 8 5 9 6 15 7 10 8 13 9 12 10 11 11 16 12 17 13
REMARK SMILES IDX 25 14 18 15 24 16 19 17 23 18 20 19 22 20 21 21 14 23 4 26
REMARK SMILES IDX 3 27 2 28 1 29
REMARK H PARENT 6 3 19 22 14 24 14 25
ROOT
ATOM      1  C   UNL     1       2.677   1.186  -1.457  1.00  0.00     0.134 C 
ENDROOT
BRANCH   1   2
ATOM      2  O   UNL     1       3.313   2.438  -1.538  1.00  0.00    -0.391 OA
ATOM      3  H   UNL     1       2.704   3.109  -1.132  1.00  0.00     0.211 HD
ENDBRANCH   1   2
BRANCH   1   4
ATOM      4  C   UNL     1       1.382   1.204  -2.297  1.00  0.00     0.155 C 
BRANCH   4   5
ATOM      5  N   UNL     1       0.799  -0.150  -2.424  1.00  0.00    -0.326 N 
ATOM      6  C   UNL     1       1.286  -0.955  -3.417  1.00  0.00     0.127 A 
ATOM      7  C   UNL     1      -0.202  -0.589  -1.580  1.00  0.00     0.156 A 
ATOM      8  C   UNL     1       0.786  -2.237  -3.607  1.00  0.00     0.141 A 
ATOM      9  C   UNL     1      -0.647  -1.942  -1.684  1.00  0.00     0.078 A 
ATOM     10  C   UNL     1      -0.174  -2.731  -2.736  1.00  0.00     0.070 A 
ATOM     11  F   UNL     1       1.269  -3.018  -4.605  1.00  0.00    -0.205 F 
BRANCH   7  12
ATOM     12  N   UNL     1      -0.704   0.260  -0.716  1.00  0.00    -0.227 NA
BRANCH  12  13
ATOM     13  C   UNL     1      -1.874   0.161   0.105  1.00  0.00     0.082 A 
ATOM     14  C   UNL     1      -1.786   0.529   1.462  1.00  0.00     0.042 A 
ATOM     15  C   UNL     1      -3.134  -0.187  -0.462  1.00  0.00     0.112 A 
ATOM     16  C   UNL     1      -2.949   0.477   2.211  1.00  0.00     0.021 A 
ATOM     17  N   UNL     1      -4.269  -0.229   0.303  1.00  0.00    -0.344 N 
ATOM     18  C   UNL     1      -3.234   0.748   3.524  1.00  0.00     0.032 A 
ATOM     19  C   UNL     1      -4.183   0.090   1.615  1.00  0.00     0.137 A 
ATOM     20  C   UNL     1      -4.605   0.516   3.662  1.00  0.00     0.114 A 
ATOM     21  N   UNL     1      -5.191   0.117   2.502  1.00  0.00    -0.239 NA
ATOM     22  H   UNL     1      -5.185  -0.493  -0.123  1.00  0.00     0.168 HD
ENDBRANCH  12  13
ENDBRANCH   7  12
BRANCH   9  23
ATOM     23  N   UNL     1      -1.436  -2.583  -0.674  1.00  0.00    -0.396 N 
ATOM     24  H   UNL     1      -1.922  -3.485  -0.878  1.00  0.00     0.156 HD
ATOM     25  H   UNL     1      -1.356  -2.308   0.329  1.00  0.00     0.156 HD
ENDBRANCH   9  23
ENDBRANCH   4   5
ENDBRANCH   1   4
BRANCH   1  26
ATOM     26  C   UNL     1       2.411   0.800   0.014  1.00  0.00     0.038 C 
BRANCH  26  27
ATOM     27  C   UNL     1       3.695   0.823   0.854  1.00  0.00     0.029 C 
BRANCH  27  28
ATOM     28  C   UNL     1       3.436   0.333   2.253  1.00  0.00    -0.035 C 
ATOM     29  C   UNL     1       2.714   1.041   3.125  1.00  0.00     0.004 C 
ENDBRANCH  27  28
ENDBRANCH  26  27
ENDBRANCH   1  26
TORSDOF 9


