REMARK SMILES C#Cc1cncc(Nc2cc(C)cc(-n3nc4ccc(F)cc4n3)c2[O-])c1
REMARK SMILES IDX 8 1 7 3 3 4 4 5 27 6 5 7 6 8 2 9 1 10 9 11 10 12 25 13 11 14
REMARK SMILES IDX 14 15 13 16 26 17 12 18 15 19 16 20 24 21 17 22 23 23 18 24
REMARK SMILES IDX 22 25 19 26 20 27 21 28
REMARK H PARENT 8 2
ROOT
ATOM      1  N   UNL     1       2.150   0.871  -0.203  1.00  0.00    -0.355 N 
ATOM      2  H   UNL     1       2.025   1.829  -0.604  1.00  0.00     0.167 HD
ENDROOT
BRANCH   1   3
ATOM      3  C   UNL     1       3.427   0.548   0.374  1.00  0.00     0.058 A 
ATOM      4  C   UNL     1       5.820   0.926   0.508  1.00  0.00     0.045 A 
ATOM      5  C   UNL     1       5.894  -0.025   1.531  1.00  0.00     0.128 A 
ATOM      6  C   UNL     1       4.578   1.216  -0.065  1.00  0.00     0.046 A 
ATOM      7  N   UNL     1       4.766  -0.647   1.964  1.00  0.00    -0.261 NA
ATOM      8  C   UNL     1       3.549  -0.384   1.420  1.00  0.00     0.137 A 
BRANCH   4   9
ATOM      9  C   UNL     1       7.008   1.598   0.052  1.00  0.00    -0.069 C 
ATOM     10  C   UNL     1       8.003   2.162  -0.330  1.00  0.00     0.010 C 
ENDBRANCH   4   9
ENDBRANCH   1   3
BRANCH   1  11
ATOM     11  C   UNL     1       1.040  -0.041  -0.275  1.00  0.00     0.033 A 
ATOM     12  C   UNL     1       1.252  -1.405  -0.527  1.00  0.00     0.029 A 
ATOM     13  C   UNL     1      -0.274   0.446  -0.157  1.00  0.00    -0.056 A 
ATOM     14  C   UNL     1       0.172  -2.290  -0.613  1.00  0.00    -0.047 A 
ATOM     15  C   UNL     1      -1.377  -0.433  -0.264  1.00  0.00     0.080 A 
ATOM     16  C   UNL     1      -1.134  -1.800  -0.494  1.00  0.00     0.033 A 
ATOM     17  O   UNL     1      -0.470   1.804   0.076  1.00  0.00    -0.870 OA
ATOM     18  C   UNL     1       0.409  -3.741  -0.912  1.00  0.00     0.044 C 
BRANCH  15  19
ATOM     19  N   UNL     1      -2.737   0.039  -0.146  1.00  0.00    -0.151 N 
ATOM     20  N   UNL     1      -3.074   1.315   0.046  1.00  0.00    -0.148 NA
ATOM     21  N   UNL     1      -3.800  -0.763  -0.220  1.00  0.00    -0.148 NA
ATOM     22  C   UNL     1      -4.413   1.319   0.096  1.00  0.00     0.113 A 
ATOM     23  C   UNL     1      -4.858   0.046  -0.066  1.00  0.00     0.116 A 
ATOM     24  C   UNL     1      -5.280   2.391   0.280  1.00  0.00     0.035 A 
ATOM     25  C   UNL     1      -6.212  -0.275  -0.061  1.00  0.00     0.071 A 
ATOM     26  C   UNL     1      -6.661   2.111   0.291  1.00  0.00     0.041 A 
ATOM     27  C   UNL     1      -7.126   0.783   0.122  1.00  0.00     0.125 A 
ATOM     28  F   UNL     1      -8.457   0.528   0.135  1.00  0.00    -0.207 F 
ENDBRANCH  15  19
ENDBRANCH   1  11
TORSDOF 4


