REMARK SMILES O/C(=N\c1cc(F)c(F)cc1[NH2+]c1ccc(F)cc1)[C@H]1C[C@H](O)CN1
REMARK SMILES IDX 3 1 2 2 1 3 20 5 25 6 21 7 24 8 22 9 23 11 4 13 5 14 11 15
REMARK SMILES IDX 6 16 10 17 8 18 7 19 9 20 12 21 13 24 14 25 19 26 15 27
REMARK SMILES IDX 18 28 16 29 17 30
REMARK H PARENT 1 4 25 10 23 12 12 22 12 23
ROOT
ATOM      1  N   UNL     1       0.251  -0.448   0.900  1.00  0.00    -0.210 NA
ENDROOT
BRANCH   1   2
ATOM      2  C   UNL     1      -0.790  -1.077   0.434  1.00  0.00     0.203 C 
BRANCH   2   3
ATOM      3  O   UNL     1      -0.877  -2.467   0.513  1.00  0.00    -0.495 OA
ATOM      4  H   UNL     1      -1.663  -2.972   0.123  1.00  0.00     0.295 HD
ENDBRANCH   2   3
BRANCH   2   5
ATOM      5  C   UNL     1      -1.878  -0.305  -0.272  1.00  0.00     0.143 C 
ATOM      6  N   UNL     1      -1.419   0.047  -1.620  1.00  0.00    -0.303 NA
ATOM      7  C   UNL     1      -2.246   0.990   0.459  1.00  0.00     0.062 C 
ATOM      8  C   UNL     1      -1.544   1.499  -1.756  1.00  0.00     0.113 C 
ATOM      9  C   UNL     1      -1.587   2.081  -0.357  1.00  0.00     0.130 C 
ATOM     10  H   UNL     1      -2.034  -0.415  -2.330  1.00  0.00     0.123 HD
BRANCH   9  11
ATOM     11  O   UNL     1      -2.335   3.267  -0.332  1.00  0.00    -0.392 OA
ATOM     12  H   UNL     1      -2.191   3.670   0.563  1.00  0.00     0.211 HD
ENDBRANCH   9  11
ENDBRANCH   2   5
ENDBRANCH   1   2
BRANCH   1  13
ATOM     13  C   UNL     1       1.339  -1.028   1.642  1.00  0.00     0.131 A 
ATOM     14  C   UNL     1       1.109  -2.051   2.583  1.00  0.00     0.077 A 
ATOM     15  C   UNL     1       2.644  -0.495   1.504  1.00  0.00     0.163 A 
ATOM     16  C   UNL     1       2.163  -2.581   3.329  1.00  0.00     0.161 A 
ATOM     17  C   UNL     1       3.695  -1.044   2.265  1.00  0.00     0.113 A 
ATOM     18  C   UNL     1       3.456  -2.083   3.165  1.00  0.00     0.164 A 
ATOM     19  F   UNL     1       1.926  -3.571   4.225  1.00  0.00    -0.204 F 
ATOM     20  F   UNL     1       4.479  -2.594   3.893  1.00  0.00    -0.204 F 
BRANCH  15  21
ATOM     21  N   UNL     1       2.924   0.569   0.567  1.00  0.00    -0.280 N 
ATOM     22  H   UNL     1       2.114   1.229   0.509  1.00  0.00     0.358 HD
ATOM     23  H   UNL     1       3.739   1.137   0.901  1.00  0.00     0.358 HD
BRANCH  21  24
ATOM     24  C   UNL     1       3.227   0.016  -0.731  1.00  0.00     0.134 A 
ATOM     25  C   UNL     1       4.509  -0.494  -1.009  1.00  0.00     0.071 A 
ATOM     26  C   UNL     1       2.242  -0.035  -1.733  1.00  0.00     0.071 A 
ATOM     27  C   UNL     1       4.794  -1.048  -2.261  1.00  0.00     0.045 A 
ATOM     28  C   UNL     1       2.529  -0.593  -2.982  1.00  0.00     0.045 A 
ATOM     29  C   UNL     1       3.805  -1.099  -3.246  1.00  0.00     0.123 A 
ATOM     30  F   UNL     1       4.082  -1.641  -4.458  1.00  0.00    -0.207 F 
ENDBRANCH  21  24
ENDBRANCH  15  21
ENDBRANCH   1  13
TORSDOF 7


