REMARK SMILES Cc1cc(N)nc(N(N)c2ccccc2-c2[nH]c3ccccc3[nH+]2)[nH+]1
REMARK SMILES IDX 8 1 7 2 2 3 3 4 25 5 4 6 6 7 1 8 5 10 9 13 10 16 11 17 15 18
REMARK SMILES IDX 12 19 14 20 13 21 16 22 17 23 24 24 18 25 23 26 19 27 22 28
REMARK SMILES IDX 20 29 21 30
REMARK H PARENT 25 9 5 11 5 12 9 14 9 15 17 31 24 32
ROOT
ATOM      1  N   UNL     1       0.286   1.811  -0.755  1.00  0.00    -0.154 N 
ENDROOT
BRANCH   1   2
ATOM      2  C   UNL     1       1.228   0.810  -0.324  1.00  0.00     0.416 A 
ATOM      3  C   UNL     1       1.977  -1.444  -0.286  1.00  0.00     0.078 A 
ATOM      4  C   UNL     1       2.951  -1.107   0.659  1.00  0.00     0.103 A 
ATOM      5  N   UNL     1       1.135  -0.482  -0.759  1.00  0.00    -0.244 N 
ATOM      6  C   UNL     1       3.054   0.222   1.071  1.00  0.00     0.207 A 
ATOM      7  N   UNL     1       2.193   1.147   0.574  1.00  0.00    -0.052 NA
ATOM      8  C   UNL     1       1.805  -2.871  -0.715  1.00  0.00     0.083 C 
ATOM      9  H   UNL     1       0.406  -0.746  -1.459  1.00  0.00     0.267 HD
BRANCH   6  10
ATOM     10  N   UNL     1       4.041   0.612   2.025  1.00  0.00    -0.370 N 
ATOM     11  H   UNL     1       4.707  -0.086   2.425  1.00  0.00     0.159 HD
ATOM     12  H   UNL     1       4.106   1.606   2.337  1.00  0.00     0.159 HD
ENDBRANCH   6  10
ENDBRANCH   1   2
BRANCH   1  13
ATOM     13  N   UNL     1       0.669   3.163  -0.679  1.00  0.00    -0.191 NA
ATOM     14  H   UNL     1       0.932   3.474  -1.642  1.00  0.00     0.161 HD
ATOM     15  H   UNL     1      -0.158   3.724  -0.372  1.00  0.00     0.161 HD
ENDBRANCH   1  13
BRANCH   1  16
ATOM     16  C   UNL     1      -1.019   1.461  -1.267  1.00  0.00     0.137 A 
ATOM     17  C   UNL     1      -1.427   1.972  -2.510  1.00  0.00     0.046 A 
ATOM     18  C   UNL     1      -1.888   0.590  -0.557  1.00  0.00     0.105 A 
ATOM     19  C   UNL     1      -2.656   1.605  -3.061  1.00  0.00     0.004 A 
ATOM     20  C   UNL     1      -3.111   0.214  -1.136  1.00  0.00     0.020 A 
ATOM     21  C   UNL     1      -3.493   0.722  -2.379  1.00  0.00     0.001 A 
BRANCH  18  22
ATOM     22  C   UNL     1      -1.540   0.056   0.775  1.00  0.00     0.289 A 
ATOM     23  N   UNL     1      -1.663  -1.256   1.106  1.00  0.00    -0.236 N 
ATOM     24  N   UNL     1      -0.981   0.798   1.766  1.00  0.00    -0.236 N 
ATOM     25  C   UNL     1      -1.139  -1.331   2.340  1.00  0.00     0.172 A 
ATOM     26  C   UNL     1      -0.728  -0.093   2.738  1.00  0.00     0.172 A 
ATOM     27  C   UNL     1      -0.959  -2.461   3.135  1.00  0.00     0.056 A 
ATOM     28  C   UNL     1      -0.105   0.120   3.965  1.00  0.00     0.056 A 
ATOM     29  C   UNL     1      -0.338  -2.282   4.386  1.00  0.00     0.005 A 
ATOM     30  C   UNL     1       0.087  -0.998   4.800  1.00  0.00     0.005 A 
ATOM     31  H   UNL     1      -2.023  -2.038   0.516  1.00  0.00     0.312 HD
ATOM     32  H   UNL     1      -0.767   1.820   1.767  1.00  0.00     0.312 HD
ENDBRANCH  18  22
ENDBRANCH   1  16
TORSDOF 5


