REMARK SMILES C=C[C@@H]1CCC[C@@](F)(c2ccc3c(c2)[C@H]([NH3+])CC3)[C@H]1Cl
REMARK SMILES IDX 9 1 10 2 11 3 12 4 13 5 14 6 15 7 17 8 18 9 7 10 3 11 4 12
REMARK SMILES IDX 19 13 5 14 6 15 20 16 8 17 2 18 1 19 16 20
REMARK H PARENT 16 21 16 22 16 23
ROOT
ATOM      1  C   UNL     1      -0.585  -0.039   0.234  1.00  0.00    -0.009 A 
ATOM      2  C   UNL     1      -1.865  -0.486   0.649  1.00  0.00     0.007 A 
ATOM      3  C   UNL     1      -2.109  -0.840   1.983  1.00  0.00     0.004 A 
ATOM      4  C   UNL     1      -1.072  -0.734   2.907  1.00  0.00    -0.039 A 
ATOM      5  C   UNL     1       0.169  -0.295   2.530  1.00  0.00     0.013 A 
ATOM      6  C   UNL     1       0.439   0.070   1.209  1.00  0.00     0.017 A 
ATOM      7  C   UNL     1       1.118  -0.255   3.677  1.00  0.00     0.212 C 
ATOM      8  C   UNL     1       0.231  -0.613   4.896  1.00  0.00     0.075 C 
ATOM      9  C   UNL     1      -1.142  -1.050   4.352  1.00  0.00     0.042 C 
ENDROOT
BRANCH   1  10
ATOM     10  C   UNL     1      -0.389   0.378  -1.225  1.00  0.00     0.152 C 
ATOM     11  C   UNL     1      -0.821   2.255  -2.945  1.00  0.00     0.033 C 
ATOM     12  C   UNL     1       0.638   2.106  -3.431  1.00  0.00     0.009 C 
ATOM     13  C   UNL     1      -0.979   1.795  -1.469  1.00  0.00     0.130 C 
ATOM     14  C   UNL     1       1.207   0.703  -3.175  1.00  0.00     0.004 C 
ATOM     15  C   UNL     1       1.086   0.325  -1.694  1.00  0.00     0.048 C 
ATOM     16  Cl  UNL     1      -0.241   3.016  -0.378  1.00  0.00    -0.118 Cl
ATOM     17  F   UNL     1      -1.092  -0.532  -2.005  1.00  0.00    -0.237 F 
BRANCH  11  18
ATOM     18  C   UNL     1      -1.783   1.534  -3.868  1.00  0.00    -0.030 C 
ATOM     19  C   UNL     1      -3.101   1.749  -3.816  1.00  0.00     0.004 C 
ENDBRANCH  11  18
ENDBRANCH   1  10
BRANCH   7  20
ATOM     20  N   UNL     1       2.201  -1.228   3.497  1.00  0.00    -0.351 N 
ATOM     21  H   UNL     1       2.828  -1.210   4.333  1.00  0.00     0.345 HD
ATOM     22  H   UNL     1       2.768  -0.975   2.656  1.00  0.00     0.345 HD
ATOM     23  H   UNL     1       1.815  -2.193   3.375  1.00  0.00     0.345 HD
ENDBRANCH   7  20
TORSDOF 3


