REMARK SMILES Cc1c(F)c(F)c(CCC([O-])=C2CCC2)c(N)c1Nc1ccc(F)cc1
REMARK SMILES IDX 1 1 2 2 3 3 4 4 5 5 6 6 7 7 16 8 18 9 19 10 20 12 21 13
REMARK SMILES IDX 26 14 22 15 25 16 23 17 24 18 17 19 8 22 9 23 10 24 11 25
REMARK SMILES IDX 12 26 13 27 15 28 14 29
REMARK H PARENT 19 11 17 20 17 21
ROOT
ATOM      1  C   UNL     1       1.524  -0.045  -2.327  1.00  0.00     0.050 C 
ATOM      2  C   UNL     1       0.596   0.762  -1.454  1.00  0.00     0.013 A 
ATOM      3  C   UNL     1       0.820   2.136  -1.298  1.00  0.00     0.164 A 
ATOM      4  F   UNL     1       1.869   2.738  -1.915  1.00  0.00    -0.203 F 
ATOM      5  C   UNL     1      -0.037   2.909  -0.517  1.00  0.00     0.164 A 
ATOM      6  F   UNL     1       0.208   4.240  -0.405  1.00  0.00    -0.203 F 
ATOM      7  C   UNL     1      -1.139   2.329   0.138  1.00  0.00     0.016 A 
ATOM      8  C   UNL     1      -1.341   0.925   0.042  1.00  0.00     0.062 A 
ATOM      9  C   UNL     1      -0.466   0.149  -0.754  1.00  0.00     0.068 A 
ENDROOT
BRANCH   9  10
ATOM     10  N   UNL     1      -0.677  -1.267  -0.870  1.00  0.00    -0.354 N 
ATOM     11  H   UNL     1      -1.544  -1.585  -1.359  1.00  0.00     0.167 HD
BRANCH  10  12
ATOM     12  C   UNL     1       0.170  -2.250  -0.246  1.00  0.00     0.039 A 
ATOM     13  C   UNL     1      -0.082  -3.614  -0.464  1.00  0.00     0.029 A 
ATOM     14  C   UNL     1       1.237  -1.878   0.594  1.00  0.00     0.029 A 
ATOM     15  C   UNL     1       0.721  -4.588   0.137  1.00  0.00     0.041 A 
ATOM     16  C   UNL     1       2.038  -2.855   1.194  1.00  0.00     0.041 A 
ATOM     17  C   UNL     1       1.780  -4.209   0.966  1.00  0.00     0.123 A 
ATOM     18  F   UNL     1       2.557  -5.155   1.549  1.00  0.00    -0.207 F 
ENDBRANCH  10  12
ENDBRANCH   9  10
BRANCH   8  19
ATOM     19  N   UNL     1      -2.402   0.268   0.760  1.00  0.00    -0.397 N 
ATOM     20  H   UNL     1      -3.040   0.765   1.414  1.00  0.00     0.156 HD
ATOM     21  H   UNL     1      -2.544  -0.763   0.701  1.00  0.00     0.156 HD
ENDBRANCH   8  19
BRANCH   7  22
ATOM     22  C   UNL     1      -2.046   3.239   0.947  1.00  0.00     0.044 C 
BRANCH  22  23
ATOM     23  C   UNL     1      -1.486   3.523   2.348  1.00  0.00     0.023 C 
BRANCH  23  24
ATOM     24  C   UNL     1      -1.541   2.312   3.236  1.00  0.00    -0.133 C 
ATOM     25  O   UNL     1      -2.744   1.960   3.834  1.00  0.00    -0.875 OA
BRANCH  24  26
ATOM     26  C   UNL     1      -0.461   1.564   3.452  1.00  0.00    -0.082 C 
ATOM     27  C   UNL     1       1.002   1.554   3.049  1.00  0.00     0.030 C 
ATOM     28  C   UNL     1      -0.121   0.319   4.245  1.00  0.00     0.030 C 
ATOM     29  C   UNL     1       1.321   0.336   3.853  1.00  0.00     0.009 C 
ENDBRANCH  24  26
ENDBRANCH  23  24
ENDBRANCH  22  23
ENDBRANCH   7  22
TORSDOF 7


