REMARK SMILES Cc1ccc(Nc2cc(F)c(CN3CC[C@H]4CCC[C@H]43)cc2N)c(F)[nH+]1
REMARK SMILES IDX 7 1 8 2 9 3 10 4 11 5 21 6 22 7 6 8 5 10 2 11 3 12 26 13
REMARK SMILES IDX 4 14 24 15 1 16 25 18 23 19 12 22 13 23 14 24 20 25 15 26
REMARK SMILES IDX 19 27 16 28 18 29 17 30
REMARK H PARENT 6 9 26 17 23 20 23 21
ROOT
ATOM      1  C   UNL     1       2.048  -0.202   1.606  1.00  0.00     0.065 A 
ATOM      2  C   UNL     1       1.740  -1.553   1.809  1.00  0.00     0.067 A 
ATOM      3  C   UNL     1       1.362  -2.365   0.739  1.00  0.00     0.129 A 
ATOM      4  F   UNL     1       1.026  -3.659   0.973  1.00  0.00    -0.207 F 
ATOM      5  C   UNL     1       1.308  -1.839  -0.561  1.00  0.00     0.004 A 
ATOM      6  C   UNL     1       1.647  -0.494  -0.774  1.00  0.00     0.035 A 
ATOM      7  C   UNL     1       2.032   0.327   0.295  1.00  0.00     0.056 A 
ENDROOT
BRANCH   1   8
ATOM      8  N   UNL     1       2.371   0.612   2.743  1.00  0.00    -0.346 N 
ATOM      9  H   UNL     1       3.116   0.264   3.389  1.00  0.00     0.167 HD
BRANCH   8  10
ATOM     10  C   UNL     1       1.674   1.822   3.093  1.00  0.00     0.144 A 
ATOM     11  C   UNL     1       0.365   4.189   3.782  1.00  0.00     0.179 A 
ATOM     12  C   UNL     1       1.665   3.954   4.244  1.00  0.00     0.076 A 
ATOM     13  N   UNL     1      -0.265   3.241   3.028  1.00  0.00    -0.182 N 
ATOM     14  C   UNL     1       2.314   2.770   3.899  1.00  0.00     0.042 A 
ATOM     15  C   UNL     1       0.351   2.078   2.676  1.00  0.00     0.381 A 
ATOM     16  C   UNL     1      -0.348   5.449   4.170  1.00  0.00     0.123 C 
ATOM     17  H   UNL     1      -1.244   3.403   2.703  1.00  0.00     0.456 HD
ATOM     18  F   UNL     1      -0.344   1.160   1.956  1.00  0.00    -0.134 F 
ENDBRANCH   8  10
ENDBRANCH   1   8
BRANCH   7  19
ATOM     19  N   UNL     1       2.430   1.678   0.030  1.00  0.00    -0.397 N 
ATOM     20  H   UNL     1       2.351   2.075  -0.933  1.00  0.00     0.156 HD
ATOM     21  H   UNL     1       2.876   2.274   0.761  1.00  0.00     0.156 HD
ENDBRANCH   7  19
BRANCH   5  22
ATOM     22  C   UNL     1       0.819  -2.688  -1.706  1.00  0.00     0.123 C 
BRANCH  22  23
ATOM     23  N   UNL     1      -0.645  -2.861  -1.627  1.00  0.00    -0.296 NA
ATOM     24  C   UNL     1      -1.109  -3.887  -2.565  1.00  0.00     0.085 C 
ATOM     25  C   UNL     1      -1.390  -1.630  -1.960  1.00  0.00     0.060 C 
ATOM     26  C   UNL     1      -2.549  -3.549  -2.888  1.00  0.00     0.021 C 
ATOM     27  C   UNL     1      -1.944  -0.977  -0.689  1.00  0.00     0.019 C 
ATOM     28  C   UNL     1      -2.598  -2.028  -2.808  1.00  0.00     0.007 C 
ATOM     29  C   UNL     1      -3.423  -1.321  -0.641  1.00  0.00     0.002 C 
ATOM     30  C   UNL     1      -3.840  -1.500  -2.089  1.00  0.00     0.005 C 
ENDBRANCH  22  23
ENDBRANCH   5  22
TORSDOF 5


