MODEL 1
REMARK VINA RESULT:      -4.0      0.000      0.000
REMARK SMILES O=C(C(=O)[C@@H]1CCc2nc(-c3ccc4[nH]ccc4c3)ncc2[C@H]1F)c1ccccc1
REMARK SMILES IDX 5 1 6 2 7 3 8 4 9 5 10 6 20 7 21 8 22 9 23 10 24 11 3 12
REMARK SMILES IDX 4 13 2 14 1 15 25 16 26 17 30 18 27 19 29 20 28 21 11 22
REMARK SMILES IDX 12 23 19 24 13 25 18 26 14 27 17 28 15 29 16 30
REMARK H PARENT 15 31
ROOT
ATOM      1  C   UNL     1      43.707 129.296  22.249  1.00  0.00     0.104 C 
ATOM      2  C   UNL     1      45.122 128.722  22.065  1.00  0.00     0.022 C 
ATOM      3  C   UNL     1      45.433 128.545  20.576  1.00  0.00     0.057 C 
ATOM      4  C   UNL     1      45.127 129.783  19.777  1.00  0.00     0.051 A 
ATOM      5  N   UNL     1      45.682 129.915  18.543  1.00  0.00    -0.233 NA
ATOM      6  C   UNL     1      45.412 130.984  17.746  1.00  0.00     0.159 A 
ATOM      7  N   UNL     1      44.562 131.947  18.192  1.00  0.00    -0.236 NA
ATOM      8  C   UNL     1      43.969 131.860  19.410  1.00  0.00     0.122 A 
ATOM      9  C   UNL     1      44.217 130.756  20.235  1.00  0.00     0.027 A 
ATOM     10  C   UNL     1      43.616 130.701  21.623  1.00  0.00     0.211 C 
ATOM     11  F   UNL     1      42.286 131.089  21.573  1.00  0.00    -0.241 F 
ENDROOT
BRANCH   1  12
ATOM     12  C   UNL     1      43.333 129.345  23.714  1.00  0.00     0.209 C 
ATOM     13  O   UNL     1      43.974 130.106  24.489  1.00  0.00    -0.290 OA
BRANCH  12  14
ATOM     14  C   UNL     1      42.177 128.577  24.232  1.00  0.00     0.228 C 
ATOM     15  O   UNL     1      41.153 129.200  24.623  1.00  0.00    -0.285 OA
BRANCH  14  16
ATOM     16  C   UNL     1      42.197 127.097  24.330  1.00  0.00     0.026 A 
ATOM     17  C   UNL     1      41.002 126.351  24.357  1.00  0.00     0.012 A 
ATOM     18  C   UNL     1      43.425 126.418  24.441  1.00  0.00     0.012 A 
ATOM     19  C   UNL     1      41.039 124.958  24.466  1.00  0.00     0.001 A 
ATOM     20  C   UNL     1      43.456 125.023  24.549  1.00  0.00     0.001 A 
ATOM     21  C   UNL     1      42.265 124.294  24.558  1.00  0.00     0.000 A 
ENDBRANCH  14  16
ENDBRANCH  12  14
ENDBRANCH   1  12
BRANCH   6  22
ATOM     22  C   UNL     1      46.041 131.098  16.408  1.00  0.00     0.020 A 
ATOM     23  C   UNL     1      45.866 132.275  15.628  1.00  0.00     0.014 A 
ATOM     24  C   UNL     1      46.822 130.035  15.891  1.00  0.00     0.022 A 
ATOM     25  C   UNL     1      46.459 132.394  14.358  1.00  0.00     0.027 A 
ATOM     26  C   UNL     1      47.392 130.189  14.630  1.00  0.00     0.000 A 
ATOM     27  C   UNL     1      47.217 131.325  13.889  1.00  0.00     0.045 A 
ATOM     28  C   UNL     1      48.183 129.334  13.894  1.00  0.00     0.028 A 
ATOM     29  N   UNL     1      47.862 131.234  12.714  1.00  0.00    -0.361 N 
ATOM     30  C   UNL     1      48.455 130.017  12.712  1.00  0.00     0.083 A 
ATOM     31  H   UNL     1      47.901 131.951  11.956  1.00  0.00     0.166 HD
ENDBRANCH   6  22
TORSDOF 4
ENDMDL
MODEL 2
REMARK VINA RESULT:      -3.6      1.812      2.836
REMARK SMILES O=C(C(=O)[C@@H]1CCc2nc(-c3ccc4[nH]ccc4c3)ncc2[C@H]1F)c1ccccc1
REMARK SMILES IDX 5 1 6 2 7 3 8 4 9 5 10 6 20 7 21 8 22 9 23 10 24 11 3 12
REMARK SMILES IDX 4 13 2 14 1 15 25 16 26 17 30 18 27 19 29 20 28 21 11 22
REMARK SMILES IDX 12 23 19 24 13 25 18 26 14 27 17 28 15 29 16 30
REMARK H PARENT 15 31
ROOT
ATOM      1  C   UNL     1      43.163 131.473  21.149  1.00  0.00     0.104 C 
ATOM      2  C   UNL     1      44.678 131.428  21.410  1.00  0.00     0.022 C 
ATOM      3  C   UNL     1      45.377 130.590  20.335  1.00  0.00     0.057 C 
ATOM      4  C   UNL     1      44.971 130.993  18.943  1.00  0.00     0.051 A 
ATOM      5  N   UNL     1      45.757 130.614  17.901  1.00  0.00    -0.233 NA
ATOM      6  C   UNL     1      45.428 130.902  16.613  1.00  0.00     0.159 A 
ATOM      7  N   UNL     1      44.280 131.584  16.357  1.00  0.00    -0.236 NA
ATOM      8  C   UNL     1      43.450 131.975  17.358  1.00  0.00     0.122 A 
ATOM      9  C   UNL     1      43.761 131.669  18.689  1.00  0.00     0.027 A 
ATOM     10  C   UNL     1      42.874 132.173  19.807  1.00  0.00     0.211 C 
ATOM     11  F   UNL     1      41.543 131.979  19.473  1.00  0.00    -0.241 F 
ENDROOT
BRANCH   1  12
ATOM     12  C   UNL     1      42.444 132.178  22.278  1.00  0.00     0.209 C 
ATOM     13  O   UNL     1      41.710 133.171  22.017  1.00  0.00    -0.290 OA
BRANCH  12  14
ATOM     14  C   UNL     1      42.524 131.672  23.667  1.00  0.00     0.228 C 
ATOM     15  O   UNL     1      42.303 132.464  24.622  1.00  0.00    -0.285 OA
BRANCH  14  16
ATOM     16  C   UNL     1      42.885 130.265  23.972  1.00  0.00     0.026 A 
ATOM     17  C   UNL     1      44.225 129.833  23.948  1.00  0.00     0.012 A 
ATOM     18  C   UNL     1      41.873 129.328  24.253  1.00  0.00     0.012 A 
ATOM     19  C   UNL     1      44.544 128.500  24.223  1.00  0.00     0.001 A 
ATOM     20  C   UNL     1      42.197 127.996  24.528  1.00  0.00     0.001 A 
ATOM     21  C   UNL     1      43.531 127.583  24.516  1.00  0.00     0.000 A 
ENDBRANCH  14  16
ENDBRANCH  12  14
ENDBRANCH   1  12
BRANCH   6  22
ATOM     22  C   UNL     1      46.313 130.479  15.500  1.00  0.00     0.020 A 
ATOM     23  C   UNL     1      46.953 129.209  15.531  1.00  0.00     0.014 A 
ATOM     24  C   UNL     1      46.532 131.338  14.395  1.00  0.00     0.022 A 
ATOM     25  C   UNL     1      47.794 128.799  14.481  1.00  0.00     0.027 A 
ATOM     26  C   UNL     1      47.371 130.897  13.375  1.00  0.00     0.000 A 
ATOM     27  C   UNL     1      47.981 129.674  13.415  1.00  0.00     0.045 A 
ATOM     28  C   UNL     1      47.756 131.512  12.203  1.00  0.00     0.028 A 
ATOM     29  N   UNL     1      48.737 129.480  12.322  1.00  0.00    -0.361 N 
ATOM     30  C   UNL     1      48.603 130.602  11.577  1.00  0.00     0.083 A 
ATOM     31  H   UNL     1      49.311 128.639  12.090  1.00  0.00     0.166 HD
ENDBRANCH   6  22
TORSDOF 4
ENDMDL
MODEL 3
REMARK VINA RESULT:      -2.5      1.669      2.890
REMARK SMILES O=C(C(=O)[C@@H]1CCc2nc(-c3ccc4[nH]ccc4c3)ncc2[C@H]1F)c1ccccc1
REMARK SMILES IDX 5 1 6 2 7 3 8 4 9 5 10 6 20 7 21 8 22 9 23 10 24 11 3 12
REMARK SMILES IDX 4 13 2 14 1 15 25 16 26 17 30 18 27 19 29 20 28 21 11 22
REMARK SMILES IDX 12 23 19 24 13 25 18 26 14 27 17 28 15 29 16 30
REMARK H PARENT 15 31
ROOT
ATOM      1  C   UNL     1      42.826 132.367  21.239  1.00  0.00     0.104 C 
ATOM      2  C   UNL     1      41.899 132.062  20.049  1.00  0.00     0.022 C 
ATOM      3  C   UNL     1      42.657 132.228  18.730  1.00  0.00     0.057 C 
ATOM      4  C   UNL     1      43.972 131.496  18.730  1.00  0.00     0.051 A 
ATOM      5  N   UNL     1      44.574 131.239  17.539  1.00  0.00    -0.233 NA
ATOM      6  C   UNL     1      45.785 130.624  17.466  1.00  0.00     0.159 A 
ATOM      7  N   UNL     1      46.415 130.258  18.614  1.00  0.00    -0.236 NA
ATOM      8  C   UNL     1      45.866 130.502  19.831  1.00  0.00     0.122 A 
ATOM      9  C   UNL     1      44.631 131.154  19.928  1.00  0.00     0.027 A 
ATOM     10  C   UNL     1      43.986 131.355  21.283  1.00  0.00     0.211 C 
ATOM     11  F   UNL     1      44.936 131.793  22.192  1.00  0.00    -0.241 F 
ENDROOT
BRANCH   1  12
ATOM     12  C   UNL     1      42.056 132.345  22.540  1.00  0.00     0.209 C 
ATOM     13  O   UNL     1      40.921 132.896  22.595  1.00  0.00    -0.290 OA
BRANCH  12  14
ATOM     14  C   UNL     1      42.575 131.619  23.721  1.00  0.00     0.228 C 
ATOM     15  O   UNL     1      43.172 132.265  24.625  1.00  0.00    -0.285 OA
BRANCH  14  16
ATOM     16  C   UNL     1      42.439 130.148  23.864  1.00  0.00     0.026 A 
ATOM     17  C   UNL     1      41.225 129.563  24.272  1.00  0.00     0.012 A 
ATOM     18  C   UNL     1      43.550 129.316  23.628  1.00  0.00     0.012 A 
ATOM     19  C   UNL     1      41.120 128.177  24.416  1.00  0.00     0.001 A 
ATOM     20  C   UNL     1      43.440 127.929  23.773  1.00  0.00     0.001 A 
ATOM     21  C   UNL     1      42.225 127.360  24.163  1.00  0.00     0.000 A 
ENDBRANCH  14  16
ENDBRANCH  12  14
ENDBRANCH   1  12
BRANCH   6  22
ATOM     22  C   UNL     1      46.410 130.353  16.148  1.00  0.00     0.020 A 
ATOM     23  C   UNL     1      46.833 129.038  15.808  1.00  0.00     0.014 A 
ATOM     24  C   UNL     1      46.591 131.402  15.213  1.00  0.00     0.022 A 
ATOM     25  C   UNL     1      47.427 128.770  14.561  1.00  0.00     0.027 A 
ATOM     26  C   UNL     1      47.182 131.098  13.990  1.00  0.00     0.000 A 
ATOM     27  C   UNL     1      47.586 129.830  13.674  1.00  0.00     0.045 A 
ATOM     28  C   UNL     1      47.477 131.906  12.912  1.00  0.00     0.028 A 
ATOM     29  N   UNL     1      48.124 129.792  12.443  1.00  0.00    -0.361 N 
ATOM     30  C   UNL     1      48.060 131.060  11.973  1.00  0.00     0.083 A 
ATOM     31  H   UNL     1      48.513 128.959  11.948  1.00  0.00     0.166 HD
ENDBRANCH   6  22
TORSDOF 4
ENDMDL
MODEL 4
REMARK VINA RESULT:      -2.1      5.183      6.165
REMARK SMILES O=C(C(=O)[C@@H]1CCc2nc(-c3ccc4[nH]ccc4c3)ncc2[C@H]1F)c1ccccc1
REMARK SMILES IDX 5 1 6 2 7 3 8 4 9 5 10 6 20 7 21 8 22 9 23 10 24 11 3 12
REMARK SMILES IDX 4 13 2 14 1 15 25 16 26 17 30 18 27 19 29 20 28 21 11 22
REMARK SMILES IDX 12 23 19 24 13 25 18 26 14 27 17 28 15 29 16 30
REMARK H PARENT 15 31
ROOT
ATOM      1  C   UNL     1      43.744 130.602  22.689  1.00  0.00     0.104 C 
ATOM      2  C   UNL     1      44.818 130.134  21.692  1.00  0.00     0.022 C 
ATOM      3  C   UNL     1      45.540 131.339  21.085  1.00  0.00     0.057 C 
ATOM      4  C   UNL     1      46.010 132.312  22.133  1.00  0.00     0.051 A 
ATOM      5  N   UNL     1      46.967 133.217  21.799  1.00  0.00    -0.233 NA
ATOM      6  C   UNL     1      47.404 134.156  22.681  1.00  0.00     0.159 A 
ATOM      7  N   UNL     1      46.870 134.194  23.931  1.00  0.00    -0.236 NA
ATOM      8  C   UNL     1      45.902 133.323  24.314  1.00  0.00     0.122 A 
ATOM      9  C   UNL     1      45.423 132.364  23.413  1.00  0.00     0.027 A 
ATOM     10  C   UNL     1      44.400 131.345  23.869  1.00  0.00     0.211 C 
ATOM     11  F   UNL     1      43.413 131.973  24.613  1.00  0.00    -0.241 F 
ENDROOT
BRANCH   1  12
ATOM     12  C   UNL     1      42.929 129.431  23.190  1.00  0.00     0.209 C 
ATOM     13  O   UNL     1      41.678 129.434  23.023  1.00  0.00    -0.290 OA
BRANCH  12  14
ATOM     14  C   UNL     1      43.584 128.250  23.798  1.00  0.00     0.228 C 
ATOM     15  O   UNL     1      44.521 128.426  24.624  1.00  0.00    -0.285 OA
BRANCH  14  16
ATOM     16  C   UNL     1      43.190 126.864  23.447  1.00  0.00     0.026 A 
ATOM     17  C   UNL     1      42.051 126.261  24.016  1.00  0.00     0.012 A 
ATOM     18  C   UNL     1      43.985 126.113  22.560  1.00  0.00     0.012 A 
ATOM     19  C   UNL     1      41.705 124.948  23.685  1.00  0.00     0.001 A 
ATOM     20  C   UNL     1      43.633 124.800  22.231  1.00  0.00     0.001 A 
ATOM     21  C   UNL     1      42.492 124.219  22.790  1.00  0.00     0.000 A 
ENDBRANCH  14  16
ENDBRANCH  12  14
ENDBRANCH   1  12
BRANCH   6  22
ATOM     22  C   UNL     1      48.455 135.125  22.284  1.00  0.00     0.020 A 
ATOM     23  C   UNL     1      48.245 136.009  21.189  1.00  0.00     0.014 A 
ATOM     24  C   UNL     1      49.681 135.179  22.992  1.00  0.00     0.022 A 
ATOM     25  C   UNL     1      49.235 136.931  20.805  1.00  0.00     0.027 A 
ATOM     26  C   UNL     1      50.637 136.105  22.582  1.00  0.00     0.000 A 
ATOM     27  C   UNL     1      50.424 136.949  21.527  1.00  0.00     0.045 A 
ATOM     28  C   UNL     1      51.896 136.372  23.077  1.00  0.00     0.028 A 
ATOM     29  N   UNL     1      51.489 137.744  21.328  1.00  0.00    -0.361 N 
ATOM     30  C   UNL     1      52.392 137.394  22.274  1.00  0.00     0.083 A 
ATOM     31  H   UNL     1      51.601 138.480  20.597  1.00  0.00     0.166 HD
ENDBRANCH   6  22
TORSDOF 4
ENDMDL
MODEL 5
REMARK VINA RESULT:      -1.2      4.404      5.833
REMARK SMILES O=C(C(=O)[C@@H]1CCc2nc(-c3ccc4[nH]ccc4c3)ncc2[C@H]1F)c1ccccc1
REMARK SMILES IDX 5 1 6 2 7 3 8 4 9 5 10 6 20 7 21 8 22 9 23 10 24 11 3 12
REMARK SMILES IDX 4 13 2 14 1 15 25 16 26 17 30 18 27 19 29 20 28 21 11 22
REMARK SMILES IDX 12 23 19 24 13 25 18 26 14 27 17 28 15 29 16 30
REMARK H PARENT 15 31
ROOT
ATOM      1  C   UNL     1      43.381 129.485  23.739  1.00  0.00     0.104 C 
ATOM      2  C   UNL     1      42.954 130.829  24.354  1.00  0.00     0.022 C 
ATOM      3  C   UNL     1      44.165 131.753  24.504  1.00  0.00     0.057 C 
ATOM      4  C   UNL     1      44.973 131.848  23.238  1.00  0.00     0.051 A 
ATOM      5  N   UNL     1      45.838 132.886  23.094  1.00  0.00    -0.233 NA
ATOM      6  C   UNL     1      46.633 133.010  21.997  1.00  0.00     0.159 A 
ATOM      7  N   UNL     1      46.566 132.069  21.018  1.00  0.00    -0.236 NA
ATOM      8  C   UNL     1      45.730 131.004  21.116  1.00  0.00     0.122 A 
ATOM      9  C   UNL     1      44.919 130.848  22.247  1.00  0.00     0.027 A 
ATOM     10  C   UNL     1      43.933 129.701  22.317  1.00  0.00     0.211 C 
ATOM     11  F   UNL     1      44.541 128.533  21.885  1.00  0.00    -0.241 F 
ENDROOT
BRANCH   1  12
ATOM     12  C   UNL     1      42.223 128.513  23.715  1.00  0.00     0.209 C 
ATOM     13  O   UNL     1      41.070 128.934  23.420  1.00  0.00    -0.290 OA
BRANCH  12  14
ATOM     14  C   UNL     1      42.437 127.066  23.950  1.00  0.00     0.228 C 
ATOM     15  O   UNL     1      43.587 126.661  24.272  1.00  0.00    -0.285 OA
BRANCH  14  16
ATOM     16  C   UNL     1      41.346 126.074  23.793  1.00  0.00     0.026 A 
ATOM     17  C   UNL     1      41.400 125.081  22.796  1.00  0.00     0.012 A 
ATOM     18  C   UNL     1      40.211 126.142  24.624  1.00  0.00     0.012 A 
ATOM     19  C   UNL     1      40.355 124.163  22.654  1.00  0.00     0.001 A 
ATOM     20  C   UNL     1      39.169 125.222  24.477  1.00  0.00     0.001 A 
ATOM     21  C   UNL     1      39.242 124.232  23.495  1.00  0.00     0.000 A 
ENDBRANCH  14  16
ENDBRANCH  12  14
ENDBRANCH   1  12
BRANCH   6  22
ATOM     22  C   UNL     1      47.561 134.160  21.870  1.00  0.00     0.020 A 
ATOM     23  C   UNL     1      47.266 135.229  20.979  1.00  0.00     0.014 A 
ATOM     24  C   UNL     1      48.752 134.206  22.636  1.00  0.00     0.022 A 
ATOM     25  C   UNL     1      48.139 136.324  20.851  1.00  0.00     0.027 A 
ATOM     26  C   UNL     1      49.592 135.306  22.482  1.00  0.00     0.000 A 
ATOM     27  C   UNL     1      49.298 136.328  21.621  1.00  0.00     0.045 A 
ATOM     28  C   UNL     1      50.793 135.609  23.087  1.00  0.00     0.028 A 
ATOM     29  N   UNL     1      50.257 137.268  21.651  1.00  0.00    -0.361 N 
ATOM     30  C   UNL     1      51.174 136.833  22.546  1.00  0.00     0.083 A 
ATOM     31  H   UNL     1      50.291 138.154  21.099  1.00  0.00     0.166 HD
ENDBRANCH   6  22
TORSDOF 4
ENDMDL


