REMARK SMILES Cc1ccc([C@H]2CC[C@@H](N)[C@@]3(C=O)CC=N[C@@H]23)cc1F
REMARK SMILES IDX 6 1 7 2 8 3 9 4 11 5 14 6 15 7 16 8 17 9 5 10 2 11 3 12
REMARK SMILES IDX 19 13 4 14 18 15 1 16 20 17 12 18 13 19 10 20
REMARK H PARENT 10 21 10 22
ROOT
ATOM      1  C   UNL     1      -0.061  -0.112  -0.036  1.00  0.00     0.045 C 
ATOM      2  C   UNL     1      -0.515   1.334  -0.349  1.00  0.00     0.012 C 
ATOM      3  C   UNL     1      -1.718   1.802   0.499  1.00  0.00     0.020 C 
ATOM      4  C   UNL     1      -1.963   0.918   1.739  1.00  0.00     0.066 C 
ATOM      5  C   UNL     1      -2.231  -0.575   1.329  1.00  0.00     0.069 C 
ATOM      6  C   UNL     1      -3.632  -0.751   0.675  1.00  0.00     0.066 C 
ATOM      7  C   UNL     1      -3.316  -1.036  -0.745  1.00  0.00     0.079 C 
ATOM      8  N   UNL     1      -2.072  -1.186  -0.977  1.00  0.00    -0.292 NA
ATOM      9  C   UNL     1      -1.257  -1.064   0.203  1.00  0.00     0.127 C 
ENDROOT
BRANCH   1  10
ATOM     10  C   UNL     1       0.908  -0.656  -1.076  1.00  0.00    -0.040 A 
ATOM     11  C   UNL     1       2.726  -1.709  -2.964  1.00  0.00    -0.015 A 
ATOM     12  C   UNL     1       1.477  -1.225  -3.377  1.00  0.00     0.007 A 
ATOM     13  C   UNL     1       3.054  -1.690  -1.600  1.00  0.00     0.126 A 
ATOM     14  C   UNL     1       0.577  -0.702  -2.444  1.00  0.00     0.004 A 
ATOM     15  C   UNL     1       2.154  -1.167  -0.667  1.00  0.00     0.043 A 
ATOM     16  C   UNL     1       3.680  -2.297  -3.964  1.00  0.00     0.047 C 
ATOM     17  F   UNL     1       4.245  -2.180  -1.171  1.00  0.00    -0.207 F 
ENDBRANCH   1  10
BRANCH   5  18
ATOM     18  C   UNL     1      -2.095  -1.459   2.557  1.00  0.00     0.235 C 
ATOM     19  O   UNL     1      -1.020  -1.566   3.127  1.00  0.00    -0.303 OA
ENDBRANCH   5  18
BRANCH   4  20
ATOM     20  N   UNL     1      -3.073   1.461   2.530  1.00  0.00    -0.327 NA
ATOM     21  H   UNL     1      -3.162   0.901   3.409  1.00  0.00     0.119 HD
ATOM     22  H   UNL     1      -2.822   2.429   2.835  1.00  0.00     0.119 HD
ENDBRANCH   4  20
TORSDOF 3


