MODEL 1
REMARK VINA RESULT:      -8.0      0.000      0.000
REMARK SMILES NNc1ccc2cc(-c3ncnc4c3COC4)[nH]c2c1F
REMARK SMILES IDX 2 1 1 3 3 6 4 7 20 8 5 9 19 10 6 11 18 12 7 13 8 14 21 15
REMARK SMILES IDX 9 17 10 18 14 19 11 20 13 21 15 22 12 23 17 24 16 25
REMARK H PARENT 2 2 1 4 1 5 18 16
ROOT
ATOM      1  N   UNL     1      47.605 129.595  13.997  1.00  0.00    -0.321 N 
ATOM      2  H   UNL     1      47.980 128.672  14.322  1.00  0.00     0.181 HD
ENDROOT
BRANCH   1   3
ATOM      3  N   UNL     1      48.193 130.212  12.881  1.00  0.00    -0.250 NA
ATOM      4  H   UNL     1      47.485 130.190  12.111  1.00  0.00     0.143 HD
ATOM      5  H   UNL     1      48.989 129.612  12.567  1.00  0.00     0.143 HD
ENDBRANCH   1   3
BRANCH   1   6
ATOM      6  C   UNL     1      46.509 130.190  14.713  1.00  0.00     0.087 A 
ATOM      7  C   UNL     1      45.454 130.789  13.978  1.00  0.00     0.031 A 
ATOM      8  C   UNL     1      46.452 130.187  16.131  1.00  0.00     0.171 A 
ATOM      9  C   UNL     1      44.361 131.384  14.632  1.00  0.00     0.013 A 
ATOM     10  C   UNL     1      45.352 130.787  16.746  1.00  0.00     0.084 A 
ATOM     11  C   UNL     1      44.348 131.364  16.023  1.00  0.00     0.003 A 
ATOM     12  N   UNL     1      45.107 130.887  18.062  1.00  0.00    -0.351 N 
ATOM     13  C   UNL     1      43.421 131.856  16.914  1.00  0.00     0.038 A 
ATOM     14  C   UNL     1      43.925 131.543  18.182  1.00  0.00     0.066 A 
ATOM     15  F   UNL     1      47.417 129.609  16.891  1.00  0.00    -0.202 F 
ATOM     16  H   UNL     1      45.712 130.529  18.836  1.00  0.00     0.167 HD
BRANCH  14  17
ATOM     17  C   UNL     1      43.314 131.840  19.503  1.00  0.00     0.096 A 
ATOM     18  N   UNL     1      42.247 132.692  19.544  1.00  0.00    -0.234 NA
ATOM     19  C   UNL     1      43.748 131.295  20.726  1.00  0.00     0.030 A 
ATOM     20  C   UNL     1      41.620 133.008  20.715  1.00  0.00     0.222 A 
ATOM     21  C   UNL     1      43.108 131.620  21.866  1.00  0.00     0.076 A 
ATOM     22  C   UNL     1      44.831 130.350  21.079  1.00  0.00     0.200 C 
ATOM     23  N   UNL     1      42.051 132.467  21.888  1.00  0.00    -0.239 NA
ATOM     24  C   UNL     1      43.711 130.922  23.006  1.00  0.00     0.217 C 
ATOM     25  O   UNL     1      44.762 130.123  22.483  1.00  0.00    -0.370 OA
ENDBRANCH  14  17
ENDBRANCH   1   6
TORSDOF 3
ENDMDL
MODEL 2
REMARK VINA RESULT:      -7.9      1.369      1.800
REMARK SMILES NNc1ccc2cc(-c3ncnc4c3COC4)[nH]c2c1F
REMARK SMILES IDX 2 1 1 3 3 6 4 7 20 8 5 9 19 10 6 11 18 12 7 13 8 14 21 15
REMARK SMILES IDX 9 17 10 18 14 19 11 20 13 21 15 22 12 23 17 24 16 25
REMARK H PARENT 2 2 1 4 1 5 18 16
ROOT
ATOM      1  N   UNL     1      46.475 130.863  12.994  1.00  0.00    -0.321 N 
ATOM      2  H   UNL     1      45.670 130.748  12.334  1.00  0.00     0.181 HD
ENDROOT
BRANCH   1   3
ATOM      3  N   UNL     1      47.753 131.118  12.469  1.00  0.00    -0.250 NA
ATOM      4  H   UNL     1      48.442 130.639  13.094  1.00  0.00     0.143 HD
ATOM      5  H   UNL     1      47.936 132.143  12.558  1.00  0.00     0.143 HD
ENDBRANCH   1   3
BRANCH   1   6
ATOM      6  C   UNL     1      46.237 130.749  14.407  1.00  0.00     0.087 A 
ATOM      7  C   UNL     1      47.104 129.940  15.187  1.00  0.00     0.031 A 
ATOM      8  C   UNL     1      45.165 131.430  15.043  1.00  0.00     0.171 A 
ATOM      9  C   UNL     1      46.911 129.797  16.572  1.00  0.00     0.013 A 
ATOM     10  C   UNL     1      45.006 131.264  16.419  1.00  0.00     0.084 A 
ATOM     11  C   UNL     1      45.846 130.477  17.153  1.00  0.00     0.003 A 
ATOM     12  N   UNL     1      44.067 131.817  17.204  1.00  0.00    -0.351 N 
ATOM     13  C   UNL     1      45.427 130.526  18.464  1.00  0.00     0.038 A 
ATOM     14  C   UNL     1      44.311 131.372  18.463  1.00  0.00     0.066 A 
ATOM     15  F   UNL     1      44.317 132.237  14.358  1.00  0.00    -0.202 F 
ATOM     16  H   UNL     1      43.303 132.461  16.899  1.00  0.00     0.167 HD
BRANCH  14  17
ATOM     17  C   UNL     1      43.475 131.777  19.622  1.00  0.00     0.096 A 
ATOM     18  N   UNL     1      42.389 132.572  19.388  1.00  0.00    -0.234 NA
ATOM     19  C   UNL     1      43.713 131.389  20.954  1.00  0.00     0.030 A 
ATOM     20  C   UNL     1      41.563 132.980  20.396  1.00  0.00     0.222 A 
ATOM     21  C   UNL     1      42.878 131.802  21.927  1.00  0.00     0.076 A 
ATOM     22  C   UNL     1      44.750 130.545  21.587  1.00  0.00     0.200 C 
ATOM     23  N   UNL     1      41.805 132.590  21.678  1.00  0.00    -0.239 NA
ATOM     24  C   UNL     1      43.300 131.262  23.224  1.00  0.00     0.217 C 
ATOM     25  O   UNL     1      44.450 130.466  22.976  1.00  0.00    -0.370 OA
ENDBRANCH  14  17
ENDBRANCH   1   6
TORSDOF 3
ENDMDL
MODEL 3
REMARK VINA RESULT:      -7.7      1.601      2.096
REMARK SMILES NNc1ccc2cc(-c3ncnc4c3COC4)[nH]c2c1F
REMARK SMILES IDX 2 1 1 3 3 6 4 7 20 8 5 9 19 10 6 11 18 12 7 13 8 14 21 15
REMARK SMILES IDX 9 17 10 18 14 19 11 20 13 21 15 22 12 23 17 24 16 25
REMARK H PARENT 2 2 1 4 1 5 18 16
ROOT
ATOM      1  N   UNL     1      47.384 130.137  13.441  1.00  0.00    -0.321 N 
ATOM      2  H   UNL     1      47.454 130.685  12.551  1.00  0.00     0.181 HD
ENDROOT
BRANCH   1   3
ATOM      3  N   UNL     1      48.219 129.022  13.619  1.00  0.00    -0.250 NA
ATOM      4  H   UNL     1      48.530 129.029  14.618  1.00  0.00     0.143 HD
ATOM      5  H   UNL     1      49.077 129.171  13.042  1.00  0.00     0.143 HD
ENDBRANCH   1   3
BRANCH   1   6
ATOM      6  C   UNL     1      46.431 130.548  14.436  1.00  0.00     0.087 A 
ATOM      7  C   UNL     1      45.241 131.198  14.020  1.00  0.00     0.031 A 
ATOM      8  C   UNL     1      46.646 130.314  15.820  1.00  0.00     0.171 A 
ATOM      9  C   UNL     1      44.279 131.619  14.955  1.00  0.00     0.013 A 
ATOM     10  C   UNL     1      45.671 130.746  16.719  1.00  0.00     0.084 A 
ATOM     11  C   UNL     1      44.533 131.375  16.301  1.00  0.00     0.003 A 
ATOM     12  N   UNL     1      45.680 130.619  18.056  1.00  0.00    -0.351 N 
ATOM     13  C   UNL     1      43.782 131.665  17.418  1.00  0.00     0.038 A 
ATOM     14  C   UNL     1      44.527 131.181  18.500  1.00  0.00     0.066 A 
ATOM     15  F   UNL     1      47.752 129.676  16.279  1.00  0.00    -0.202 F 
ATOM     16  H   UNL     1      46.430 130.176  18.632  1.00  0.00     0.167 HD
BRANCH  14  17
ATOM     17  C   UNL     1      44.174 131.228  19.942  1.00  0.00     0.096 A 
ATOM     18  N   UNL     1      44.973 130.559  20.825  1.00  0.00    -0.234 NA
ATOM     19  C   UNL     1      43.074 131.927  20.474  1.00  0.00     0.030 A 
ATOM     20  C   UNL     1      44.726 130.561  22.168  1.00  0.00     0.222 A 
ATOM     21  C   UNL     1      42.857 131.916  21.803  1.00  0.00     0.076 A 
ATOM     22  C   UNL     1      42.016 132.758  19.858  1.00  0.00     0.200 C 
ATOM     23  N   UNL     1      43.660 131.248  22.665  1.00  0.00    -0.239 NA
ATOM     24  C   UNL     1      41.678 132.724  22.134  1.00  0.00     0.217 C 
ATOM     25  O   UNL     1      41.193 133.253  20.909  1.00  0.00    -0.370 OA
ENDBRANCH  14  17
ENDBRANCH   1   6
TORSDOF 3
ENDMDL
MODEL 4
REMARK VINA RESULT:      -7.5      2.792      7.097
REMARK SMILES NNc1ccc2cc(-c3ncnc4c3COC4)[nH]c2c1F
REMARK SMILES IDX 2 1 1 3 3 6 4 7 20 8 5 9 19 10 6 11 18 12 7 13 8 14 21 15
REMARK SMILES IDX 9 17 10 18 14 19 11 20 13 21 15 22 12 23 17 24 16 25
REMARK H PARENT 2 2 1 4 1 5 18 16
ROOT
ATOM      1  N   UNL     1      42.038 132.257  23.125  1.00  0.00    -0.321 N 
ATOM      2  H   UNL     1      41.080 132.618  22.905  1.00  0.00     0.181 HD
ENDROOT
BRANCH   1   3
ATOM      3  N   UNL     1      42.435 132.160  24.469  1.00  0.00    -0.250 NA
ATOM      4  H   UNL     1      42.462 133.134  24.852  1.00  0.00     0.143 HD
ATOM      5  H   UNL     1      43.419 131.809  24.487  1.00  0.00     0.143 HD
ENDBRANCH   1   3
BRANCH   1   6
ATOM      6  C   UNL     1      42.906 131.883  22.042  1.00  0.00     0.087 A 
ATOM      7  C   UNL     1      44.154 131.278  22.340  1.00  0.00     0.031 A 
ATOM      8  C   UNL     1      42.543 132.094  20.686  1.00  0.00     0.171 A 
ATOM      9  C   UNL     1      45.037 130.894  21.316  1.00  0.00     0.013 A 
ATOM     10  C   UNL     1      43.445 131.700  19.696  1.00  0.00     0.084 A 
ATOM     11  C   UNL     1      44.645 131.125  20.001  1.00  0.00     0.003 A 
ATOM     12  N   UNL     1      43.294 131.808  18.366  1.00  0.00    -0.351 N 
ATOM     13  C   UNL     1      45.291 130.853  18.816  1.00  0.00     0.038 A 
ATOM     14  C   UNL     1      44.421 131.293  17.811  1.00  0.00     0.066 A 
ATOM     15  F   UNL     1      41.354 132.644  20.335  1.00  0.00    -0.202 F 
ATOM     16  H   UNL     1      42.470 132.209  17.865  1.00  0.00     0.167 HD
BRANCH  14  17
ATOM     17  C   UNL     1      44.623 131.231  16.341  1.00  0.00     0.096 A 
ATOM     18  N   UNL     1      43.672 131.791  15.535  1.00  0.00    -0.234 NA
ATOM     19  C   UNL     1      45.736 130.646  15.710  1.00  0.00     0.030 A 
ATOM     20  C   UNL     1      43.787 131.788  14.174  1.00  0.00     0.222 A 
ATOM     21  C   UNL     1      45.826 130.662  14.366  1.00  0.00     0.076 A 
ATOM     22  C   UNL     1      46.947 129.971  16.228  1.00  0.00     0.200 C 
ATOM     23  N   UNL     1      44.875 131.222  13.581  1.00  0.00    -0.239 NA
ATOM     24  C   UNL     1      47.072 130.021  13.931  1.00  0.00     0.217 C 
ATOM     25  O   UNL     1      47.757 129.625  15.110  1.00  0.00    -0.370 OA
ENDBRANCH  14  17
ENDBRANCH   1   6
TORSDOF 3
ENDMDL
MODEL 5
REMARK VINA RESULT:      -7.1      2.594      6.692
REMARK SMILES NNc1ccc2cc(-c3ncnc4c3COC4)[nH]c2c1F
REMARK SMILES IDX 2 1 1 3 3 6 4 7 20 8 5 9 19 10 6 11 18 12 7 13 8 14 21 15
REMARK SMILES IDX 9 17 10 18 14 19 11 20 13 21 15 22 12 23 17 24 16 25
REMARK H PARENT 2 2 1 4 1 5 18 16
ROOT
ATOM      1  N   UNL     1      44.875 131.744  23.691  1.00  0.00    -0.321 N 
ATOM      2  H   UNL     1      45.065 130.819  24.142  1.00  0.00     0.181 HD
ENDROOT
BRANCH   1   3
ATOM      3  N   UNL     1      45.156 132.919  24.407  1.00  0.00    -0.250 NA
ATOM      4  H   UNL     1      44.238 133.338  24.682  1.00  0.00     0.143 HD
ATOM      5  H   UNL     1      45.603 133.596  23.748  1.00  0.00     0.143 HD
ENDBRANCH   1   3
BRANCH   1   6
ATOM      6  C   UNL     1      44.330 131.770  22.361  1.00  0.00     0.087 A 
ATOM      7  C   UNL     1      42.955 132.077  22.188  1.00  0.00     0.031 A 
ATOM      8  C   UNL     1      45.130 131.505  21.218  1.00  0.00     0.171 A 
ATOM      9  C   UNL     1      42.376 132.115  20.908  1.00  0.00     0.013 A 
ATOM     10  C   UNL     1      44.520 131.551  19.964  1.00  0.00     0.084 A 
ATOM     11  C   UNL     1      43.195 131.843  19.816  1.00  0.00     0.003 A 
ATOM     12  N   UNL     1      45.095 131.338  18.769  1.00  0.00    -0.351 N 
ATOM     13  C   UNL     1      42.907 131.814  18.471  1.00  0.00     0.038 A 
ATOM     14  C   UNL     1      44.116 131.493  17.842  1.00  0.00     0.066 A 
ATOM     15  F   UNL     1      46.455 131.230  21.315  1.00  0.00    -0.202 F 
ATOM     16  H   UNL     1      46.097 131.098  18.596  1.00  0.00     0.167 HD
BRANCH  14  17
ATOM     17  C   UNL     1      44.373 131.339  16.387  1.00  0.00     0.096 A 
ATOM     18  N   UNL     1      43.476 131.883  15.512  1.00  0.00    -0.234 NA
ATOM     19  C   UNL     1      45.488 130.680  15.837  1.00  0.00     0.030 A 
ATOM     20  C   UNL     1      43.642 131.796  14.160  1.00  0.00     0.222 A 
ATOM     21  C   UNL     1      45.631 130.615  14.499  1.00  0.00     0.076 A 
ATOM     22  C   UNL     1      46.653 129.996  16.441  1.00  0.00     0.200 C 
ATOM     23  N   UNL     1      44.731 131.160  13.645  1.00  0.00    -0.239 NA
ATOM     24  C   UNL     1      46.868 129.908  14.152  1.00  0.00     0.217 C 
ATOM     25  O   UNL     1      47.492 129.558  15.378  1.00  0.00    -0.370 OA
ENDBRANCH  14  17
ENDBRANCH   1   6
TORSDOF 3
ENDMDL
MODEL 6
REMARK VINA RESULT:      -6.6      2.419      3.293
REMARK SMILES NNc1ccc2cc(-c3ncnc4c3COC4)[nH]c2c1F
REMARK SMILES IDX 2 1 1 3 3 6 4 7 20 8 5 9 19 10 6 11 18 12 7 13 8 14 21 15
REMARK SMILES IDX 9 17 10 18 14 19 11 20 13 21 15 22 12 23 17 24 16 25
REMARK H PARENT 2 2 1 4 1 5 18 16
ROOT
ATOM      1  N   UNL     1      44.045 132.040  14.554  1.00  0.00    -0.321 N 
ATOM      2  H   UNL     1      44.621 132.749  14.043  1.00  0.00     0.181 HD
ENDROOT
BRANCH   1   3
ATOM      3  N   UNL     1      42.885 131.537  13.942  1.00  0.00    -0.250 NA
ATOM      4  H   UNL     1      42.214 131.295  14.707  1.00  0.00     0.143 HD
ATOM      5  H   UNL     1      43.136 130.637  13.473  1.00  0.00     0.143 HD
ENDBRANCH   1   3
BRANCH   1   6
ATOM      6  C   UNL     1      44.464 131.617  15.863  1.00  0.00     0.087 A 
ATOM      7  C   UNL     1      45.733 130.999  16.010  1.00  0.00     0.031 A 
ATOM      8  C   UNL     1      43.649 131.808  17.009  1.00  0.00     0.171 A 
ATOM      9  C   UNL     1      46.188 130.568  17.269  1.00  0.00     0.013 A 
ATOM     10  C   UNL     1      44.133 131.368  18.241  1.00  0.00     0.084 A 
ATOM     11  C   UNL     1      45.354 130.770  18.364  1.00  0.00     0.003 A 
ATOM     12  N   UNL     1      43.525 131.456  19.435  1.00  0.00    -0.351 N 
ATOM     13  C   UNL     1      45.537 130.460  19.693  1.00  0.00     0.038 A 
ATOM     14  C   UNL     1      44.374 130.901  20.337  1.00  0.00     0.066 A 
ATOM     15  F   UNL     1      42.437 132.414  16.938  1.00  0.00    -0.202 F 
ATOM     16  H   UNL     1      42.585 131.870  19.624  1.00  0.00     0.167 HD
BRANCH  14  17
ATOM     17  C   UNL     1      44.049 130.820  21.784  1.00  0.00     0.096 A 
ATOM     18  N   UNL     1      43.384 131.867  22.357  1.00  0.00    -0.234 NA
ATOM     19  C   UNL     1      44.365 129.728  22.615  1.00  0.00     0.030 A 
ATOM     20  C   UNL     1      43.038 131.867  23.677  1.00  0.00     0.222 A 
ATOM     21  C   UNL     1      44.006 129.752  23.913  1.00  0.00     0.076 A 
ATOM     22  C   UNL     1      45.048 128.439  22.367  1.00  0.00     0.200 C 
ATOM     23  N   UNL     1      43.347 130.799  24.465  1.00  0.00    -0.239 NA
ATOM     24  C   UNL     1      44.413 128.510  24.578  1.00  0.00     0.217 C 
ATOM     25  O   UNL     1      45.035 127.705  23.587  1.00  0.00    -0.370 OA
ENDBRANCH  14  17
ENDBRANCH   1   6
TORSDOF 3
ENDMDL
MODEL 7
REMARK VINA RESULT:      -6.6      1.441      1.737
REMARK SMILES NNc1ccc2cc(-c3ncnc4c3COC4)[nH]c2c1F
REMARK SMILES IDX 2 1 1 3 3 6 4 7 20 8 5 9 19 10 6 11 18 12 7 13 8 14 21 15
REMARK SMILES IDX 9 17 10 18 14 19 11 20 13 21 15 22 12 23 17 24 16 25
REMARK H PARENT 2 2 1 4 1 5 18 16
ROOT
ATOM      1  N   UNL     1      48.305 128.992  12.960  1.00  0.00    -0.321 N 
ATOM      2  H   UNL     1      47.771 128.352  12.327  1.00  0.00     0.181 HD
ENDROOT
BRANCH   1   3
ATOM      3  N   UNL     1      49.708 128.915  12.979  1.00  0.00    -0.250 NA
ATOM      4  H   UNL     1      50.062 129.610  12.283  1.00  0.00     0.143 HD
ATOM      5  H   UNL     1      49.980 127.972  12.620  1.00  0.00     0.143 HD
ENDBRANCH   1   3
BRANCH   1   6
ATOM      6  C   UNL     1      47.578 129.917  13.787  1.00  0.00     0.087 A 
ATOM      7  C   UNL     1      47.640 131.302  13.484  1.00  0.00     0.031 A 
ATOM      8  C   UNL     1      46.795 129.482  14.888  1.00  0.00     0.171 A 
ATOM      9  C   UNL     1      46.946 132.245  14.262  1.00  0.00     0.013 A 
ATOM     10  C   UNL     1      46.121 130.446  15.637  1.00  0.00     0.084 A 
ATOM     11  C   UNL     1      46.196 131.776  15.336  1.00  0.00     0.003 A 
ATOM     12  N   UNL     1      45.333 130.245  16.706  1.00  0.00    -0.351 N 
ATOM     13  C   UNL     1      45.424 132.456  16.251  1.00  0.00     0.038 A 
ATOM     14  C   UNL     1      44.898 131.471  17.095  1.00  0.00     0.066 A 
ATOM     15  F   UNL     1      46.676 128.170  15.213  1.00  0.00    -0.202 F 
ATOM     16  H   UNL     1      45.104 129.325  17.145  1.00  0.00     0.167 HD
BRANCH  14  17
ATOM     17  C   UNL     1      43.989 131.657  18.255  1.00  0.00     0.096 A 
ATOM     18  N   UNL     1      42.703 132.048  18.011  1.00  0.00    -0.234 NA
ATOM     19  C   UNL     1      44.352 131.445  19.598  1.00  0.00     0.030 A 
ATOM     20  C   UNL     1      41.800 132.230  19.019  1.00  0.00     0.222 A 
ATOM     21  C   UNL     1      43.440 131.627  20.572  1.00  0.00     0.076 A 
ATOM     22  C   UNL     1      45.612 131.016  20.245  1.00  0.00     0.200 C 
ATOM     23  N   UNL     1      42.168 132.015  20.313  1.00  0.00    -0.239 NA
ATOM     24  C   UNL     1      44.027 131.329  21.883  1.00  0.00     0.217 C 
ATOM     25  O   UNL     1      45.368 130.929  21.645  1.00  0.00    -0.370 OA
ENDBRANCH  14  17
ENDBRANCH   1   6
TORSDOF 3
ENDMDL
MODEL 8
REMARK VINA RESULT:      -6.5      1.430      1.644
REMARK SMILES NNc1ccc2cc(-c3ncnc4c3COC4)[nH]c2c1F
REMARK SMILES IDX 2 1 1 3 3 6 4 7 20 8 5 9 19 10 6 11 18 12 7 13 8 14 21 15
REMARK SMILES IDX 9 17 10 18 14 19 11 20 13 21 15 22 12 23 17 24 16 25
REMARK H PARENT 2 2 1 4 1 5 18 16
ROOT
ATOM      1  N   UNL     1      47.921 131.297  13.102  1.00  0.00    -0.321 N 
ATOM      2  H   UNL     1      48.798 131.831  13.309  1.00  0.00     0.181 HD
ENDROOT
BRANCH   1   3
ATOM      3  N   UNL     1      47.619 130.978  11.768  1.00  0.00    -0.250 NA
ATOM      4  H   UNL     1      47.975 131.764  11.177  1.00  0.00     0.143 HD
ATOM      5  H   UNL     1      46.578 130.981  11.667  1.00  0.00     0.143 HD
ENDBRANCH   1   3
BRANCH   1   6
ATOM      6  C   UNL     1      47.064 130.919  14.193  1.00  0.00     0.087 A 
ATOM      7  C   UNL     1      46.785 129.544  14.402  1.00  0.00     0.031 A 
ATOM      8  C   UNL     1      46.499 131.882  15.069  1.00  0.00     0.171 A 
ATOM      9  C   UNL     1      45.954 129.125  15.455  1.00  0.00     0.013 A 
ATOM     10  C   UNL     1      45.679 131.429  16.103  1.00  0.00     0.084 A 
ATOM     11  C   UNL     1      45.416 130.102  16.286  1.00  0.00     0.003 A 
ATOM     12  N   UNL     1      45.055 132.170  17.033  1.00  0.00    -0.351 N 
ATOM     13  C   UNL     1      44.588 129.987  17.379  1.00  0.00     0.038 A 
ATOM     14  C   UNL     1      44.379 131.298  17.824  1.00  0.00     0.066 A 
ATOM     15  F   UNL     1      46.747 133.210  14.937  1.00  0.00    -0.202 F 
ATOM     16  H   UNL     1      45.088 133.210  17.124  1.00  0.00     0.167 HD
BRANCH  14  17
ATOM     17  C   UNL     1      43.565 131.747  18.982  1.00  0.00     0.096 A 
ATOM     18  N   UNL     1      42.414 132.439  18.733  1.00  0.00    -0.234 NA
ATOM     19  C   UNL     1      43.886 131.500  20.330  1.00  0.00     0.030 A 
ATOM     20  C   UNL     1      41.602 132.878  19.739  1.00  0.00     0.222 A 
ATOM     21  C   UNL     1      43.064 131.939  21.303  1.00  0.00     0.076 A 
ATOM     22  C   UNL     1      45.009 130.792  20.984  1.00  0.00     0.200 C 
ATOM     23  N   UNL     1      41.926 132.624  21.038  1.00  0.00    -0.239 NA
ATOM     24  C   UNL     1      43.580 131.551  22.620  1.00  0.00     0.217 C 
ATOM     25  O   UNL     1      44.774 130.819  22.388  1.00  0.00    -0.370 OA
ENDBRANCH  14  17
ENDBRANCH   1   6
TORSDOF 3
ENDMDL
MODEL 9
REMARK VINA RESULT:      -6.5      1.393      1.990
REMARK SMILES NNc1ccc2cc(-c3ncnc4c3COC4)[nH]c2c1F
REMARK SMILES IDX 2 1 1 3 3 6 4 7 20 8 5 9 19 10 6 11 18 12 7 13 8 14 21 15
REMARK SMILES IDX 9 17 10 18 14 19 11 20 13 21 15 22 12 23 17 24 16 25
REMARK H PARENT 2 2 1 4 1 5 18 16
ROOT
ATOM      1  N   UNL     1      46.538 130.527  14.708  1.00  0.00    -0.321 N 
ATOM      2  H   UNL     1      46.696 129.518  14.475  1.00  0.00     0.181 HD
ENDROOT
BRANCH   1   3
ATOM      3  N   UNL     1      47.217 131.509  13.969  1.00  0.00    -0.250 NA
ATOM      4  H   UNL     1      47.085 131.277  12.957  1.00  0.00     0.143 HD
ATOM      5  H   UNL     1      48.239 131.406  14.164  1.00  0.00     0.143 HD
ENDBRANCH   1   3
BRANCH   1   6
ATOM      6  C   UNL     1      45.636 130.859  15.777  1.00  0.00     0.087 A 
ATOM      7  C   UNL     1      44.420 131.521  15.468  1.00  0.00     0.031 A 
ATOM      8  C   UNL     1      45.926 130.537  17.128  1.00  0.00     0.171 A 
ATOM      9  C   UNL     1      43.506 131.867  16.478  1.00  0.00     0.013 A 
ATOM     10  C   UNL     1      44.996 130.896  18.104  1.00  0.00     0.084 A 
ATOM     11  C   UNL     1      43.832 131.538  17.790  1.00  0.00     0.003 A 
ATOM     12  N   UNL     1      45.077 130.682  19.427  1.00  0.00    -0.351 N 
ATOM     13  C   UNL     1      43.139 131.745  18.961  1.00  0.00     0.038 A 
ATOM     14  C   UNL     1      43.945 131.199  19.968  1.00  0.00     0.066 A 
ATOM     15  F   UNL     1      47.060 129.883  17.486  1.00  0.00    -0.202 F 
ATOM     16  H   UNL     1      45.860 130.210  19.933  1.00  0.00     0.167 HD
BRANCH  14  17
ATOM     17  C   UNL     1      43.668 131.146  21.426  1.00  0.00     0.096 A 
ATOM     18  N   UNL     1      42.885 132.124  21.971  1.00  0.00    -0.234 NA
ATOM     19  C   UNL     1      44.145 130.147  22.295  1.00  0.00     0.030 A 
ATOM     20  C   UNL     1      42.572 132.143  23.300  1.00  0.00     0.222 A 
ATOM     21  C   UNL     1      43.817 130.187  23.601  1.00  0.00     0.076 A 
ATOM     22  C   UNL     1      44.985 128.947  22.086  1.00  0.00     0.200 C 
ATOM     23  N   UNL     1      43.039 131.164  24.125  1.00  0.00    -0.239 NA
ATOM     24  C   UNL     1      44.400 129.042  24.309  1.00  0.00     0.217 C 
ATOM     25  O   UNL     1      45.099 128.279  23.337  1.00  0.00    -0.370 OA
ENDBRANCH  14  17
ENDBRANCH   1   6
TORSDOF 3
ENDMDL


