REMARK SMILES C=Cc1ccc(-c2cccc3cc(Nc4ccc(F)cc4C)[nH]c23)[nH+]c1
REMARK SMILES IDX 7 1 8 2 9 3 10 4 11 5 12 6 13 7 23 8 24 9 6 11 3 12 4 13
REMARK SMILES IDX 26 14 5 15 25 16 2 18 1 19 14 20 15 22 16 23 21 24 17 25
REMARK SMILES IDX 20 26 18 27 22 28 19 29
REMARK H PARENT 23 10 25 17 14 21
ROOT
ATOM      1  C   UNL     1       0.420  -1.568   1.615  1.00  0.00     0.070 A 
ATOM      2  C   UNL     1       0.872  -2.099   2.843  1.00  0.00     0.017 A 
ATOM      3  C   UNL     1       0.043  -2.086   3.986  1.00  0.00     0.002 A 
ATOM      4  C   UNL     1      -1.253  -1.549   3.920  1.00  0.00     0.010 A 
ATOM      5  C   UNL     1      -1.685  -1.041   2.699  1.00  0.00     0.002 A 
ATOM      6  C   UNL     1      -2.904  -0.505   2.343  1.00  0.00     0.055 A 
ATOM      7  C   UNL     1      -2.776  -0.212   0.992  1.00  0.00     0.108 A 
ATOM      8  N   UNL     1      -1.553  -0.554   0.521  1.00  0.00    -0.341 N 
ATOM      9  C   UNL     1      -0.885  -1.048   1.581  1.00  0.00     0.061 A 
ATOM     10  H   UNL     1      -1.220  -0.489  -0.466  1.00  0.00     0.168 HD
ENDROOT
BRANCH   1  11
ATOM     11  C   UNL     1       1.306  -1.566   0.430  1.00  0.00     0.212 A 
ATOM     12  C   UNL     1       3.020  -1.582  -1.779  1.00  0.00     0.038 A 
ATOM     13  C   UNL     1       2.353  -0.406  -1.413  1.00  0.00     0.021 A 
ATOM     14  C   UNL     1       2.796  -2.741  -1.011  1.00  0.00     0.314 A 
ATOM     15  C   UNL     1       1.505  -0.391  -0.307  1.00  0.00     0.081 A 
ATOM     16  N   UNL     1       1.962  -2.705   0.065  1.00  0.00    -0.210 N 
ATOM     17  H   UNL     1       1.813  -3.587   0.606  1.00  0.00     0.453 HD
BRANCH  12  18
ATOM     18  C   UNL     1       3.908  -1.558  -2.968  1.00  0.00     0.006 C 
ATOM     19  C   UNL     1       4.815  -2.495  -3.247  1.00  0.00     0.009 C 
ENDBRANCH  12  18
ENDBRANCH   1  11
BRANCH   7  20
ATOM     20  N   UNL     1      -3.826   0.330   0.180  1.00  0.00    -0.342 N 
ATOM     21  H   UNL     1      -4.806   0.280   0.537  1.00  0.00     0.168 HD
BRANCH  20  22
ATOM     22  C   UNL     1      -3.615   0.736  -1.179  1.00  0.00     0.043 A 
ATOM     23  C   UNL     1      -4.325   0.084  -2.197  1.00  0.00     0.029 A 
ATOM     24  C   UNL     1      -2.731   1.793  -1.508  1.00  0.00    -0.025 A 
ATOM     25  C   UNL     1      -4.125   0.433  -3.534  1.00  0.00     0.041 A 
ATOM     26  C   UNL     1      -2.525   2.118  -2.860  1.00  0.00     0.044 A 
ATOM     27  C   UNL     1      -3.219   1.442  -3.866  1.00  0.00     0.123 A 
ATOM     28  C   UNL     1      -1.995   2.569  -0.450  1.00  0.00     0.047 C 
ATOM     29  F   UNL     1      -3.019   1.772  -5.166  1.00  0.00    -0.207 F 
ENDBRANCH  20  22
ENDBRANCH   7  20
TORSDOF 4


