REMARK SMILES Nc1cc(F)c[nH]/c1=N\c1cnc2[nH]ccc2c1
REMARK SMILES IDX 8 1 2 2 3 3 4 4 5 5 6 6 7 7 9 9 10 10 11 11 12 12 13 13
REMARK SMILES IDX 18 14 17 15 14 16 16 17 15 18 1 20
REMARK H PARENT 7 8 14 19 1 21 1 22
ROOT
ATOM      1  C   UNL     1      -1.793  -0.119  -0.353  1.00  0.00     0.154 A 
ATOM      2  C   UNL     1      -3.005  -0.699  -0.786  1.00  0.00     0.078 A 
ATOM      3  C   UNL     1      -4.180   0.060  -0.737  1.00  0.00     0.070 A 
ATOM      4  C   UNL     1      -4.145   1.374  -0.276  1.00  0.00     0.141 A 
ATOM      5  F   UNL     1      -5.280   2.113  -0.229  1.00  0.00    -0.205 F 
ATOM      6  C   UNL     1      -2.929   1.926   0.122  1.00  0.00     0.123 A 
ATOM      7  N   UNL     1      -1.788   1.186   0.072  1.00  0.00    -0.342 N 
ATOM      8  H   UNL     1      -0.902   1.667   0.337  1.00  0.00     0.168 HD
ENDROOT
BRANCH   1   9
ATOM      9  N   UNL     1      -0.697  -0.826  -0.402  1.00  0.00    -0.227 NA
BRANCH   9  10
ATOM     10  C   UNL     1       0.601  -0.458   0.086  1.00  0.00     0.085 A 
ATOM     11  C   UNL     1       0.784   0.006   1.417  1.00  0.00     0.142 A 
ATOM     12  N   UNL     1       2.034   0.294   1.889  1.00  0.00    -0.236 NA
ATOM     13  C   UNL     1       3.102   0.115   1.073  1.00  0.00     0.137 A 
ATOM     14  C   UNL     1       1.728  -0.671  -0.730  1.00  0.00     0.042 A 
ATOM     15  C   UNL     1       2.974  -0.358  -0.200  1.00  0.00     0.021 A 
ATOM     16  N   UNL     1       4.386   0.342   1.386  1.00  0.00    -0.346 N 
ATOM     17  C   UNL     1       4.242  -0.438  -0.734  1.00  0.00     0.030 A 
ATOM     18  C   UNL     1       5.090   0.005   0.279  1.00  0.00     0.085 A 
ATOM     19  H   UNL     1       4.765   0.698   2.291  1.00  0.00     0.167 HD
ENDBRANCH   9  10
ENDBRANCH   1   9
BRANCH   2  20
ATOM     20  N   UNL     1      -3.057  -2.051  -1.263  1.00  0.00    -0.396 N 
ATOM     21  H   UNL     1      -2.203  -2.649  -1.310  1.00  0.00     0.156 HD
ATOM     22  H   UNL     1      -3.962  -2.468  -1.577  1.00  0.00     0.156 HD
ENDBRANCH   2  20
TORSDOF 3


