MODEL 1
REMARK VINA RESULT:      -3.8      0.000      0.000
REMARK SMILES Cc1ccc(-c2cc3[nH]ccc3cc2N(N)C(=O)N2CCOCC2)cc1F
REMARK SMILES IDX 6 1 7 2 8 3 9 4 10 5 11 6 12 7 13 8 14 9 5 11 2 12 3 13
REMARK SMILES IDX 26 14 4 15 25 16 1 17 27 18 15 19 16 20 17 23 19 24 20 25
REMARK SMILES IDX 24 26 21 27 23 28 22 29 18 30
REMARK H PARENT 9 10 16 21 16 22
ROOT
ATOM      1  C   UNL     1      44.404 124.908  23.395  1.00  0.00     0.009 A 
ATOM      2  C   UNL     1      43.816 123.656  23.692  1.00  0.00     0.037 A 
ATOM      3  C   UNL     1      42.459 123.483  23.436  1.00  0.00     0.046 A 
ATOM      4  N   UNL     1      41.726 122.377  23.641  1.00  0.00    -0.361 N 
ATOM      5  C   UNL     1      40.472 122.686  23.234  1.00  0.00     0.083 A 
ATOM      6  C   UNL     1      40.414 123.996  22.768  1.00  0.00     0.028 A 
ATOM      7  C   UNL     1      41.695 124.483  22.906  1.00  0.00     0.002 A 
ATOM      8  C   UNL     1      42.222 125.734  22.610  1.00  0.00     0.039 A 
ATOM      9  C   UNL     1      43.588 125.969  22.879  1.00  0.00     0.071 A 
ATOM     10  H   UNL     1      42.052 121.465  24.032  1.00  0.00     0.166 HD
ENDROOT
BRANCH   1  11
ATOM     11  C   UNL     1      45.865 125.065  23.586  1.00  0.00    -0.013 A 
ATOM     12  C   UNL     1      48.644 125.363  23.939  1.00  0.00    -0.015 A 
ATOM     13  C   UNL     1      47.748 126.202  24.620  1.00  0.00     0.007 A 
ATOM     14  C   UNL     1      48.141 124.370  23.082  1.00  0.00     0.126 A 
ATOM     15  C   UNL     1      46.371 126.062  24.437  1.00  0.00     0.009 A 
ATOM     16  C   UNL     1      46.762 124.233  22.897  1.00  0.00     0.048 A 
ATOM     17  C   UNL     1      50.122 125.489  24.164  1.00  0.00     0.047 C 
ATOM     18  F   UNL     1      48.985 123.531  22.430  1.00  0.00    -0.207 F 
ENDBRANCH   1  11
BRANCH   9  19
ATOM     19  N   UNL     1      44.115 127.288  22.647  1.00  0.00    -0.229 N 
BRANCH  19  20
ATOM     20  N   UNL     1      45.093 127.446  21.651  1.00  0.00    -0.239 NA
ATOM     21  H   UNL     1      44.663 127.971  20.859  1.00  0.00     0.144 HD
ATOM     22  H   UNL     1      45.859 128.033  22.048  1.00  0.00     0.144 HD
ENDBRANCH  19  20
BRANCH  19  23
ATOM     23  C   UNL     1      43.688 128.433  23.417  1.00  0.00     0.339 C 
ATOM     24  N   UNL     1      43.655 129.760  22.850  1.00  0.00    -0.319 N 
ATOM     25  C   UNL     1      44.526 130.139  21.731  1.00  0.00     0.150 C 
ATOM     26  C   UNL     1      42.662 130.737  23.307  1.00  0.00     0.150 C 
ATOM     27  C   UNL     1      44.999 131.587  21.902  1.00  0.00     0.181 C 
ATOM     28  C   UNL     1      43.299 132.127  23.373  1.00  0.00     0.181 C 
ATOM     29  O   UNL     1      43.908 132.455  22.140  1.00  0.00    -0.378 OA
ATOM     30  O   UNL     1      43.362 128.267  24.623  1.00  0.00    -0.247 OA
ENDBRANCH  19  23
ENDBRANCH   9  19
TORSDOF 4
ENDMDL
MODEL 2
REMARK VINA RESULT:      -3.1      5.097      8.395
REMARK SMILES Cc1ccc(-c2cc3[nH]ccc3cc2N(N)C(=O)N2CCOCC2)cc1F
REMARK SMILES IDX 6 1 7 2 8 3 9 4 10 5 11 6 12 7 13 8 14 9 5 11 2 12 3 13
REMARK SMILES IDX 26 14 4 15 25 16 1 17 27 18 15 19 16 20 17 23 19 24 20 25
REMARK SMILES IDX 24 26 21 27 23 28 22 29 18 30
REMARK H PARENT 9 10 16 21 16 22
ROOT
ATOM      1  C   UNL     1      45.317 132.143  22.620  1.00  0.00     0.009 A 
ATOM      2  C   UNL     1      46.169 132.725  23.588  1.00  0.00     0.037 A 
ATOM      3  C   UNL     1      47.158 133.605  23.158  1.00  0.00     0.046 A 
ATOM      4  N   UNL     1      48.053 134.259  23.916  1.00  0.00    -0.361 N 
ATOM      5  C   UNL     1      48.793 134.998  23.057  1.00  0.00     0.083 A 
ATOM      6  C   UNL     1      48.362 134.811  21.748  1.00  0.00     0.028 A 
ATOM      7  C   UNL     1      47.316 133.918  21.838  1.00  0.00     0.002 A 
ATOM      8  C   UNL     1      46.515 133.363  20.848  1.00  0.00     0.039 A 
ATOM      9  C   UNL     1      45.515 132.442  21.232  1.00  0.00     0.071 A 
ATOM     10  H   UNL     1      48.159 134.210  24.954  1.00  0.00     0.166 HD
ENDROOT
BRANCH   1  11
ATOM     11  C   UNL     1      44.211 131.275  23.085  1.00  0.00    -0.013 A 
ATOM     12  C   UNL     1      42.114 129.617  23.974  1.00  0.00    -0.015 A 
ATOM     13  C   UNL     1      42.012 131.012  24.088  1.00  0.00     0.007 A 
ATOM     14  C   UNL     1      43.271 129.054  23.410  1.00  0.00     0.126 A 
ATOM     15  C   UNL     1      43.056 131.834  23.658  1.00  0.00     0.009 A 
ATOM     16  C   UNL     1      44.317 129.878  22.982  1.00  0.00     0.048 A 
ATOM     17  C   UNL     1      40.978 128.736  24.403  1.00  0.00     0.047 C 
ATOM     18  F   UNL     1      43.385 127.710  23.267  1.00  0.00    -0.207 F 
ENDBRANCH   1  11
BRANCH   9  19
ATOM     19  N   UNL     1      44.738 131.808  20.199  1.00  0.00    -0.229 N 
BRANCH  19  20
ATOM     20  N   UNL     1      43.402 132.210  20.034  1.00  0.00    -0.239 NA
ATOM     21  H   UNL     1      43.263 132.460  19.031  1.00  0.00     0.144 HD
ATOM     22  H   UNL     1      42.795 131.388  20.246  1.00  0.00     0.144 HD
ENDBRANCH  19  20
BRANCH  19  23
ATOM     23  C   UNL     1      45.280 130.766  19.358  1.00  0.00     0.339 C 
ATOM     24  N   UNL     1      45.300 130.886  17.920  1.00  0.00    -0.319 N 
ATOM     25  C   UNL     1      44.333 131.727  17.205  1.00  0.00     0.150 C 
ATOM     26  C   UNL     1      46.368 130.253  17.139  1.00  0.00     0.150 C 
ATOM     27  C   UNL     1      43.931 131.057  15.886  1.00  0.00     0.181 C 
ATOM     28  C   UNL     1      45.790 129.683  15.842  1.00  0.00     0.181 C 
ATOM     29  O   UNL     1      45.070 130.677  15.139  1.00  0.00    -0.378 OA
ATOM     30  O   UNL     1      45.721 129.716  19.899  1.00  0.00    -0.247 OA
ENDBRANCH  19  23
ENDBRANCH   9  19
TORSDOF 4
ENDMDL
MODEL 3
REMARK VINA RESULT:      -3.1      3.288      6.092
REMARK SMILES Cc1ccc(-c2cc3[nH]ccc3cc2N(N)C(=O)N2CCOCC2)cc1F
REMARK SMILES IDX 6 1 7 2 8 3 9 4 10 5 11 6 12 7 13 8 14 9 5 11 2 12 3 13
REMARK SMILES IDX 26 14 4 15 25 16 1 17 27 18 15 19 16 20 17 23 19 24 20 25
REMARK SMILES IDX 24 26 21 27 23 28 22 29 18 30
REMARK H PARENT 9 10 16 21 16 22
ROOT
ATOM      1  C   UNL     1      44.526 126.276  22.328  1.00  0.00     0.009 A 
ATOM      2  C   UNL     1      43.265 125.728  21.993  1.00  0.00     0.037 A 
ATOM      3  C   UNL     1      43.012 124.399  22.315  1.00  0.00     0.046 A 
ATOM      4  N   UNL     1      41.884 123.705  22.088  1.00  0.00    -0.361 N 
ATOM      5  C   UNL     1      42.109 122.465  22.582  1.00  0.00     0.083 A 
ATOM      6  C   UNL     1      43.386 122.376  23.126  1.00  0.00     0.028 A 
ATOM      7  C   UNL     1      43.943 123.623  22.944  1.00  0.00     0.002 A 
ATOM      8  C   UNL     1      45.200 124.108  23.281  1.00  0.00     0.039 A 
ATOM      9  C   UNL     1      45.515 125.444  22.949  1.00  0.00     0.071 A 
ATOM     10  H   UNL     1      41.012 124.049  21.627  1.00  0.00     0.166 HD
ENDROOT
BRANCH   1  11
ATOM     11  C   UNL     1      44.764 127.714  22.064  1.00  0.00    -0.013 A 
ATOM     12  C   UNL     1      45.218 130.450  21.572  1.00  0.00    -0.015 A 
ATOM     13  C   UNL     1      45.829 129.474  20.769  1.00  0.00     0.007 A 
ATOM     14  C   UNL     1      44.376 130.050  22.622  1.00  0.00     0.126 A 
ATOM     15  C   UNL     1      45.613 128.117  21.019  1.00  0.00     0.009 A 
ATOM     16  C   UNL     1      44.162 128.691  22.874  1.00  0.00     0.048 A 
ATOM     17  C   UNL     1      45.421 131.908  21.280  1.00  0.00     0.047 C 
ATOM     18  F   UNL     1      43.755 130.973  23.398  1.00  0.00    -0.207 F 
ENDBRANCH   1  11
BRANCH   9  19
ATOM     19  N   UNL     1      46.844 125.923  23.227  1.00  0.00    -0.229 N 
BRANCH  19  20
ATOM     20  N   UNL     1      46.984 127.039  24.070  1.00  0.00    -0.239 NA
ATOM     21  H   UNL     1      47.962 127.391  23.977  1.00  0.00     0.144 HD
ATOM     22  H   UNL     1      46.341 127.783  23.721  1.00  0.00     0.144 HD
ENDBRANCH  19  20
BRANCH  19  23
ATOM     23  C   UNL     1      48.018 125.311  22.651  1.00  0.00     0.339 C 
ATOM     24  N   UNL     1      49.223 125.109  23.418  1.00  0.00    -0.319 N 
ATOM     25  C   UNL     1      49.550 125.954  24.573  1.00  0.00     0.150 C 
ATOM     26  C   UNL     1      50.103 123.971  23.131  1.00  0.00     0.150 C 
ATOM     27  C   UNL     1      51.061 126.209  24.624  1.00  0.00     0.181 C 
ATOM     28  C   UNL     1      51.564 124.400  23.275  1.00  0.00     0.181 C 
ATOM     29  O   UNL     1      51.786 124.998  24.538  1.00  0.00    -0.378 OA
ATOM     30  O   UNL     1      47.992 124.971  21.437  1.00  0.00    -0.247 OA
ENDBRANCH  19  23
ENDBRANCH   9  19
TORSDOF 4
ENDMDL
MODEL 4
REMARK VINA RESULT:      -2.9      4.871      8.262
REMARK SMILES Cc1ccc(-c2cc3[nH]ccc3cc2N(N)C(=O)N2CCOCC2)cc1F
REMARK SMILES IDX 6 1 7 2 8 3 9 4 10 5 11 6 12 7 13 8 14 9 5 11 2 12 3 13
REMARK SMILES IDX 26 14 4 15 25 16 1 17 27 18 15 19 16 20 17 23 19 24 20 25
REMARK SMILES IDX 24 26 21 27 23 28 22 29 18 30
REMARK H PARENT 9 10 16 21 16 22
ROOT
ATOM      1  C   UNL     1      45.341 131.990  22.829  1.00  0.00     0.009 A 
ATOM      2  C   UNL     1      45.993 132.790  23.797  1.00  0.00     0.037 A 
ATOM      3  C   UNL     1      47.024 133.627  23.381  1.00  0.00     0.046 A 
ATOM      4  N   UNL     1      47.754 134.460  24.140  1.00  0.00    -0.361 N 
ATOM      5  C   UNL     1      48.620 135.065  23.295  1.00  0.00     0.083 A 
ATOM      6  C   UNL     1      48.435 134.612  21.992  1.00  0.00     0.028 A 
ATOM      7  C   UNL     1      47.410 133.696  22.073  1.00  0.00     0.002 A 
ATOM      8  C   UNL     1      46.811 132.921  21.087  1.00  0.00     0.039 A 
ATOM      9  C   UNL     1      45.779 132.034  21.464  1.00  0.00     0.071 A 
ATOM     10  H   UNL     1      47.673 134.613  25.171  1.00  0.00     0.166 HD
ENDROOT
BRANCH   1  11
ATOM     11  C   UNL     1      44.189 131.164  23.256  1.00  0.00    -0.013 A 
ATOM     12  C   UNL     1      42.002 129.589  24.077  1.00  0.00    -0.015 A 
ATOM     13  C   UNL     1      41.819 130.941  23.750  1.00  0.00     0.007 A 
ATOM     14  C   UNL     1      43.286 129.027  23.989  1.00  0.00     0.126 A 
ATOM     15  C   UNL     1      42.904 131.726  23.354  1.00  0.00     0.009 A 
ATOM     16  C   UNL     1      44.373 129.813  23.595  1.00  0.00     0.048 A 
ATOM     17  C   UNL     1      40.830 128.737  24.467  1.00  0.00     0.047 C 
ATOM     18  F   UNL     1      43.486 127.716  24.278  1.00  0.00    -0.207 F 
ENDBRANCH   1  11
BRANCH   9  19
ATOM     19  N   UNL     1      45.214 131.175  20.457  1.00  0.00    -0.229 N 
BRANCH  19  20
ATOM     20  N   UNL     1      45.543 129.809  20.490  1.00  0.00    -0.239 NA
ATOM     21  H   UNL     1      46.047 129.579  19.606  1.00  0.00     0.144 HD
ATOM     22  H   UNL     1      46.206 129.661  21.283  1.00  0.00     0.144 HD
ENDBRANCH  19  20
BRANCH  19  23
ATOM     23  C   UNL     1      44.350 131.676  19.414  1.00  0.00     0.339 C 
ATOM     24  N   UNL     1      44.523 131.292  18.034  1.00  0.00    -0.319 N 
ATOM     25  C   UNL     1      45.827 130.863  17.514  1.00  0.00     0.150 C 
ATOM     26  C   UNL     1      43.366 131.210  17.137  1.00  0.00     0.150 C 
ATOM     27  C   UNL     1      46.015 131.381  16.082  1.00  0.00     0.181 C 
ATOM     28  C   UNL     1      43.753 131.724  15.749  1.00  0.00     0.181 C 
ATOM     29  O   UNL     1      44.903 131.053  15.272  1.00  0.00    -0.378 OA
ATOM     30  O   UNL     1      43.439 132.493  19.721  1.00  0.00    -0.247 OA
ENDBRANCH  19  23
ENDBRANCH   9  19
TORSDOF 4
ENDMDL
MODEL 5
REMARK VINA RESULT:      -2.5      4.219      7.778
REMARK SMILES Cc1ccc(-c2cc3[nH]ccc3cc2N(N)C(=O)N2CCOCC2)cc1F
REMARK SMILES IDX 6 1 7 2 8 3 9 4 10 5 11 6 12 7 13 8 14 9 5 11 2 12 3 13
REMARK SMILES IDX 26 14 4 15 25 16 1 17 27 18 15 19 16 20 17 23 19 24 20 25
REMARK SMILES IDX 24 26 21 27 23 28 22 29 18 30
REMARK H PARENT 9 10 16 21 16 22
ROOT
ATOM      1  C   UNL     1      43.983 131.573  18.958  1.00  0.00     0.009 A 
ATOM      2  C   UNL     1      42.746 132.245  18.816  1.00  0.00     0.037 A 
ATOM      3  C   UNL     1      42.052 132.607  19.966  1.00  0.00     0.046 A 
ATOM      4  N   UNL     1      40.876 133.251  20.040  1.00  0.00    -0.361 N 
ATOM      5  C   UNL     1      40.612 133.387  21.360  1.00  0.00     0.083 A 
ATOM      6  C   UNL     1      41.630 132.827  22.126  1.00  0.00     0.028 A 
ATOM      7  C   UNL     1      42.538 132.337  21.213  1.00  0.00     0.002 A 
ATOM      8  C   UNL     1      43.740 131.668  21.406  1.00  0.00     0.039 A 
ATOM      9  C   UNL     1      44.468 131.253  20.269  1.00  0.00     0.071 A 
ATOM     10  H   UNL     1      40.284 133.581  19.244  1.00  0.00     0.166 HD
ENDROOT
BRANCH   1  11
ATOM     11  C   UNL     1      44.762 131.264  17.736  1.00  0.00    -0.013 A 
ATOM     12  C   UNL     1      46.236 130.670  15.411  1.00  0.00    -0.015 A 
ATOM     13  C   UNL     1      46.114 131.996  15.853  1.00  0.00     0.007 A 
ATOM     14  C   UNL     1      45.619 129.640  16.140  1.00  0.00     0.126 A 
ATOM     15  C   UNL     1      45.374 132.293  17.000  1.00  0.00     0.009 A 
ATOM     16  C   UNL     1      44.876 129.938  17.287  1.00  0.00     0.048 A 
ATOM     17  C   UNL     1      47.062 130.347  14.200  1.00  0.00     0.047 C 
ATOM     18  F   UNL     1      45.741 128.347  15.747  1.00  0.00    -0.207 F 
ENDBRANCH   1  11
BRANCH   9  19
ATOM     19  N   UNL     1      45.673 130.491  20.468  1.00  0.00    -0.229 N 
BRANCH  19  20
ATOM     20  N   UNL     1      46.892 131.062  20.066  1.00  0.00    -0.239 NA
ATOM     21  H   UNL     1      47.629 130.327  20.133  1.00  0.00     0.144 HD
ATOM     22  H   UNL     1      46.800 131.333  19.062  1.00  0.00     0.144 HD
ENDBRANCH  19  20
BRANCH  19  23
ATOM     23  C   UNL     1      45.659 129.165  21.039  1.00  0.00     0.339 C 
ATOM     24  N   UNL     1      44.819 128.831  22.164  1.00  0.00    -0.319 N 
ATOM     25  C   UNL     1      44.378 129.850  23.123  1.00  0.00     0.150 C 
ATOM     26  C   UNL     1      44.287 127.472  22.314  1.00  0.00     0.150 C 
ATOM     27  C   UNL     1      44.355 129.262  24.539  1.00  0.00     0.181 C 
ATOM     28  C   UNL     1      44.298 127.074  23.791  1.00  0.00     0.181 C 
ATOM     29  O   UNL     1      43.632 128.047  24.573  1.00  0.00    -0.378 OA
ATOM     30  O   UNL     1      46.424 128.287  20.554  1.00  0.00    -0.247 OA
ENDBRANCH  19  23
ENDBRANCH   9  19
TORSDOF 4
ENDMDL
MODEL 6
REMARK VINA RESULT:      -2.4      4.671      7.949
REMARK SMILES Cc1ccc(-c2cc3[nH]ccc3cc2N(N)C(=O)N2CCOCC2)cc1F
REMARK SMILES IDX 6 1 7 2 8 3 9 4 10 5 11 6 12 7 13 8 14 9 5 11 2 12 3 13
REMARK SMILES IDX 26 14 4 15 25 16 1 17 27 18 15 19 16 20 17 23 19 24 20 25
REMARK SMILES IDX 24 26 21 27 23 28 22 29 18 30
REMARK H PARENT 9 10 16 21 16 22
ROOT
ATOM      1  C   UNL     1      44.183 131.369  18.578  1.00  0.00     0.009 A 
ATOM      2  C   UNL     1      42.960 132.034  18.328  1.00  0.00     0.037 A 
ATOM      3  C   UNL     1      42.209 132.473  19.415  1.00  0.00     0.046 A 
ATOM      4  N   UNL     1      41.035 133.124  19.384  1.00  0.00    -0.361 N 
ATOM      5  C   UNL     1      40.704 133.347  20.677  1.00  0.00     0.083 A 
ATOM      6  C   UNL     1      41.677 132.835  21.530  1.00  0.00     0.028 A 
ATOM      7  C   UNL     1      42.628 132.283  20.700  1.00  0.00     0.002 A 
ATOM      8  C   UNL     1      43.814 131.624  20.999  1.00  0.00     0.039 A 
ATOM      9  C   UNL     1      44.597 131.133  19.931  1.00  0.00     0.071 A 
ATOM     10  H   UNL     1      40.488 133.403  18.539  1.00  0.00     0.166 HD
ENDROOT
BRANCH   1  11
ATOM     11  C   UNL     1      45.023 130.978  17.422  1.00  0.00    -0.013 A 
ATOM     12  C   UNL     1      46.628 130.243  15.227  1.00  0.00    -0.015 A 
ATOM     13  C   UNL     1      46.143 129.265  16.110  1.00  0.00     0.007 A 
ATOM     14  C   UNL     1      46.304 131.591  15.446  1.00  0.00     0.126 A 
ATOM     15  C   UNL     1      45.357 129.630  17.205  1.00  0.00     0.009 A 
ATOM     16  C   UNL     1      45.519 131.956  16.545  1.00  0.00     0.048 A 
ATOM     17  C   UNL     1      47.441 129.846  14.030  1.00  0.00     0.047 C 
ATOM     18  F   UNL     1      46.740 132.553  14.595  1.00  0.00    -0.207 F 
ENDBRANCH   1  11
BRANCH   9  19
ATOM     19  N   UNL     1      45.784 130.382  20.243  1.00  0.00    -0.229 N 
BRANCH  19  20
ATOM     20  N   UNL     1      47.018 130.870  19.779  1.00  0.00    -0.239 NA
ATOM     21  H   UNL     1      47.005 130.837  18.737  1.00  0.00     0.144 HD
ATOM     22  H   UNL     1      47.092 131.870  20.068  1.00  0.00     0.144 HD
ENDBRANCH  19  20
BRANCH  19  23
ATOM     23  C   UNL     1      45.739 129.145  20.986  1.00  0.00     0.339 C 
ATOM     24  N   UNL     1      44.794 128.936  22.056  1.00  0.00    -0.319 N 
ATOM     25  C   UNL     1      44.233 130.059  22.816  1.00  0.00     0.150 C 
ATOM     26  C   UNL     1      44.278 127.591  22.337  1.00  0.00     0.150 C 
ATOM     27  C   UNL     1      44.073 129.666  24.290  1.00  0.00     0.181 C 
ATOM     28  C   UNL     1      44.143 127.397  23.848  1.00  0.00     0.181 C 
ATOM     29  O   UNL     1      43.378 128.441  24.418  1.00  0.00    -0.378 OA
ATOM     30  O   UNL     1      46.569 128.238  20.707  1.00  0.00    -0.247 OA
ENDBRANCH  19  23
ENDBRANCH   9  19
TORSDOF 4
ENDMDL
MODEL 7
REMARK VINA RESULT:      -2.3      5.202      8.571
REMARK SMILES Cc1ccc(-c2cc3[nH]ccc3cc2N(N)C(=O)N2CCOCC2)cc1F
REMARK SMILES IDX 6 1 7 2 8 3 9 4 10 5 11 6 12 7 13 8 14 9 5 11 2 12 3 13
REMARK SMILES IDX 26 14 4 15 25 16 1 17 27 18 15 19 16 20 17 23 19 24 20 25
REMARK SMILES IDX 24 26 21 27 23 28 22 29 18 30
REMARK H PARENT 9 10 16 21 16 22
ROOT
ATOM      1  C   UNL     1      45.545 132.055  22.632  1.00  0.00     0.009 A 
ATOM      2  C   UNL     1      46.162 132.857  23.621  1.00  0.00     0.037 A 
ATOM      3  C   UNL     1      47.199 133.702  23.240  1.00  0.00     0.046 A 
ATOM      4  N   UNL     1      47.899 134.539  24.023  1.00  0.00    -0.361 N 
ATOM      5  C   UNL     1      48.786 135.152  23.206  1.00  0.00     0.083 A 
ATOM      6  C   UNL     1      48.645 134.702  21.898  1.00  0.00     0.028 A 
ATOM      7  C   UNL     1      47.624 133.778  21.944  1.00  0.00     0.002 A 
ATOM      8  C   UNL     1      47.062 133.002  20.938  1.00  0.00     0.039 A 
ATOM      9  C   UNL     1      46.025 132.106  21.281  1.00  0.00     0.071 A 
ATOM     10  H   UNL     1      47.784 134.688  25.051  1.00  0.00     0.166 HD
ENDROOT
BRANCH   1  11
ATOM     11  C   UNL     1      44.386 131.220  23.021  1.00  0.00    -0.013 A 
ATOM     12  C   UNL     1      42.174 129.637  23.755  1.00  0.00    -0.015 A 
ATOM     13  C   UNL     1      43.392 129.034  23.402  1.00  0.00     0.007 A 
ATOM     14  C   UNL     1      42.069 131.037  23.741  1.00  0.00     0.126 A 
ATOM     15  C   UNL     1      44.485 129.818  23.027  1.00  0.00     0.009 A 
ATOM     16  C   UNL     1      43.164 131.821  23.364  1.00  0.00     0.048 A 
ATOM     17  C   UNL     1      41.011 128.796  24.193  1.00  0.00     0.047 C 
ATOM     18  F   UNL     1      40.911 131.645  24.101  1.00  0.00    -0.207 F 
ENDBRANCH   1  11
BRANCH   9  19
ATOM     19  N   UNL     1      45.497 131.246  20.255  1.00  0.00    -0.229 N 
BRANCH  19  20
ATOM     20  N   UNL     1      45.962 129.921  20.197  1.00  0.00    -0.239 NA
ATOM     21  H   UNL     1      45.419 129.423  19.459  1.00  0.00     0.144 HD
ATOM     22  H   UNL     1      46.961 129.948  19.896  1.00  0.00     0.144 HD
ENDBRANCH  19  20
BRANCH  19  23
ATOM     23  C   UNL     1      44.536 131.709  19.282  1.00  0.00     0.339 C 
ATOM     24  N   UNL     1      44.638 131.357  17.886  1.00  0.00    -0.319 N 
ATOM     25  C   UNL     1      45.927 131.017  17.272  1.00  0.00     0.150 C 
ATOM     26  C   UNL     1      43.429 131.218  17.067  1.00  0.00     0.150 C 
ATOM     27  C   UNL     1      45.986 131.567  15.841  1.00  0.00     0.181 C 
ATOM     28  C   UNL     1      43.689 131.775  15.666  1.00  0.00     0.181 C 
ATOM     29  O   UNL     1      44.843 131.184  15.101  1.00  0.00    -0.378 OA
ATOM     30  O   UNL     1      43.600 132.463  19.664  1.00  0.00    -0.247 OA
ENDBRANCH  19  23
ENDBRANCH   9  19
TORSDOF 4
ENDMDL
MODEL 8
REMARK VINA RESULT:      -2.2      1.566      2.084
REMARK SMILES Cc1ccc(-c2cc3[nH]ccc3cc2N(N)C(=O)N2CCOCC2)cc1F
REMARK SMILES IDX 6 1 7 2 8 3 9 4 10 5 11 6 12 7 13 8 14 9 5 11 2 12 3 13
REMARK SMILES IDX 26 14 4 15 25 16 1 17 27 18 15 19 16 20 17 23 19 24 20 25
REMARK SMILES IDX 24 26 21 27 23 28 22 29 18 30
REMARK H PARENT 9 10 16 21 16 22
ROOT
ATOM      1  C   UNL     1      46.433 125.049  22.959  1.00  0.00     0.009 A 
ATOM      2  C   UNL     1      46.039 123.777  23.435  1.00  0.00     0.037 A 
ATOM      3  C   UNL     1      44.683 123.531  23.626  1.00  0.00     0.046 A 
ATOM      4  N   UNL     1      44.114 122.394  24.061  1.00  0.00    -0.361 N 
ATOM      5  C   UNL     1      42.781 122.631  24.073  1.00  0.00     0.083 A 
ATOM      6  C   UNL     1      42.507 123.925  23.642  1.00  0.00     0.028 A 
ATOM      7  C   UNL     1      43.737 124.479  23.361  1.00  0.00     0.002 A 
ATOM      8  C   UNL     1      44.073 125.748  22.906  1.00  0.00     0.039 A 
ATOM      9  C   UNL     1      45.439 126.056  22.724  1.00  0.00     0.071 A 
ATOM     10  H   UNL     1      44.597 121.508  24.333  1.00  0.00     0.166 HD
ENDROOT
BRANCH   1  11
ATOM     11  C   UNL     1      47.868 125.283  22.674  1.00  0.00    -0.013 A 
ATOM     12  C   UNL     1      50.594 125.727  22.121  1.00  0.00    -0.015 A 
ATOM     13  C   UNL     1      49.937 126.485  23.103  1.00  0.00     0.007 A 
ATOM     14  C   UNL     1      49.881 124.742  21.419  1.00  0.00     0.126 A 
ATOM     15  C   UNL     1      48.582 126.273  23.369  1.00  0.00     0.009 A 
ATOM     16  C   UNL     1      48.524 124.532  21.684  1.00  0.00     0.048 A 
ATOM     17  C   UNL     1      52.058 125.930  21.861  1.00  0.00     0.047 C 
ATOM     18  F   UNL     1      50.498 123.980  20.481  1.00  0.00    -0.207 F 
ENDBRANCH   1  11
BRANCH   9  19
ATOM     19  N   UNL     1      45.792 127.394  22.329  1.00  0.00    -0.229 N 
BRANCH  19  20
ATOM     20  N   UNL     1      46.826 127.558  21.392  1.00  0.00    -0.239 NA
ATOM     21  H   UNL     1      46.492 128.221  20.658  1.00  0.00     0.144 HD
ATOM     22  H   UNL     1      47.632 128.002  21.883  1.00  0.00     0.144 HD
ENDBRANCH  19  20
BRANCH  19  23
ATOM     23  C   UNL     1      45.138 128.557  22.881  1.00  0.00     0.339 C 
ATOM     24  N   UNL     1      44.578 129.585  22.038  1.00  0.00    -0.319 N 
ATOM     25  C   UNL     1      45.085 129.828  20.682  1.00  0.00     0.150 C 
ATOM     26  C   UNL     1      43.402 130.345  22.477  1.00  0.00     0.150 C 
ATOM     27  C   UNL     1      45.071 131.331  20.379  1.00  0.00     0.181 C 
ATOM     28  C   UNL     1      43.545 131.807  22.049  1.00  0.00     0.181 C 
ATOM     29  O   UNL     1      43.807 131.896  20.661  1.00  0.00    -0.378 OA
ATOM     30  O   UNL     1      45.082 128.685  24.135  1.00  0.00    -0.247 OA
ENDBRANCH  19  23
ENDBRANCH   9  19
TORSDOF 4
ENDMDL
MODEL 9
REMARK VINA RESULT:      -2.2      5.381      8.674
REMARK SMILES Cc1ccc(-c2cc3[nH]ccc3cc2N(N)C(=O)N2CCOCC2)cc1F
REMARK SMILES IDX 6 1 7 2 8 3 9 4 10 5 11 6 12 7 13 8 14 9 5 11 2 12 3 13
REMARK SMILES IDX 26 14 4 15 25 16 1 17 27 18 15 19 16 20 17 23 19 24 20 25
REMARK SMILES IDX 24 26 21 27 23 28 22 29 18 30
REMARK H PARENT 9 10 16 21 16 22
ROOT
ATOM      1  C   UNL     1      45.430 132.175  22.464  1.00  0.00     0.009 A 
ATOM      2  C   UNL     1      46.289 132.738  23.437  1.00  0.00     0.037 A 
ATOM      3  C   UNL     1      47.267 133.635  23.020  1.00  0.00     0.046 A 
ATOM      4  N   UNL     1      48.166 134.276  23.785  1.00  0.00    -0.361 N 
ATOM      5  C   UNL     1      48.891 135.043  22.938  1.00  0.00     0.083 A 
ATOM      6  C   UNL     1      48.447 134.886  21.629  1.00  0.00     0.028 A 
ATOM      7  C   UNL     1      47.408 133.984  21.707  1.00  0.00     0.002 A 
ATOM      8  C   UNL     1      46.600 133.449  20.712  1.00  0.00     0.039 A 
ATOM      9  C   UNL     1      45.611 132.511  21.082  1.00  0.00     0.071 A 
ATOM     10  H   UNL     1      48.283 134.202  24.821  1.00  0.00     0.166 HD
ENDROOT
BRANCH   1  11
ATOM     11  C   UNL     1      44.335 131.287  22.919  1.00  0.00    -0.013 A 
ATOM     12  C   UNL     1      42.245 129.604  23.776  1.00  0.00    -0.015 A 
ATOM     13  C   UNL     1      43.456 129.057  23.324  1.00  0.00     0.007 A 
ATOM     14  C   UNL     1      42.086 130.999  23.800  1.00  0.00     0.126 A 
ATOM     15  C   UNL     1      44.488 129.891  22.888  1.00  0.00     0.009 A 
ATOM     16  C   UNL     1      43.119 131.833  23.361  1.00  0.00     0.048 A 
ATOM     17  C   UNL     1      41.150 128.710  24.279  1.00  0.00     0.047 C 
ATOM     18  F   UNL     1      40.934 131.554  24.255  1.00  0.00    -0.207 F 
ENDBRANCH   1  11
BRANCH   9  19
ATOM     19  N   UNL     1      44.827 131.897  20.042  1.00  0.00    -0.229 N 
BRANCH  19  20
ATOM     20  N   UNL     1      43.515 132.359  19.842  1.00  0.00    -0.239 NA
ATOM     21  H   UNL     1      43.093 132.544  20.778  1.00  0.00     0.144 HD
ATOM     22  H   UNL     1      43.573 133.267  19.331  1.00  0.00     0.144 HD
ENDBRANCH  19  20
BRANCH  19  23
ATOM     23  C   UNL     1      45.337 130.819  19.228  1.00  0.00     0.339 C 
ATOM     24  N   UNL     1      45.343 130.892  17.787  1.00  0.00    -0.319 N 
ATOM     25  C   UNL     1      44.385 131.731  17.057  1.00  0.00     0.150 C 
ATOM     26  C   UNL     1      46.388 130.213  17.015  1.00  0.00     0.150 C 
ATOM     27  C   UNL     1      43.953 131.029  15.764  1.00  0.00     0.181 C 
ATOM     28  C   UNL     1      45.782 129.615  15.743  1.00  0.00     0.181 C 
ATOM     29  O   UNL     1      45.075 130.601  15.017  1.00  0.00    -0.378 OA
ATOM     30  O   UNL     1      45.763 129.777  19.798  1.00  0.00    -0.247 OA
ENDBRANCH  19  23
ENDBRANCH   9  19
TORSDOF 4
ENDMDL


