REMARK SMILES CC(=O)N(N)c1cc(C)cc(-n2[nH+]c3ccccc3[nH+]2)c1[O-]
REMARK SMILES IDX 6 1 7 2 8 3 9 4 10 5 11 6 21 7 22 8 4 9 2 10 1 11 3 12 5 13
REMARK SMILES IDX 12 16 13 17 20 18 14 19 19 20 15 21 18 22 16 23 17 24
REMARK H PARENT 5 14 5 15 13 25 20 26
ROOT
ATOM      1  C   UNL     1      -2.289  -0.503  -0.221  1.00  0.00     0.055 A 
ATOM      2  C   UNL     1      -2.251  -1.855   0.142  1.00  0.00     0.030 A 
ATOM      3  C   UNL     1      -1.027  -2.490   0.390  1.00  0.00    -0.047 A 
ATOM      4  C   UNL     1      -0.995  -3.926   0.821  1.00  0.00     0.044 C 
ATOM      5  C   UNL     1       0.164  -1.755   0.292  1.00  0.00     0.041 A 
ATOM      6  C   UNL     1       0.142  -0.402  -0.083  1.00  0.00     0.163 A 
ATOM      7  C   UNL     1      -1.094   0.226  -0.328  1.00  0.00    -0.046 A 
ATOM      8  O   UNL     1      -1.145   1.582  -0.637  1.00  0.00    -0.869 OA
ENDROOT
BRANCH   1   9
ATOM      9  N   UNL     1      -3.553   0.133  -0.471  1.00  0.00    -0.249 N 
BRANCH   9  10
ATOM     10  C   UNL     1      -4.468   0.421   0.601  1.00  0.00     0.238 C 
ATOM     11  C   UNL     1      -4.076   0.230   2.036  1.00  0.00     0.116 C 
ATOM     12  O   UNL     1      -5.629   0.834   0.335  1.00  0.00    -0.273 OA
ENDBRANCH   9  10
BRANCH   9  13
ATOM     13  N   UNL     1      -3.949   0.392  -1.794  1.00  0.00    -0.241 NA
ATOM     14  H   UNL     1      -3.201   0.962  -2.252  1.00  0.00     0.144 HD
ATOM     15  H   UNL     1      -3.997  -0.525  -2.295  1.00  0.00     0.144 HD
ENDBRANCH   9  13
ENDBRANCH   1   9
BRANCH   6  16
ATOM     16  N   UNL     1       1.377   0.327  -0.194  1.00  0.00     0.079 N 
ATOM     17  N   UNL     1       1.653   1.204  -1.158  1.00  0.00    -0.062 N 
ATOM     18  N   UNL     1       2.409   0.178   0.636  1.00  0.00    -0.062 N 
ATOM     19  C   UNL     1       2.904   1.633  -0.926  1.00  0.00     0.306 A 
ATOM     20  C   UNL     1       3.372   0.999   0.186  1.00  0.00     0.306 A 
ATOM     21  C   UNL     1       3.675   2.543  -1.642  1.00  0.00     0.089 A 
ATOM     22  C   UNL     1       4.650   1.223   0.686  1.00  0.00     0.089 A 
ATOM     23  C   UNL     1       4.977   2.799  -1.167  1.00  0.00     0.007 A 
ATOM     24  C   UNL     1       5.462   2.143  -0.008  1.00  0.00     0.007 A 
ATOM     25  H   UNL     1       1.030   1.465  -1.955  1.00  0.00     0.495 HD
ATOM     26  H   UNL     1       2.444  -0.446   1.473  1.00  0.00     0.495 HD
ENDBRANCH   6  16
TORSDOF 4


