MODEL 1
REMARK VINA RESULT:      -5.8      0.000      0.000
REMARK SMILES Cc1ccc(Nc2ccc3cc[nH]c3c2O/C(O)=N/c2ccc(C#N)c(C#N)c2)cc1
REMARK SMILES IDX 17 1 18 2 19 4 20 5 21 6 29 7 22 8 26 9 23 10 27 11 28 12
REMARK SMILES IDX 24 13 25 14 16 15 15 16 7 17 14 18 8 19 13 20 10 21 9 22
REMARK SMILES IDX 12 23 11 24 6 26 5 28 4 29 30 30 3 31 31 32 2 33 1 34
REMARK H PARENT 18 3 13 25 6 27
ROOT
ATOM      1  C   UNL     1      47.002 132.659  20.934  1.00  0.00     0.392 C 
ENDROOT
BRANCH   1   2
ATOM      2  O   UNL     1      47.794 131.514  20.923  1.00  0.00    -0.466 OA
ATOM      3  H   UNL     1      48.024 131.054  20.052  1.00  0.00     0.298 HD
ENDBRANCH   1   2
BRANCH   1   4
ATOM      4  N   UNL     1      47.126 133.551  21.873  1.00  0.00    -0.179 NA
BRANCH   4   5
ATOM      5  C   UNL     1      48.207 134.485  22.028  1.00  0.00     0.072 A 
ATOM      6  C   UNL     1      49.248 134.275  22.950  1.00  0.00     0.030 A 
ATOM      7  C   UNL     1      48.267 135.586  21.166  1.00  0.00     0.049 A 
ATOM      8  C   UNL     1      50.306 135.184  23.037  1.00  0.00     0.023 A 
ATOM      9  C   UNL     1      49.324 136.504  21.249  1.00  0.00     0.072 A 
ATOM     10  C   UNL     1      50.348 136.304  22.197  1.00  0.00     0.070 A 
BRANCH   9  11
ATOM     11  C   UNL     1      49.340 137.636  20.353  1.00  0.00     0.101 C 
ATOM     12  N   UNL     1      49.354 138.543  19.635  1.00  0.00    -0.192 NA
ENDBRANCH   9  11
BRANCH  10  13
ATOM     13  C   UNL     1      51.455 137.224  22.312  1.00  0.00     0.101 C 
ATOM     14  N   UNL     1      52.342 137.962  22.404  1.00  0.00    -0.192 NA
ENDBRANCH  10  13
ENDBRANCH   4   5
ENDBRANCH   1   4
BRANCH   1  15
ATOM     15  O   UNL     1      46.029 132.810  19.938  1.00  0.00    -0.407 OA
BRANCH  15  16
ATOM     16  C   UNL     1      44.752 132.231  19.978  1.00  0.00     0.180 A 
ATOM     17  C   UNL     1      43.914 132.097  18.831  1.00  0.00     0.084 A 
ATOM     18  C   UNL     1      44.266 131.741  21.192  1.00  0.00     0.091 A 
ATOM     19  C   UNL     1      42.608 131.567  18.976  1.00  0.00     0.031 A 
ATOM     20  N   UNL     1      44.893 131.742  22.381  1.00  0.00    -0.358 N 
ATOM     21  C   UNL     1      43.011 131.208  21.308  1.00  0.00     0.003 A 
ATOM     22  C   UNL     1      42.147 131.114  20.224  1.00  0.00     0.013 A 
ATOM     23  C   UNL     1      44.022 131.195  23.260  1.00  0.00     0.083 A 
ATOM     24  C   UNL     1      42.833 130.850  22.626  1.00  0.00     0.028 A 
ATOM     25  H   UNL     1      45.852 132.095  22.592  1.00  0.00     0.166 HD
BRANCH  17  26
ATOM     26  N   UNL     1      44.354 132.483  17.518  1.00  0.00    -0.352 N 
ATOM     27  H   UNL     1      43.973 133.373  17.124  1.00  0.00     0.167 HD
BRANCH  26  28
ATOM     28  C   UNL     1      45.201 131.680  16.676  1.00  0.00     0.038 A 
ATOM     29  C   UNL     1      45.580 132.171  15.419  1.00  0.00     0.026 A 
ATOM     30  C   UNL     1      45.646 130.409  17.079  1.00  0.00     0.026 A 
ATOM     31  C   UNL     1      46.418 131.421  14.589  1.00  0.00     0.005 A 
ATOM     32  C   UNL     1      46.482 129.658  16.248  1.00  0.00     0.005 A 
ATOM     33  C   UNL     1      46.865 130.154  14.994  1.00  0.00    -0.051 A 
ATOM     34  C   UNL     1      47.799 129.369  14.122  1.00  0.00     0.044 C 
ENDBRANCH  26  28
ENDBRANCH  17  26
ENDBRANCH  15  16
ENDBRANCH   1  15
TORSDOF 9
ENDMDL
MODEL 2
REMARK VINA RESULT:      -3.0      1.639      2.180
REMARK SMILES Cc1ccc(Nc2ccc3cc[nH]c3c2O/C(O)=N/c2ccc(C#N)c(C#N)c2)cc1
REMARK SMILES IDX 17 1 18 2 19 4 20 5 21 6 29 7 22 8 26 9 23 10 27 11 28 12
REMARK SMILES IDX 24 13 25 14 16 15 15 16 7 17 14 18 8 19 13 20 10 21 9 22
REMARK SMILES IDX 12 23 11 24 6 26 5 28 4 29 30 30 3 31 31 32 2 33 1 34
REMARK H PARENT 18 3 13 25 6 27
ROOT
ATOM      1  C   UNL     1      45.276 132.044  22.760  1.00  0.00     0.392 C 
ENDROOT
BRANCH   1   2
ATOM      2  O   UNL     1      44.855 131.228  23.807  1.00  0.00    -0.466 OA
ATOM      3  H   UNL     1      45.481 130.542  24.209  1.00  0.00     0.298 HD
ENDBRANCH   1   2
BRANCH   1   4
ATOM      4  N   UNL     1      45.626 133.279  22.972  1.00  0.00    -0.179 NA
BRANCH   4   5
ATOM      5  C   UNL     1      46.967 133.781  23.086  1.00  0.00     0.072 A 
ATOM      6  C   UNL     1      47.810 133.425  24.154  1.00  0.00     0.030 A 
ATOM      7  C   UNL     1      47.476 134.571  22.048  1.00  0.00     0.049 A 
ATOM      8  C   UNL     1      49.124 133.897  24.204  1.00  0.00     0.023 A 
ATOM      9  C   UNL     1      48.793 135.051  22.092  1.00  0.00     0.072 A 
ATOM     10  C   UNL     1      49.621 134.715  23.182  1.00  0.00     0.070 A 
BRANCH   9  11
ATOM     11  C   UNL     1      49.273 135.877  21.010  1.00  0.00     0.101 C 
ATOM     12  N   UNL     1      49.658 136.539  20.142  1.00  0.00    -0.192 NA
ENDBRANCH   9  11
BRANCH  10  13
ATOM     13  C   UNL     1      50.984 135.186  23.262  1.00  0.00     0.101 C 
ATOM     14  N   UNL     1      52.076 135.563  23.327  1.00  0.00    -0.192 NA
ENDBRANCH  10  13
ENDBRANCH   4   5
ENDBRANCH   1   4
BRANCH   1  15
ATOM     15  O   UNL     1      45.269 131.524  21.460  1.00  0.00    -0.407 OA
BRANCH  15  16
ATOM     16  C   UNL     1      44.259 131.755  20.515  1.00  0.00     0.180 A 
ATOM     17  C   UNL     1      44.432 131.551  19.114  1.00  0.00     0.084 A 
ATOM     18  C   UNL     1      43.008 132.194  20.953  1.00  0.00     0.091 A 
ATOM     19  C   UNL     1      43.381 131.882  18.223  1.00  0.00     0.031 A 
ATOM     20  N   UNL     1      42.622 132.426  22.219  1.00  0.00    -0.358 N 
ATOM     21  C   UNL     1      41.995 132.484  20.079  1.00  0.00     0.003 A 
ATOM     22  C   UNL     1      42.147 132.351  18.704  1.00  0.00     0.013 A 
ATOM     23  C   UNL     1      41.344 132.863  22.144  1.00  0.00     0.083 A 
ATOM     24  C   UNL     1      40.917 132.914  20.822  1.00  0.00     0.028 A 
ATOM     25  H   UNL     1      43.189 132.302  23.087  1.00  0.00     0.166 HD
BRANCH  17  26
ATOM     26  N   UNL     1      45.648 131.013  18.567  1.00  0.00    -0.352 N 
ATOM     27  H   UNL     1      46.371 130.672  19.241  1.00  0.00     0.167 HD
BRANCH  26  28
ATOM     28  C   UNL     1      45.974 131.005  17.166  1.00  0.00     0.038 A 
ATOM     29  C   UNL     1      46.472 129.829  16.585  1.00  0.00     0.026 A 
ATOM     30  C   UNL     1      45.817 132.151  16.366  1.00  0.00     0.026 A 
ATOM     31  C   UNL     1      46.779 129.786  15.223  1.00  0.00     0.005 A 
ATOM     32  C   UNL     1      46.125 132.108  15.004  1.00  0.00     0.005 A 
ATOM     33  C   UNL     1      46.618 130.930  14.425  1.00  0.00    -0.051 A 
ATOM     34  C   UNL     1      46.905 130.871  12.955  1.00  0.00     0.044 C 
ENDBRANCH  26  28
ENDBRANCH  17  26
ENDBRANCH  15  16
ENDBRANCH   1  15
TORSDOF 9
ENDMDL


