MODEL 1
REMARK VINA RESULT:     -10.1      0.000      0.000
REMARK SMILES N/N=c1\cc(-c2ccc3[nH]ccc3c2)[nH][nH]c1=O
REMARK SMILES IDX 5 1 4 2 3 3 17 4 18 5 16 6 15 8 6 10 7 11 8 12 14 13 9 14
REMARK SMILES IDX 13 15 10 16 12 17 11 18 2 20 1 21
REMARK H PARENT 16 7 15 9 10 19 1 22 1 23
ROOT
ATOM      1  C   UNL     1      45.257 131.464  16.927  1.00  0.00     0.064 A 
ATOM      2  C   UNL     1      45.695 130.237  16.409  1.00  0.00     0.064 A 
ATOM      3  C   UNL     1      46.410 130.205  15.199  1.00  0.00     0.151 A 
ATOM      4  C   UNL     1      46.648 131.421  14.541  1.00  0.00     0.290 A 
ATOM      5  O   UNL     1      47.278 131.443  13.447  1.00  0.00    -0.266 OA
ATOM      6  N   UNL     1      46.201 132.584  15.083  1.00  0.00    -0.264 N 
ATOM      7  H   UNL     1      46.391 133.486  14.587  1.00  0.00     0.191 HD
ATOM      8  N   UNL     1      45.532 132.608  16.237  1.00  0.00    -0.298 N 
ATOM      9  H   UNL     1      45.231 133.533  16.620  1.00  0.00     0.188 HD
ENDROOT
BRANCH   1  10
ATOM     10  C   UNL     1      44.495 131.520  18.200  1.00  0.00     0.000 A 
ATOM     11  C   UNL     1      43.104 131.809  18.188  1.00  0.00     0.012 A 
ATOM     12  C   UNL     1      42.370 131.867  19.387  1.00  0.00     0.027 A 
ATOM     13  C   UNL     1      45.147 131.291  19.436  1.00  0.00     0.020 A 
ATOM     14  C   UNL     1      43.050 131.636  20.580  1.00  0.00     0.045 A 
ATOM     15  C   UNL     1      44.388 131.357  20.602  1.00  0.00     0.000 A 
ATOM     16  N   UNL     1      42.542 131.647  21.823  1.00  0.00    -0.361 N 
ATOM     17  C   UNL     1      44.751 131.185  21.919  1.00  0.00     0.028 A 
ATOM     18  C   UNL     1      43.580 131.371  22.647  1.00  0.00     0.083 A 
ATOM     19  H   UNL     1      41.553 131.830  22.102  1.00  0.00     0.166 HD
ENDBRANCH   1  10
BRANCH   3  20
ATOM     20  N   UNL     1      46.847 129.100  14.657  1.00  0.00    -0.177 NA
BRANCH  20  21
ATOM     21  N   UNL     1      48.133 128.889  14.130  1.00  0.00    -0.323 N 
ATOM     22  H   UNL     1      48.753 128.108  14.430  1.00  0.00     0.179 HD
ATOM     23  H   UNL     1      48.539 129.608  13.491  1.00  0.00     0.179 HD
ENDBRANCH  20  21
ENDBRANCH   3  20
TORSDOF 3
ENDMDL
MODEL 2
REMARK VINA RESULT:      -9.8      0.803      1.562
REMARK SMILES N/N=c1\cc(-c2ccc3[nH]ccc3c2)[nH][nH]c1=O
REMARK SMILES IDX 5 1 4 2 3 3 17 4 18 5 16 6 15 8 6 10 7 11 8 12 14 13 9 14
REMARK SMILES IDX 13 15 10 16 12 17 11 18 2 20 1 21
REMARK H PARENT 16 7 15 9 10 19 1 22 1 23
ROOT
ATOM      1  C   UNL     1      45.648 131.170  17.031  1.00  0.00     0.064 A 
ATOM      2  C   UNL     1      46.236 130.029  16.468  1.00  0.00     0.064 A 
ATOM      3  C   UNL     1      46.665 130.052  15.129  1.00  0.00     0.151 A 
ATOM      4  C   UNL     1      46.471 131.232  14.395  1.00  0.00     0.290 A 
ATOM      5  O   UNL     1      46.831 131.300  13.187  1.00  0.00    -0.266 OA
ATOM      6  N   UNL     1      45.895 132.312  14.986  1.00  0.00    -0.264 N 
ATOM      7  H   UNL     1      45.762 133.189  14.431  1.00  0.00     0.191 HD
ATOM      8  N   UNL     1      45.499 132.285  16.260  1.00  0.00    -0.298 N 
ATOM      9  H   UNL     1      45.082 133.151  16.671  1.00  0.00     0.188 HD
ENDROOT
BRANCH   1  10
ATOM     10  C   UNL     1      45.184 131.165  18.441  1.00  0.00     0.000 A 
ATOM     11  C   UNL     1      45.949 130.508  19.443  1.00  0.00     0.012 A 
ATOM     12  C   UNL     1      45.521 130.493  20.782  1.00  0.00     0.027 A 
ATOM     13  C   UNL     1      43.975 131.808  18.800  1.00  0.00     0.020 A 
ATOM     14  C   UNL     1      44.326 131.137  21.093  1.00  0.00     0.045 A 
ATOM     15  C   UNL     1      43.582 131.772  20.137  1.00  0.00     0.000 A 
ATOM     16  N   UNL     1      43.742 131.238  22.298  1.00  0.00    -0.361 N 
ATOM     17  C   UNL     1      42.473 132.299  20.760  1.00  0.00     0.028 A 
ATOM     18  C   UNL     1      42.607 131.948  22.100  1.00  0.00     0.083 A 
ATOM     19  H   UNL     1      44.088 130.849  23.203  1.00  0.00     0.166 HD
ENDBRANCH   1  10
BRANCH   3  20
ATOM     20  N   UNL     1      47.219 129.027  14.538  1.00  0.00    -0.177 NA
BRANCH  20  21
ATOM     21  N   UNL     1      48.416 129.045  13.801  1.00  0.00    -0.323 N 
ATOM     22  H   UNL     1      49.309 128.642  14.153  1.00  0.00     0.179 HD
ATOM     23  H   UNL     1      48.448 129.583  12.908  1.00  0.00     0.179 HD
ENDBRANCH  20  21
ENDBRANCH   3  20
TORSDOF 3
ENDMDL
MODEL 3
REMARK VINA RESULT:      -9.2      2.857      6.712
REMARK SMILES N/N=c1\cc(-c2ccc3[nH]ccc3c2)[nH][nH]c1=O
REMARK SMILES IDX 5 1 4 2 3 3 17 4 18 5 16 6 15 8 6 10 7 11 8 12 14 13 9 14
REMARK SMILES IDX 13 15 10 16 12 17 11 18 2 20 1 21
REMARK H PARENT 16 7 15 9 10 19 1 22 1 23
ROOT
ATOM      1  C   UNL     1      45.294 131.041  18.508  1.00  0.00     0.064 A 
ATOM      2  C   UNL     1      44.123 131.718  18.877  1.00  0.00     0.064 A 
ATOM      3  C   UNL     1      43.680 131.670  20.211  1.00  0.00     0.151 A 
ATOM      4  C   UNL     1      44.432 130.923  21.129  1.00  0.00     0.290 A 
ATOM      5  O   UNL     1      44.070 130.843  22.336  1.00  0.00    -0.266 OA
ATOM      6  N   UNL     1      45.560 130.283  20.722  1.00  0.00    -0.264 N 
ATOM      7  H   UNL     1      46.117 129.735  21.417  1.00  0.00     0.191 HD
ATOM      8  N   UNL     1      45.979 130.341  19.457  1.00  0.00    -0.298 N 
ATOM      9  H   UNL     1      46.865 129.848  19.203  1.00  0.00     0.188 HD
ENDROOT
BRANCH   1  10
ATOM     10  C   UNL     1      45.776 131.074  17.104  1.00  0.00     0.000 A 
ATOM     11  C   UNL     1      45.506 132.201  16.282  1.00  0.00     0.012 A 
ATOM     12  C   UNL     1      45.955 132.246  14.950  1.00  0.00     0.027 A 
ATOM     13  C   UNL     1      46.505 129.984  16.571  1.00  0.00     0.020 A 
ATOM     14  C   UNL     1      46.667 131.153  14.465  1.00  0.00     0.045 A 
ATOM     15  C   UNL     1      46.933 130.063  15.247  1.00  0.00     0.000 A 
ATOM     16  N   UNL     1      47.179 130.993  13.233  1.00  0.00    -0.361 N 
ATOM     17  C   UNL     1      47.643 129.167  14.479  1.00  0.00     0.028 A 
ATOM     18  C   UNL     1      47.777 129.779  13.237  1.00  0.00     0.083 A 
ATOM     19  H   UNL     1      47.127 131.664  12.435  1.00  0.00     0.166 HD
ENDBRANCH   1  10
BRANCH   3  20
ATOM     20  N   UNL     1      42.598 132.275  20.626  1.00  0.00    -0.177 NA
BRANCH  20  21
ATOM     21  N   UNL     1      41.734 133.056  19.839  1.00  0.00    -0.323 N 
ATOM     22  H   UNL     1      41.238 132.688  19.000  1.00  0.00     0.179 HD
ATOM     23  H   UNL     1      41.668 134.080  20.028  1.00  0.00     0.179 HD
ENDBRANCH  20  21
ENDBRANCH   3  20
TORSDOF 3
ENDMDL
MODEL 4
REMARK VINA RESULT:      -9.1      2.659      6.664
REMARK SMILES N/N=c1\cc(-c2ccc3[nH]ccc3c2)[nH][nH]c1=O
REMARK SMILES IDX 5 1 4 2 3 3 17 4 18 5 16 6 15 8 6 10 7 11 8 12 14 13 9 14
REMARK SMILES IDX 13 15 10 16 12 17 11 18 2 20 1 21
REMARK H PARENT 16 7 15 9 10 19 1 22 1 23
ROOT
ATOM      1  C   UNL     1      44.137 131.455  17.668  1.00  0.00     0.064 A 
ATOM      2  C   UNL     1      44.519 131.400  19.016  1.00  0.00     0.064 A 
ATOM      3  C   UNL     1      43.673 131.934  20.004  1.00  0.00     0.151 A 
ATOM      4  C   UNL     1      42.468 132.522  19.593  1.00  0.00     0.290 A 
ATOM      5  O   UNL     1      41.680 133.023  20.442  1.00  0.00    -0.266 OA
ATOM      6  N   UNL     1      42.143 132.552  18.273  1.00  0.00    -0.264 N 
ATOM      7  H   UNL     1      41.238 132.987  17.979  1.00  0.00     0.191 HD
ATOM      8  N   UNL     1      42.946 132.034  17.342  1.00  0.00    -0.298 N 
ATOM      9  H   UNL     1      42.637 132.064  16.344  1.00  0.00     0.188 HD
ENDROOT
BRANCH   1  10
ATOM     10  C   UNL     1      45.018 130.902  16.609  1.00  0.00     0.000 A 
ATOM     11  C   UNL     1      45.153 129.496  16.454  1.00  0.00     0.012 A 
ATOM     12  C   UNL     1      45.985 128.957  15.456  1.00  0.00     0.027 A 
ATOM     13  C   UNL     1      45.734 131.768  15.747  1.00  0.00     0.020 A 
ATOM     14  C   UNL     1      46.671 129.844  14.630  1.00  0.00     0.045 A 
ATOM     15  C   UNL     1      46.548 131.198  14.771  1.00  0.00     0.000 A 
ATOM     16  N   UNL     1      47.511 129.541  13.627  1.00  0.00    -0.361 N 
ATOM     17  C   UNL     1      47.348 131.786  13.816  1.00  0.00     0.028 A 
ATOM     18  C   UNL     1      47.928 130.727  13.125  1.00  0.00     0.083 A 
ATOM     19  H   UNL     1      47.788 128.589  13.299  1.00  0.00     0.166 HD
ENDBRANCH   1  10
BRANCH   3  20
ATOM     20  N   UNL     1      43.965 131.919  21.278  1.00  0.00    -0.177 NA
BRANCH  20  21
ATOM     21  N   UNL     1      43.235 131.266  22.286  1.00  0.00    -0.323 N 
ATOM     22  H   UNL     1      42.314 131.607  22.635  1.00  0.00     0.179 HD
ATOM     23  H   UNL     1      43.677 130.469  22.793  1.00  0.00     0.179 HD
ENDBRANCH  20  21
ENDBRANCH   3  20
TORSDOF 3
ENDMDL
MODEL 5
REMARK VINA RESULT:      -8.9      2.807      6.515
REMARK SMILES N/N=c1\cc(-c2ccc3[nH]ccc3c2)[nH][nH]c1=O
REMARK SMILES IDX 5 1 4 2 3 3 17 4 18 5 16 6 15 8 6 10 7 11 8 12 14 13 9 14
REMARK SMILES IDX 13 15 10 16 12 17 11 18 2 20 1 21
REMARK H PARENT 16 7 15 9 10 19 1 22 1 23
ROOT
ATOM      1  C   UNL     1      44.125 131.527  18.124  1.00  0.00     0.064 A 
ATOM      2  C   UNL     1      44.859 131.297  19.297  1.00  0.00     0.064 A 
ATOM      3  C   UNL     1      44.263 131.525  20.550  1.00  0.00     0.151 A 
ATOM      4  C   UNL     1      42.942 131.995  20.576  1.00  0.00     0.290 A 
ATOM      5  O   UNL     1      42.367 132.223  21.677  1.00  0.00    -0.266 OA
ATOM      6  N   UNL     1      42.273 132.204  19.412  1.00  0.00    -0.264 N 
ATOM      7  H   UNL     1      41.285 132.547  19.444  1.00  0.00     0.191 HD
ATOM      8  N   UNL     1      42.841 131.976  18.227  1.00  0.00    -0.298 N 
ATOM      9  H   UNL     1      42.273 132.132  17.363  1.00  0.00     0.188 HD
ENDROOT
BRANCH   1  10
ATOM     10  C   UNL     1      44.736 131.298  16.791  1.00  0.00     0.000 A 
ATOM     11  C   UNL     1      44.077 131.750  15.616  1.00  0.00     0.012 A 
ATOM     12  C   UNL     1      44.644 131.539  14.346  1.00  0.00     0.027 A 
ATOM     13  C   UNL     1      45.976 130.624  16.677  1.00  0.00     0.020 A 
ATOM     14  C   UNL     1      45.863 130.872  14.279  1.00  0.00     0.045 A 
ATOM     15  C   UNL     1      46.505 130.432  15.403  1.00  0.00     0.000 A 
ATOM     16  N   UNL     1      46.568 130.568  13.176  1.00  0.00    -0.361 N 
ATOM     17  C   UNL     1      47.670 129.818  14.999  1.00  0.00     0.028 A 
ATOM     18  C   UNL     1      47.675 129.922  13.612  1.00  0.00     0.083 A 
ATOM     19  H   UNL     1      46.317 130.782  12.185  1.00  0.00     0.166 HD
ENDBRANCH   1  10
BRANCH   3  20
ATOM     20  N   UNL     1      44.887 131.334  21.682  1.00  0.00    -0.177 NA
BRANCH  20  21
ATOM     21  N   UNL     1      44.524 130.414  22.681  1.00  0.00    -0.323 N 
ATOM     22  H   UNL     1      45.217 129.928  23.288  1.00  0.00     0.179 HD
ATOM     23  H   UNL     1      43.527 130.113  22.750  1.00  0.00     0.179 HD
ENDBRANCH  20  21
ENDBRANCH   3  20
TORSDOF 3
ENDMDL
MODEL 6
REMARK VINA RESULT:      -8.7      1.044      1.081
REMARK SMILES N/N=c1\cc(-c2ccc3[nH]ccc3c2)[nH][nH]c1=O
REMARK SMILES IDX 5 1 4 2 3 3 17 4 18 5 16 6 15 8 6 10 7 11 8 12 14 13 9 14
REMARK SMILES IDX 13 15 10 16 12 17 11 18 2 20 1 21
REMARK H PARENT 16 7 15 9 10 19 1 22 1 23
ROOT
ATOM      1  C   UNL     1      44.498 131.454  17.367  1.00  0.00     0.064 A 
ATOM      2  C   UNL     1      45.685 130.738  17.151  1.00  0.00     0.064 A 
ATOM      3  C   UNL     1      46.184 130.593  15.844  1.00  0.00     0.151 A 
ATOM      4  C   UNL     1      45.455 131.167  14.792  1.00  0.00     0.290 A 
ATOM      5  O   UNL     1      45.858 131.056  13.601  1.00  0.00    -0.266 OA
ATOM      6  N   UNL     1      44.310 131.850  15.054  1.00  0.00    -0.264 N 
ATOM      7  H   UNL     1      43.778 132.280  14.261  1.00  0.00     0.191 HD
ATOM      8  N   UNL     1      43.847 131.992  16.297  1.00  0.00    -0.298 N 
ATOM      9  H   UNL     1      42.973 132.547  16.443  1.00  0.00     0.188 HD
ENDROOT
BRANCH   1  10
ATOM     10  C   UNL     1      43.951 131.615  18.738  1.00  0.00     0.000 A 
ATOM     11  C   UNL     1      42.711 132.280  18.938  1.00  0.00     0.012 A 
ATOM     12  C   UNL     1      42.181 132.442  20.231  1.00  0.00     0.027 A 
ATOM     13  C   UNL     1      44.659 131.112  19.856  1.00  0.00     0.020 A 
ATOM     14  C   UNL     1      42.909 131.933  21.303  1.00  0.00     0.045 A 
ATOM     15  C   UNL     1      44.103 131.291  21.121  1.00  0.00     0.000 A 
ATOM     16  N   UNL     1      42.586 131.982  22.606  1.00  0.00    -0.361 N 
ATOM     17  C   UNL     1      44.563 130.917  22.364  1.00  0.00     0.028 A 
ATOM     18  C   UNL     1      43.596 131.361  23.260  1.00  0.00     0.083 A 
ATOM     19  H   UNL     1      41.734 132.411  23.031  1.00  0.00     0.166 HD
ENDBRANCH   1  10
BRANCH   3  20
ATOM     20  N   UNL     1      47.281 129.939  15.568  1.00  0.00    -0.177 NA
BRANCH  20  21
ATOM     21  N   UNL     1      47.463 129.043  14.501  1.00  0.00    -0.323 N 
ATOM     22  H   UNL     1      47.625 128.023  14.633  1.00  0.00     0.179 HD
ATOM     23  H   UNL     1      47.555 129.424  13.534  1.00  0.00     0.179 HD
ENDBRANCH  20  21
ENDBRANCH   3  20
TORSDOF 3
ENDMDL
MODEL 7
REMARK VINA RESULT:      -8.5      1.439      1.703
REMARK SMILES N/N=c1\cc(-c2ccc3[nH]ccc3c2)[nH][nH]c1=O
REMARK SMILES IDX 5 1 4 2 3 3 17 4 18 5 16 6 15 8 6 10 7 11 8 12 14 13 9 14
REMARK SMILES IDX 13 15 10 16 12 17 11 18 2 20 1 21
REMARK H PARENT 16 7 15 9 10 19 1 22 1 23
ROOT
ATOM      1  C   UNL     1      45.453 130.758  17.030  1.00  0.00     0.064 A 
ATOM      2  C   UNL     1      45.301 131.228  15.718  1.00  0.00     0.064 A 
ATOM      3  C   UNL     1      46.193 130.806  14.716  1.00  0.00     0.151 A 
ATOM      4  C   UNL     1      47.225 129.928  15.080  1.00  0.00     0.290 A 
ATOM      5  O   UNL     1      48.056 129.527  14.219  1.00  0.00    -0.266 OA
ATOM      6  N   UNL     1      47.330 129.501  16.367  1.00  0.00    -0.264 N 
ATOM      7  H   UNL     1      48.099 128.840  16.625  1.00  0.00     0.191 HD
ATOM      8  N   UNL     1      46.474 129.898  17.309  1.00  0.00    -0.298 N 
ATOM      9  H   UNL     1      46.588 129.521  18.277  1.00  0.00     0.188 HD
ENDROOT
BRANCH   1  10
ATOM     10  C   UNL     1      44.525 131.195  18.103  1.00  0.00     0.000 A 
ATOM     11  C   UNL     1      43.246 131.719  17.772  1.00  0.00     0.012 A 
ATOM     12  C   UNL     1      42.357 132.139  18.778  1.00  0.00     0.027 A 
ATOM     13  C   UNL     1      44.906 131.099  19.463  1.00  0.00     0.020 A 
ATOM     14  C   UNL     1      42.771 132.028  20.102  1.00  0.00     0.045 A 
ATOM     15  C   UNL     1      43.999 131.525  20.432  1.00  0.00     0.000 A 
ATOM     16  N   UNL     1      42.083 132.371  21.204  1.00  0.00    -0.361 N 
ATOM     17  C   UNL     1      44.101 131.551  21.805  1.00  0.00     0.028 A 
ATOM     18  C   UNL     1      42.893 132.081  22.249  1.00  0.00     0.083 A 
ATOM     19  H   UNL     1      41.123 132.778  21.250  1.00  0.00     0.166 HD
ENDBRANCH   1  10
BRANCH   3  20
ATOM     20  N   UNL     1      46.113 131.204  13.475  1.00  0.00    -0.177 NA
BRANCH  20  21
ATOM     21  N   UNL     1      47.179 131.288  12.563  1.00  0.00    -0.323 N 
ATOM     22  H   UNL     1      47.795 132.124  12.480  1.00  0.00     0.179 HD
ATOM     23  H   UNL     1      47.297 130.531  11.855  1.00  0.00     0.179 HD
ENDBRANCH  20  21
ENDBRANCH   3  20
TORSDOF 3
ENDMDL
MODEL 8
REMARK VINA RESULT:      -8.3      1.250      1.873
REMARK SMILES N/N=c1\cc(-c2ccc3[nH]ccc3c2)[nH][nH]c1=O
REMARK SMILES IDX 5 1 4 2 3 3 17 4 18 5 16 6 15 8 6 10 7 11 8 12 14 13 9 14
REMARK SMILES IDX 13 15 10 16 12 17 11 18 2 20 1 21
REMARK H PARENT 16 7 15 9 10 19 1 22 1 23
ROOT
ATOM      1  C   UNL     1      44.876 131.234  17.457  1.00  0.00     0.064 A 
ATOM      2  C   UNL     1      46.047 130.712  16.891  1.00  0.00     0.064 A 
ATOM      3  C   UNL     1      46.209 130.713  15.494  1.00  0.00     0.151 A 
ATOM      4  C   UNL     1      45.168 131.232  14.710  1.00  0.00     0.290 A 
ATOM      5  O   UNL     1      45.262 131.247  13.452  1.00  0.00    -0.266 OA
ATOM      6  N   UNL     1      44.051 131.727  15.307  1.00  0.00    -0.264 N 
ATOM      7  H   UNL     1      43.284 132.119  14.712  1.00  0.00     0.191 HD
ATOM      8  N   UNL     1      43.909 131.731  16.633  1.00  0.00    -0.298 N 
ATOM      9  H   UNL     1      43.039 132.144  17.040  1.00  0.00     0.188 HD
ENDROOT
BRANCH   1  10
ATOM     10  C   UNL     1      44.683 131.238  18.929  1.00  0.00     0.000 A 
ATOM     11  C   UNL     1      45.686 130.703  19.782  1.00  0.00     0.012 A 
ATOM     12  C   UNL     1      45.516 130.698  21.178  1.00  0.00     0.027 A 
ATOM     13  C   UNL     1      43.499 131.768  19.495  1.00  0.00     0.020 A 
ATOM     14  C   UNL     1      44.338 131.229  21.694  1.00  0.00     0.045 A 
ATOM     15  C   UNL     1      43.366 131.746  20.882  1.00  0.00     0.000 A 
ATOM     16  N   UNL     1      43.979 131.318  22.985  1.00  0.00    -0.361 N 
ATOM     17  C   UNL     1      42.341 132.181  21.692  1.00  0.00     0.028 A 
ATOM     18  C   UNL     1      42.757 131.900  22.989  1.00  0.00     0.083 A 
ATOM     19  H   UNL     1      44.526 131.003  23.817  1.00  0.00     0.166 HD
ENDBRANCH   1  10
BRANCH   3  20
ATOM     20  N   UNL     1      47.271 130.242  14.898  1.00  0.00    -0.177 NA
BRANCH  20  21
ATOM     21  N   UNL     1      47.408 128.956  14.347  1.00  0.00    -0.323 N 
ATOM     22  H   UNL     1      48.189 128.311  14.590  1.00  0.00     0.179 HD
ATOM     23  H   UNL     1      46.769 128.668  13.574  1.00  0.00     0.179 HD
ENDBRANCH  20  21
ENDBRANCH   3  20
TORSDOF 3
ENDMDL
MODEL 9
REMARK VINA RESULT:      -8.3      1.528      2.103
REMARK SMILES N/N=c1\cc(-c2ccc3[nH]ccc3c2)[nH][nH]c1=O
REMARK SMILES IDX 5 1 4 2 3 3 17 4 18 5 16 6 15 8 6 10 7 11 8 12 14 13 9 14
REMARK SMILES IDX 13 15 10 16 12 17 11 18 2 20 1 21
REMARK H PARENT 16 7 15 9 10 19 1 22 1 23
ROOT
ATOM      1  C   UNL     1      44.990 130.950  17.919  1.00  0.00     0.064 A 
ATOM      2  C   UNL     1      44.517 131.380  16.671  1.00  0.00     0.064 A 
ATOM      3  C   UNL     1      45.228 131.050  15.504  1.00  0.00     0.151 A 
ATOM      4  C   UNL     1      46.409 130.305  15.639  1.00  0.00     0.290 A 
ATOM      5  O   UNL     1      47.087 129.992  14.621  1.00  0.00    -0.266 OA
ATOM      6  N   UNL     1      46.826 129.913  16.872  1.00  0.00    -0.264 N 
ATOM      7  H   UNL     1      47.704 129.351  16.959  1.00  0.00     0.191 HD
ATOM      8  N   UNL     1      46.141 130.221  17.974  1.00  0.00    -0.298 N 
ATOM      9  H   UNL     1      46.496 129.874  18.894  1.00  0.00     0.188 HD
ENDROOT
BRANCH   1  10
ATOM     10  C   UNL     1      44.257 131.291  19.165  1.00  0.00     0.000 A 
ATOM     11  C   UNL     1      43.023 131.992  19.098  1.00  0.00     0.012 A 
ATOM     12  C   UNL     1      42.319 132.324  20.270  1.00  0.00     0.027 A 
ATOM     13  C   UNL     1      44.783 130.927  20.428  1.00  0.00     0.020 A 
ATOM     14  C   UNL     1      42.870 131.948  21.491  1.00  0.00     0.045 A 
ATOM     15  C   UNL     1      44.058 131.273  21.566  1.00  0.00     0.000 A 
ATOM     16  N   UNL     1      42.366 132.167  22.717  1.00  0.00    -0.361 N 
ATOM     17  C   UNL     1      44.324 131.055  22.900  1.00  0.00     0.028 A 
ATOM     18  C   UNL     1      43.253 131.622  23.583  1.00  0.00     0.083 A 
ATOM     19  H   UNL     1      41.476 132.657  22.956  1.00  0.00     0.166 HD
ENDBRANCH   1  10
BRANCH   3  20
ATOM     20  N   UNL     1      44.848 131.418  14.309  1.00  0.00    -0.177 NA
BRANCH  20  21
ATOM     21  N   UNL     1      43.520 131.562  13.872  1.00  0.00    -0.323 N 
ATOM     22  H   UNL     1      43.193 132.365  13.295  1.00  0.00     0.179 HD
ATOM     23  H   UNL     1      42.797 130.900  14.231  1.00  0.00     0.179 HD
ENDBRANCH  20  21
ENDBRANCH   3  20
TORSDOF 3
ENDMDL


