REMARK SMILES Cc1ccc(NC(=O)[N-]c2c(F)cc(F)cc2F)c(-c2ccc3c(c2)[N-]C(=O)C3)c1
REMARK SMILES IDX 6 1 7 2 8 3 5 5 2 6 3 7 30 8 4 9 19 10 1 11 20 12 21 13
REMARK SMILES IDX 25 14 22 15 24 16 23 17 26 18 29 19 27 20 28 21 9 22 10 23
REMARK SMILES IDX 11 24 17 25 13 26 16 27 14 28 12 29 18 30 15 31
REMARK H PARENT 6 4
ROOT
ATOM      1  N   UNL     1       0.266  -0.749  -1.288  1.00  0.00    -0.423 N 
ATOM      2  C   UNL     1       1.333  -0.289  -2.136  1.00  0.00     0.160 C 
ATOM      3  O   UNL     1       1.085   0.267  -3.238  1.00  0.00    -0.298 OA
ATOM      4  H   UNL     1       0.529  -1.287  -0.434  1.00  0.00     0.029 HD
ENDROOT
BRANCH   1   5
ATOM      5  C   UNL     1      -1.116  -0.394  -1.472  1.00  0.00    -0.033 A 
ATOM      6  C   UNL     1      -3.818   0.321  -1.847  1.00  0.00    -0.051 A 
ATOM      7  C   UNL     1      -3.045  -0.116  -2.930  1.00  0.00     0.004 A 
ATOM      8  C   UNL     1      -3.237   0.406  -0.574  1.00  0.00     0.012 A 
ATOM      9  C   UNL     1      -1.710  -0.478  -2.743  1.00  0.00     0.004 A 
ATOM     10  C   UNL     1      -1.900   0.029  -0.373  1.00  0.00    -0.015 A 
ATOM     11  C   UNL     1      -5.239   0.754  -2.058  1.00  0.00     0.044 C 
BRANCH  10  12
ATOM     12  C   UNL     1      -1.331   0.126   0.986  1.00  0.00    -0.019 A 
ATOM     13  C   UNL     1      -1.023  -1.047   1.714  1.00  0.00     0.009 A 
ATOM     14  C   UNL     1      -1.098   1.390   1.563  1.00  0.00    -0.007 A 
ATOM     15  C   UNL     1      -0.457  -0.962   2.995  1.00  0.00     0.003 A 
ATOM     16  C   UNL     1      -0.534   1.446   2.837  1.00  0.00    -0.130 A 
ATOM     17  C   UNL     1      -0.219   0.301   3.535  1.00  0.00    -0.057 A 
ATOM     18  N   UNL     1      -0.205   2.630   3.544  1.00  0.00    -0.626 NA
ATOM     19  C   UNL     1       0.382   0.640   4.853  1.00  0.00     0.089 C 
ATOM     20  C   UNL     1       0.350   2.136   4.762  1.00  0.00     0.059 C 
ATOM     21  O   UNL     1       0.772   2.899   5.669  1.00  0.00    -0.320 OA
ENDBRANCH  10  12
ENDBRANCH   1   5
BRANCH   2  22
ATOM     22  N   UNL     1       2.698  -0.478  -1.746  1.00  0.00    -0.396 NA
BRANCH  22  23
ATOM     23  C   UNL     1       3.147  -0.551  -0.387  1.00  0.00     0.034 A 
ATOM     24  C   UNL     1       2.628   0.307   0.602  1.00  0.00     0.132 A 
ATOM     25  C   UNL     1       4.159  -1.460  -0.046  1.00  0.00     0.132 A 
ATOM     26  C   UNL     1       3.085   0.215   1.921  1.00  0.00     0.079 A 
ATOM     27  C   UNL     1       4.610  -1.550   1.275  1.00  0.00     0.079 A 
ATOM     28  C   UNL     1       4.068  -0.718   2.259  1.00  0.00     0.129 A 
ATOM     29  F   UNL     1       1.718   1.261   0.284  1.00  0.00    -0.207 F 
ATOM     30  F   UNL     1       4.692  -2.274  -0.992  1.00  0.00    -0.207 F 
ATOM     31  F   UNL     1       4.507  -0.805   3.539  1.00  0.00    -0.207 F 
ENDBRANCH  22  23
ENDBRANCH   2  22
TORSDOF 4


