MODEL 1
REMARK VINA RESULT:      -9.0      0.000      0.000
REMARK SMILES Fc1c[nH]/c(=N\c2cnc3[nH]ccc3c2)c(N=C=S)c1
REMARK SMILES IDX 5 1 16 2 20 3 2 4 1 5 3 6 4 7 6 9 7 10 8 11 9 12 10 13 15 14
REMARK SMILES IDX 14 15 11 16 13 17 12 18 17 20 18 21 19 22
REMARK H PARENT 4 8 11 19
ROOT
ATOM      1  C   UNL     1      44.032 131.383  18.903  1.00  0.00     0.157 A 
ATOM      2  C   UNL     1      43.981 131.490  20.307  1.00  0.00     0.120 A 
ATOM      3  C   UNL     1      42.908 132.185  20.895  1.00  0.00     0.074 A 
ATOM      4  C   UNL     1      41.914 132.742  20.096  1.00  0.00     0.141 A 
ATOM      5  F   UNL     1      40.877 133.410  20.659  1.00  0.00    -0.205 F 
ATOM      6  C   UNL     1      41.986 132.595  18.713  1.00  0.00     0.123 A 
ATOM      7  N   UNL     1      43.024 131.922  18.146  1.00  0.00    -0.342 N 
ATOM      8  H   UNL     1      42.999 131.803  17.111  1.00  0.00     0.168 HD
ENDROOT
BRANCH   1   9
ATOM      9  N   UNL     1      45.028 130.736  18.360  1.00  0.00    -0.227 NA
BRANCH   9  10
ATOM     10  C   UNL     1      45.573 130.922  17.046  1.00  0.00     0.085 A 
ATOM     11  C   UNL     1      45.506 132.182  16.392  1.00  0.00     0.142 A 
ATOM     12  N   UNL     1      46.085 132.363  15.166  1.00  0.00    -0.236 NA
ATOM     13  C   UNL     1      46.741 131.326  14.590  1.00  0.00     0.137 A 
ATOM     14  C   UNL     1      46.291 129.872  16.444  1.00  0.00     0.042 A 
ATOM     15  C   UNL     1      46.856 130.111  15.196  1.00  0.00     0.021 A 
ATOM     16  N   UNL     1      47.365 131.345  13.403  1.00  0.00    -0.346 N 
ATOM     17  C   UNL     1      47.592 129.305  14.356  1.00  0.00     0.030 A 
ATOM     18  C   UNL     1      47.889 130.105  13.254  1.00  0.00     0.085 A 
ATOM     19  H   UNL     1      47.437 132.145  12.736  1.00  0.00     0.167 HD
ENDBRANCH   9  10
ENDBRANCH   1   9
BRANCH   2  20
ATOM     20  N   UNL     1      45.027 130.900  21.099  1.00  0.00    -0.191 NA
BRANCH  20  21
ATOM     21  C   UNL     1      44.838 129.976  21.956  1.00  0.00     0.064 C 
ATOM     22  S   UNL     1      44.598 128.809  23.039  1.00  0.00    -0.006 S 
ENDBRANCH  20  21
ENDBRANCH   2  20
TORSDOF 4
ENDMDL
MODEL 2
REMARK VINA RESULT:      -8.0      1.418      1.435
REMARK SMILES Fc1c[nH]/c(=N\c2cnc3[nH]ccc3c2)c(N=C=S)c1
REMARK SMILES IDX 5 1 16 2 20 3 2 4 1 5 3 6 4 7 6 9 7 10 8 11 9 12 10 13 15 14
REMARK SMILES IDX 14 15 11 16 13 17 12 18 17 20 18 21 19 22
REMARK H PARENT 4 8 11 19
ROOT
ATOM      1  C   UNL     1      44.230 131.328  18.763  1.00  0.00     0.157 A 
ATOM      2  C   UNL     1      44.356 131.723  20.109  1.00  0.00     0.120 A 
ATOM      3  C   UNL     1      43.291 132.416  20.715  1.00  0.00     0.074 A 
ATOM      4  C   UNL     1      42.133 132.689  19.991  1.00  0.00     0.141 A 
ATOM      5  F   UNL     1      41.104 133.353  20.571  1.00  0.00    -0.205 F 
ATOM      6  C   UNL     1      42.037 132.261  18.669  1.00  0.00     0.123 A 
ATOM      7  N   UNL     1      43.067 131.590  18.086  1.00  0.00    -0.342 N 
ATOM      8  H   UNL     1      42.919 131.253  17.111  1.00  0.00     0.168 HD
ENDROOT
BRANCH   1   9
ATOM      9  N   UNL     1      45.219 130.683  18.205  1.00  0.00    -0.227 NA
BRANCH   9  10
ATOM     10  C   UNL     1      45.740 130.867  16.880  1.00  0.00     0.085 A 
ATOM     11  C   UNL     1      45.633 132.117  16.213  1.00  0.00     0.142 A 
ATOM     12  N   UNL     1      46.189 132.298  14.977  1.00  0.00    -0.236 NA
ATOM     13  C   UNL     1      46.861 131.270  14.402  1.00  0.00     0.137 A 
ATOM     14  C   UNL     1      46.474 129.827  16.279  1.00  0.00     0.042 A 
ATOM     15  C   UNL     1      47.014 130.065  15.021  1.00  0.00     0.021 A 
ATOM     16  N   UNL     1      47.467 131.289  13.206  1.00  0.00    -0.346 N 
ATOM     17  C   UNL     1      47.757 129.266  14.178  1.00  0.00     0.030 A 
ATOM     18  C   UNL     1      48.017 130.061  13.063  1.00  0.00     0.085 A 
ATOM     19  H   UNL     1      47.509 132.083  12.529  1.00  0.00     0.167 HD
ENDBRANCH   9  10
ENDBRANCH   1   9
BRANCH   2  20
ATOM     20  N   UNL     1      45.568 131.421  20.825  1.00  0.00    -0.191 NA
BRANCH  20  21
ATOM     21  C   UNL     1      46.386 132.303  21.244  1.00  0.00     0.064 C 
ATOM     22  S   UNL     1      47.420 133.417  21.775  1.00  0.00    -0.006 S 
ENDBRANCH  20  21
ENDBRANCH   2  20
TORSDOF 4
ENDMDL
MODEL 3
REMARK VINA RESULT:      -6.6      1.029      1.447
REMARK SMILES Fc1c[nH]/c(=N\c2cnc3[nH]ccc3c2)c(N=C=S)c1
REMARK SMILES IDX 5 1 16 2 20 3 2 4 1 5 3 6 4 7 6 9 7 10 8 11 9 12 10 13 15 14
REMARK SMILES IDX 14 15 11 16 13 17 12 18 17 20 18 21 19 22
REMARK H PARENT 4 8 11 19
ROOT
ATOM      1  C   UNL     1      44.154 131.501  19.262  1.00  0.00     0.157 A 
ATOM      2  C   UNL     1      43.873 131.571  20.640  1.00  0.00     0.120 A 
ATOM      3  C   UNL     1      42.681 132.190  21.059  1.00  0.00     0.074 A 
ATOM      4  C   UNL     1      41.795 132.709  20.119  1.00  0.00     0.141 A 
ATOM      5  F   UNL     1      40.643 133.303  20.517  1.00  0.00    -0.205 F 
ATOM      6  C   UNL     1      42.095 132.599  18.763  1.00  0.00     0.123 A 
ATOM      7  N   UNL     1      43.248 132.000  18.360  1.00  0.00    -0.342 N 
ATOM      8  H   UNL     1      43.396 131.904  17.333  1.00  0.00     0.168 HD
ENDROOT
BRANCH   1   9
ATOM      9  N   UNL     1      45.260 130.924  18.876  1.00  0.00    -0.227 NA
BRANCH   9  10
ATOM     10  C   UNL     1      45.649 130.598  17.534  1.00  0.00     0.085 A 
ATOM     11  C   UNL     1      45.469 129.288  17.012  1.00  0.00     0.142 A 
ATOM     12  N   UNL     1      45.785 129.005  15.712  1.00  0.00    -0.236 NA
ATOM     13  C   UNL     1      46.258 129.999  14.920  1.00  0.00     0.137 A 
ATOM     14  C   UNL     1      46.106 131.621  16.682  1.00  0.00     0.042 A 
ATOM     15  C   UNL     1      46.416 131.276  15.371  1.00  0.00     0.021 A 
ATOM     16  N   UNL     1      46.603 129.887  13.629  1.00  0.00    -0.346 N 
ATOM     17  C   UNL     1      46.889 132.024  14.316  1.00  0.00     0.030 A 
ATOM     18  C   UNL     1      46.993 131.128  13.254  1.00  0.00     0.085 A 
ATOM     19  H   UNL     1      46.576 129.028  13.038  1.00  0.00     0.167 HD
ENDBRANCH   9  10
ENDBRANCH   1   9
BRANCH   2  20
ATOM     20  N   UNL     1      44.813 131.022  21.581  1.00  0.00    -0.191 NA
BRANCH  20  21
ATOM     21  C   UNL     1      44.549 130.062  22.375  1.00  0.00     0.064 C 
ATOM     22  S   UNL     1      44.213 128.848  23.379  1.00  0.00    -0.006 S 
ENDBRANCH  20  21
ENDBRANCH   2  20
TORSDOF 4
ENDMDL
MODEL 4
REMARK VINA RESULT:      -6.5      2.165      3.131
REMARK SMILES Fc1c[nH]/c(=N\c2cnc3[nH]ccc3c2)c(N=C=S)c1
REMARK SMILES IDX 5 1 16 2 20 3 2 4 1 5 3 6 4 7 6 9 7 10 8 11 9 12 10 13 15 14
REMARK SMILES IDX 14 15 11 16 13 17 12 18 17 20 18 21 19 22
REMARK H PARENT 4 8 11 19
ROOT
ATOM      1  C   UNL     1      44.788 130.566  21.334  1.00  0.00     0.157 A 
ATOM      2  C   UNL     1      44.715 129.394  22.112  1.00  0.00     0.120 A 
ATOM      3  C   UNL     1      43.863 129.376  23.232  1.00  0.00     0.074 A 
ATOM      4  C   UNL     1      43.099 130.496  23.547  1.00  0.00     0.141 A 
ATOM      5  F   UNL     1      42.274 130.482  24.623  1.00  0.00    -0.205 F 
ATOM      6  C   UNL     1      43.179 131.628  22.739  1.00  0.00     0.123 A 
ATOM      7  N   UNL     1      44.004 131.643  21.657  1.00  0.00    -0.342 N 
ATOM      8  H   UNL     1      43.986 132.499  21.063  1.00  0.00     0.168 HD
ENDROOT
BRANCH   1   9
ATOM      9  N   UNL     1      45.578 130.579  20.294  1.00  0.00    -0.227 NA
BRANCH   9  10
ATOM     10  C   UNL     1      45.217 130.837  18.930  1.00  0.00     0.085 A 
ATOM     11  C   UNL     1      44.029 131.546  18.603  1.00  0.00     0.142 A 
ATOM     12  N   UNL     1      43.728 131.840  17.302  1.00  0.00    -0.236 NA
ATOM     13  C   UNL     1      44.590 131.461  16.327  1.00  0.00     0.137 A 
ATOM     14  C   UNL     1      46.114 130.486  17.903  1.00  0.00     0.042 A 
ATOM     15  C   UNL     1      45.755 130.807  16.598  1.00  0.00     0.021 A 
ATOM     16  N   UNL     1      44.445 131.680  15.012  1.00  0.00    -0.346 N 
ATOM     17  C   UNL     1      46.393 130.594  15.396  1.00  0.00     0.030 A 
ATOM     18  C   UNL     1      45.549 131.149  14.436  1.00  0.00     0.085 A 
ATOM     19  H   UNL     1      43.652 132.161  14.533  1.00  0.00     0.167 HD
ENDBRANCH   9  10
ENDBRANCH   1   9
BRANCH   2  20
ATOM     20  N   UNL     1      45.519 128.256  21.754  1.00  0.00    -0.191 NA
BRANCH  20  21
ATOM     21  C   UNL     1      45.325 127.078  22.198  1.00  0.00     0.064 C 
ATOM     22  S   UNL     1      45.080 125.589  22.760  1.00  0.00    -0.006 S 
ENDBRANCH  20  21
ENDBRANCH   2  20
TORSDOF 4
ENDMDL
MODEL 5
REMARK VINA RESULT:      -6.4      3.304      6.733
REMARK SMILES Fc1c[nH]/c(=N\c2cnc3[nH]ccc3c2)c(N=C=S)c1
REMARK SMILES IDX 5 1 16 2 20 3 2 4 1 5 3 6 4 7 6 9 7 10 8 11 9 12 10 13 15 14
REMARK SMILES IDX 14 15 11 16 13 17 12 18 17 20 18 21 19 22
REMARK H PARENT 4 8 11 19
ROOT
ATOM      1  C   UNL     1      45.016 131.146  16.906  1.00  0.00     0.157 A 
ATOM      2  C   UNL     1      45.567 130.631  15.717  1.00  0.00     0.120 A 
ATOM      3  C   UNL     1      44.845 130.776  14.517  1.00  0.00     0.074 A 
ATOM      4  C   UNL     1      43.617 131.431  14.515  1.00  0.00     0.141 A 
ATOM      5  F   UNL     1      42.920 131.576  13.361  1.00  0.00    -0.205 F 
ATOM      6  C   UNL     1      43.116 131.949  15.707  1.00  0.00     0.123 A 
ATOM      7  N   UNL     1      43.815 131.808  16.866  1.00  0.00    -0.342 N 
ATOM      8  H   UNL     1      43.414 132.257  17.717  1.00  0.00     0.168 HD
ENDROOT
BRANCH   1   9
ATOM      9  N   UNL     1      45.688 131.012  18.018  1.00  0.00    -0.227 NA
BRANCH   9  10
ATOM     10  C   UNL     1      45.159 130.882  19.345  1.00  0.00     0.085 A 
ATOM     11  C   UNL     1      45.796 130.063  20.316  1.00  0.00     0.142 A 
ATOM     12  N   UNL     1      45.318 129.998  21.595  1.00  0.00    -0.236 NA
ATOM     13  C   UNL     1      44.234 130.741  21.930  1.00  0.00     0.137 A 
ATOM     14  C   UNL     1      44.057 131.672  19.727  1.00  0.00     0.042 A 
ATOM     15  C   UNL     1      43.611 131.563  21.039  1.00  0.00     0.021 A 
ATOM     16  N   UNL     1      43.651 130.794  23.137  1.00  0.00    -0.346 N 
ATOM     17  C   UNL     1      42.574 132.177  21.706  1.00  0.00     0.030 A 
ATOM     18  C   UNL     1      42.631 131.673  23.004  1.00  0.00     0.085 A 
ATOM     19  H   UNL     1      43.927 130.271  23.998  1.00  0.00     0.167 HD
ENDBRANCH   9  10
ENDBRANCH   1   9
BRANCH   2  20
ATOM     20  N   UNL     1      46.840 129.961  15.759  1.00  0.00    -0.191 NA
BRANCH  20  21
ATOM     21  C   UNL     1      47.565 129.745  14.735  1.00  0.00     0.064 C 
ATOM     22  S   UNL     1      48.485 129.473  13.441  1.00  0.00    -0.006 S 
ENDBRANCH  20  21
ENDBRANCH   2  20
TORSDOF 4
ENDMDL
MODEL 6
REMARK VINA RESULT:      -6.4      1.643      2.093
REMARK SMILES Fc1c[nH]/c(=N\c2cnc3[nH]ccc3c2)c(N=C=S)c1
REMARK SMILES IDX 5 1 16 2 20 3 2 4 1 5 3 6 4 7 6 9 7 10 8 11 9 12 10 13 15 14
REMARK SMILES IDX 14 15 11 16 13 17 12 18 17 20 18 21 19 22
REMARK H PARENT 4 8 11 19
ROOT
ATOM      1  C   UNL     1      44.328 131.204  20.573  1.00  0.00     0.157 A 
ATOM      2  C   UNL     1      44.281 130.439  21.755  1.00  0.00     0.120 A 
ATOM      3  C   UNL     1      43.330 130.769  22.738  1.00  0.00     0.074 A 
ATOM      4  C   UNL     1      42.448 131.825  22.532  1.00  0.00     0.141 A 
ATOM      5  F   UNL     1      41.528 132.144  23.475  1.00  0.00    -0.205 F 
ATOM      6  C   UNL     1      42.509 132.544  21.340  1.00  0.00     0.123 A 
ATOM      7  N   UNL     1      43.428 132.223  20.390  1.00  0.00    -0.342 N 
ATOM      8  H   UNL     1      43.395 132.764  19.499  1.00  0.00     0.168 HD
ENDROOT
BRANCH   1   9
ATOM      9  N   UNL     1      45.210 130.895  19.661  1.00  0.00    -0.227 NA
BRANCH   9  10
ATOM     10  C   UNL     1      45.051 130.966  18.237  1.00  0.00     0.085 A 
ATOM     11  C   UNL     1      43.890 131.542  17.653  1.00  0.00     0.142 A 
ATOM     12  N   UNL     1      43.778 131.661  16.296  1.00  0.00    -0.236 NA
ATOM     13  C   UNL     1      44.800 131.235  15.512  1.00  0.00     0.137 A 
ATOM     14  C   UNL     1      46.113 130.565  17.405  1.00  0.00     0.042 A 
ATOM     15  C   UNL     1      45.943 130.705  16.032  1.00  0.00     0.021 A 
ATOM     16  N   UNL     1      44.848 131.289  14.173  1.00  0.00    -0.346 N 
ATOM     17  C   UNL     1      46.770 130.401  14.973  1.00  0.00     0.030 A 
ATOM     18  C   UNL     1      46.055 130.777  13.837  1.00  0.00     0.085 A 
ATOM     19  H   UNL     1      44.114 131.652  13.527  1.00  0.00     0.167 HD
ENDBRANCH   9  10
ENDBRANCH   1   9
BRANCH   2  20
ATOM     20  N   UNL     1      45.209 129.354  21.932  1.00  0.00    -0.191 NA
BRANCH  20  21
ATOM     21  C   UNL     1      44.960 128.306  22.611  1.00  0.00     0.064 C 
ATOM     22  S   UNL     1      44.642 126.981  23.471  1.00  0.00    -0.006 S 
ENDBRANCH  20  21
ENDBRANCH   2  20
TORSDOF 4
ENDMDL
MODEL 7
REMARK VINA RESULT:      -6.4      2.223      2.618
REMARK SMILES Fc1c[nH]/c(=N\c2cnc3[nH]ccc3c2)c(N=C=S)c1
REMARK SMILES IDX 5 1 16 2 20 3 2 4 1 5 3 6 4 7 6 9 7 10 8 11 9 12 10 13 15 14
REMARK SMILES IDX 14 15 11 16 13 17 12 18 17 20 18 21 19 22
REMARK H PARENT 4 8 11 19
ROOT
ATOM      1  C   UNL     1      44.263 131.964  19.581  1.00  0.00     0.157 A 
ATOM      2  C   UNL     1      45.089 131.759  20.704  1.00  0.00     0.120 A 
ATOM      3  C   UNL     1      44.499 131.336  21.910  1.00  0.00     0.074 A 
ATOM      4  C   UNL     1      43.126 131.114  21.977  1.00  0.00     0.141 A 
ATOM      5  F   UNL     1      42.554 130.704  23.136  1.00  0.00    -0.205 F 
ATOM      6  C   UNL     1      42.346 131.304  20.839  1.00  0.00     0.123 A 
ATOM      7  N   UNL     1      42.919 131.712  19.674  1.00  0.00    -0.342 N 
ATOM      8  H   UNL     1      42.293 131.791  18.843  1.00  0.00     0.168 HD
ENDROOT
BRANCH   1   9
ATOM      9  N   UNL     1      44.813 132.354  18.463  1.00  0.00    -0.227 NA
BRANCH   9  10
ATOM     10  C   UNL     1      45.448 131.532  17.472  1.00  0.00     0.085 A 
ATOM     11  C   UNL     1      45.608 130.134  17.667  1.00  0.00     0.142 A 
ATOM     12  N   UNL     1      46.157 129.352  16.689  1.00  0.00    -0.236 NA
ATOM     13  C   UNL     1      46.532 129.928  15.520  1.00  0.00     0.137 A 
ATOM     14  C   UNL     1      45.811 132.101  16.236  1.00  0.00     0.042 A 
ATOM     15  C   UNL     1      46.367 131.260  15.280  1.00  0.00     0.021 A 
ATOM     16  N   UNL     1      47.074 129.302  14.465  1.00  0.00    -0.346 N 
ATOM     17  C   UNL     1      46.828 131.504  14.005  1.00  0.00     0.030 A 
ATOM     18  C   UNL     1      47.259 130.265  13.533  1.00  0.00     0.085 A 
ATOM     19  H   UNL     1      47.303 128.287  14.379  1.00  0.00     0.167 HD
ENDBRANCH   9  10
ENDBRANCH   1   9
BRANCH   2  20
ATOM     20  N   UNL     1      46.503 131.998  20.596  1.00  0.00    -0.191 NA
BRANCH  20  21
ATOM     21  C   UNL     1      47.133 132.870  21.277  1.00  0.00     0.064 C 
ATOM     22  S   UNL     1      47.931 133.972  22.139  1.00  0.00    -0.006 S 
ENDBRANCH  20  21
ENDBRANCH   2  20
TORSDOF 4
ENDMDL
MODEL 8
REMARK VINA RESULT:      -6.1      3.314      6.593
REMARK SMILES Fc1c[nH]/c(=N\c2cnc3[nH]ccc3c2)c(N=C=S)c1
REMARK SMILES IDX 5 1 16 2 20 3 2 4 1 5 3 6 4 7 6 9 7 10 8 11 9 12 10 13 15 14
REMARK SMILES IDX 14 15 11 16 13 17 12 18 17 20 18 21 19 22
REMARK H PARENT 4 8 11 19
ROOT
ATOM      1  C   UNL     1      45.090 131.011  17.052  1.00  0.00     0.157 A 
ATOM      2  C   UNL     1      45.619 130.578  15.821  1.00  0.00     0.120 A 
ATOM      3  C   UNL     1      44.878 130.808  14.646  1.00  0.00     0.074 A 
ATOM      4  C   UNL     1      43.652 131.463  14.710  1.00  0.00     0.141 A 
ATOM      5  F   UNL     1      42.936 131.689  13.581  1.00  0.00    -0.205 F 
ATOM      6  C   UNL     1      43.172 131.898  15.944  1.00  0.00     0.123 A 
ATOM      7  N   UNL     1      43.891 131.676  17.078  1.00  0.00    -0.342 N 
ATOM      8  H   UNL     1      43.506 132.066  17.965  1.00  0.00     0.168 HD
ENDROOT
BRANCH   1   9
ATOM      9  N   UNL     1      45.781 130.799  18.140  1.00  0.00    -0.227 NA
BRANCH   9  10
ATOM     10  C   UNL     1      45.316 130.878  19.495  1.00  0.00     0.085 A 
ATOM     11  C   UNL     1      44.646 132.035  19.978  1.00  0.00     0.142 A 
ATOM     12  N   UNL     1      44.153 132.074  21.252  1.00  0.00    -0.236 NA
ATOM     13  C   UNL     1      44.297 130.984  22.046  1.00  0.00     0.137 A 
ATOM     14  C   UNL     1      45.421 129.746  20.326  1.00  0.00     0.042 A 
ATOM     15  C   UNL     1      44.905 129.843  21.613  1.00  0.00     0.021 A 
ATOM     16  N   UNL     1      43.864 130.860  23.309  1.00  0.00    -0.346 N 
ATOM     17  C   UNL     1      44.862 128.939  22.652  1.00  0.00     0.030 A 
ATOM     18  C   UNL     1      44.210 129.607  23.686  1.00  0.00     0.085 A 
ATOM     19  H   UNL     1      43.364 131.576  23.881  1.00  0.00     0.167 HD
ENDBRANCH   9  10
ENDBRANCH   1   9
BRANCH   2  20
ATOM     20  N   UNL     1      46.890 129.905  15.794  1.00  0.00    -0.191 NA
BRANCH  20  21
ATOM     21  C   UNL     1      47.582 129.728  14.740  1.00  0.00     0.064 C 
ATOM     22  S   UNL     1      48.458 129.504  13.406  1.00  0.00    -0.006 S 
ENDBRANCH  20  21
ENDBRANCH   2  20
TORSDOF 4
ENDMDL
MODEL 9
REMARK VINA RESULT:      -6.0      2.297      3.189
REMARK SMILES Fc1c[nH]/c(=N\c2cnc3[nH]ccc3c2)c(N=C=S)c1
REMARK SMILES IDX 5 1 16 2 20 3 2 4 1 5 3 6 4 7 6 9 7 10 8 11 9 12 10 13 15 14
REMARK SMILES IDX 14 15 11 16 13 17 12 18 17 20 18 21 19 22
REMARK H PARENT 4 8 11 19
ROOT
ATOM      1  C   UNL     1      44.780 131.156  19.236  1.00  0.00     0.157 A 
ATOM      2  C   UNL     1      43.742 131.555  20.100  1.00  0.00     0.120 A 
ATOM      3  C   UNL     1      43.758 131.102  21.432  1.00  0.00     0.074 A 
ATOM      4  C   UNL     1      44.793 130.287  21.882  1.00  0.00     0.141 A 
ATOM      5  F   UNL     1      44.814 129.851  23.165  1.00  0.00    -0.205 F 
ATOM      6  C   UNL     1      45.815 129.934  21.003  1.00  0.00     0.123 A 
ATOM      7  N   UNL     1      45.798 130.373  19.716  1.00  0.00    -0.342 N 
ATOM      8  H   UNL     1      46.613 130.117  19.119  1.00  0.00     0.168 HD
ENDROOT
BRANCH   1   9
ATOM      9  N   UNL     1      44.764 131.579  18.000  1.00  0.00    -0.227 NA
BRANCH   9  10
ATOM     10  C   UNL     1      45.442 131.004  16.874  1.00  0.00     0.085 A 
ATOM     11  C   UNL     1      45.377 129.609  16.609  1.00  0.00     0.142 A 
ATOM     12  N   UNL     1      45.974 129.082  15.498  1.00  0.00    -0.236 NA
ATOM     13  C   UNL     1      46.618 129.913  14.641  1.00  0.00     0.137 A 
ATOM     14  C   UNL     1      46.084 131.851  15.951  1.00  0.00     0.042 A 
ATOM     15  C   UNL     1      46.678 131.260  14.841  1.00  0.00     0.021 A 
ATOM     16  N   UNL     1      47.243 129.556  13.510  1.00  0.00    -0.346 N 
ATOM     17  C   UNL     1      47.378 131.798  13.784  1.00  0.00     0.030 A 
ATOM     18  C   UNL     1      47.713 130.710  12.981  1.00  0.00     0.085 A 
ATOM     19  H   UNL     1      47.344 128.594  13.118  1.00  0.00     0.167 HD
ENDBRANCH   9  10
ENDBRANCH   1   9
BRANCH   2  20
ATOM     20  N   UNL     1      42.690 132.399  19.599  1.00  0.00    -0.191 NA
BRANCH  20  21
ATOM     21  C   UNL     1      41.801 132.941  20.333  1.00  0.00     0.064 C 
ATOM     22  S   UNL     1      40.676 133.628  21.259  1.00  0.00    -0.006 S 
ENDBRANCH  20  21
ENDBRANCH   2  20
TORSDOF 4
ENDMDL


