REMARK SMILES Cc1[nH+]nc(-c2cc3c(N)cc(F)c(F)c3[nH]2)o1
REMARK SMILES IDX 6 1 7 2 8 3 9 4 11 5 12 6 13 7 14 8 15 9 16 10 17 11 5 13
REMARK SMILES IDX 2 14 3 15 18 16 4 17 1 18 10 20
REMARK H PARENT 17 12 3 19 10 21 10 22
ROOT
ATOM      1  C   UNL     1       0.333  -0.185   0.005  1.00  0.00     0.109 A 
ATOM      2  C   UNL     1       1.190   0.577  -0.783  1.00  0.00     0.044 A 
ATOM      3  C   UNL     1       0.369   1.223  -1.686  1.00  0.00     0.026 A 
ATOM      4  C   UNL     1       0.661   2.119  -2.722  1.00  0.00     0.044 A 
ATOM      5  C   UNL     1      -0.419   2.614  -3.483  1.00  0.00     0.068 A 
ATOM      6  C   UNL     1      -1.742   2.212  -3.199  1.00  0.00     0.163 A 
ATOM      7  F   UNL     1      -2.767   2.698  -3.941  1.00  0.00    -0.204 F 
ATOM      8  C   UNL     1      -2.002   1.310  -2.151  1.00  0.00     0.182 A 
ATOM      9  F   UNL     1      -3.268   0.916  -1.869  1.00  0.00    -0.201 F 
ATOM     10  C   UNL     1      -0.919   0.834  -1.413  1.00  0.00     0.087 A 
ATOM     11  N   UNL     1      -0.954  -0.027  -0.382  1.00  0.00    -0.348 N 
ATOM     12  H   UNL     1      -1.800  -0.479   0.034  1.00  0.00     0.167 HD
ENDROOT
BRANCH   1  13
ATOM     13  C   UNL     1       0.754  -1.050   1.112  1.00  0.00     0.312 A 
ATOM     14  C   UNL     1       1.944  -2.053   2.497  1.00  0.00     0.369 A 
ATOM     15  N   UNL     1       0.672  -2.411   2.741  1.00  0.00    -0.066 N 
ATOM     16  O   UNL     1       2.002  -1.210   1.495  1.00  0.00    -0.380 OA
ATOM     17  N   UNL     1      -0.093  -1.782   1.865  1.00  0.00     0.042 NA
ATOM     18  C   UNL     1       3.122  -2.525   3.280  1.00  0.00     0.176 C 
ATOM     19  H   UNL     1       0.326  -3.062   3.480  1.00  0.00     0.494 HD
ENDBRANCH   1  13
BRANCH   4  20
ATOM     20  N   UNL     1       2.003   2.527  -3.009  1.00  0.00    -0.398 N 
ATOM     21  H   UNL     1       2.809   2.167  -2.453  1.00  0.00     0.156 HD
ATOM     22  H   UNL     1       2.199   3.196  -3.786  1.00  0.00     0.156 HD
ENDBRANCH   4  20
TORSDOF 2


