MODEL 1
REMARK VINA RESULT:      -8.6      0.000      0.000
REMARK SMILES [N-]=[N+]=Nc1[nH+]ccc2ccc(-c3cccc([C@H]4CO4)c3)cc12
REMARK SMILES IDX 11 1 10 2 9 3 8 4 7 5 6 6 5 7 4 9 22 10 21 11 12 12 14 13
REMARK SMILES IDX 13 14 15 15 16 16 20 17 17 18 19 19 18 20 3 21 2 22 1 23
REMARK H PARENT 5 8
ROOT
ATOM      1  C   UNL     1      44.960 131.057  18.310  1.00  0.00    -0.018 A 
ATOM      2  C   UNL     1      45.957 130.378  19.030  1.00  0.00     0.009 A 
ATOM      3  C   UNL     1      45.895 130.290  20.422  1.00  0.00     0.009 A 
ATOM      4  C   UNL     1      44.833 130.880  21.121  1.00  0.00    -0.011 A 
ATOM      5  C   UNL     1      44.768 130.793  22.514  1.00  0.00     0.052 A 
ATOM      6  C   UNL     1      43.702 131.385  23.190  1.00  0.00     0.194 A 
ATOM      7  N   UNL     1      42.731 132.043  22.503  1.00  0.00    -0.279 N 
ATOM      8  H   UNL     1      41.952 132.470  23.051  1.00  0.00     0.308 HD
ATOM      9  C   UNL     1      42.758 132.150  21.139  1.00  0.00     0.193 A 
ATOM     10  C   UNL     1      43.818 131.567  20.414  1.00  0.00     0.031 A 
ATOM     11  C   UNL     1      43.893 131.649  19.010  1.00  0.00     0.021 A 
ENDROOT
BRANCH   1  12
ATOM     12  C   UNL     1      45.034 131.149  16.830  1.00  0.00    -0.018 A 
ATOM     13  C   UNL     1      43.945 131.458  14.676  1.00  0.00     0.001 A 
ATOM     14  C   UNL     1      43.871 131.362  16.068  1.00  0.00     0.009 A 
ATOM     15  C   UNL     1      45.174 131.336  14.027  1.00  0.00     0.006 A 
ATOM     16  C   UNL     1      46.341 131.104  14.768  1.00  0.00    -0.016 A 
ATOM     17  C   UNL     1      46.270 131.028  16.167  1.00  0.00     0.015 A 
BRANCH  16  18
ATOM     18  C   UNL     1      47.669 131.001  14.077  1.00  0.00     0.174 C 
ATOM     19  O   UNL     1      47.522 130.718  12.704  1.00  0.00    -0.368 OA
ATOM     20  C   UNL     1      48.010 129.675  13.513  1.00  0.00     0.198 C 
ENDBRANCH  16  18
ENDBRANCH   1  12
BRANCH   9  21
ATOM     21  N   UNL     1      41.716 132.854  20.443  1.00  0.00    -0.017 NA
BRANCH  21  22
ATOM     22  N   UNL     1      41.537 132.734  19.230  1.00  0.00     0.009 N 
ATOM     23  N   UNL     1      41.359 132.612  18.019  1.00  0.00    -0.003 NA
ENDBRANCH  21  22
ENDBRANCH   9  21
TORSDOF 4
ENDMDL
MODEL 2
REMARK VINA RESULT:      -8.4      0.646      1.040
REMARK SMILES [N-]=[N+]=Nc1[nH+]ccc2ccc(-c3cccc([C@H]4CO4)c3)cc12
REMARK SMILES IDX 11 1 10 2 9 3 8 4 7 5 6 6 5 7 4 9 22 10 21 11 12 12 14 13
REMARK SMILES IDX 13 14 15 15 16 16 20 17 17 18 19 19 18 20 3 21 2 22 1 23
REMARK H PARENT 5 8
ROOT
ATOM      1  C   UNL     1      44.906 131.091  18.276  1.00  0.00    -0.018 A 
ATOM      2  C   UNL     1      45.912 130.372  18.943  1.00  0.00     0.009 A 
ATOM      3  C   UNL     1      45.888 130.235  20.333  1.00  0.00     0.009 A 
ATOM      4  C   UNL     1      44.855 130.816  21.082  1.00  0.00    -0.011 A 
ATOM      5  C   UNL     1      44.828 130.681  22.473  1.00  0.00     0.052 A 
ATOM      6  C   UNL     1      43.792 131.263  23.199  1.00  0.00     0.194 A 
ATOM      7  N   UNL     1      42.812 131.960  22.563  1.00  0.00    -0.279 N 
ATOM      8  H   UNL     1      42.055 132.379  23.149  1.00  0.00     0.308 HD
ATOM      9  C   UNL     1      42.801 132.115  21.204  1.00  0.00     0.193 A 
ATOM     10  C   UNL     1      43.832 131.542  20.429  1.00  0.00     0.031 A 
ATOM     11  C   UNL     1      43.868 131.673  19.027  1.00  0.00     0.021 A 
ENDROOT
BRANCH   1  12
ATOM     12  C   UNL     1      44.940 131.234  16.799  1.00  0.00    -0.018 A 
ATOM     13  C   UNL     1      43.786 131.574  14.683  1.00  0.00     0.001 A 
ATOM     14  C   UNL     1      43.751 131.429  16.073  1.00  0.00     0.009 A 
ATOM     15  C   UNL     1      45.002 131.518  14.002  1.00  0.00     0.006 A 
ATOM     16  C   UNL     1      46.195 131.305  14.706  1.00  0.00    -0.016 A 
ATOM     17  C   UNL     1      46.162 131.179  16.103  1.00  0.00     0.015 A 
BRANCH  16  18
ATOM     18  C   UNL     1      47.508 131.273  13.980  1.00  0.00     0.174 C 
ATOM     19  O   UNL     1      47.345 130.943  12.620  1.00  0.00    -0.368 OA
ATOM     20  C   UNL     1      47.924 129.958  13.441  1.00  0.00     0.198 C 
ENDBRANCH  16  18
ENDBRANCH   1  12
BRANCH   9  21
ATOM     21  N   UNL     1      41.752 132.858  20.563  1.00  0.00    -0.017 NA
BRANCH  21  22
ATOM     22  N   UNL     1      40.850 133.406  21.199  1.00  0.00     0.009 N 
ATOM     23  N   UNL     1      39.950 133.951  21.834  1.00  0.00    -0.003 NA
ENDBRANCH  21  22
ENDBRANCH   9  21
TORSDOF 4
ENDMDL
MODEL 3
REMARK VINA RESULT:      -8.1      0.996      1.055
REMARK SMILES [N-]=[N+]=Nc1[nH+]ccc2ccc(-c3cccc([C@H]4CO4)c3)cc12
REMARK SMILES IDX 11 1 10 2 9 3 8 4 7 5 6 6 5 7 4 9 22 10 21 11 12 12 14 13
REMARK SMILES IDX 13 14 15 15 16 16 20 17 17 18 19 19 18 20 3 21 2 22 1 23
REMARK H PARENT 5 8
ROOT
ATOM      1  C   UNL     1      45.332 130.882  18.666  1.00  0.00    -0.018 A 
ATOM      2  C   UNL     1      46.114 130.057  19.491  1.00  0.00     0.009 A 
ATOM      3  C   UNL     1      45.799 129.899  20.842  1.00  0.00     0.009 A 
ATOM      4  C   UNL     1      44.696 130.565  21.393  1.00  0.00    -0.011 A 
ATOM      5  C   UNL     1      44.378 130.408  22.746  1.00  0.00     0.052 A 
ATOM      6  C   UNL     1      43.276 131.077  23.274  1.00  0.00     0.194 A 
ATOM      7  N   UNL     1      42.511 131.877  22.483  1.00  0.00    -0.279 N 
ATOM      8  H   UNL     1      41.695 132.358  22.923  1.00  0.00     0.308 HD
ATOM      9  C   UNL     1      42.788 132.056  21.155  1.00  0.00     0.193 A 
ATOM     10  C   UNL     1      43.896 131.399  20.578  1.00  0.00     0.031 A 
ATOM     11  C   UNL     1      44.223 131.550  19.217  1.00  0.00     0.021 A 
ENDROOT
BRANCH   1  12
ATOM     12  C   UNL     1      45.675 131.048  17.230  1.00  0.00    -0.018 A 
ATOM     13  C   UNL     1      45.650 132.379  15.193  1.00  0.00     0.001 A 
ATOM     14  C   UNL     1      45.319 132.221  16.541  1.00  0.00     0.009 A 
ATOM     15  C   UNL     1      46.333 131.368  14.515  1.00  0.00     0.006 A 
ATOM     16  C   UNL     1      46.679 130.184  15.179  1.00  0.00    -0.016 A 
ATOM     17  C   UNL     1      46.363 130.034  16.538  1.00  0.00     0.015 A 
BRANCH  16  18
ATOM     18  C   UNL     1      47.438 129.106  14.461  1.00  0.00     0.174 C 
ATOM     19  O   UNL     1      48.827 129.342  14.486  1.00  0.00    -0.368 OA
ATOM     20  C   UNL     1      48.179 129.527  13.250  1.00  0.00     0.198 C 
ENDBRANCH  16  18
ENDBRANCH   1  12
BRANCH   9  21
ATOM     21  N   UNL     1      41.961 132.909  20.347  1.00  0.00    -0.017 NA
BRANCH  21  22
ATOM     22  N   UNL     1      41.754 132.687  19.153  1.00  0.00     0.009 N 
ATOM     23  N   UNL     1      41.547 132.466  17.961  1.00  0.00    -0.003 NA
ENDBRANCH  21  22
ENDBRANCH   9  21
TORSDOF 4
ENDMDL
MODEL 4
REMARK VINA RESULT:      -8.0      2.075      2.922
REMARK SMILES [N-]=[N+]=Nc1[nH+]ccc2ccc(-c3cccc([C@H]4CO4)c3)cc12
REMARK SMILES IDX 11 1 10 2 9 3 8 4 7 5 6 6 5 7 4 9 22 10 21 11 12 12 14 13
REMARK SMILES IDX 13 14 15 15 16 16 20 17 17 18 19 19 18 20 3 21 2 22 1 23
REMARK H PARENT 5 8
ROOT
ATOM      1  C   UNL     1      43.931 131.530  17.944  1.00  0.00    -0.018 A 
ATOM      2  C   UNL     1      42.556 131.501  18.234  1.00  0.00     0.009 A 
ATOM      3  C   UNL     1      42.104 131.615  19.550  1.00  0.00     0.009 A 
ATOM      4  C   UNL     1      43.019 131.760  20.602  1.00  0.00    -0.011 A 
ATOM      5  C   UNL     1      42.569 131.875  21.920  1.00  0.00     0.052 A 
ATOM      6  C   UNL     1      43.495 132.021  22.952  1.00  0.00     0.194 A 
ATOM      7  N   UNL     1      44.828 132.052  22.681  1.00  0.00    -0.279 N 
ATOM      8  H   UNL     1      45.484 132.164  23.486  1.00  0.00     0.308 HD
ATOM      9  C   UNL     1      45.309 131.944  21.405  1.00  0.00     0.193 A 
ATOM     10  C   UNL     1      44.407 131.794  20.330  1.00  0.00     0.031 A 
ATOM     11  C   UNL     1      44.850 131.678  18.999  1.00  0.00     0.021 A 
ENDROOT
BRANCH   1  12
ATOM     12  C   UNL     1      44.404 131.406  16.542  1.00  0.00    -0.018 A 
ATOM     13  C   UNL     1      43.987 131.568  14.150  1.00  0.00     0.001 A 
ATOM     14  C   UNL     1      43.536 131.676  15.468  1.00  0.00     0.009 A 
ATOM     15  C   UNL     1      45.303 131.185  13.886  1.00  0.00     0.006 A 
ATOM     16  C   UNL     1      46.176 130.894  14.943  1.00  0.00    -0.016 A 
ATOM     17  C   UNL     1      45.730 131.021  16.267  1.00  0.00     0.015 A 
BRANCH  16  18
ATOM     18  C   UNL     1      47.600 130.510  14.664  1.00  0.00     0.174 C 
ATOM     19  O   UNL     1      47.913 130.624  13.295  1.00  0.00    -0.368 OA
ATOM     20  C   UNL     1      47.799 129.318  13.808  1.00  0.00     0.198 C 
ENDBRANCH  16  18
ENDBRANCH   1  12
BRANCH   9  21
ATOM     21  N   UNL     1      46.723 131.980  21.154  1.00  0.00    -0.017 NA
BRANCH  21  22
ATOM     22  N   UNL     1      47.436 132.908  21.537  1.00  0.00     0.009 N 
ATOM     23  N   UNL     1      48.148 133.834  21.922  1.00  0.00    -0.003 NA
ENDBRANCH  21  22
ENDBRANCH   9  21
TORSDOF 4
ENDMDL
MODEL 5
REMARK VINA RESULT:      -7.8      2.317      3.125
REMARK SMILES [N-]=[N+]=Nc1[nH+]ccc2ccc(-c3cccc([C@H]4CO4)c3)cc12
REMARK SMILES IDX 11 1 10 2 9 3 8 4 7 5 6 6 5 7 4 9 22 10 21 11 12 12 14 13
REMARK SMILES IDX 13 14 15 15 16 16 20 17 17 18 19 19 18 20 3 21 2 22 1 23
REMARK H PARENT 5 8
ROOT
ATOM      1  C   UNL     1      43.952 131.487  18.605  1.00  0.00    -0.018 A 
ATOM      2  C   UNL     1      42.979 132.427  18.985  1.00  0.00     0.009 A 
ATOM      3  C   UNL     1      42.592 132.551  20.321  1.00  0.00     0.009 A 
ATOM      4  C   UNL     1      43.173 131.738  21.303  1.00  0.00    -0.011 A 
ATOM      5  C   UNL     1      42.789 131.861  22.641  1.00  0.00     0.052 A 
ATOM      6  C   UNL     1      43.380 131.044  23.604  1.00  0.00     0.194 A 
ATOM      7  N   UNL     1      44.325 130.133  23.247  1.00  0.00    -0.279 N 
ATOM      8  H   UNL     1      44.740 129.543  24.002  1.00  0.00     0.308 HD
ATOM      9  C   UNL     1      44.729 129.982  21.948  1.00  0.00     0.193 A 
ATOM     10  C   UNL     1      44.156 130.787  20.942  1.00  0.00     0.031 A 
ATOM     11  C   UNL     1      44.537 130.671  19.591  1.00  0.00     0.021 A 
ENDROOT
BRANCH   1  12
ATOM     12  C   UNL     1      44.356 131.358  17.182  1.00  0.00    -0.018 A 
ATOM     13  C   UNL     1      43.861 131.624  14.814  1.00  0.00     0.001 A 
ATOM     14  C   UNL     1      43.475 131.736  16.153  1.00  0.00     0.009 A 
ATOM     15  C   UNL     1      45.123 131.128  14.487  1.00  0.00     0.006 A 
ATOM     16  C   UNL     1      46.008 130.728  15.498  1.00  0.00    -0.016 A 
ATOM     17  C   UNL     1      45.627 130.860  16.842  1.00  0.00     0.015 A 
BRANCH  16  18
ATOM     18  C   UNL     1      47.377 130.222  15.151  1.00  0.00     0.174 C 
ATOM     19  O   UNL     1      47.744 130.571  13.836  1.00  0.00    -0.368 OA
ATOM     20  C   UNL     1      47.445 129.215  14.067  1.00  0.00     0.198 C 
ENDBRANCH  16  18
ENDBRANCH   1  12
BRANCH   9  21
ATOM     21  N   UNL     1      45.729 129.009  21.605  1.00  0.00    -0.017 NA
BRANCH  21  22
ATOM     22  N   UNL     1      45.602 127.813  21.871  1.00  0.00     0.009 N 
ATOM     23  N   UNL     1      45.477 126.618  22.136  1.00  0.00    -0.003 NA
ENDBRANCH  21  22
ENDBRANCH   9  21
TORSDOF 4
ENDMDL
MODEL 6
REMARK VINA RESULT:      -6.7      5.758      8.028
REMARK SMILES [N-]=[N+]=Nc1[nH+]ccc2ccc(-c3cccc([C@H]4CO4)c3)cc12
REMARK SMILES IDX 11 1 10 2 9 3 8 4 7 5 6 6 5 7 4 9 22 10 21 11 12 12 14 13
REMARK SMILES IDX 13 14 15 15 16 16 20 17 17 18 19 19 18 20 3 21 2 22 1 23
REMARK H PARENT 5 8
ROOT
ATOM      1  C   UNL     1      44.031 127.408  23.369  1.00  0.00    -0.018 A 
ATOM      2  C   UNL     1      43.079 126.809  24.211  1.00  0.00     0.009 A 
ATOM      3  C   UNL     1      43.174 125.457  24.544  1.00  0.00     0.009 A 
ATOM      4  C   UNL     1      44.225 124.678  24.041  1.00  0.00    -0.011 A 
ATOM      5  C   UNL     1      44.323 123.323  24.374  1.00  0.00     0.052 A 
ATOM      6  C   UNL     1      45.377 122.566  23.866  1.00  0.00     0.194 A 
ATOM      7  N   UNL     1      46.305 123.137  23.051  1.00  0.00    -0.279 N 
ATOM      8  H   UNL     1      47.076 122.530  22.694  1.00  0.00     0.308 HD
ATOM      9  C   UNL     1      46.245 124.458  22.702  1.00  0.00     0.193 A 
ATOM     10  C   UNL     1      45.194 125.262  23.194  1.00  0.00     0.031 A 
ATOM     11  C   UNL     1      45.087 126.627  22.865  1.00  0.00     0.021 A 
ENDROOT
BRANCH   1  12
ATOM     12  C   UNL     1      43.922 128.847  23.016  1.00  0.00    -0.018 A 
ATOM     13  C   UNL     1      42.882 131.024  23.330  1.00  0.00     0.001 A 
ATOM     14  C   UNL     1      42.977 129.669  23.656  1.00  0.00     0.009 A 
ATOM     15  C   UNL     1      43.721 131.574  22.360  1.00  0.00     0.006 A 
ATOM     16  C   UNL     1      44.656 130.766  21.698  1.00  0.00    -0.016 A 
ATOM     17  C   UNL     1      44.764 129.409  22.039  1.00  0.00     0.015 A 
BRANCH  16  18
ATOM     18  C   UNL     1      45.580 131.359  20.674  1.00  0.00     0.174 C 
ATOM     19  O   UNL     1      44.943 132.361  19.915  1.00  0.00    -0.368 OA
ATOM     20  C   UNL     1      45.206 131.145  19.257  1.00  0.00     0.198 C 
ENDBRANCH  16  18
ENDBRANCH   1  12
BRANCH   9  21
ATOM     21  N   UNL     1      47.241 125.030  21.839  1.00  0.00    -0.017 NA
BRANCH  21  22
ATOM     22  N   UNL     1      48.370 125.318  22.237  1.00  0.00     0.009 N 
ATOM     23  N   UNL     1      49.498 125.607  22.633  1.00  0.00    -0.003 NA
ENDBRANCH  21  22
ENDBRANCH   9  21
TORSDOF 4
ENDMDL
MODEL 7
REMARK VINA RESULT:      -6.6      5.437      7.368
REMARK SMILES [N-]=[N+]=Nc1[nH+]ccc2ccc(-c3cccc([C@H]4CO4)c3)cc12
REMARK SMILES IDX 11 1 10 2 9 3 8 4 7 5 6 6 5 7 4 9 22 10 21 11 12 12 14 13
REMARK SMILES IDX 13 14 15 15 16 16 20 17 17 18 19 19 18 20 3 21 2 22 1 23
REMARK H PARENT 5 8
ROOT
ATOM      1  C   UNL     1      44.676 126.899  23.130  1.00  0.00    -0.018 A 
ATOM      2  C   UNL     1      43.728 127.009  24.161  1.00  0.00     0.009 A 
ATOM      3  C   UNL     1      43.104 128.229  24.427  1.00  0.00     0.009 A 
ATOM      4  C   UNL     1      43.417 129.363  23.666  1.00  0.00    -0.011 A 
ATOM      5  C   UNL     1      42.793 130.586  23.931  1.00  0.00     0.052 A 
ATOM      6  C   UNL     1      43.115 131.702  23.161  1.00  0.00     0.194 A 
ATOM      7  N   UNL     1      44.030 131.607  22.159  1.00  0.00    -0.279 N 
ATOM      8  H   UNL     1      44.240 132.469  21.609  1.00  0.00     0.308 HD
ATOM      9  C   UNL     1      44.663 130.428  21.868  1.00  0.00     0.193 A 
ATOM     10  C   UNL     1      44.366 129.273  22.622  1.00  0.00     0.031 A 
ATOM     11  C   UNL     1      44.989 128.037  22.364  1.00  0.00     0.021 A 
ENDROOT
BRANCH   1  12
ATOM     12  C   UNL     1      45.338 125.599  22.854  1.00  0.00    -0.018 A 
ATOM     13  C   UNL     1      45.297 123.166  22.859  1.00  0.00     0.001 A 
ATOM     14  C   UNL     1      44.676 124.388  23.129  1.00  0.00     0.009 A 
ATOM     15  C   UNL     1      46.583 123.135  22.320  1.00  0.00     0.006 A 
ATOM     16  C   UNL     1      47.266 124.331  22.057  1.00  0.00    -0.016 A 
ATOM     17  C   UNL     1      46.635 125.558  22.310  1.00  0.00     0.015 A 
BRANCH  16  18
ATOM     18  C   UNL     1      48.638 124.302  21.451  1.00  0.00     0.174 C 
ATOM     19  O   UNL     1      49.248 123.041  21.599  1.00  0.00    -0.368 OA
ATOM     20  C   UNL     1      49.763 124.085  22.390  1.00  0.00     0.198 C 
ENDBRANCH  16  18
ENDBRANCH   1  12
BRANCH   9  21
ATOM     21  N   UNL     1      45.625 130.362  20.803  1.00  0.00    -0.017 NA
BRANCH  21  22
ATOM     22  N   UNL     1      45.391 130.798  19.676  1.00  0.00     0.009 N 
ATOM     23  N   UNL     1      45.158 131.233  18.549  1.00  0.00    -0.003 NA
ENDBRANCH  21  22
ENDBRANCH   9  21
TORSDOF 4
ENDMDL
MODEL 8
REMARK VINA RESULT:      -6.4      6.055      8.326
REMARK SMILES [N-]=[N+]=Nc1[nH+]ccc2ccc(-c3cccc([C@H]4CO4)c3)cc12
REMARK SMILES IDX 11 1 10 2 9 3 8 4 7 5 6 6 5 7 4 9 22 10 21 11 12 12 14 13
REMARK SMILES IDX 13 14 15 15 16 16 20 17 17 18 19 19 18 20 3 21 2 22 1 23
REMARK H PARENT 5 8
ROOT
ATOM      1  C   UNL     1      45.023 126.900  22.556  1.00  0.00    -0.018 A 
ATOM      2  C   UNL     1      43.998 125.941  22.610  1.00  0.00     0.009 A 
ATOM      3  C   UNL     1      44.296 124.578  22.569  1.00  0.00     0.009 A 
ATOM      4  C   UNL     1      45.626 124.148  22.473  1.00  0.00    -0.011 A 
ATOM      5  C   UNL     1      45.927 122.783  22.432  1.00  0.00     0.052 A 
ATOM      6  C   UNL     1      47.257 122.376  22.340  1.00  0.00     0.194 A 
ATOM      7  N   UNL     1      48.257 123.296  22.289  1.00  0.00    -0.279 N 
ATOM      8  H   UNL     1      49.238 122.944  22.220  1.00  0.00     0.308 HD
ATOM      9  C   UNL     1      48.005 124.641  22.327  1.00  0.00     0.193 A 
ATOM     10  C   UNL     1      46.673 125.097  22.420  1.00  0.00     0.031 A 
ATOM     11  C   UNL     1      46.359 126.470  22.462  1.00  0.00     0.021 A 
ENDROOT
BRANCH   1  12
ATOM     12  C   UNL     1      44.698 128.348  22.598  1.00  0.00    -0.018 A 
ATOM     13  C   UNL     1      43.614 130.239  23.681  1.00  0.00     0.001 A 
ATOM     14  C   UNL     1      43.910 128.874  23.638  1.00  0.00     0.009 A 
ATOM     15  C   UNL     1      44.093 131.093  22.687  1.00  0.00     0.006 A 
ATOM     16  C   UNL     1      44.864 130.585  21.633  1.00  0.00    -0.016 A 
ATOM     17  C   UNL     1      45.177 129.218  21.600  1.00  0.00     0.015 A 
BRANCH  16  18
ATOM     18  C   UNL     1      45.405 131.505  20.577  1.00  0.00     0.174 C 
ATOM     19  O   UNL     1      44.377 132.040  19.776  1.00  0.00    -0.368 OA
ATOM     20  C   UNL     1      45.207 131.076  19.174  1.00  0.00     0.198 C 
ENDBRANCH  16  18
ENDBRANCH   1  12
BRANCH   9  21
ATOM     21  N   UNL     1      49.084 125.587  22.271  1.00  0.00    -0.017 NA
BRANCH  21  22
ATOM     22  N   UNL     1      49.906 125.702  23.180  1.00  0.00     0.009 N 
ATOM     23  N   UNL     1      50.728 125.816  24.089  1.00  0.00    -0.003 NA
ENDBRANCH  21  22
ENDBRANCH   9  21
TORSDOF 4
ENDMDL
MODEL 9
REMARK VINA RESULT:      -6.3      5.450      7.341
REMARK SMILES [N-]=[N+]=Nc1[nH+]ccc2ccc(-c3cccc([C@H]4CO4)c3)cc12
REMARK SMILES IDX 11 1 10 2 9 3 8 4 7 5 6 6 5 7 4 9 22 10 21 11 12 12 14 13
REMARK SMILES IDX 13 14 15 15 16 16 20 17 17 18 19 19 18 20 3 21 2 22 1 23
REMARK H PARENT 5 8
ROOT
ATOM      1  C   UNL     1      44.945 127.044  23.238  1.00  0.00    -0.018 A 
ATOM      2  C   UNL     1      44.000 127.036  24.278  1.00  0.00     0.009 A 
ATOM      3  C   UNL     1      43.220 128.164  24.539  1.00  0.00     0.009 A 
ATOM      4  C   UNL     1      43.372 129.323  23.766  1.00  0.00    -0.011 A 
ATOM      5  C   UNL     1      42.592 130.454  24.026  1.00  0.00     0.052 A 
ATOM      6  C   UNL     1      42.756 131.595  23.244  1.00  0.00     0.194 A 
ATOM      7  N   UNL     1      43.667 131.614  22.234  1.00  0.00    -0.279 N 
ATOM      8  H   UNL     1      43.755 132.491  21.675  1.00  0.00     0.308 HD
ATOM      9  C   UNL     1      44.449 130.528  21.947  1.00  0.00     0.193 A 
ATOM     10  C   UNL     1      44.317 129.351  22.714  1.00  0.00     0.031 A 
ATOM     11  C   UNL     1      45.097 128.207  22.460  1.00  0.00     0.021 A 
ENDROOT
BRANCH   1  12
ATOM     12  C   UNL     1      45.773 125.842  22.967  1.00  0.00    -0.018 A 
ATOM     13  C   UNL     1      45.970 123.548  22.178  1.00  0.00     0.001 A 
ATOM     14  C   UNL     1      45.188 124.676  22.442  1.00  0.00     0.009 A 
ATOM     15  C   UNL     1      47.340 123.567  22.440  1.00  0.00     0.006 A 
ATOM     16  C   UNL     1      47.938 124.713  22.982  1.00  0.00    -0.016 A 
ATOM     17  C   UNL     1      47.156 125.851  23.229  1.00  0.00     0.015 A 
BRANCH  16  18
ATOM     18  C   UNL     1      49.416 124.747  23.240  1.00  0.00     0.174 C 
ATOM     19  O   UNL     1      49.927 126.058  23.171  1.00  0.00    -0.368 OA
ATOM     20  C   UNL     1      50.264 125.196  22.112  1.00  0.00     0.198 C 
ENDBRANCH  16  18
ENDBRANCH   1  12
BRANCH   9  21
ATOM     21  N   UNL     1      45.403 130.580  20.874  1.00  0.00    -0.017 NA
BRANCH  21  22
ATOM     22  N   UNL     1      45.138 131.083  19.782  1.00  0.00     0.009 N 
ATOM     23  N   UNL     1      44.872 131.585  18.691  1.00  0.00    -0.003 NA
ENDBRANCH  21  22
ENDBRANCH   9  21
TORSDOF 4
ENDMDL


