REMARK SMILES C=Cc1ccc(-c2cc(F)cc(F)c2[O-])nc1
REMARK SMILES IDX 3 1 4 2 5 3 6 4 16 5 17 6 2 7 1 8 7 9 8 10 14 11 9 12 12 13
REMARK SMILES IDX 11 14 15 15 10 16 13 17
REMARK H PARENT
ROOT
ATOM      1  C   UNL     1      -3.000  -0.636  -0.036  1.00  0.00    -0.008 A 
ATOM      2  C   UNL     1      -2.190   0.131   0.821  1.00  0.00     0.012 A 
ATOM      3  C   UNL     1      -0.802   0.113   0.680  1.00  0.00     0.029 A 
ATOM      4  C   UNL     1      -0.214  -0.680  -0.318  1.00  0.00     0.070 A 
ATOM      5  N   UNL     1      -1.016  -1.426  -1.127  1.00  0.00    -0.256 NA
ATOM      6  C   UNL     1      -2.370  -1.426  -1.009  1.00  0.00     0.119 A 
ENDROOT
BRANCH   1   7
ATOM      7  C   UNL     1      -4.480  -0.670   0.064  1.00  0.00     0.002 C 
ATOM      8  C   UNL     1      -5.208   0.225   0.733  1.00  0.00     0.009 C 
ENDBRANCH   1   7
BRANCH   4   9
ATOM      9  C   UNL     1       1.259  -0.721  -0.503  1.00  0.00    -0.002 A 
ATOM     10  C   UNL     1       2.029   0.446  -0.330  1.00  0.00     0.049 A 
ATOM     11  C   UNL     1       1.911  -1.918  -0.875  1.00  0.00    -0.062 A 
ATOM     12  C   UNL     1       3.413   0.419  -0.518  1.00  0.00     0.126 A 
ATOM     13  C   UNL     1       3.299  -1.934  -1.064  1.00  0.00     0.118 A 
ATOM     14  C   UNL     1       4.047  -0.769  -0.884  1.00  0.00     0.077 A 
ATOM     15  O   UNL     1       1.194  -3.098  -1.042  1.00  0.00    -0.870 OA
ATOM     16  F   UNL     1       4.142   1.551  -0.352  1.00  0.00    -0.207 F 
ATOM     17  F   UNL     1       3.923  -3.085  -1.418  1.00  0.00    -0.208 F 
ENDBRANCH   4   9
TORSDOF 2


