REMARK SMILES CO[C@@H](C)CCOC(=O)N(c1ccc2cc[nH]c2c1)c1cc(F)c([O-])cc1N
REMARK SMILES IDX 7 1 6 2 5 3 3 4 4 5 2 6 1 7 8 8 9 9 10 10 11 11 12 12 19 13
REMARK SMILES IDX 13 14 18 15 14 16 17 17 15 18 16 19 20 21 21 22 27 23 22 24
REMARK SMILES IDX 26 25 24 26 23 27 25 28 28 29
REMARK H PARENT 17 20 28 30 28 31
ROOT
ATOM      1  O   UNL     1      -0.135   0.388  -0.757  1.00  0.00    -0.449 OA
ENDROOT
BRANCH   1   2
ATOM      2  C   UNL     1      -0.348   1.500  -1.618  1.00  0.00     0.237 C 
BRANCH   2   3
ATOM      3  C   UNL     1       0.256   2.753  -0.984  1.00  0.00     0.073 C 
BRANCH   3   4
ATOM      4  C   UNL     1       0.085   3.985  -1.888  1.00  0.00     0.118 C 
ATOM      5  C   UNL     1       0.794   5.192  -1.267  1.00  0.00     0.038 C 
BRANCH   4   6
ATOM      6  O   UNL     1      -1.298   4.275  -2.017  1.00  0.00    -0.382 OA
ATOM      7  C   UNL     1      -1.610   4.632  -3.346  1.00  0.00     0.195 C 
ENDBRANCH   4   6
ENDBRANCH   3   4
ENDBRANCH   2   3
ENDBRANCH   1   2
BRANCH   1   8
ATOM      8  C   UNL     1      -0.560  -0.907  -1.072  1.00  0.00     0.419 C 
ATOM      9  O   UNL     1      -1.184  -1.124  -2.148  1.00  0.00    -0.224 OA
BRANCH   8  10
ATOM     10  N   UNL     1      -0.306  -1.989  -0.155  1.00  0.00    -0.244 N 
BRANCH  10  11
ATOM     11  C   UNL     1       0.658  -1.847   0.906  1.00  0.00     0.055 A 
ATOM     12  C   UNL     1       1.915  -1.230   0.662  1.00  0.00     0.027 A 
ATOM     13  C   UNL     1       0.368  -2.348   2.196  1.00  0.00     0.053 A 
ATOM     14  C   UNL     1       2.864  -1.098   1.692  1.00  0.00     0.012 A 
ATOM     15  C   UNL     1       1.331  -2.201   3.192  1.00  0.00     0.047 A 
ATOM     16  C   UNL     1       2.534  -1.597   2.948  1.00  0.00    -0.000 A 
ATOM     17  N   UNL     1       1.248  -2.600   4.472  1.00  0.00    -0.361 N 
ATOM     18  C   UNL     1       3.249  -1.612   4.125  1.00  0.00     0.028 A 
ATOM     19  C   UNL     1       2.419  -2.241   5.047  1.00  0.00     0.083 A 
ATOM     20  H   UNL     1       0.447  -3.087   4.932  1.00  0.00     0.166 HD
ENDBRANCH  10  11
BRANCH  10  21
ATOM     21  C   UNL     1      -0.977  -3.249  -0.332  1.00  0.00     0.078 A 
ATOM     22  C   UNL     1      -0.224  -4.384  -0.671  1.00  0.00     0.067 A 
ATOM     23  C   UNL     1      -2.377  -3.364  -0.169  1.00  0.00     0.056 A 
ATOM     24  C   UNL     1      -0.851  -5.616  -0.871  1.00  0.00     0.117 A 
ATOM     25  C   UNL     1      -2.996  -4.606  -0.379  1.00  0.00     0.022 A 
ATOM     26  C   UNL     1      -2.237  -5.726  -0.729  1.00  0.00    -0.070 A 
ATOM     27  F   UNL     1      -0.111  -6.702  -1.206  1.00  0.00    -0.208 F 
ATOM     28  O   UNL     1      -2.863  -6.951  -0.931  1.00  0.00    -0.870 OA
BRANCH  23  29
ATOM     29  N   UNL     1      -3.171  -2.244   0.241  1.00  0.00    -0.397 N 
ATOM     30  H   UNL     1      -2.738  -1.337   0.521  1.00  0.00     0.156 HD
ATOM     31  H   UNL     1      -4.209  -2.330   0.319  1.00  0.00     0.156 HD
ENDBRANCH  23  29
ENDBRANCH  10  21
ENDBRANCH   8  10
ENDBRANCH   1   8
TORSDOF 9


