REMARK SMILES Cc1cc(F)[nH+]cc1-c1ccc2cc[nH]c2c1/N=C(\O)c1cc(F)c[nH]1
REMARK SMILES IDX 18 1 19 2 20 3 21 5 22 6 26 7 23 8 25 9 24 11 17 12 9 13
REMARK SMILES IDX 16 14 10 15 15 16 12 17 11 18 14 19 13 20 8 22 2 23 7 24
REMARK SMILES IDX 3 25 6 26 4 27 1 28 5 30
REMARK H PARENT 20 4 26 10 15 21 6 29
ROOT
ATOM      1  N   UNL     1       0.865   0.094  -0.371  1.00  0.00    -0.210 NA
ENDROOT
BRANCH   1   2
ATOM      2  C   UNL     1       2.051  -0.110   0.125  1.00  0.00     0.235 C 
BRANCH   2   3
ATOM      3  O   UNL     1       2.514   0.594   1.240  1.00  0.00    -0.492 OA
ATOM      4  H   UNL     1       1.939   1.243   1.761  1.00  0.00     0.295 HD
ENDBRANCH   2   3
BRANCH   2   5
ATOM      5  C   UNL     1       2.918  -1.130  -0.483  1.00  0.00     0.104 A 
ATOM      6  C   UNL     1       4.195  -1.450  -0.058  1.00  0.00     0.072 A 
ATOM      7  N   UNL     1       2.568  -1.894  -1.539  1.00  0.00    -0.355 N 
ATOM      8  C   UNL     1       4.625  -2.450  -0.903  1.00  0.00     0.141 A 
ATOM      9  C   UNL     1       3.611  -2.704  -1.800  1.00  0.00     0.122 A 
ATOM     10  H   UNL     1       1.663  -1.870  -2.061  1.00  0.00     0.166 HD
ATOM     11  F   UNL     1       5.827  -3.073  -0.858  1.00  0.00    -0.205 F 
ENDBRANCH   2   5
ENDBRANCH   1   2
BRANCH   1  12
ATOM     12  C   UNL     1      -0.068   1.086   0.079  1.00  0.00     0.099 A 
ATOM     13  C   UNL     1      -1.366   0.712   0.508  1.00  0.00     0.016 A 
ATOM     14  C   UNL     1       0.230   2.455   0.020  1.00  0.00     0.072 A 
ATOM     15  C   UNL     1      -2.292   1.708   0.910  1.00  0.00     0.012 A 
ATOM     16  N   UNL     1       1.361   3.037  -0.419  1.00  0.00    -0.359 N 
ATOM     17  C   UNL     1      -0.680   3.405   0.403  1.00  0.00     0.002 A 
ATOM     18  C   UNL     1      -1.950   3.070   0.859  1.00  0.00     0.011 A 
ATOM     19  C   UNL     1       1.166   4.369  -0.299  1.00  0.00     0.083 A 
ATOM     20  C   UNL     1      -0.098   4.639   0.213  1.00  0.00     0.028 A 
ATOM     21  H   UNL     1       2.216   2.567  -0.791  1.00  0.00     0.166 HD
BRANCH  13  22
ATOM     22  C   UNL     1      -1.753  -0.715   0.578  1.00  0.00     0.051 A 
ATOM     23  C   UNL     1      -2.778  -1.255  -0.232  1.00  0.00    -0.028 A 
ATOM     24  C   UNL     1      -1.079  -1.562   1.473  1.00  0.00     0.318 A 
ATOM     25  C   UNL     1      -3.115  -2.609  -0.090  1.00  0.00     0.118 A 
ATOM     26  N   UNL     1      -1.420  -2.874   1.571  1.00  0.00    -0.186 N 
ATOM     27  C   UNL     1      -2.418  -3.407   0.818  1.00  0.00     0.358 A 
ATOM     28  C   UNL     1      -3.530  -0.410  -1.226  1.00  0.00     0.045 C 
ATOM     29  H   UNL     1      -0.906  -3.484   2.246  1.00  0.00     0.456 HD
ATOM     30  F   UNL     1      -2.737  -4.719   0.947  1.00  0.00    -0.136 F 
ENDBRANCH  13  22
ENDBRANCH   1  12
TORSDOF 5


