REMARK SMILES Cc1ccc(-c2ccc(/N=C(\O)c3cccc(C)c3)c(C(=O)[N-][C@@H](C)[C@H](C)O)c2)cc1
REMARK SMILES IDX 21 1 22 2 20 3 9 4 8 5 7 6 29 7 6 8 10 9 11 10 12 11 13 13
REMARK SMILES IDX 14 14 19 15 15 16 17 17 16 18 18 19 5 20 4 21 30 22 3 23
REMARK SMILES IDX 31 24 2 25 1 26 23 27 24 28 25 29 26 30 27 31 28 32
REMARK H PARENT 12 12 28 33
ROOT
ATOM      1  C   UNL     1       1.678   0.929  -0.298  1.00  0.00     0.084 C 
ATOM      2  O   UNL     1       2.221   2.068  -0.359  1.00  0.00    -0.315 OA
ENDROOT
BRANCH   1   3
ATOM      3  C   UNL     1       0.194   0.818  -0.204  1.00  0.00     0.026 A 
ATOM      4  C   UNL     1      -0.457  -0.385   0.172  1.00  0.00     0.076 A 
ATOM      5  C   UNL     1      -1.863  -0.436   0.176  1.00  0.00     0.030 A 
ATOM      6  C   UNL     1      -2.619   0.693  -0.133  1.00  0.00     0.011 A 
ATOM      7  C   UNL     1      -0.588   1.952  -0.504  1.00  0.00     0.021 A 
ATOM      8  C   UNL     1      -1.992   1.900  -0.471  1.00  0.00    -0.018 A 
BRANCH   4   9
ATOM      9  N   UNL     1       0.317  -1.558   0.476  1.00  0.00    -0.213 NA
BRANCH   9  10
ATOM     10  C   UNL     1       0.059  -2.455   1.384  1.00  0.00     0.218 C 
BRANCH  10  11
ATOM     11  O   UNL     1      -1.034  -2.294   2.239  1.00  0.00    -0.493 OA
ATOM     12  H   UNL     1      -1.329  -3.010   2.890  1.00  0.00     0.295 HD
ENDBRANCH  10  11
BRANCH  10  13
ATOM     13  C   UNL     1       0.966  -3.623   1.516  1.00  0.00     0.037 A 
ATOM     14  C   UNL     1       1.735  -4.049   0.417  1.00  0.00     0.014 A 
ATOM     15  C   UNL     1       1.097  -4.304   2.741  1.00  0.00     0.017 A 
ATOM     16  C   UNL     1       2.596  -5.142   0.533  1.00  0.00     0.001 A 
ATOM     17  C   UNL     1       1.975  -5.393   2.864  1.00  0.00    -0.050 A 
ATOM     18  C   UNL     1       2.709  -5.819   1.748  1.00  0.00     0.003 A 
ATOM     19  C   UNL     1       2.081  -6.134   4.165  1.00  0.00     0.044 C 
ENDBRANCH  10  13
ENDBRANCH   9  10
ENDBRANCH   4   9
BRANCH   8  20
ATOM     20  C   UNL     1      -2.801   3.102  -0.806  1.00  0.00    -0.018 A 
ATOM     21  C   UNL     1      -3.955   3.417  -0.065  1.00  0.00     0.009 A 
ATOM     22  C   UNL     1      -2.422   3.946  -1.867  1.00  0.00     0.009 A 
ATOM     23  C   UNL     1      -4.710   4.552  -0.375  1.00  0.00     0.004 A 
ATOM     24  C   UNL     1      -3.178   5.081  -2.175  1.00  0.00     0.004 A 
ATOM     25  C   UNL     1      -4.334   5.383  -1.440  1.00  0.00    -0.051 A 
ATOM     26  C   UNL     1      -5.117   6.627  -1.743  1.00  0.00     0.044 C 
ENDBRANCH   8  20
ENDBRANCH   1   3
BRANCH   1  27
ATOM     27  N   UNL     1       2.508  -0.239  -0.310  1.00  0.00    -0.645 NA
BRANCH  27  28
ATOM     28  C   UNL     1       3.260  -0.724  -1.475  1.00  0.00    -0.081 C 
ATOM     29  C   UNL     1       2.314  -0.966  -2.659  1.00  0.00    -0.011 C 
BRANCH  28  30
ATOM     30  C   UNL     1       4.449   0.197  -1.853  1.00  0.00     0.096 C 
ATOM     31  C   UNL     1       5.402   0.395  -0.669  1.00  0.00     0.037 C 
BRANCH  30  32
ATOM     32  O   UNL     1       4.006   1.453  -2.305  1.00  0.00    -0.395 OA
ATOM     33  H   UNL     1       3.803   1.357  -3.270  1.00  0.00     0.210 HD
ENDBRANCH  30  32
ENDBRANCH  28  30
ENDBRANCH  27  28
ENDBRANCH   1  27
TORSDOF 10


