REMARK SMILES C=Cc1cccc(-c2ccc3c(c2)[C@H](N=[N+]=[N-])CC3)c1
REMARK SMILES IDX 8 1 9 2 10 3 11 4 12 5 13 6 14 7 18 8 19 9 7 10 3 11 4 12
REMARK SMILES IDX 20 13 5 14 6 15 2 16 1 17 15 18 16 19 17 20
REMARK H PARENT
ROOT
ATOM      1  C   UNL     1       0.008  -1.498   0.030  1.00  0.00    -0.018 A 
ATOM      2  C   UNL     1      -0.641  -2.695   0.414  1.00  0.00     0.009 A 
ATOM      3  C   UNL     1      -2.041  -2.760   0.472  1.00  0.00     0.004 A 
ATOM      4  C   UNL     1      -2.782  -1.624   0.145  1.00  0.00    -0.044 A 
ATOM      5  C   UNL     1      -2.165  -0.455  -0.218  1.00  0.00    -0.035 A 
ATOM      6  C   UNL     1      -0.772  -0.367  -0.293  1.00  0.00     0.013 A 
ATOM      7  C   UNL     1      -3.147   0.624  -0.510  1.00  0.00     0.104 C 
ATOM      8  C   UNL     1      -4.509  -0.102  -0.452  1.00  0.00     0.019 C 
ATOM      9  C   UNL     1      -4.257  -1.501   0.143  1.00  0.00     0.036 C 
ENDROOT
BRANCH   1  10
ATOM     10  C   UNL     1       1.491  -1.430  -0.031  1.00  0.00    -0.018 A 
ATOM     11  C   UNL     1       3.575  -0.208   0.366  1.00  0.00    -0.026 A 
ATOM     12  C   UNL     1       4.297  -1.304  -0.145  1.00  0.00     0.008 A 
ATOM     13  C   UNL     1       2.173  -0.288   0.427  1.00  0.00     0.016 A 
ATOM     14  C   UNL     1       3.626  -2.441  -0.601  1.00  0.00     0.001 A 
ATOM     15  C   UNL     1       2.233  -2.505  -0.548  1.00  0.00     0.009 A 
BRANCH  11  16
ATOM     16  C   UNL     1       4.238   1.018   0.875  1.00  0.00     0.000 C 
ATOM     17  C   UNL     1       5.495   1.364   0.594  1.00  0.00     0.009 C 
ENDBRANCH  11  16
ENDBRANCH   1  10
BRANCH   7  18
ATOM     18  N   UNL     1      -3.088   1.664   0.513  1.00  0.00    -0.086 NA
BRANCH  18  19
ATOM     19  N   UNL     1      -2.124   2.427   0.591  1.00  0.00     0.002 N 
ATOM     20  N   UNL     1      -1.162   3.189   0.670  1.00  0.00    -0.003 NA
ENDBRANCH  18  19
ENDBRANCH   7  18
TORSDOF 4


