MODEL 1
REMARK VINA RESULT:      -9.9      0.000      0.000
REMARK SMILES [O-]/C(=N\[C@H]1Cc2ccccc2[C@H]1O)C1CCCC1
REMARK SMILES IDX 12 1 11 2 10 3 9 4 8 5 7 6 6 7 5 8 4 9 13 10 3 12 2 13 1 14
REMARK SMILES IDX 14 15 15 16 18 17 16 18 17 19
REMARK H PARENT 13 11
ROOT
ATOM      1  C   UNL     1      45.860 129.768  16.298  1.00  0.00     0.169 C 
ATOM      2  C   UNL     1      46.681 130.005  15.086  1.00  0.00    -0.014 A 
ATOM      3  C   UNL     1      47.490 129.074  14.428  1.00  0.00     0.007 A 
ATOM      4  C   UNL     1      48.217 129.489  13.301  1.00  0.00     0.000 A 
ATOM      5  C   UNL     1      48.130 130.819  12.853  1.00  0.00     0.000 A 
ATOM      6  C   UNL     1      47.314 131.738  13.531  1.00  0.00     0.004 A 
ATOM      7  C   UNL     1      46.594 131.303  14.647  1.00  0.00    -0.040 A 
ATOM      8  C   UNL     1      45.701 132.121  15.498  1.00  0.00     0.066 C 
ATOM      9  C   UNL     1      45.054 131.087  16.449  1.00  0.00     0.142 C 
ENDROOT
BRANCH   1  10
ATOM     10  O   UNL     1      46.711 129.542  17.392  1.00  0.00    -0.386 OA
ATOM     11  H   UNL     1      46.172 129.057  18.071  1.00  0.00     0.211 HD
ENDBRANCH   1  10
BRANCH   9  12
ATOM     12  N   UNL     1      45.053 131.564  17.833  1.00  0.00    -0.298 NA
BRANCH  12  13
ATOM     13  C   UNL     1      43.977 131.782  18.529  1.00  0.00    -0.039 C 
ATOM     14  O   UNL     1      42.729 131.806  17.913  1.00  0.00    -0.862 OA
BRANCH  13  15
ATOM     15  C   UNL     1      44.067 132.018  20.014  1.00  0.00     0.022 C 
ATOM     16  C   UNL     1      44.975 131.017  20.718  1.00  0.00     0.009 C 
ATOM     17  C   UNL     1      42.722 131.892  20.719  1.00  0.00     0.009 C 
ATOM     18  C   UNL     1      44.480 130.968  22.160  1.00  0.00     0.001 C 
ATOM     19  C   UNL     1      43.058 131.531  22.161  1.00  0.00     0.001 C 
ENDBRANCH  13  15
ENDBRANCH  12  13
ENDBRANCH   9  12
TORSDOF 4
ENDMDL
MODEL 2
REMARK VINA RESULT:      -9.8      1.386      6.606
REMARK SMILES [O-]/C(=N\[C@H]1Cc2ccccc2[C@H]1O)C1CCCC1
REMARK SMILES IDX 12 1 11 2 10 3 9 4 8 5 7 6 6 7 5 8 4 9 13 10 3 12 2 13 1 14
REMARK SMILES IDX 14 15 15 16 18 17 16 18 17 19
REMARK H PARENT 13 11
ROOT
ATOM      1  C   UNL     1      45.502 131.260  18.330  1.00  0.00     0.169 C 
ATOM      2  C   UNL     1      44.798 131.416  19.626  1.00  0.00    -0.014 A 
ATOM      3  C   UNL     1      45.357 131.294  20.902  1.00  0.00     0.007 A 
ATOM      4  C   UNL     1      44.525 131.453  22.021  1.00  0.00     0.000 A 
ATOM      5  C   UNL     1      43.156 131.728  21.852  1.00  0.00     0.000 A 
ATOM      6  C   UNL     1      42.616 131.842  20.562  1.00  0.00     0.004 A 
ATOM      7  C   UNL     1      43.462 131.687  19.461  1.00  0.00    -0.040 A 
ATOM      8  C   UNL     1      43.079 131.753  18.034  1.00  0.00     0.066 C 
ATOM      9  C   UNL     1      44.433 131.687  17.288  1.00  0.00     0.142 C 
ENDROOT
BRANCH   1  10
ATOM     10  O   UNL     1      45.885 129.918  18.174  1.00  0.00    -0.386 OA
ATOM     11  H   UNL     1      46.876 129.900  18.234  1.00  0.00     0.211 HD
ENDBRANCH   1  10
BRANCH   9  12
ATOM     12  N   UNL     1      44.376 130.754  16.161  1.00  0.00    -0.298 NA
BRANCH  12  13
ATOM     13  C   UNL     1      44.850 131.008  14.978  1.00  0.00    -0.039 C 
ATOM     14  O   UNL     1      44.004 131.415  13.949  1.00  0.00    -0.862 OA
BRANCH  13  15
ATOM     15  C   UNL     1      46.322 130.861  14.701  1.00  0.00     0.022 C 
ATOM     16  C   UNL     1      46.708 131.308  13.297  1.00  0.00     0.009 C 
ATOM     17  C   UNL     1      46.806 129.419  14.801  1.00  0.00     0.009 C 
ATOM     18  C   UNL     1      47.984 130.541  12.965  1.00  0.00     0.001 C 
ATOM     19  C   UNL     1      48.050 129.352  13.923  1.00  0.00     0.001 C 
ENDBRANCH  13  15
ENDBRANCH  12  13
ENDBRANCH   9  12
TORSDOF 4
ENDMDL
MODEL 3
REMARK VINA RESULT:      -9.6      1.358      6.554
REMARK SMILES [O-]/C(=N\[C@H]1Cc2ccccc2[C@H]1O)C1CCCC1
REMARK SMILES IDX 12 1 11 2 10 3 9 4 8 5 7 6 6 7 5 8 4 9 13 10 3 12 2 13 1 14
REMARK SMILES IDX 14 15 15 16 18 17 16 18 17 19
REMARK H PARENT 13 11
ROOT
ATOM      1  C   UNL     1      45.572 131.206  18.403  1.00  0.00     0.169 C 
ATOM      2  C   UNL     1      44.781 131.416  19.639  1.00  0.00    -0.014 A 
ATOM      3  C   UNL     1      45.243 131.322  20.955  1.00  0.00     0.007 A 
ATOM      4  C   UNL     1      44.337 131.533  22.006  1.00  0.00     0.000 A 
ATOM      5  C   UNL     1      42.990 131.829  21.730  1.00  0.00     0.000 A 
ATOM      6  C   UNL     1      42.547 131.915  20.401  1.00  0.00     0.004 A 
ATOM      7  C   UNL     1      43.466 131.708  19.370  1.00  0.00    -0.040 A 
ATOM      8  C   UNL     1      43.188 131.738  17.917  1.00  0.00     0.066 C 
ATOM      9  C   UNL     1      44.590 131.622  17.274  1.00  0.00     0.142 C 
ENDROOT
BRANCH   1  10
ATOM     10  O   UNL     1      45.936 129.853  18.315  1.00  0.00    -0.386 OA
ATOM     11  H   UNL     1      46.467 129.651  19.129  1.00  0.00     0.211 HD
ENDBRANCH   1  10
BRANCH   9  12
ATOM     12  N   UNL     1      44.593 130.655  16.174  1.00  0.00    -0.298 NA
BRANCH  12  13
ATOM     13  C   UNL     1      44.690 130.978  14.918  1.00  0.00    -0.039 C 
ATOM     14  O   UNL     1      43.815 131.906  14.358  1.00  0.00    -0.862 OA
BRANCH  13  15
ATOM     15  C   UNL     1      45.748 130.350  14.051  1.00  0.00     0.022 C 
ATOM     16  C   UNL     1      46.642 129.382  14.815  1.00  0.00     0.009 C 
ATOM     17  C   UNL     1      46.702 131.370  13.442  1.00  0.00     0.009 C 
ATOM     18  C   UNL     1      47.955 129.347  14.040  1.00  0.00     0.001 C 
ATOM     19  C   UNL     1      47.988 130.600  13.164  1.00  0.00     0.001 C 
ENDBRANCH  13  15
ENDBRANCH  12  13
ENDBRANCH   9  12
TORSDOF 4
ENDMDL
MODEL 4
REMARK VINA RESULT:      -9.3      1.540      6.761
REMARK SMILES [O-]/C(=N\[C@H]1Cc2ccccc2[C@H]1O)C1CCCC1
REMARK SMILES IDX 12 1 11 2 10 3 9 4 8 5 7 6 6 7 5 8 4 9 13 10 3 12 2 13 1 14
REMARK SMILES IDX 14 15 15 16 18 17 16 18 17 19
REMARK H PARENT 13 11
ROOT
ATOM      1  C   UNL     1      45.618 131.082  19.416  1.00  0.00     0.169 C 
ATOM      2  C   UNL     1      44.311 131.614  19.874  1.00  0.00    -0.014 A 
ATOM      3  C   UNL     1      43.932 131.881  21.193  1.00  0.00     0.007 A 
ATOM      4  C   UNL     1      42.637 132.363  21.439  1.00  0.00     0.000 A 
ATOM      5  C   UNL     1      41.744 132.567  20.372  1.00  0.00     0.000 A 
ATOM      6  C   UNL     1      42.144 132.288  19.056  1.00  0.00     0.004 A 
ATOM      7  C   UNL     1      43.439 131.815  18.832  1.00  0.00    -0.040 A 
ATOM      8  C   UNL     1      44.036 131.450  17.528  1.00  0.00     0.066 C 
ATOM      9  C   UNL     1      45.519 131.172  17.868  1.00  0.00     0.142 C 
ENDROOT
BRANCH   1  10
ATOM     10  O   UNL     1      45.755 129.757  19.860  1.00  0.00    -0.386 OA
ATOM     11  H   UNL     1      45.807 129.796  20.850  1.00  0.00     0.211 HD
ENDBRANCH   1  10
BRANCH   9  12
ATOM     12  N   UNL     1      45.992 129.945  17.226  1.00  0.00    -0.298 NA
BRANCH  12  13
ATOM     13  C   UNL     1      45.960 129.733  15.943  1.00  0.00    -0.039 C 
ATOM     14  O   UNL     1      44.916 129.011  15.371  1.00  0.00    -0.862 OA
BRANCH  13  15
ATOM     15  C   UNL     1      47.057 130.263  15.058  1.00  0.00     0.022 C 
ATOM     16  C   UNL     1      46.549 131.243  14.009  1.00  0.00     0.009 C 
ATOM     17  C   UNL     1      47.763 129.170  14.265  1.00  0.00     0.009 C 
ATOM     18  C   UNL     1      47.561 131.178  12.870  1.00  0.00     0.001 C 
ATOM     19  C   UNL     1      48.336 129.870  13.039  1.00  0.00     0.001 C 
ENDBRANCH  13  15
ENDBRANCH  12  13
ENDBRANCH   9  12
TORSDOF 4
ENDMDL
MODEL 5
REMARK VINA RESULT:      -9.2      0.383      1.018
REMARK SMILES [O-]/C(=N\[C@H]1Cc2ccccc2[C@H]1O)C1CCCC1
REMARK SMILES IDX 12 1 11 2 10 3 9 4 8 5 7 6 6 7 5 8 4 9 13 10 3 12 2 13 1 14
REMARK SMILES IDX 14 15 15 16 18 17 16 18 17 19
REMARK H PARENT 13 11
ROOT
ATOM      1  C   UNL     1      45.619 129.815  16.366  1.00  0.00     0.169 C 
ATOM      2  C   UNL     1      46.508 129.994  15.193  1.00  0.00    -0.014 A 
ATOM      3  C   UNL     1      47.366 129.039  14.639  1.00  0.00     0.007 A 
ATOM      4  C   UNL     1      48.154 129.399  13.535  1.00  0.00     0.000 A 
ATOM      5  C   UNL     1      48.077 130.700  13.005  1.00  0.00     0.000 A 
ATOM      6  C   UNL     1      47.212 131.644  13.579  1.00  0.00     0.004 A 
ATOM      7  C   UNL     1      46.431 131.263  14.674  1.00  0.00    -0.040 A 
ATOM      8  C   UNL     1      45.480 132.115  15.421  1.00  0.00     0.066 C 
ATOM      9  C   UNL     1      44.789 131.128  16.392  1.00  0.00     0.142 C 
ENDROOT
BRANCH   1  10
ATOM     10  O   UNL     1      46.405 129.665  17.520  1.00  0.00    -0.386 OA
ATOM     11  H   UNL     1      45.794 129.782  18.293  1.00  0.00     0.211 HD
ENDBRANCH   1  10
BRANCH   9  12
ATOM     12  N   UNL     1      44.701 131.683  17.743  1.00  0.00    -0.298 NA
BRANCH  12  13
ATOM     13  C   UNL     1      43.620 131.675  18.466  1.00  0.00    -0.039 C 
ATOM     14  O   UNL     1      42.408 132.103  17.932  1.00  0.00    -0.862 OA
BRANCH  13  15
ATOM     15  C   UNL     1      43.666 131.206  19.896  1.00  0.00     0.022 C 
ATOM     16  C   UNL     1      42.641 131.903  20.781  1.00  0.00     0.009 C 
ATOM     17  C   UNL     1      45.009 131.471  20.567  1.00  0.00     0.009 C 
ATOM     18  C   UNL     1      43.207 131.826  22.195  1.00  0.00     0.001 C 
ATOM     19  C   UNL     1      44.704 131.543  22.059  1.00  0.00     0.001 C 
ENDBRANCH  13  15
ENDBRANCH  12  13
ENDBRANCH   9  12
TORSDOF 4
ENDMDL
MODEL 6
REMARK VINA RESULT:      -9.2      1.159      1.829
REMARK SMILES [O-]/C(=N\[C@H]1Cc2ccccc2[C@H]1O)C1CCCC1
REMARK SMILES IDX 12 1 11 2 10 3 9 4 8 5 7 6 6 7 5 8 4 9 13 10 3 12 2 13 1 14
REMARK SMILES IDX 14 15 15 16 18 17 16 18 17 19
REMARK H PARENT 13 11
ROOT
ATOM      1  C   UNL     1      45.526 131.996  15.572  1.00  0.00     0.169 C 
ATOM      2  C   UNL     1      46.497 131.233  14.751  1.00  0.00    -0.014 A 
ATOM      3  C   UNL     1      47.051 131.626  13.529  1.00  0.00     0.007 A 
ATOM      4  C   UNL     1      47.943 130.756  12.881  1.00  0.00     0.000 A 
ATOM      5  C   UNL     1      48.264 129.514  13.457  1.00  0.00     0.000 A 
ATOM      6  C   UNL     1      47.693 129.138  14.683  1.00  0.00     0.004 A 
ATOM      7  C   UNL     1      46.813 130.021  15.315  1.00  0.00    -0.040 A 
ATOM      8  C   UNL     1      46.101 129.798  16.593  1.00  0.00     0.066 C 
ATOM      9  C   UNL     1      45.425 131.159  16.877  1.00  0.00     0.142 C 
ENDROOT
BRANCH   1  10
ATOM     10  O   UNL     1      44.300 132.060  14.890  1.00  0.00    -0.386 OA
ATOM     11  H   UNL     1      44.302 132.916  14.388  1.00  0.00     0.211 HD
ENDBRANCH   1  10
BRANCH   9  12
ATOM     12  N   UNL     1      44.034 130.985  17.300  1.00  0.00    -0.298 NA
BRANCH  12  13
ATOM     13  C   UNL     1      43.460 131.690  18.230  1.00  0.00    -0.039 C 
ATOM     14  O   UNL     1      42.245 132.325  17.987  1.00  0.00    -0.862 OA
BRANCH  13  15
ATOM     15  C   UNL     1      44.105 131.832  19.582  1.00  0.00     0.022 C 
ATOM     16  C   UNL     1      45.104 130.722  19.882  1.00  0.00     0.009 C 
ATOM     17  C   UNL     1      43.102 131.777  20.729  1.00  0.00     0.009 C 
ATOM     18  C   UNL     1      45.163 130.631  21.403  1.00  0.00     0.001 C 
ATOM     19  C   UNL     1      43.901 131.308  21.938  1.00  0.00     0.001 C 
ENDBRANCH  13  15
ENDBRANCH  12  13
ENDBRANCH   9  12
TORSDOF 4
ENDMDL
MODEL 7
REMARK VINA RESULT:      -9.1      1.552      6.521
REMARK SMILES [O-]/C(=N\[C@H]1Cc2ccccc2[C@H]1O)C1CCCC1
REMARK SMILES IDX 12 1 11 2 10 3 9 4 8 5 7 6 6 7 5 8 4 9 13 10 3 12 2 13 1 14
REMARK SMILES IDX 14 15 15 16 18 17 16 18 17 19
REMARK H PARENT 13 11
ROOT
ATOM      1  C   UNL     1      45.644 131.251  18.829  1.00  0.00     0.169 C 
ATOM      2  C   UNL     1      44.277 131.679  19.211  1.00  0.00    -0.014 A 
ATOM      3  C   UNL     1      43.813 131.946  20.503  1.00  0.00     0.007 A 
ATOM      4  C   UNL     1      42.471 132.321  20.674  1.00  0.00     0.000 A 
ATOM      5  C   UNL     1      41.617 132.421  19.562  1.00  0.00     0.000 A 
ATOM      6  C   UNL     1      42.102 132.145  18.274  1.00  0.00     0.004 A 
ATOM      7  C   UNL     1      43.442 131.779  18.125  1.00  0.00    -0.040 A 
ATOM      8  C   UNL     1      44.130 131.434  16.861  1.00  0.00     0.066 C 
ATOM      9  C   UNL     1      45.613 131.293  17.277  1.00  0.00     0.142 C 
ENDROOT
BRANCH   1  10
ATOM     10  O   UNL     1      45.871 129.953  19.317  1.00  0.00    -0.386 OA
ATOM     11  H   UNL     1      44.978 129.567  19.515  1.00  0.00     0.211 HD
ENDBRANCH   1  10
BRANCH   9  12
ATOM     12  N   UNL     1      46.218 130.095  16.693  1.00  0.00    -0.298 NA
BRANCH  12  13
ATOM     13  C   UNL     1      45.773 129.497  15.628  1.00  0.00    -0.039 C 
ATOM     14  O   UNL     1      44.718 128.591  15.715  1.00  0.00    -0.862 OA
BRANCH  13  15
ATOM     15  C   UNL     1      46.395 129.772  14.285  1.00  0.00     0.022 C 
ATOM     16  C   UNL     1      47.767 129.129  14.125  1.00  0.00     0.009 C 
ATOM     17  C   UNL     1      46.625 131.256  14.028  1.00  0.00     0.009 C 
ATOM     18  C   UNL     1      48.490 129.974  13.082  1.00  0.00     0.001 C 
ATOM     19  C   UNL     1      47.761 131.316  13.014  1.00  0.00     0.001 C 
ENDBRANCH  13  15
ENDBRANCH  12  13
ENDBRANCH   9  12
TORSDOF 4
ENDMDL
MODEL 8
REMARK VINA RESULT:      -8.6      1.525      6.669
REMARK SMILES [O-]/C(=N\[C@H]1Cc2ccccc2[C@H]1O)C1CCCC1
REMARK SMILES IDX 12 1 11 2 10 3 9 4 8 5 7 6 6 7 5 8 4 9 13 10 3 12 2 13 1 14
REMARK SMILES IDX 14 15 15 16 18 17 16 18 17 19
REMARK H PARENT 13 11
ROOT
ATOM      1  C   UNL     1      42.638 131.500  18.375  1.00  0.00     0.169 C 
ATOM      2  C   UNL     1      43.200 131.582  19.745  1.00  0.00    -0.014 A 
ATOM      3  C   UNL     1      42.487 131.781  20.931  1.00  0.00     0.007 A 
ATOM      4  C   UNL     1      43.196 131.855  22.140  1.00  0.00     0.000 A 
ATOM      5  C   UNL     1      44.596 131.733  22.147  1.00  0.00     0.000 A 
ATOM      6  C   UNL     1      45.292 131.538  20.944  1.00  0.00     0.004 A 
ATOM      7  C   UNL     1      44.568 131.461  19.752  1.00  0.00    -0.040 A 
ATOM      8  C   UNL     1      45.119 131.278  18.392  1.00  0.00     0.066 C 
ATOM      9  C   UNL     1      43.862 131.091  17.509  1.00  0.00     0.142 C 
ENDROOT
BRANCH   1  10
ATOM     10  O   UNL     1      42.131 132.758  18.010  1.00  0.00    -0.386 OA
ATOM     11  H   UNL     1      41.663 132.632  17.144  1.00  0.00     0.211 HD
ENDBRANCH   1  10
BRANCH   9  12
ATOM     12  N   UNL     1      43.947 131.889  16.285  1.00  0.00    -0.298 NA
BRANCH  12  13
ATOM     13  C   UNL     1      44.408 131.443  15.154  1.00  0.00    -0.039 C 
ATOM     14  O   UNL     1      43.566 131.302  14.054  1.00  0.00    -0.862 OA
BRANCH  13  15
ATOM     15  C   UNL     1      45.859 131.068  15.019  1.00  0.00     0.022 C 
ATOM     16  C   UNL     1      46.445 131.445  13.664  1.00  0.00     0.009 C 
ATOM     17  C   UNL     1      46.102 129.569  15.148  1.00  0.00     0.009 C 
ATOM     18  C   UNL     1      47.613 130.488  13.447  1.00  0.00     0.001 C 
ATOM     19  C   UNL     1      47.400 129.306  14.394  1.00  0.00     0.001 C 
ENDBRANCH  13  15
ENDBRANCH  12  13
ENDBRANCH   9  12
TORSDOF 4
ENDMDL
MODEL 9
REMARK VINA RESULT:      -8.5      1.162      1.223
REMARK SMILES [O-]/C(=N\[C@H]1Cc2ccccc2[C@H]1O)C1CCCC1
REMARK SMILES IDX 12 1 11 2 10 3 9 4 8 5 7 6 6 7 5 8 4 9 13 10 3 12 2 13 1 14
REMARK SMILES IDX 14 15 15 16 18 17 16 18 17 19
REMARK H PARENT 13 11
ROOT
ATOM      1  C   UNL     1      45.668 129.319  15.863  1.00  0.00     0.169 C 
ATOM      2  C   UNL     1      46.570 129.690  14.746  1.00  0.00    -0.014 A 
ATOM      3  C   UNL     1      47.763 129.056  14.388  1.00  0.00     0.007 A 
ATOM      4  C   UNL     1      48.500 129.565  13.307  1.00  0.00     0.000 A 
ATOM      5  C   UNL     1      48.040 130.694  12.606  1.00  0.00     0.000 A 
ATOM      6  C   UNL     1      46.842 131.317  12.985  1.00  0.00     0.004 A 
ATOM      7  C   UNL     1      46.119 130.791  14.059  1.00  0.00    -0.040 A 
ATOM      8  C   UNL     1      44.853 131.315  14.616  1.00  0.00     0.066 C 
ATOM      9  C   UNL     1      44.438 130.245  15.654  1.00  0.00     0.142 C 
ENDROOT
BRANCH   1  10
ATOM     10  O   UNL     1      46.319 129.574  17.081  1.00  0.00    -0.386 OA
ATOM     11  H   UNL     1      45.777 129.133  17.787  1.00  0.00     0.211 HD
ENDBRANCH   1  10
BRANCH   9  12
ATOM     12  N   UNL     1      44.007 130.861  16.910  1.00  0.00    -0.298 NA
BRANCH  12  13
ATOM     13  C   UNL     1      44.674 131.784  17.537  1.00  0.00    -0.039 C 
ATOM     14  O   UNL     1      45.657 132.517  16.878  1.00  0.00    -0.862 OA
BRANCH  13  15
ATOM     15  C   UNL     1      44.396 132.070  18.989  1.00  0.00     0.022 C 
ATOM     16  C   UNL     1      45.192 131.176  19.931  1.00  0.00     0.009 C 
ATOM     17  C   UNL     1      42.938 131.842  19.371  1.00  0.00     0.009 C 
ATOM     18  C   UNL     1      44.380 131.123  21.221  1.00  0.00     0.001 C 
ATOM     19  C   UNL     1      42.956 131.554  20.868  1.00  0.00     0.001 C 
ENDBRANCH  13  15
ENDBRANCH  12  13
ENDBRANCH   9  12
TORSDOF 4
ENDMDL


