REMARK SMILES c1ccc2[n-]c([NH2+]c3cn4ccccc4n3)cc2c1
REMARK SMILES IDX 7 1 6 4 1 5 2 6 19 7 3 8 18 9 4 10 17 11 5 12 8 13 9 14
REMARK SMILES IDX 16 15 10 16 15 17 11 18 14 19 12 20 13 21
REMARK H PARENT 7 2 7 3
ROOT
ATOM      1  N   UNL     1       0.100  -2.495  -0.428  1.00  0.00    -0.282 N 
ATOM      2  H   UNL     1      -0.221  -3.226   0.249  1.00  0.00     0.358 HD
ATOM      3  H   UNL     1       0.409  -2.966  -1.310  1.00  0.00     0.358 HD
ENDROOT
BRANCH   1   4
ATOM      4  C   UNL     1       1.191  -1.759   0.140  1.00  0.00     0.037 A 
ATOM      5  C   UNL     1       4.686   0.817   1.362  1.00  0.00     0.001 A 
ATOM      6  C   UNL     1       4.124   0.547   2.629  1.00  0.00    -0.001 A 
ATOM      7  C   UNL     1       4.101   0.291   0.196  1.00  0.00     0.007 A 
ATOM      8  C   UNL     1       2.971  -0.252   2.741  1.00  0.00    -0.015 A 
ATOM      9  C   UNL     1       2.962  -0.499   0.342  1.00  0.00    -0.036 A 
ATOM     10  C   UNL     1       2.413  -0.763   1.570  1.00  0.00    -0.125 A 
ATOM     11  C   UNL     1       2.187  -1.128  -0.600  1.00  0.00     0.050 A 
ATOM     12  N   UNL     1       1.314  -1.533   1.472  1.00  0.00    -0.610 NA
ENDBRANCH   1   4
BRANCH   1  13
ATOM     13  C   UNL     1      -0.975  -1.592  -0.715  1.00  0.00     0.246 A 
ATOM     14  C   UNL     1      -1.962  -1.211   0.181  1.00  0.00     0.183 A 
ATOM     15  N   UNL     1      -1.097  -0.923  -1.888  1.00  0.00    -0.177 NA
ATOM     16  N   UNL     1      -2.718  -0.305  -0.453  1.00  0.00    -0.301 N 
ATOM     17  C   UNL     1      -2.185  -0.153  -1.678  1.00  0.00     0.143 A 
ATOM     18  C   UNL     1      -3.807   0.378  -0.018  1.00  0.00     0.093 A 
ATOM     19  C   UNL     1      -2.741   0.740  -2.592  1.00  0.00     0.048 A 
ATOM     20  C   UNL     1      -4.410   1.289  -0.897  1.00  0.00     0.018 A 
ATOM     21  C   UNL     1      -3.873   1.467  -2.187  1.00  0.00     0.005 A 
ENDBRANCH   1  13
TORSDOF 2


