REMARK SMILES [O-]/C(=N\[C@H]1Cc2ccccc2[C@H]1O)C1CCCC1
REMARK SMILES IDX 12 1 11 2 10 3 9 4 8 5 7 6 6 7 5 8 4 9 13 10 3 12 2 13 1 14
REMARK SMILES IDX 14 15 15 16 18 17 16 18 17 19
REMARK H PARENT 13 11
ROOT
ATOM      1  C   UNL     1      -1.023  -0.091   0.292  1.00  0.00     0.169 C 
ATOM      2  C   UNL     1      -1.741  -0.457  -0.953  1.00  0.00    -0.014 A 
ATOM      3  C   UNL     1      -3.004  -1.047  -1.050  1.00  0.00     0.007 A 
ATOM      4  C   UNL     1      -3.511  -1.351  -2.322  1.00  0.00     0.000 A 
ATOM      5  C   UNL     1      -2.751  -1.070  -3.472  1.00  0.00     0.000 A 
ATOM      6  C   UNL     1      -1.482  -0.483  -3.352  1.00  0.00     0.004 A 
ATOM      7  C   UNL     1      -1.000  -0.180  -2.076  1.00  0.00    -0.040 A 
ATOM      8  C   UNL     1       0.314   0.417  -1.742  1.00  0.00     0.066 C 
ATOM      9  C   UNL     1       0.200   0.714  -0.232  1.00  0.00     0.142 C 
ENDROOT
BRANCH   1  10
ATOM     10  O   UNL     1      -0.631  -1.267   0.952  1.00  0.00    -0.386 OA
ATOM     11  H   UNL     1      -0.543  -1.039   1.914  1.00  0.00     0.211 HD
ENDBRANCH   1  10
BRANCH   9  12
ATOM     12  N   UNL     1       1.444   0.364   0.455  1.00  0.00    -0.298 NA
BRANCH  12  13
ATOM     13  C   UNL     1       1.731   0.732   1.668  1.00  0.00    -0.039 C 
ATOM     14  O   UNL     1       0.838   1.510   2.401  1.00  0.00    -0.862 OA
BRANCH  13  15
ATOM     15  C   UNL     1       3.032   0.298   2.287  1.00  0.00     0.022 C 
ATOM     16  C   UNL     1       3.864   1.471   2.788  1.00  0.00     0.009 C 
ATOM     17  C   UNL     1       2.824  -0.584   3.511  1.00  0.00     0.009 C 
ATOM     18  C   UNL     1       4.741   0.898   3.894  1.00  0.00     0.001 C 
ATOM     19  C   UNL     1       4.075  -0.397   4.362  1.00  0.00     0.001 C 
ENDBRANCH  13  15
ENDBRANCH  12  13
ENDBRANCH   9  12
TORSDOF 4


