REMARK SMILES Cc1cc(N)c([N-]C(=O)OC(C)(C)C)c(-n2nc3ccccc3n2)c1
REMARK SMILES IDX 7 1 6 2 2 3 3 4 25 5 4 6 15 7 1 8 5 9 16 12 17 13 24 14
REMARK SMILES IDX 18 15 23 16 19 17 22 18 20 19 21 20 8 21 9 22 10 23 11 24
REMARK SMILES IDX 12 25 13 26 14 27
REMARK H PARENT 5 10 5 11
ROOT
ATOM      1  N   UNL     1      -2.081   0.761  -1.231  1.00  0.00    -0.587 NA
ENDROOT
BRANCH   1   2
ATOM      2  C   UNL     1      -1.214   1.857  -0.907  1.00  0.00    -0.080 A 
ATOM      3  C   UNL     1       0.591   3.969  -0.436  1.00  0.00    -0.047 A 
ATOM      4  C   UNL     1      -0.334   4.051  -1.482  1.00  0.00     0.027 A 
ATOM      5  C   UNL     1       0.574   2.855   0.412  1.00  0.00     0.032 A 
ATOM      6  C   UNL     1      -1.233   3.005  -1.726  1.00  0.00     0.019 A 
ATOM      7  C   UNL     1      -0.332   1.804   0.202  1.00  0.00     0.073 A 
ATOM      8  C   UNL     1       1.530   5.108  -0.166  1.00  0.00     0.044 C 
BRANCH   6   9
ATOM      9  N   UNL     1      -2.144   3.107  -2.828  1.00  0.00    -0.400 N 
ATOM     10  H   UNL     1      -2.144   3.953  -3.441  1.00  0.00     0.156 HD
ATOM     11  H   UNL     1      -2.830   2.352  -3.046  1.00  0.00     0.156 HD
ENDBRANCH   6   9
BRANCH   7  12
ATOM     12  N   UNL     1      -0.381   0.728   1.154  1.00  0.00    -0.152 N 
ATOM     13  N   UNL     1       0.696   0.263   1.786  1.00  0.00    -0.148 NA
ATOM     14  N   UNL     1      -1.507   0.120   1.528  1.00  0.00    -0.148 NA
ATOM     15  C   UNL     1       0.228  -0.702   2.592  1.00  0.00     0.113 A 
ATOM     16  C   UNL     1      -1.119  -0.789   2.433  1.00  0.00     0.113 A 
ATOM     17  C   UNL     1       0.930  -1.536   3.456  1.00  0.00     0.032 A 
ATOM     18  C   UNL     1      -1.890  -1.719   3.124  1.00  0.00     0.032 A 
ATOM     19  C   UNL     1       0.186  -2.492   4.176  1.00  0.00     0.002 A 
ATOM     20  C   UNL     1      -1.217  -2.583   4.011  1.00  0.00     0.002 A 
ENDBRANCH   7  12
ENDBRANCH   1   2
BRANCH   1  21
ATOM     21  C   UNL     1      -1.645  -0.594  -1.374  1.00  0.00     0.233 C 
ATOM     22  O   UNL     1      -2.499  -1.487  -1.613  1.00  0.00    -0.274 OA
BRANCH  21  23
ATOM     23  O   UNL     1      -0.279  -0.904  -1.270  1.00  0.00    -0.472 OA
BRANCH  23  24
ATOM     24  C   UNL     1       0.317  -2.198  -1.441  1.00  0.00     0.102 C 
ATOM     25  C   UNL     1       1.827  -2.034  -1.214  1.00  0.00     0.056 C 
ATOM     26  C   UNL     1      -0.234  -3.200  -0.407  1.00  0.00     0.056 C 
ATOM     27  C   UNL     1       0.080  -2.714  -2.872  1.00  0.00     0.056 C 
ENDBRANCH  23  24
ENDBRANCH  21  23
ENDBRANCH   1  21
TORSDOF 6


