REMARK SMILES Cc1ccc([NH2+]c2[n-]cnc2[N+](=O)[O-])c(-c2ccc3c(c2)[N-]C(=O)C3)c1
REMARK SMILES IDX 6 1 5 4 2 5 3 6 26 7 4 8 15 9 1 10 16 11 17 12 21 13 18 14
REMARK SMILES IDX 20 15 19 16 22 17 25 18 23 19 24 20 7 21 8 22 11 23 9 24
REMARK SMILES IDX 10 25 12 26 13 27 14 28
REMARK H PARENT 6 2 6 3
ROOT
ATOM      1  N   UNL     1       0.894  -0.721   1.500  1.00  0.00    -0.276 N 
ATOM      2  H   UNL     1       0.389   0.172   1.675  1.00  0.00     0.358 HD
ATOM      3  H   UNL     1       1.605  -0.827   2.260  1.00  0.00     0.358 HD
ENDROOT
BRANCH   1   4
ATOM      4  C   UNL     1       1.529  -0.645   0.202  1.00  0.00     0.142 A 
ATOM      5  C   UNL     1       2.803  -0.587  -2.317  1.00  0.00    -0.050 A 
ATOM      6  C   UNL     1       3.521  -0.943  -1.169  1.00  0.00     0.009 A 
ATOM      7  C   UNL     1       1.439  -0.287  -2.212  1.00  0.00     0.018 A 
ATOM      8  C   UNL     1       2.892  -0.970   0.077  1.00  0.00     0.069 A 
ATOM      9  C   UNL     1       0.797  -0.297  -0.963  1.00  0.00     0.043 A 
ATOM     10  C   UNL     1       3.474  -0.604  -3.658  1.00  0.00     0.044 C 
BRANCH   9  11
ATOM     11  C   UNL     1      -0.647   0.005  -0.910  1.00  0.00    -0.014 A 
ATOM     12  C   UNL     1      -1.576  -0.909  -1.457  1.00  0.00     0.009 A 
ATOM     13  C   UNL     1      -1.105   1.192  -0.302  1.00  0.00    -0.007 A 
ATOM     14  C   UNL     1      -2.955  -0.657  -1.375  1.00  0.00     0.003 A 
ATOM     15  C   UNL     1      -2.479   1.418  -0.236  1.00  0.00    -0.130 A 
ATOM     16  C   UNL     1      -3.382   0.516  -0.755  1.00  0.00    -0.057 A 
ATOM     17  N   UNL     1      -3.104   2.537   0.369  1.00  0.00    -0.626 NA
ATOM     18  C   UNL     1      -4.776   0.981  -0.525  1.00  0.00     0.089 C 
ATOM     19  C   UNL     1      -4.494   2.267   0.191  1.00  0.00     0.059 C 
ATOM     20  O   UNL     1      -5.392   3.048   0.602  1.00  0.00    -0.320 OA
ENDBRANCH   9  11
ENDBRANCH   1   4
BRANCH   1  21
ATOM     21  C   UNL     1       0.011  -1.858   1.558  1.00  0.00     0.232 A 
ATOM     22  N   UNL     1       0.378  -3.099   1.188  1.00  0.00    -0.344 NA
ATOM     23  C   UNL     1      -1.313  -1.881   1.962  1.00  0.00     0.422 A 
ATOM     24  C   UNL     1      -0.742  -3.834   1.359  1.00  0.00     0.247 A 
ATOM     25  N   UNL     1      -1.796  -3.127   1.822  1.00  0.00    -0.045 NA
BRANCH  23  26
ATOM     26  N   UNL     1      -2.100  -0.794   2.467  1.00  0.00    -0.018 N 
ATOM     27  O   UNL     1      -1.560   0.189   3.013  1.00  0.00    -0.358 OA
ATOM     28  O   UNL     1      -3.466  -0.932   2.548  1.00  0.00    -0.358 OA
ENDBRANCH  23  26
ENDBRANCH   1  21
TORSDOF 4


