REMARK SMILES C=Cc1ccc(-c2cc3cc[nH]c3cc2Nc2cc(F)c([O-])cc2N)nc1
REMARK SMILES IDX 7 1 8 2 9 3 10 4 11 5 12 6 13 7 14 8 15 9 6 11 3 12 4 13
REMARK SMILES IDX 27 14 5 15 26 16 2 17 1 18 16 19 17 21 18 22 24 23 19 24
REMARK SMILES IDX 23 25 21 26 20 27 22 28 25 29
REMARK H PARENT 12 10 16 20 25 30 25 31
ROOT
ATOM      1  C   UNL     1       0.048  -1.357   1.481  1.00  0.00     0.024 A 
ATOM      2  C   UNL     1       0.478  -2.218   2.517  1.00  0.00     0.022 A 
ATOM      3  C   UNL     1      -0.488  -2.849   3.293  1.00  0.00     0.000 A 
ATOM      4  C   UNL     1      -0.357  -3.733   4.342  1.00  0.00     0.028 A 
ATOM      5  C   UNL     1      -1.659  -4.042   4.720  1.00  0.00     0.083 A 
ATOM      6  N   UNL     1      -2.552  -3.385   3.945  1.00  0.00    -0.361 N 
ATOM      7  C   UNL     1      -1.824  -2.663   3.078  1.00  0.00     0.047 A 
ATOM      8  C   UNL     1      -2.294  -1.818   2.078  1.00  0.00     0.053 A 
ATOM      9  C   UNL     1      -1.353  -1.133   1.280  1.00  0.00     0.050 A 
ATOM     10  H   UNL     1      -3.593  -3.433   4.010  1.00  0.00     0.166 HD
ENDROOT
BRANCH   1  11
ATOM     11  C   UNL     1       1.061  -0.751   0.590  1.00  0.00     0.072 A 
ATOM     12  C   UNL     1       2.880   0.477  -1.139  1.00  0.00    -0.008 A 
ATOM     13  C   UNL     1       3.082   0.525   0.248  1.00  0.00     0.012 A 
ATOM     14  C   UNL     1       1.764  -0.230  -1.625  1.00  0.00     0.119 A 
ATOM     15  C   UNL     1       2.176  -0.086   1.115  1.00  0.00     0.030 A 
ATOM     16  N   UNL     1       0.895  -0.815  -0.759  1.00  0.00    -0.256 NA
BRANCH  12  17
ATOM     17  C   UNL     1       3.858   1.149  -2.029  1.00  0.00     0.002 C 
ATOM     18  C   UNL     1       3.614   1.467  -3.301  1.00  0.00     0.009 C 
ENDBRANCH  12  17
ENDBRANCH   1  11
BRANCH   9  19
ATOM     19  N   UNL     1      -1.841  -0.212   0.287  1.00  0.00    -0.353 N 
ATOM     20  H   UNL     1      -2.731  -0.452  -0.204  1.00  0.00     0.167 HD
BRANCH  19  21
ATOM     21  C   UNL     1      -1.307   1.113   0.106  1.00  0.00     0.065 A 
ATOM     22  C   UNL     1      -0.831   1.839   1.214  1.00  0.00     0.066 A 
ATOM     23  C   UNL     1      -1.259   1.702  -1.179  1.00  0.00     0.055 A 
ATOM     24  C   UNL     1      -0.303   3.121   1.049  1.00  0.00     0.117 A 
ATOM     25  C   UNL     1      -0.732   2.994  -1.328  1.00  0.00     0.022 A 
ATOM     26  C   UNL     1      -0.253   3.699  -0.221  1.00  0.00    -0.070 A 
ATOM     27  F   UNL     1       0.159   3.803   2.127  1.00  0.00    -0.208 F 
ATOM     28  O   UNL     1       0.274   4.974  -0.386  1.00  0.00    -0.870 OA
BRANCH  23  29
ATOM     29  N   UNL     1      -1.688   0.985  -2.344  1.00  0.00    -0.397 N 
ATOM     30  H   UNL     1      -1.968  -0.019  -2.304  1.00  0.00     0.156 HD
ATOM     31  H   UNL     1      -1.672   1.442  -3.283  1.00  0.00     0.156 HD
ENDBRANCH  23  29
ENDBRANCH  19  21
ENDBRANCH   9  19
TORSDOF 5


