REMARK SMILES Cc1ccc(-c2ccc(N(C(=O)[C@@H](C)C(F)(F)F)c3cc4ccccc4[n-]3)c(C=O)c2)cc1
REMARK SMILES IDX 10 1 9 2 6 3 7 4 31 5 8 6 28 7 5 8 2 9 3 10 33 11 4 12 32 13
REMARK SMILES IDX 1 14 29 15 30 16 11 17 12 18 13 19 14 20 15 21 16 22 17 23
REMARK SMILES IDX 18 24 19 25 20 26 27 27 21 28 26 29 22 30 25 31 23 32 24 33
REMARK H PARENT
ROOT
ATOM      1  N   UNL     1      -0.572   2.628   1.242  1.00  0.00    -0.387 N 
ENDROOT
BRANCH   1   2
ATOM      2  C   UNL     1      -0.297   1.219   1.157  1.00  0.00    -0.025 A 
ATOM      3  C   UNL     1       0.362  -1.519   1.016  1.00  0.00    -0.018 A 
ATOM      4  C   UNL     1       0.913  -0.703   2.017  1.00  0.00     0.009 A 
ATOM      5  C   UNL     1      -0.528  -0.953   0.087  1.00  0.00     0.020 A 
ATOM      6  C   UNL     1       0.588   0.651   2.082  1.00  0.00     0.005 A 
ATOM      7  C   UNL     1      -0.872   0.408   0.148  1.00  0.00     0.018 A 
BRANCH   3   8
ATOM      8  C   UNL     1       0.713  -2.960   0.943  1.00  0.00    -0.018 A 
ATOM      9  C   UNL     1       1.392  -5.694   0.807  1.00  0.00    -0.051 A 
ATOM     10  C   UNL     1       1.139  -5.090   2.046  1.00  0.00     0.004 A 
ATOM     11  C   UNL     1       1.282  -4.934  -0.366  1.00  0.00     0.004 A 
ATOM     12  C   UNL     1       0.809  -3.733   2.115  1.00  0.00     0.009 A 
ATOM     13  C   UNL     1       0.951  -3.577  -0.298  1.00  0.00     0.009 A 
ATOM     14  C   UNL     1       1.708  -7.159   0.731  1.00  0.00     0.044 C 
ENDBRANCH   3   8
BRANCH   7  15
ATOM     15  C   UNL     1      -1.847   0.924  -0.842  1.00  0.00     0.260 C 
ATOM     16  O   UNL     1      -2.326   2.085  -0.762  1.00  0.00    -0.298 OA
ENDBRANCH   7  15
ENDBRANCH   1   2
BRANCH   1  17
ATOM     17  C   UNL     1      -1.420   3.129   2.298  1.00  0.00     0.163 C 
ATOM     18  O   UNL     1      -1.238   4.295   2.746  1.00  0.00    -0.298 OA
BRANCH  17  19
ATOM     19  C   UNL     1      -2.515   2.275   2.904  1.00  0.00     0.159 C 
ATOM     20  C   UNL     1      -2.147   1.886   4.342  1.00  0.00     0.026 C 
BRANCH  19  21
ATOM     21  C   UNL     1      -3.877   2.990   2.843  1.00  0.00     0.398 C 
ATOM     22  F   UNL     1      -3.874   4.128   3.631  1.00  0.00    -0.170 F 
ATOM     23  F   UNL     1      -4.161   3.349   1.537  1.00  0.00    -0.170 F 
ATOM     24  F   UNL     1      -4.875   2.141   3.290  1.00  0.00    -0.170 F 
ENDBRANCH  19  21
ENDBRANCH  17  19
ENDBRANCH   1  17
BRANCH   1  25
ATOM     25  C   UNL     1       0.097   3.534   0.339  1.00  0.00    -0.051 A 
ATOM     26  C   UNL     1       1.115   3.172  -0.545  1.00  0.00     0.008 A 
ATOM     27  N   UNL     1      -0.228   4.847   0.227  1.00  0.00    -0.435 NA
ATOM     28  C   UNL     1       1.418   4.330  -1.214  1.00  0.00    -0.023 A 
ATOM     29  C   UNL     1       0.597   5.313  -0.728  1.00  0.00    -0.034 A 
ATOM     30  C   UNL     1       2.355   4.579  -2.216  1.00  0.00     0.008 A 
ATOM     31  C   UNL     1       0.657   6.619  -1.212  1.00  0.00     0.004 A 
ATOM     32  C   UNL     1       2.438   5.889  -2.723  1.00  0.00     0.001 A 
ATOM     33  C   UNL     1       1.593   6.904  -2.224  1.00  0.00     0.000 A 
ENDBRANCH   1  25
TORSDOF 7


