REMARK SMILES Nc1ccc(-c2ccc3cc[nH]c(=O)c3c2)cc1C=O
REMARK SMILES IDX 2 1 3 2 4 3 5 4 17 5 18 6 1 7 19 10 20 11 6 12 7 13 16 14
REMARK SMILES IDX 8 15 15 16 9 17 13 18 10 19 12 20 11 21 14 22
REMARK H PARENT 1 8 1 9 12 23
ROOT
ATOM      1  C   UNL     1      -2.213   1.285  -2.704  1.00  0.00     0.042 A 
ATOM      2  C   UNL     1      -0.833   1.515  -2.611  1.00  0.00     0.027 A 
ATOM      3  C   UNL     1      -0.077   0.929  -1.596  1.00  0.00     0.011 A 
ATOM      4  C   UNL     1      -0.686   0.093  -0.648  1.00  0.00    -0.018 A 
ATOM      5  C   UNL     1      -2.072  -0.126  -0.725  1.00  0.00     0.022 A 
ATOM      6  C   UNL     1      -2.850   0.478  -1.727  1.00  0.00     0.038 A 
ENDROOT
BRANCH   1   7
ATOM      7  N   UNL     1      -2.924   1.832  -3.824  1.00  0.00    -0.398 N 
ATOM      8  H   UNL     1      -3.833   1.439  -4.147  1.00  0.00     0.156 HD
ATOM      9  H   UNL     1      -2.467   2.537  -4.444  1.00  0.00     0.156 HD
ENDBRANCH   1   7
BRANCH   6  10
ATOM     10  C   UNL     1      -4.313   0.264  -1.677  1.00  0.00     0.262 C 
ATOM     11  O   UNL     1      -5.121   1.097  -2.164  1.00  0.00    -0.298 OA
ENDBRANCH   6  10
BRANCH   4  12
ATOM     12  C   UNL     1       0.121  -0.543   0.424  1.00  0.00    -0.018 A 
ATOM     13  C   UNL     1      -0.109  -1.881   0.788  1.00  0.00     0.009 A 
ATOM     14  C   UNL     1       1.125   0.185   1.090  1.00  0.00     0.023 A 
ATOM     15  C   UNL     1       0.647  -2.485   1.794  1.00  0.00     0.009 A 
ATOM     16  C   UNL     1       1.892  -0.415   2.106  1.00  0.00     0.048 A 
ATOM     17  C   UNL     1       1.647  -1.762   2.458  1.00  0.00    -0.011 A 
ATOM     18  C   UNL     1       2.902   0.292   2.791  1.00  0.00     0.255 A 
ATOM     19  C   UNL     1       2.407  -2.362   3.468  1.00  0.00     0.027 A 
ATOM     20  N   UNL     1       3.622  -0.326   3.769  1.00  0.00    -0.329 N 
ATOM     21  C   UNL     1       3.396  -1.622   4.115  1.00  0.00     0.086 A 
ATOM     22  O   UNL     1       3.150   1.496   2.506  1.00  0.00    -0.269 OA
ATOM     23  H   UNL     1       4.369   0.205   4.272  1.00  0.00     0.169 HD
ENDBRANCH   4  12
TORSDOF 3


