REMARK SMILES Cc1cc(F)[nH+]cc1-c1ccc2cc([NH2+]c3cn4ccccc4n3)[nH]c2c1
REMARK SMILES IDX 9 1 10 2 11 3 12 4 13 5 14 6 25 7 26 8 27 9 8 11 2 12 3 13
REMARK SMILES IDX 4 14 7 15 6 16 1 17 5 18 15 20 16 23 17 24 24 25 18 26 23 27
REMARK SMILES IDX 19 28 22 29 20 30 21 31
REMARK H PARENT 25 10 6 19 15 21 15 22
ROOT
ATOM      1  C   UNL     1       2.885   1.132   2.148  1.00  0.00    -0.010 A 
ATOM      2  C   UNL     1       3.517  -0.066   1.724  1.00  0.00     0.010 A 
ATOM      3  C   UNL     1       2.761  -1.126   1.191  1.00  0.00     0.011 A 
ATOM      4  C   UNL     1       1.382  -0.963   1.106  1.00  0.00     0.006 A 
ATOM      5  C   UNL     1       0.409  -1.812   0.625  1.00  0.00     0.099 A 
ATOM      6  C   UNL     1      -0.782  -1.109   0.795  1.00  0.00     0.209 A 
ATOM      7  N   UNL     1      -0.566   0.113   1.336  1.00  0.00    -0.310 N 
ATOM      8  C   UNL     1       0.762   0.186   1.525  1.00  0.00     0.051 A 
ATOM      9  C   UNL     1       1.481   1.256   2.054  1.00  0.00     0.035 A 
ATOM     10  H   UNL     1      -1.278   0.848   1.543  1.00  0.00     0.172 HD
ENDROOT
BRANCH   1  11
ATOM     11  C   UNL     1       3.696   2.234   2.712  1.00  0.00     0.049 A 
ATOM     12  C   UNL     1       3.711   3.530   2.143  1.00  0.00    -0.028 A 
ATOM     13  C   UNL     1       4.471   4.535   2.760  1.00  0.00     0.118 A 
ATOM     14  C   UNL     1       5.226   4.238   3.894  1.00  0.00     0.358 A 
ATOM     15  C   UNL     1       4.485   1.985   3.846  1.00  0.00     0.317 A 
ATOM     16  N   UNL     1       5.224   2.980   4.407  1.00  0.00    -0.186 N 
ATOM     17  C   UNL     1       2.922   3.868   0.905  1.00  0.00     0.045 C 
ATOM     18  F   UNL     1       5.968   5.208   4.483  1.00  0.00    -0.136 F 
ATOM     19  H   UNL     1       5.797   2.772   5.255  1.00  0.00     0.456 HD
ENDBRANCH   1  11
BRANCH   6  20
ATOM     20  N   UNL     1      -2.071  -1.563   0.359  1.00  0.00    -0.249 N 
ATOM     21  H   UNL     1      -2.808  -1.190   1.000  1.00  0.00     0.361 HD
ATOM     22  H   UNL     1      -2.108  -2.609   0.376  1.00  0.00     0.361 HD
BRANCH  20  23
ATOM     23  C   UNL     1      -2.308  -1.088  -0.972  1.00  0.00     0.249 A 
ATOM     24  C   UNL     1      -1.915  -1.734  -2.134  1.00  0.00     0.183 A 
ATOM     25  N   UNL     1      -2.864   0.117  -1.248  1.00  0.00    -0.177 NA
ATOM     26  N   UNL     1      -2.249  -0.924  -3.147  1.00  0.00    -0.301 N 
ATOM     27  C   UNL     1      -2.811   0.166  -2.595  1.00  0.00     0.143 A 
ATOM     28  C   UNL     1      -2.079  -1.086  -4.484  1.00  0.00     0.093 A 
ATOM     29  C   UNL     1      -3.263   1.216  -3.392  1.00  0.00     0.048 A 
ATOM     30  C   UNL     1      -2.518  -0.061  -5.335  1.00  0.00     0.018 A 
ATOM     31  C   UNL     1      -3.111   1.092  -4.783  1.00  0.00     0.005 A 
ENDBRANCH  20  23
ENDBRANCH   6  20
TORSDOF 3


