MODEL 1
REMARK VINA RESULT:      -3.9      0.000      0.000
REMARK SMILES C=C[C@H]1CN[C@H](c2c[nH+]c3ocnc3c2)N(/C(S)=N\c2cccc(SC(F)(F)F)c2)C1
REMARK SMILES IDX 19 1 17 2 18 3 16 5 31 6 6 7 3 8 5 9 4 10 7 12 15 13 8 14
REMARK SMILES IDX 14 15 9 16 13 17 10 18 12 19 11 20 2 22 1 23 20 24 21 25
REMARK SMILES IDX 30 26 22 27 24 28 23 29 25 30 26 31 27 32 28 33 29 34
REMARK H PARENT 18 4 5 11 9 21
ROOT
ATOM      1  N   UNL     1      45.295 131.054  19.404  1.00  0.00    -0.225 NA
ENDROOT
BRANCH   1   2
ATOM      2  C   UNL     1      44.566 131.704  20.267  1.00  0.00     0.162 C 
BRANCH   2   3
ATOM      3  S   UNL     1      42.789 131.689  20.059  1.00  0.00    -0.106 SA
ATOM      4  H   UNL     1      42.859 132.479  18.896  1.00  0.00     0.111 HD
ENDBRANCH   2   3
BRANCH   2   5
ATOM      5  N   UNL     1      45.137 132.497  21.329  1.00  0.00    -0.331 N 
ATOM      6  C   UNL     1      46.007 133.624  20.969  1.00  0.00     0.129 C 
ATOM      7  C   UNL     1      44.818 132.294  22.763  1.00  0.00     0.189 C 
ATOM      8  C   UNL     1      47.250 133.630  21.859  1.00  0.00     0.045 C 
ATOM      9  N   UNL     1      46.054 132.330  23.566  1.00  0.00    -0.293 NA
ATOM     10  C   UNL     1      46.818 133.559  23.328  1.00  0.00     0.092 C 
ATOM     11  H   UNL     1      45.787 132.320  24.580  1.00  0.00     0.125 HD
BRANCH   7  12
ATOM     12  C   UNL     1      44.123 130.973  23.026  1.00  0.00     0.055 A 
ATOM     13  C   UNL     1      42.872 130.943  23.687  1.00  0.00     0.053 A 
ATOM     14  C   UNL     1      44.736 129.743  22.654  1.00  0.00     0.317 A 
ATOM     15  C   UNL     1      42.286 129.701  23.893  1.00  0.00     0.179 A 
ATOM     16  N   UNL     1      44.108 128.551  22.888  1.00  0.00    -0.177 N 
ATOM     17  N   UNL     1      41.104 129.415  24.462  1.00  0.00    -0.209 NA
ATOM     18  C   UNL     1      42.899 128.561  23.498  1.00  0.00     0.399 A 
ATOM     19  C   UNL     1      41.071 128.056  24.374  1.00  0.00     0.316 A 
ATOM     20  O   UNL     1      42.146 127.540  23.796  1.00  0.00    -0.391 OA
ATOM     21  H   UNL     1      44.552 127.650  22.602  1.00  0.00     0.457 HD
ENDBRANCH   7  12
BRANCH   8  22
ATOM     22  C   UNL     1      48.063 134.877  21.609  1.00  0.00    -0.028 C 
ATOM     23  C   UNL     1      49.041 135.257  22.436  1.00  0.00     0.004 C 
ENDBRANCH   8  22
ENDBRANCH   2   5
ENDBRANCH   1   2
BRANCH   1  24
ATOM     24  C   UNL     1      45.146 131.053  17.977  1.00  0.00     0.067 A 
ATOM     25  C   UNL     1      44.010 131.648  17.413  1.00  0.00     0.028 A 
ATOM     26  C   UNL     1      46.061 130.388  17.145  1.00  0.00     0.043 A 
ATOM     27  C   UNL     1      43.831 131.651  16.026  1.00  0.00     0.003 A 
ATOM     28  C   UNL     1      45.882 130.389  15.757  1.00  0.00     0.018 A 
ATOM     29  C   UNL     1      44.769 131.028  15.198  1.00  0.00     0.015 A 
BRANCH  28  30
ATOM     30  S   UNL     1      47.037 129.512  14.697  1.00  0.00    -0.015 SA
BRANCH  30  31
ATOM     31  C   UNL     1      47.334 130.917  13.575  1.00  0.00     0.446 C 
ATOM     32  F   UNL     1      46.283 131.054  12.687  1.00  0.00    -0.160 F 
ATOM     33  F   UNL     1      47.481 132.080  14.305  1.00  0.00    -0.160 F 
ATOM     34  F   UNL     1      48.496 130.685  12.864  1.00  0.00    -0.160 F 
ENDBRANCH  30  31
ENDBRANCH  28  30
ENDBRANCH   1  24
TORSDOF 8
ENDMDL
MODEL 2
REMARK VINA RESULT:      -3.6      1.246      1.628
REMARK SMILES C=C[C@H]1CN[C@H](c2c[nH+]c3ocnc3c2)N(/C(S)=N\c2cccc(SC(F)(F)F)c2)C1
REMARK SMILES IDX 19 1 17 2 18 3 16 5 31 6 6 7 3 8 5 9 4 10 7 12 15 13 8 14
REMARK SMILES IDX 14 15 9 16 13 17 10 18 12 19 11 20 2 22 1 23 20 24 21 25
REMARK SMILES IDX 30 26 22 27 24 28 23 29 25 30 26 31 27 32 28 33 29 34
REMARK H PARENT 18 4 5 11 9 21
ROOT
ATOM      1  N   UNL     1      44.882 132.522  19.620  1.00  0.00    -0.225 NA
ENDROOT
BRANCH   1   2
ATOM      2  C   UNL     1      45.540 132.028  20.631  1.00  0.00     0.162 C 
BRANCH   2   3
ATOM      3  S   UNL     1      45.880 130.272  20.646  1.00  0.00    -0.106 SA
ATOM      4  H   UNL     1      44.825 130.000  19.755  1.00  0.00     0.111 HD
ENDBRANCH   2   3
BRANCH   2   5
ATOM      5  N   UNL     1      45.930 132.824  21.770  1.00  0.00    -0.331 N 
ATOM      6  C   UNL     1      47.063 133.746  21.623  1.00  0.00     0.129 C 
ATOM      7  C   UNL     1      45.189 132.832  23.055  1.00  0.00     0.189 C 
ATOM      8  C   UNL     1      47.984 133.641  22.839  1.00  0.00     0.045 C 
ATOM      9  N   UNL     1      46.133 132.747  24.184  1.00  0.00    -0.293 NA
ATOM     10  C   UNL     1      47.152 133.799  24.116  1.00  0.00     0.092 C 
ATOM     11  H   UNL     1      45.596 132.889  25.072  1.00  0.00     0.125 HD
BRANCH   7  12
ATOM     12  C   UNL     1      44.210 131.680  23.172  1.00  0.00     0.055 A 
ATOM     13  C   UNL     1      44.558 130.518  23.901  1.00  0.00     0.053 A 
ATOM     14  C   UNL     1      42.948 131.730  22.515  1.00  0.00     0.317 A 
ATOM     15  C   UNL     1      43.614 129.501  23.974  1.00  0.00     0.179 A 
ATOM     16  N   UNL     1      42.063 130.693  22.622  1.00  0.00    -0.177 N 
ATOM     17  N   UNL     1      43.693 128.328  24.622  1.00  0.00    -0.209 NA
ATOM     18  C   UNL     1      42.417 129.608  23.351  1.00  0.00     0.399 A 
ATOM     19  C   UNL     1      42.484 127.768  24.339  1.00  0.00     0.316 A 
ATOM     20  O   UNL     1      41.715 128.534  23.578  1.00  0.00    -0.391 OA
ATOM     21  H   UNL     1      41.131 130.737  22.152  1.00  0.00     0.457 HD
ENDBRANCH   7  12
BRANCH   8  22
ATOM     22  C   UNL     1      49.056 134.701  22.773  1.00  0.00    -0.028 C 
ATOM     23  C   UNL     1      49.155 135.539  21.737  1.00  0.00     0.004 C 
ENDBRANCH   8  22
ENDBRANCH   2   5
ENDBRANCH   1   2
BRANCH   1  24
ATOM     24  C   UNL     1      44.698 131.916  18.333  1.00  0.00     0.067 A 
ATOM     25  C   UNL     1      43.409 131.863  17.786  1.00  0.00     0.028 A 
ATOM     26  C   UNL     1      45.759 131.292  17.657  1.00  0.00     0.043 A 
ATOM     27  C   UNL     1      43.197 131.268  16.539  1.00  0.00     0.003 A 
ATOM     28  C   UNL     1      45.547 130.694  16.409  1.00  0.00     0.018 A 
ATOM     29  C   UNL     1      44.265 130.689  15.848  1.00  0.00     0.015 A 
BRANCH  28  30
ATOM     30  S   UNL     1      46.899 129.871  15.562  1.00  0.00    -0.015 SA
BRANCH  30  31
ATOM     31  C   UNL     1      46.968 131.048  14.172  1.00  0.00     0.446 C 
ATOM     32  F   UNL     1      48.138 130.878  13.455  1.00  0.00    -0.160 F 
ATOM     33  F   UNL     1      45.881 130.860  13.341  1.00  0.00    -0.160 F 
ATOM     34  F   UNL     1      46.931 132.336  14.673  1.00  0.00    -0.160 F 
ENDBRANCH  30  31
ENDBRANCH  28  30
ENDBRANCH   1  24
TORSDOF 8
ENDMDL
MODEL 3
REMARK VINA RESULT:      -3.2      2.845      4.460
REMARK SMILES C=C[C@H]1CN[C@H](c2c[nH+]c3ocnc3c2)N(/C(S)=N\c2cccc(SC(F)(F)F)c2)C1
REMARK SMILES IDX 19 1 17 2 18 3 16 5 31 6 6 7 3 8 5 9 4 10 7 12 15 13 8 14
REMARK SMILES IDX 14 15 9 16 13 17 10 18 12 19 11 20 2 22 1 23 20 24 21 25
REMARK SMILES IDX 30 26 22 27 24 28 23 29 25 30 26 31 27 32 28 33 29 34
REMARK H PARENT 18 4 5 11 9 21
ROOT
ATOM      1  N   UNL     1      45.119 129.846  19.306  1.00  0.00    -0.225 NA
ENDROOT
BRANCH   1   2
ATOM      2  C   UNL     1      45.675 130.062  20.465  1.00  0.00     0.162 C 
BRANCH   2   3
ATOM      3  S   UNL     1      46.732 131.494  20.645  1.00  0.00    -0.106 SA
ATOM      4  H   UNL     1      47.138 131.106  21.935  1.00  0.00     0.111 HD
ENDBRANCH   2   3
BRANCH   2   5
ATOM      5  N   UNL     1      45.537 129.153  21.577  1.00  0.00    -0.331 N 
ATOM      6  C   UNL     1      46.408 127.971  21.626  1.00  0.00     0.129 C 
ATOM      7  C   UNL     1      44.628 129.395  22.724  1.00  0.00     0.189 C 
ATOM      8  C   UNL     1      45.593 126.736  22.007  1.00  0.00     0.045 C 
ATOM      9  N   UNL     1      43.888 128.163  23.052  1.00  0.00    -0.293 NA
ATOM     10  C   UNL     1      44.793 127.032  23.281  1.00  0.00     0.092 C 
ATOM     11  H   UNL     1      43.359 128.325  23.942  1.00  0.00     0.125 HD
BRANCH   7  12
ATOM     12  C   UNL     1      43.619 130.492  22.448  1.00  0.00     0.055 A 
ATOM     13  C   UNL     1      43.513 131.056  21.155  1.00  0.00     0.053 A 
ATOM     14  C   UNL     1      42.797 131.002  23.493  1.00  0.00     0.317 A 
ATOM     15  C   UNL     1      42.565 132.054  20.967  1.00  0.00     0.179 A 
ATOM     16  N   UNL     1      41.885 131.990  23.244  1.00  0.00    -0.177 N 
ATOM     17  N   UNL     1      42.255 132.716  19.841  1.00  0.00    -0.209 NA
ATOM     18  C   UNL     1      41.790 132.487  21.988  1.00  0.00     0.399 A 
ATOM     19  C   UNL     1      41.266 133.550  20.267  1.00  0.00     0.316 A 
ATOM     20  O   UNL     1      40.983 133.415  21.555  1.00  0.00    -0.391 OA
ATOM     21  H   UNL     1      41.271 132.353  24.008  1.00  0.00     0.457 HD
ENDBRANCH   7  12
BRANCH   8  22
ATOM     22  C   UNL     1      46.507 125.555  22.222  1.00  0.00    -0.028 C 
ATOM     23  C   UNL     1      46.047 124.301  22.236  1.00  0.00     0.004 C 
ENDBRANCH   8  22
ENDBRANCH   2   5
ENDBRANCH   1   2
BRANCH   1  24
ATOM     24  C   UNL     1      45.458 130.466  18.059  1.00  0.00     0.067 A 
ATOM     25  C   UNL     1      44.930 131.731  17.764  1.00  0.00     0.028 A 
ATOM     26  C   UNL     1      46.222 129.797  17.089  1.00  0.00     0.043 A 
ATOM     27  C   UNL     1      45.231 132.355  16.550  1.00  0.00     0.003 A 
ATOM     28  C   UNL     1      46.523 130.421  15.872  1.00  0.00     0.018 A 
ATOM     29  C   UNL     1      46.032 131.705  15.608  1.00  0.00     0.015 A 
BRANCH  28  30
ATOM     30  S   UNL     1      47.475 129.551  14.624  1.00  0.00    -0.015 SA
BRANCH  30  31
ATOM     31  C   UNL     1      47.235 130.806  13.324  1.00  0.00     0.446 C 
ATOM     32  F   UNL     1      47.919 130.448  12.177  1.00  0.00    -0.160 F 
ATOM     33  F   UNL     1      45.889 130.939  13.041  1.00  0.00    -0.160 F 
ATOM     34  F   UNL     1      47.719 132.019  13.776  1.00  0.00    -0.160 F 
ENDBRANCH  30  31
ENDBRANCH  28  30
ENDBRANCH   1  24
TORSDOF 8
ENDMDL
MODEL 4
REMARK VINA RESULT:      -2.7      5.781      8.617
REMARK SMILES C=C[C@H]1CN[C@H](c2c[nH+]c3ocnc3c2)N(/C(S)=N\c2cccc(SC(F)(F)F)c2)C1
REMARK SMILES IDX 19 1 17 2 18 3 16 5 31 6 6 7 3 8 5 9 4 10 7 12 15 13 8 14
REMARK SMILES IDX 14 15 9 16 13 17 10 18 12 19 11 20 2 22 1 23 20 24 21 25
REMARK SMILES IDX 30 26 22 27 24 28 23 29 25 30 26 31 27 32 28 33 29 34
REMARK H PARENT 18 4 5 11 9 21
ROOT
ATOM      1  N   UNL     1      45.603 125.186  23.350  1.00  0.00    -0.225 NA
ENDROOT
BRANCH   1   2
ATOM      2  C   UNL     1      44.614 125.929  22.939  1.00  0.00     0.162 C 
BRANCH   2   3
ATOM      3  S   UNL     1      44.988 127.358  21.930  1.00  0.00    -0.106 SA
ATOM      4  H   UNL     1      45.001 128.216  23.046  1.00  0.00     0.111 HD
ENDBRANCH   2   3
BRANCH   2   5
ATOM      5  N   UNL     1      43.246 125.690  23.331  1.00  0.00    -0.331 N 
ATOM      6  C   UNL     1      42.699 124.337  23.173  1.00  0.00     0.129 C 
ATOM      7  C   UNL     1      42.388 126.716  23.972  1.00  0.00     0.189 C 
ATOM      8  C   UNL     1      41.300 124.405  22.562  1.00  0.00     0.045 C 
ATOM      9  N   UNL     1      41.050 126.718  23.352  1.00  0.00    -0.293 NA
ATOM     10  C   UNL     1      40.443 125.383  23.374  1.00  0.00     0.092 C 
ATOM     11  H   UNL     1      40.431 127.352  23.911  1.00  0.00     0.125 HD
BRANCH   7  12
ATOM     12  C   UNL     1      42.963 128.114  23.856  1.00  0.00     0.055 A 
ATOM     13  C   UNL     1      42.402 129.044  22.949  1.00  0.00     0.053 A 
ATOM     14  C   UNL     1      44.100 128.498  24.622  1.00  0.00     0.317 A 
ATOM     15  C   UNL     1      42.972 130.309  22.895  1.00  0.00     0.179 A 
ATOM     16  N   UNL     1      44.618 129.759  24.521  1.00  0.00    -0.177 N 
ATOM     17  N   UNL     1      42.607 131.364  22.148  1.00  0.00    -0.209 NA
ATOM     18  C   UNL     1      44.039 130.633  23.663  1.00  0.00     0.399 A 
ATOM     19  C   UNL     1      43.516 132.305  22.524  1.00  0.00     0.316 A 
ATOM     20  O   UNL     1      44.376 131.871  23.434  1.00  0.00    -0.391 OA
ATOM     21  H   UNL     1      45.443 130.045  25.094  1.00  0.00     0.457 HD
ENDBRANCH   7  12
BRANCH   8  22
ATOM     22  C   UNL     1      40.668 123.034  22.554  1.00  0.00    -0.028 C 
ATOM     23  C   UNL     1      39.648 122.724  23.358  1.00  0.00     0.004 C 
ENDBRANCH   8  22
ENDBRANCH   2   5
ENDBRANCH   1   2
BRANCH   1  24
ATOM     24  C   UNL     1      46.829 124.921  22.654  1.00  0.00     0.067 A 
ATOM     25  C   UNL     1      46.836 123.957  21.636  1.00  0.00     0.028 A 
ATOM     26  C   UNL     1      48.035 125.530  23.034  1.00  0.00     0.043 A 
ATOM     27  C   UNL     1      48.018 123.667  20.949  1.00  0.00     0.003 A 
ATOM     28  C   UNL     1      49.220 125.239  22.348  1.00  0.00     0.018 A 
ATOM     29  C   UNL     1      49.208 124.311  21.299  1.00  0.00     0.015 A 
BRANCH  28  30
ATOM     30  S   UNL     1      50.767 125.997  22.855  1.00  0.00    -0.015 SA
BRANCH  30  31
ATOM     31  C   UNL     1      51.832 124.711  22.124  1.00  0.00     0.446 C 
ATOM     32  F   UNL     1      53.045 125.252  21.741  1.00  0.00    -0.160 F 
ATOM     33  F   UNL     1      52.043 123.698  23.039  1.00  0.00    -0.160 F 
ATOM     34  F   UNL     1      51.202 124.185  21.012  1.00  0.00    -0.160 F 
ENDBRANCH  30  31
ENDBRANCH  28  30
ENDBRANCH   1  24
TORSDOF 8
ENDMDL
MODEL 5
REMARK VINA RESULT:      -1.6      2.940      4.449
REMARK SMILES C=C[C@H]1CN[C@H](c2c[nH+]c3ocnc3c2)N(/C(S)=N\c2cccc(SC(F)(F)F)c2)C1
REMARK SMILES IDX 19 1 17 2 18 3 16 5 31 6 6 7 3 8 5 9 4 10 7 12 15 13 8 14
REMARK SMILES IDX 14 15 9 16 13 17 10 18 12 19 11 20 2 22 1 23 20 24 21 25
REMARK SMILES IDX 30 26 22 27 24 28 23 29 25 30 26 31 27 32 28 33 29 34
REMARK H PARENT 18 4 5 11 9 21
ROOT
ATOM      1  N   UNL     1      45.368 129.491  19.311  1.00  0.00    -0.225 NA
ENDROOT
BRANCH   1   2
ATOM      2  C   UNL     1      45.618 129.853  20.538  1.00  0.00     0.162 C 
BRANCH   2   3
ATOM      3  S   UNL     1      46.349 131.462  20.815  1.00  0.00    -0.106 SA
ATOM      4  H   UNL     1      46.005 131.449  22.180  1.00  0.00     0.111 HD
ENDBRANCH   2   3
BRANCH   2   5
ATOM      5  N   UNL     1      45.406 128.979  21.667  1.00  0.00    -0.331 N 
ATOM      6  C   UNL     1      46.219 127.761  21.770  1.00  0.00     0.129 C 
ATOM      7  C   UNL     1      44.476 129.292  22.779  1.00  0.00     0.189 C 
ATOM      8  C   UNL     1      45.336 126.574  22.156  1.00  0.00     0.045 C 
ATOM      9  N   UNL     1      43.670 128.104  23.114  1.00  0.00    -0.293 NA
ATOM     10  C   UNL     1      44.515 126.939  23.397  1.00  0.00     0.092 C 
ATOM     11  H   UNL     1      43.124 128.313  23.984  1.00  0.00     0.125 HD
BRANCH   7  12
ATOM     12  C   UNL     1      43.528 130.427  22.447  1.00  0.00     0.055 A 
ATOM     13  C   UNL     1      43.364 130.852  21.108  1.00  0.00     0.053 A 
ATOM     14  C   UNL     1      42.825 131.112  23.479  1.00  0.00     0.317 A 
ATOM     15  C   UNL     1      42.477 131.894  20.870  1.00  0.00     0.179 A 
ATOM     16  N   UNL     1      41.967 132.134  23.180  1.00  0.00    -0.177 N 
ATOM     17  N   UNL     1      42.128 132.450  19.699  1.00  0.00    -0.209 NA
ATOM     18  C   UNL     1      41.812 132.495  21.885  1.00  0.00     0.399 A 
ATOM     19  C   UNL     1      41.235 133.400  20.092  1.00  0.00     0.316 A 
ATOM     20  O   UNL     1      41.042 133.430  21.402  1.00  0.00    -0.391 OA
ATOM     21  H   UNL     1      41.440 132.626  23.937  1.00  0.00     0.457 HD
ENDBRANCH   7  12
BRANCH   8  22
ATOM     22  C   UNL     1      46.187 125.358  22.427  1.00  0.00    -0.028 C 
ATOM     23  C   UNL     1      47.522 125.422  22.441  1.00  0.00     0.004 C 
ENDBRANCH   8  22
ENDBRANCH   2   5
ENDBRANCH   1   2
BRANCH   1  24
ATOM     24  C   UNL     1      45.428 130.316  18.140  1.00  0.00     0.067 A 
ATOM     25  C   UNL     1      45.210 131.694  18.268  1.00  0.00     0.028 A 
ATOM     26  C   UNL     1      45.604 129.763  16.861  1.00  0.00     0.043 A 
ATOM     27  C   UNL     1      45.249 132.522  17.142  1.00  0.00     0.003 A 
ATOM     28  C   UNL     1      45.642 130.591  15.733  1.00  0.00     0.018 A 
ATOM     29  C   UNL     1      45.471 131.973  15.877  1.00  0.00     0.015 A 
BRANCH  28  30
ATOM     30  S   UNL     1      45.837 129.878  14.096  1.00  0.00    -0.015 SA
BRANCH  30  31
ATOM     31  C   UNL     1      47.655 129.769  14.176  1.00  0.00     0.446 C 
ATOM     32  F   UNL     1      48.230 130.808  13.468  1.00  0.00    -0.160 F 
ATOM     33  F   UNL     1      48.072 129.817  15.492  1.00  0.00    -0.160 F 
ATOM     34  F   UNL     1      48.058 128.569  13.622  1.00  0.00    -0.160 F 
ENDBRANCH  30  31
ENDBRANCH  28  30
ENDBRANCH   1  24
TORSDOF 8
ENDMDL
MODEL 6
REMARK VINA RESULT:      -1.6      1.682      2.054
REMARK SMILES C=C[C@H]1CN[C@H](c2c[nH+]c3ocnc3c2)N(/C(S)=N\c2cccc(SC(F)(F)F)c2)C1
REMARK SMILES IDX 19 1 17 2 18 3 16 5 31 6 6 7 3 8 5 9 4 10 7 12 15 13 8 14
REMARK SMILES IDX 14 15 9 16 13 17 10 18 12 19 11 20 2 22 1 23 20 24 21 25
REMARK SMILES IDX 30 26 22 27 24 28 23 29 25 30 26 31 27 32 28 33 29 34
REMARK H PARENT 18 4 5 11 9 21
ROOT
ATOM      1  N   UNL     1      45.063 132.960  19.913  1.00  0.00    -0.225 NA
ENDROOT
BRANCH   1   2
ATOM      2  C   UNL     1      45.627 132.359  20.922  1.00  0.00     0.162 C 
BRANCH   2   3
ATOM      3  S   UNL     1      45.905 130.595  20.809  1.00  0.00    -0.106 SA
ATOM      4  H   UNL     1      47.278 130.734  21.085  1.00  0.00     0.111 HD
ENDBRANCH   2   3
BRANCH   2   5
ATOM      5  N   UNL     1      45.959 133.040  22.150  1.00  0.00    -0.331 N 
ATOM      6  C   UNL     1      47.068 134.002  22.138  1.00  0.00     0.129 C 
ATOM      7  C   UNL     1      45.180 132.892  23.403  1.00  0.00     0.189 C 
ATOM      8  C   UNL     1      47.955 133.794  23.365  1.00  0.00     0.045 C 
ATOM      9  N   UNL     1      46.092 132.715  24.548  1.00  0.00    -0.293 NA
ATOM     10  C   UNL     1      47.081 133.795  24.624  1.00  0.00     0.092 C 
ATOM     11  H   UNL     1      45.524 132.748  25.428  1.00  0.00     0.125 HD
BRANCH   7  12
ATOM     12  C   UNL     1      44.233 131.709  23.367  1.00  0.00     0.055 A 
ATOM     13  C   UNL     1      44.537 130.529  24.086  1.00  0.00     0.053 A 
ATOM     14  C   UNL     1      43.050 131.749  22.576  1.00  0.00     0.317 A 
ATOM     15  C   UNL     1      43.626 129.483  24.015  1.00  0.00     0.179 A 
ATOM     16  N   UNL     1      42.194 130.684  22.545  1.00  0.00    -0.177 N 
ATOM     17  N   UNL     1      43.671 128.287  24.623  1.00  0.00    -0.209 NA
ATOM     18  C   UNL     1      42.501 129.581  23.267  1.00  0.00     0.399 A 
ATOM     19  C   UNL     1      42.520 127.704  24.187  1.00  0.00     0.316 A 
ATOM     20  O   UNL     1      41.815 128.478  23.374  1.00  0.00    -0.391 OA
ATOM     21  H   UNL     1      41.318 130.720  21.976  1.00  0.00     0.457 HD
ENDBRANCH   7  12
BRANCH   8  22
ATOM     22  C   UNL     1      48.996 134.884  23.446  1.00  0.00    -0.028 C 
ATOM     23  C   UNL     1      50.028 134.936  22.599  1.00  0.00     0.004 C 
ENDBRANCH   8  22
ENDBRANCH   2   5
ENDBRANCH   1   2
BRANCH   1  24
ATOM     24  C   UNL     1      44.616 132.359  18.690  1.00  0.00     0.067 A 
ATOM     25  C   UNL     1      43.341 131.779  18.646  1.00  0.00     0.028 A 
ATOM     26  C   UNL     1      45.460 132.253  17.573  1.00  0.00     0.043 A 
ATOM     27  C   UNL     1      42.883 131.174  17.472  1.00  0.00     0.003 A 
ATOM     28  C   UNL     1      45.003 131.645  16.398  1.00  0.00     0.018 A 
ATOM     29  C   UNL     1      43.709 131.112  16.347  1.00  0.00     0.015 A 
BRANCH  28  30
ATOM     30  S   UNL     1      46.094 131.484  14.981  1.00  0.00    -0.015 SA
BRANCH  30  31
ATOM     31  C   UNL     1      46.423 129.708  15.224  1.00  0.00     0.446 C 
ATOM     32  F   UNL     1      47.193 129.215  14.186  1.00  0.00    -0.160 F 
ATOM     33  F   UNL     1      47.079 129.510  16.424  1.00  0.00    -0.160 F 
ATOM     34  F   UNL     1      45.221 129.028  15.255  1.00  0.00    -0.160 F 
ENDBRANCH  30  31
ENDBRANCH  28  30
ENDBRANCH   1  24
TORSDOF 8
ENDMDL
MODEL 7
REMARK VINA RESULT:      -1.3      1.040      1.585
REMARK SMILES C=C[C@H]1CN[C@H](c2c[nH+]c3ocnc3c2)N(/C(S)=N\c2cccc(SC(F)(F)F)c2)C1
REMARK SMILES IDX 19 1 17 2 18 3 16 5 31 6 6 7 3 8 5 9 4 10 7 12 15 13 8 14
REMARK SMILES IDX 14 15 9 16 13 17 10 18 12 19 11 20 2 22 1 23 20 24 21 25
REMARK SMILES IDX 30 26 22 27 24 28 23 29 25 30 26 31 27 32 28 33 29 34
REMARK H PARENT 18 4 5 11 9 21
ROOT
ATOM      1  N   UNL     1      45.478 130.775  19.604  1.00  0.00    -0.225 NA
ENDROOT
BRANCH   1   2
ATOM      2  C   UNL     1      44.715 131.591  20.273  1.00  0.00     0.162 C 
BRANCH   2   3
ATOM      3  S   UNL     1      42.988 131.704  19.817  1.00  0.00    -0.106 SA
ATOM      4  H   UNL     1      42.873 133.004  20.344  1.00  0.00     0.111 HD
ENDBRANCH   2   3
BRANCH   2   5
ATOM      5  N   UNL     1      45.221 132.461  21.307  1.00  0.00    -0.331 N 
ATOM      6  C   UNL     1      46.211 133.482  20.939  1.00  0.00     0.129 C 
ATOM      7  C   UNL     1      44.728 132.443  22.706  1.00  0.00     0.189 C 
ATOM      8  C   UNL     1      47.342 133.509  21.967  1.00  0.00     0.045 C 
ATOM      9  N   UNL     1      45.865 132.490  23.644  1.00  0.00    -0.293 NA
ATOM     10  C   UNL     1      46.743 133.632  23.372  1.00  0.00     0.092 C 
ATOM     11  H   UNL     1      45.485 132.611  24.613  1.00  0.00     0.125 HD
BRANCH   7  12
ATOM     12  C   UNL     1      43.908 131.207  23.020  1.00  0.00     0.055 A 
ATOM     13  C   UNL     1      44.469 129.918  22.861  1.00  0.00     0.053 A 
ATOM     14  C   UNL     1      42.551 131.322  23.436  1.00  0.00     0.317 A 
ATOM     15  C   UNL     1      43.667 128.827  23.171  1.00  0.00     0.179 A 
ATOM     16  N   UNL     1      41.811 130.208  23.723  1.00  0.00    -0.177 N 
ATOM     17  N   UNL     1      43.974 127.521  23.133  1.00  0.00    -0.209 NA
ATOM     18  C   UNL     1      42.389 128.991  23.587  1.00  0.00     0.399 A 
ATOM     19  C   UNL     1      42.810 126.945  23.544  1.00  0.00     0.316 A 
ATOM     20  O   UNL     1      41.857 127.824  23.819  1.00  0.00    -0.391 OA
ATOM     21  H   UNL     1      40.820 130.294  24.042  1.00  0.00     0.457 HD
ENDBRANCH   7  12
BRANCH   8  22
ATOM     22  C   UNL     1      48.271 134.665  21.687  1.00  0.00    -0.028 C 
ATOM     23  C   UNL     1      49.238 135.013  22.541  1.00  0.00     0.004 C 
ENDBRANCH   8  22
ENDBRANCH   2   5
ENDBRANCH   1   2
BRANCH   1  24
ATOM     24  C   UNL     1      45.451 130.531  18.191  1.00  0.00     0.067 A 
ATOM     25  C   UNL     1      45.022 129.281  17.725  1.00  0.00     0.028 A 
ATOM     26  C   UNL     1      45.933 131.479  17.274  1.00  0.00     0.043 A 
ATOM     27  C   UNL     1      44.997 129.010  16.354  1.00  0.00     0.003 A 
ATOM     28  C   UNL     1      45.910 131.208  15.900  1.00  0.00     0.018 A 
ATOM     29  C   UNL     1      45.434 129.974  15.442  1.00  0.00     0.015 A 
BRANCH  28  30
ATOM     30  S   UNL     1      46.555 132.409  14.732  1.00  0.00    -0.015 SA
BRANCH  30  31
ATOM     31  C   UNL     1      47.312 131.176  13.623  1.00  0.00     0.446 C 
ATOM     32  F   UNL     1      46.349 130.608  12.808  1.00  0.00    -0.160 F 
ATOM     33  F   UNL     1      48.284 131.774  12.846  1.00  0.00    -0.160 F 
ATOM     34  F   UNL     1      47.896 130.184  14.387  1.00  0.00    -0.160 F 
ENDBRANCH  30  31
ENDBRANCH  28  30
ENDBRANCH   1  24
TORSDOF 8
ENDMDL
MODEL 8
REMARK VINA RESULT:      -1.0      2.801      4.532
REMARK SMILES C=C[C@H]1CN[C@H](c2c[nH+]c3ocnc3c2)N(/C(S)=N\c2cccc(SC(F)(F)F)c2)C1
REMARK SMILES IDX 19 1 17 2 18 3 16 5 31 6 6 7 3 8 5 9 4 10 7 12 15 13 8 14
REMARK SMILES IDX 14 15 9 16 13 17 10 18 12 19 11 20 2 22 1 23 20 24 21 25
REMARK SMILES IDX 30 26 22 27 24 28 23 29 25 30 26 31 27 32 28 33 29 34
REMARK H PARENT 18 4 5 11 9 21
ROOT
ATOM      1  N   UNL     1      46.039 130.010  20.153  1.00  0.00    -0.225 NA
ENDROOT
BRANCH   1   2
ATOM      2  C   UNL     1      45.567 130.174  21.357  1.00  0.00     0.162 C 
BRANCH   2   3
ATOM      3  S   UNL     1      45.537 131.828  22.038  1.00  0.00    -0.106 SA
ATOM      4  H   UNL     1      45.448 132.416  20.763  1.00  0.00     0.111 HD
ENDBRANCH   2   3
BRANCH   2   5
ATOM      5  N   UNL     1      45.146 129.071  22.185  1.00  0.00    -0.331 N 
ATOM      6  C   UNL     1      45.937 127.834  22.158  1.00  0.00     0.129 C 
ATOM      7  C   UNL     1      44.010 129.148  23.136  1.00  0.00     0.189 C 
ATOM      8  C   UNL     1      45.010 126.621  22.074  1.00  0.00     0.045 C 
ATOM      9  N   UNL     1      43.168 127.944  23.019  1.00  0.00    -0.293 NA
ATOM     10  C   UNL     1      43.954 126.717  23.181  1.00  0.00     0.092 C 
ATOM     11  H   UNL     1      42.458 127.964  23.789  1.00  0.00     0.125 HD
BRANCH   7  12
ATOM     12  C   UNL     1      43.133 130.362  22.900  1.00  0.00     0.055 A 
ATOM     13  C   UNL     1      42.939 130.860  21.590  1.00  0.00     0.053 A 
ATOM     14  C   UNL     1      42.528 131.044  23.994  1.00  0.00     0.317 A 
ATOM     15  C   UNL     1      42.120 131.971  21.442  1.00  0.00     0.179 A 
ATOM     16  N   UNL     1      41.733 132.137  23.782  1.00  0.00    -0.177 N 
ATOM     17  N   UNL     1      41.761 132.605  20.314  1.00  0.00    -0.209 NA
ATOM     18  C   UNL     1      41.547 132.570  22.512  1.00  0.00     0.399 A 
ATOM     19  C   UNL     1      40.957 133.595  20.790  1.00  0.00     0.316 A 
ATOM     20  O   UNL     1      40.825 133.577  22.109  1.00  0.00    -0.391 OA
ATOM     21  H   UNL     1      41.278 132.629  24.583  1.00  0.00     0.457 HD
ENDBRANCH   7  12
BRANCH   8  22
ATOM     22  C   UNL     1      45.806 125.347  22.214  1.00  0.00    -0.028 C 
ATOM     23  C   UNL     1      45.804 124.637  23.346  1.00  0.00     0.004 C 
ENDBRANCH   8  22
ENDBRANCH   2   5
ENDBRANCH   1   2
BRANCH   1  24
ATOM     24  C   UNL     1      45.450 130.463  18.927  1.00  0.00     0.067 A 
ATOM     25  C   UNL     1      44.666 131.624  18.938  1.00  0.00     0.028 A 
ATOM     26  C   UNL     1      45.562 129.719  17.741  1.00  0.00     0.043 A 
ATOM     27  C   UNL     1      44.067 132.082  17.761  1.00  0.00     0.003 A 
ATOM     28  C   UNL     1      44.962 130.177  16.561  1.00  0.00     0.018 A 
ATOM     29  C   UNL     1      44.220 131.364  16.572  1.00  0.00     0.015 A 
BRANCH  28  30
ATOM     30  S   UNL     1      45.081 129.208  15.054  1.00  0.00    -0.015 SA
BRANCH  30  31
ATOM     31  C   UNL     1      46.580 130.041  14.438  1.00  0.00     0.446 C 
ATOM     32  F   UNL     1      46.251 130.962  13.459  1.00  0.00    -0.160 F 
ATOM     33  F   UNL     1      47.226 130.680  15.478  1.00  0.00    -0.160 F 
ATOM     34  F   UNL     1      47.430 129.095  13.897  1.00  0.00    -0.160 F 
ENDBRANCH  30  31
ENDBRANCH  28  30
ENDBRANCH   1  24
TORSDOF 8
ENDMDL


