REMARK SMILES C[C@H]1CC[C@@H](c2ccc3ncccc3c2)[C@H](F)N1C(=O)Oc1ccc([N+](=O)[O-])cc1
REMARK SMILES IDX 21 1 19 2 20 3 18 4 2 5 3 6 4 7 16 8 5 9 1 10 17 11 6 12
REMARK SMILES IDX 7 13 15 14 8 15 14 16 9 17 13 18 10 19 12 20 11 21 22 22
REMARK SMILES IDX 23 23 30 24 24 25 29 26 25 27 26 28 27 29 28 30
REMARK H PARENT
ROOT
ATOM      1  O   UNL     1      -1.275   1.995  -1.541  1.00  0.00    -0.410 OA
ENDROOT
BRANCH   1   2
ATOM      2  C   UNL     1      -1.048   1.006  -0.573  1.00  0.00     0.417 C 
ATOM      3  O   UNL     1      -2.015   0.538   0.088  1.00  0.00    -0.224 OA
BRANCH   2   4
ATOM      4  N   UNL     1       0.291   0.505  -0.363  1.00  0.00    -0.274 N 
ATOM      5  C   UNL     1       1.421   1.389  -0.718  1.00  0.00     0.088 C 
ATOM      6  C   UNL     1       2.684   0.580  -1.072  1.00  0.00     0.026 C 
ATOM      7  C   UNL     1       2.991  -0.495  -0.029  1.00  0.00     0.015 C 
ATOM      8  C   UNL     1       0.523  -0.638   0.546  1.00  0.00     0.275 C 
ATOM      9  C   UNL     1       1.783  -1.426   0.139  1.00  0.00     0.075 C 
ATOM     10  C   UNL     1       1.682   2.398   0.410  1.00  0.00     0.031 C 
ATOM     11  F   UNL     1      -0.552  -1.515   0.514  1.00  0.00    -0.223 F 
BRANCH   9  12
ATOM     12  C   UNL     1       2.086  -2.538   1.129  1.00  0.00    -0.039 A 
ATOM     13  C   UNL     1       2.399  -2.250   2.472  1.00  0.00     0.006 A 
ATOM     14  C   UNL     1       2.052  -3.881   0.708  1.00  0.00     0.014 A 
ATOM     15  C   UNL     1       2.673  -3.280   3.377  1.00  0.00     0.029 A 
ATOM     16  C   UNL     1       2.327  -4.916   1.613  1.00  0.00     0.000 A 
ATOM     17  C   UNL     1       2.639  -4.611   2.955  1.00  0.00     0.070 A 
ATOM     18  C   UNL     1       2.299  -6.259   1.212  1.00  0.00     0.012 A 
ATOM     19  N   UNL     1       2.907  -5.614   3.835  1.00  0.00    -0.256 NA
ATOM     20  C   UNL     1       2.578  -7.265   2.139  1.00  0.00     0.021 A 
ATOM     21  C   UNL     1       2.882  -6.920   3.459  1.00  0.00     0.112 A 
ENDBRANCH   9  12
ENDBRANCH   2   4
ENDBRANCH   1   2
BRANCH   1  22
ATOM     22  C   UNL     1      -2.417   2.805  -1.621  1.00  0.00     0.133 A 
ATOM     23  C   UNL     1      -3.160   3.171  -0.485  1.00  0.00     0.054 A 
ATOM     24  C   UNL     1      -2.799   3.298  -2.873  1.00  0.00     0.054 A 
ATOM     25  C   UNL     1      -4.285   3.992  -0.611  1.00  0.00     0.089 A 
ATOM     26  C   UNL     1      -3.924   4.117  -3.002  1.00  0.00     0.089 A 
ATOM     27  C   UNL     1      -4.682   4.471  -1.871  1.00  0.00     0.269 A 
BRANCH  27  28
ATOM     28  N   UNL     1      -5.841   5.315  -1.997  1.00  0.00     0.062 N 
ATOM     29  O   UNL     1      -6.196   5.746  -3.114  1.00  0.00    -0.258 OA
ATOM     30  O   UNL     1      -6.579   5.660  -0.888  1.00  0.00    -0.258 OA
ENDBRANCH  27  28
ENDBRANCH   1  22
TORSDOF 5


