MODEL 1
REMARK VINA RESULT:      -6.8      0.000      0.000
REMARK SMILES C#Cc1cncc(Nc2cc(C)cc(-n3nc4ccccc4[nH+]3)c2N=[N+]=[N-])c1
REMARK SMILES IDX 9 1 10 2 11 3 12 4 13 5 14 6 24 7 8 8 7 10 3 11 4 12 28 13
REMARK SMILES IDX 5 14 6 15 2 16 1 17 25 18 26 19 27 20 15 21 16 22 23 23
REMARK SMILES IDX 17 24 22 25 18 26 21 27 19 28 20 29
REMARK H PARENT 8 9 23 30
ROOT
ATOM      1  C   UNL     1      44.039 131.338  21.528  1.00  0.00     0.051 A 
ATOM      2  C   UNL     1      42.832 132.052  21.469  1.00  0.00     0.030 A 
ATOM      3  C   UNL     1      42.379 132.590  20.260  1.00  0.00    -0.047 A 
ATOM      4  C   UNL     1      41.116 133.399  20.221  1.00  0.00     0.044 C 
ATOM      5  C   UNL     1      43.133 132.403  19.096  1.00  0.00     0.038 A 
ATOM      6  C   UNL     1      44.320 131.658  19.122  1.00  0.00     0.140 A 
ATOM      7  C   UNL     1      44.799 131.144  20.355  1.00  0.00     0.093 A 
ENDROOT
BRANCH   1   8
ATOM      8  N   UNL     1      44.492 130.780  22.775  1.00  0.00    -0.354 N 
ATOM      9  H   UNL     1      45.281 131.258  23.269  1.00  0.00     0.167 HD
BRANCH   8  10
ATOM     10  C   UNL     1      43.938 129.600  23.381  1.00  0.00     0.058 A 
ATOM     11  C   UNL     1      42.046 128.231  24.049  1.00  0.00     0.045 A 
ATOM     12  C   UNL     1      42.937 127.318  24.625  1.00  0.00     0.128 A 
ATOM     13  C   UNL     1      42.551 129.380  23.433  1.00  0.00     0.046 A 
ATOM     14  N   UNL     1      44.273 127.557  24.586  1.00  0.00    -0.261 NA
ATOM     15  C   UNL     1      44.787 128.666  23.991  1.00  0.00     0.137 A 
BRANCH  11  16
ATOM     16  C   UNL     1      40.627 127.994  24.099  1.00  0.00    -0.069 C 
ATOM     17  C   UNL     1      39.438 127.796  24.142  1.00  0.00     0.010 C 
ENDBRANCH  11  16
ENDBRANCH   8  10
ENDBRANCH   1   8
BRANCH   7  18
ATOM     18  N   UNL     1      46.069 130.484  20.470  1.00  0.00    -0.056 NA
BRANCH  18  19
ATOM     19  N   UNL     1      46.182 129.331  20.891  1.00  0.00     0.006 N 
ATOM     20  N   UNL     1      46.299 128.182  21.314  1.00  0.00    -0.003 NA
ENDBRANCH  18  19
ENDBRANCH   7  18
BRANCH   6  21
ATOM     21  N   UNL     1      44.979 131.366  17.880  1.00  0.00    -0.012 N 
ATOM     22  N   UNL     1      45.275 130.132  17.474  1.00  0.00     0.054 NA
ATOM     23  N   UNL     1      45.285 132.285  16.967  1.00  0.00    -0.161 N 
ATOM     24  C   UNL     1      45.813 130.291  16.251  1.00  0.00     0.249 A 
ATOM     25  C   UNL     1      45.820 131.617  15.938  1.00  0.00     0.198 A 
ATOM     26  C   UNL     1      46.302 129.323  15.379  1.00  0.00     0.064 A 
ATOM     27  C   UNL     1      46.313 132.096  14.729  1.00  0.00     0.058 A 
ATOM     28  C   UNL     1      46.813 129.767  14.143  1.00  0.00     0.005 A 
ATOM     29  C   UNL     1      46.820 131.147  13.819  1.00  0.00     0.005 A 
ATOM     30  H   UNL     1      45.137 133.317  17.054  1.00  0.00     0.340 HD
ENDBRANCH   6  21
TORSDOF 6
ENDMDL
MODEL 2
REMARK VINA RESULT:      -6.7      1.475      2.536
REMARK SMILES C#Cc1cncc(Nc2cc(C)cc(-n3nc4ccccc4[nH+]3)c2N=[N+]=[N-])c1
REMARK SMILES IDX 9 1 10 2 11 3 12 4 13 5 14 6 24 7 8 8 7 10 3 11 4 12 28 13
REMARK SMILES IDX 5 14 6 15 2 16 1 17 25 18 26 19 27 20 15 21 16 22 23 23
REMARK SMILES IDX 17 24 22 25 18 26 21 27 19 28 20 29
REMARK H PARENT 8 9 23 30
ROOT
ATOM      1  C   UNL     1      44.026 131.441  21.063  1.00  0.00     0.051 A 
ATOM      2  C   UNL     1      42.709 131.904  20.923  1.00  0.00     0.030 A 
ATOM      3  C   UNL     1      42.186 132.205  19.662  1.00  0.00    -0.047 A 
ATOM      4  C   UNL     1      40.796 132.753  19.532  1.00  0.00     0.044 C 
ATOM      5  C   UNL     1      42.984 132.031  18.526  1.00  0.00     0.038 A 
ATOM      6  C   UNL     1      44.290 131.530  18.635  1.00  0.00     0.140 A 
ATOM      7  C   UNL     1      44.831 131.260  19.919  1.00  0.00     0.093 A 
ENDROOT
BRANCH   1   8
ATOM      8  N   UNL     1      44.551 131.125  22.365  1.00  0.00    -0.354 N 
ATOM      9  H   UNL     1      45.040 131.883  22.894  1.00  0.00     0.167 HD
BRANCH   8  10
ATOM     10  C   UNL     1      44.456 129.829  22.982  1.00  0.00     0.058 A 
ATOM     11  C   UNL     1      45.056 127.480  23.114  1.00  0.00     0.045 A 
ATOM     12  C   UNL     1      44.173 127.336  24.190  1.00  0.00     0.128 A 
ATOM     13  C   UNL     1      45.190 128.731  22.504  1.00  0.00     0.046 A 
ATOM     14  N   UNL     1      43.454 128.403  24.625  1.00  0.00    -0.261 NA
ATOM     15  C   UNL     1      43.568 129.629  24.048  1.00  0.00     0.137 A 
BRANCH  11  16
ATOM     16  C   UNL     1      45.811 126.351  22.636  1.00  0.00    -0.069 C 
ATOM     17  C   UNL     1      46.443 125.406  22.235  1.00  0.00     0.010 C 
ENDBRANCH  11  16
ENDBRANCH   8  10
ENDBRANCH   1   8
BRANCH   7  18
ATOM     18  N   UNL     1      46.200 130.868  20.107  1.00  0.00    -0.056 NA
BRANCH  18  19
ATOM     19  N   UNL     1      47.033 131.600  20.645  1.00  0.00     0.006 N 
ATOM     20  N   UNL     1      47.861 132.330  21.185  1.00  0.00    -0.003 NA
ENDBRANCH  18  19
ENDBRANCH   7  18
BRANCH   6  21
ATOM     21  N   UNL     1      45.015 131.227  17.434  1.00  0.00    -0.012 N 
ATOM     22  N   UNL     1      45.402 132.150  16.553  1.00  0.00     0.054 NA
ATOM     23  N   UNL     1      45.452 130.011  17.116  1.00  0.00    -0.161 N 
ATOM     24  C   UNL     1      46.100 131.471  15.626  1.00  0.00     0.249 A 
ATOM     25  C   UNL     1      46.132 130.153  15.971  1.00  0.00     0.198 A 
ATOM     26  C   UNL     1      46.724 131.949  14.478  1.00  0.00     0.064 A 
ATOM     27  C   UNL     1      46.788 129.196  15.205  1.00  0.00     0.058 A 
ATOM     28  C   UNL     1      47.400 131.011  13.671  1.00  0.00     0.005 A 
ATOM     29  C   UNL     1      47.432 129.641  14.032  1.00  0.00     0.005 A 
ATOM     30  H   UNL     1      45.286 129.133  17.657  1.00  0.00     0.340 HD
ENDBRANCH   6  21
TORSDOF 6
ENDMDL
MODEL 3
REMARK VINA RESULT:      -5.0      0.740      1.456
REMARK SMILES C#Cc1cncc(Nc2cc(C)cc(-n3nc4ccccc4[nH+]3)c2N=[N+]=[N-])c1
REMARK SMILES IDX 9 1 10 2 11 3 12 4 13 5 14 6 24 7 8 8 7 10 3 11 4 12 28 13
REMARK SMILES IDX 5 14 6 15 2 16 1 17 25 18 26 19 27 20 15 21 16 22 23 23
REMARK SMILES IDX 17 24 22 25 18 26 21 27 19 28 20 29
REMARK H PARENT 8 9 23 30
ROOT
ATOM      1  C   UNL     1      43.623 131.032  21.336  1.00  0.00     0.051 A 
ATOM      2  C   UNL     1      42.383 131.687  21.266  1.00  0.00     0.030 A 
ATOM      3  C   UNL     1      41.931 132.237  20.063  1.00  0.00    -0.047 A 
ATOM      4  C   UNL     1      40.631 132.983  20.015  1.00  0.00     0.044 C 
ATOM      5  C   UNL     1      42.721 132.122  18.913  1.00  0.00     0.038 A 
ATOM      6  C   UNL     1      43.944 131.437  18.947  1.00  0.00     0.140 A 
ATOM      7  C   UNL     1      44.418 130.912  20.178  1.00  0.00     0.093 A 
ENDROOT
BRANCH   1   8
ATOM      8  N   UNL     1      44.074 130.462  22.578  1.00  0.00    -0.354 N 
ATOM      9  H   UNL     1      44.753 131.012  23.153  1.00  0.00     0.167 HD
BRANCH   8  10
ATOM     10  C   UNL     1      43.660 129.177  23.074  1.00  0.00     0.058 A 
ATOM     11  C   UNL     1      41.967 127.668  23.941  1.00  0.00     0.045 A 
ATOM     12  C   UNL     1      42.948 126.681  24.083  1.00  0.00     0.128 A 
ATOM     13  C   UNL     1      42.328 128.923  23.442  1.00  0.00     0.046 A 
ATOM     14  N   UNL     1      44.236 126.950  23.744  1.00  0.00    -0.261 NA
ATOM     15  C   UNL     1      44.610 128.163  23.255  1.00  0.00     0.137 A 
BRANCH  11  16
ATOM     16  C   UNL     1      40.602 127.396  24.312  1.00  0.00    -0.069 C 
ATOM     17  C   UNL     1      39.460 127.170  24.623  1.00  0.00     0.010 C 
ENDBRANCH  11  16
ENDBRANCH   8  10
ENDBRANCH   1   8
BRANCH   7  18
ATOM     18  N   UNL     1      45.717 130.312  20.306  1.00  0.00    -0.056 NA
BRANCH  18  19
ATOM     19  N   UNL     1      46.750 130.978  20.401  1.00  0.00     0.006 N 
ATOM     20  N   UNL     1      47.781 131.642  20.491  1.00  0.00    -0.003 NA
ENDBRANCH  18  19
ENDBRANCH   7  18
BRANCH   6  21
ATOM     21  N   UNL     1      44.645 131.215  17.715  1.00  0.00    -0.012 N 
ATOM     22  N   UNL     1      45.158 132.196  16.971  1.00  0.00     0.054 NA
ATOM     23  N   UNL     1      44.932 130.010  17.228  1.00  0.00    -0.161 N 
ATOM     24  C   UNL     1      45.781 131.570  15.957  1.00  0.00     0.249 A 
ATOM     25  C   UNL     1      45.643 130.224  16.114  1.00  0.00     0.198 A 
ATOM     26  C   UNL     1      46.478 132.121  14.887  1.00  0.00     0.064 A 
ATOM     27  C   UNL     1      46.187 129.308  15.220  1.00  0.00     0.058 A 
ATOM     28  C   UNL     1      47.045 131.227  13.955  1.00  0.00     0.005 A 
ATOM     29  C   UNL     1      46.900 129.827  14.121  1.00  0.00     0.005 A 
ATOM     30  H   UNL     1      44.649 129.093  17.642  1.00  0.00     0.340 HD
ENDBRANCH   6  21
TORSDOF 6
ENDMDL
MODEL 4
REMARK VINA RESULT:      -4.0      1.367      2.119
REMARK SMILES C#Cc1cncc(Nc2cc(C)cc(-n3nc4ccccc4[nH+]3)c2N=[N+]=[N-])c1
REMARK SMILES IDX 9 1 10 2 11 3 12 4 13 5 14 6 24 7 8 8 7 10 3 11 4 12 28 13
REMARK SMILES IDX 5 14 6 15 2 16 1 17 25 18 26 19 27 20 15 21 16 22 23 23
REMARK SMILES IDX 17 24 22 25 18 26 21 27 19 28 20 29
REMARK H PARENT 8 9 23 30
ROOT
ATOM      1  C   UNL     1      43.750 131.832  20.468  1.00  0.00     0.051 A 
ATOM      2  C   UNL     1      42.457 132.282  20.159  1.00  0.00     0.030 A 
ATOM      3  C   UNL     1      42.057 132.448  18.829  1.00  0.00    -0.047 A 
ATOM      4  C   UNL     1      40.692 132.983  18.513  1.00  0.00     0.044 C 
ATOM      5  C   UNL     1      42.954 132.151  17.797  1.00  0.00     0.038 A 
ATOM      6  C   UNL     1      44.237 131.660  18.080  1.00  0.00     0.140 A 
ATOM      7  C   UNL     1      44.654 131.528  19.430  1.00  0.00     0.093 A 
ENDROOT
BRANCH   1   8
ATOM      8  N   UNL     1      44.148 131.656  21.840  1.00  0.00    -0.354 N 
ATOM      9  H   UNL     1      44.901 132.277  22.216  1.00  0.00     0.167 HD
BRANCH   8  10
ATOM     10  C   UNL     1      43.585 130.671  22.724  1.00  0.00     0.058 A 
ATOM     11  C   UNL     1      43.359 128.382  23.502  1.00  0.00     0.045 A 
ATOM     12  C   UNL     1      42.407 128.814  24.431  1.00  0.00     0.128 A 
ATOM     13  C   UNL     1      43.944 129.315  22.640  1.00  0.00     0.046 A 
ATOM     14  N   UNL     1      42.055 130.125  24.484  1.00  0.00    -0.261 NA
ATOM     15  C   UNL     1      42.611 131.051  23.658  1.00  0.00     0.137 A 
BRANCH  11  16
ATOM     16  C   UNL     1      43.727 126.992  23.428  1.00  0.00    -0.069 C 
ATOM     17  C   UNL     1      44.035 125.828  23.367  1.00  0.00     0.010 C 
ENDBRANCH  11  16
ENDBRANCH   8  10
ENDBRANCH   1   8
BRANCH   7  18
ATOM     18  N   UNL     1      45.995 131.154  19.785  1.00  0.00    -0.056 NA
BRANCH  18  19
ATOM     19  N   UNL     1      46.289 130.020  20.169  1.00  0.00     0.006 N 
ATOM     20  N   UNL     1      46.577 128.887  20.548  1.00  0.00    -0.003 NA
ENDBRANCH  18  19
ENDBRANCH   7  18
BRANCH   6  21
ATOM     21  N   UNL     1      45.066 131.229  16.991  1.00  0.00    -0.012 N 
ATOM     22  N   UNL     1      45.354 131.991  15.935  1.00  0.00     0.054 NA
ATOM     23  N   UNL     1      45.703 130.061  16.958  1.00  0.00    -0.161 N 
ATOM     24  C   UNL     1      46.199 131.251  15.196  1.00  0.00     0.249 A 
ATOM     25  C   UNL     1      46.415 130.062  15.824  1.00  0.00     0.198 A 
ATOM     26  C   UNL     1      46.804 131.566  13.983  1.00  0.00     0.064 A 
ATOM     27  C   UNL     1      47.253 129.082  15.303  1.00  0.00     0.058 A 
ATOM     28  C   UNL     1      47.661 130.599  13.418  1.00  0.00     0.005 A 
ATOM     29  C   UNL     1      47.884 129.363  14.074  1.00  0.00     0.005 A 
ATOM     30  H   UNL     1      45.645 129.304  17.678  1.00  0.00     0.340 HD
ENDBRANCH   6  21
TORSDOF 6
ENDMDL


