REMARK SMILES C=Cc1cccc(-c2ccc3c(c2)[C@@H](N)CC3)c1
REMARK SMILES IDX 8 1 9 2 10 3 11 4 12 5 13 6 14 7 16 8 17 9 7 10 3 11 4 12
REMARK SMILES IDX 18 13 5 14 6 15 2 16 1 17 15 18
REMARK H PARENT 15 19 15 20
ROOT
ATOM      1  C   UNL     1       0.293   0.706   0.201  1.00  0.00    -0.018 A 
ATOM      2  C   UNL     1       1.175   0.995   1.269  1.00  0.00     0.009 A 
ATOM      3  C   UNL     1       1.035   2.177   2.011  1.00  0.00     0.005 A 
ATOM      4  C   UNL     1       0.011   3.063   1.678  1.00  0.00    -0.043 A 
ATOM      5  C   UNL     1      -0.855   2.792   0.651  1.00  0.00    -0.027 A 
ATOM      6  C   UNL     1      -0.735   1.624  -0.107  1.00  0.00     0.014 A 
ATOM      7  C   UNL     1      -1.869   3.869   0.480  1.00  0.00     0.081 C 
ATOM      8  C   UNL     1      -1.425   4.955   1.487  1.00  0.00     0.028 C 
ATOM      9  C   UNL     1      -0.294   4.352   2.342  1.00  0.00     0.038 C 
ENDROOT
BRANCH   1  10
ATOM     10  C   UNL     1       0.444  -0.545  -0.584  1.00  0.00    -0.018 A 
ATOM     11  C   UNL     1       1.875  -2.200  -1.683  1.00  0.00    -0.026 A 
ATOM     12  C   UNL     1       0.725  -2.913  -2.075  1.00  0.00     0.008 A 
ATOM     13  C   UNL     1       1.720  -1.012  -0.948  1.00  0.00     0.016 A 
ATOM     14  C   UNL     1      -0.545  -2.454  -1.718  1.00  0.00     0.001 A 
ATOM     15  C   UNL     1      -0.688  -1.280  -0.977  1.00  0.00     0.009 A 
BRANCH  11  16
ATOM     16  C   UNL     1       3.247  -2.635  -2.046  1.00  0.00     0.000 C 
ATOM     17  C   UNL     1       3.562  -3.868  -2.447  1.00  0.00     0.009 C 
ENDBRANCH  11  16
ENDBRANCH   1  10
BRANCH   7  18
ATOM     18  N   UNL     1      -3.217   3.388   0.793  1.00  0.00    -0.324 NA
ATOM     19  H   UNL     1      -3.491   2.677   0.076  1.00  0.00     0.119 HD
ATOM     20  H   UNL     1      -3.210   2.907   1.723  1.00  0.00     0.119 HD
ENDBRANCH   7  18
TORSDOF 3


