MODEL 1
REMARK VINA RESULT:      -9.1      0.000      0.000
REMARK SMILES C=C1C(=O)OC[C@H]1C(=O)N(N)c1cccc2cc3ccccc3cc12
REMARK SMILES IDX 8 1 9 2 7 3 2 4 3 5 5 6 6 7 1 8 4 9 10 10 11 11 12 14 13 15
REMARK SMILES IDX 25 16 14 17 24 18 16 19 15 20 23 21 17 22 22 23 18 24 21 25
REMARK SMILES IDX 19 26 20 27
REMARK H PARENT 11 12 11 13
ROOT
ATOM      1  C   UNL     1      45.010 129.840  21.536  1.00  0.00     0.252 C 
ATOM      2  O   UNL     1      45.391 128.914  20.768  1.00  0.00    -0.272 OA
ENDROOT
BRANCH   1   3
ATOM      3  C   UNL     1      44.670 129.507  22.975  1.00  0.00     0.155 C 
ATOM      4  C   UNL     1      43.275 129.922  23.327  1.00  0.00     0.046 C 
ATOM      5  C   UNL     1      42.542 128.738  23.696  1.00  0.00     0.334 C 
ATOM      6  O   UNL     1      43.349 127.625  23.623  1.00  0.00    -0.461 OA
ATOM      7  C   UNL     1      44.671 127.971  23.215  1.00  0.00     0.251 C 
ATOM      8  C   UNL     1      42.812 131.172  23.352  1.00  0.00     0.021 C 
ATOM      9  O   UNL     1      41.333 128.702  24.046  1.00  0.00    -0.247 OA
ENDBRANCH   1   3
BRANCH   1  10
ATOM     10  N   UNL     1      44.976 131.192  21.041  1.00  0.00    -0.247 N 
BRANCH  10  11
ATOM     11  N   UNL     1      45.865 132.137  21.582  1.00  0.00    -0.241 NA
ATOM     12  H   UNL     1      45.995 131.908  22.594  1.00  0.00     0.144 HD
ATOM     13  H   UNL     1      45.407 133.075  21.525  1.00  0.00     0.144 HD
ENDBRANCH  10  11
BRANCH  10  14
ATOM     14  C   UNL     1      44.001 131.617  20.075  1.00  0.00     0.068 A 
ATOM     15  C   UNL     1      42.806 132.193  20.523  1.00  0.00     0.028 A 
ATOM     16  C   UNL     1      44.225 131.453  18.688  1.00  0.00     0.008 A 
ATOM     17  C   UNL     1      41.831 132.599  19.612  1.00  0.00     0.003 A 
ATOM     18  C   UNL     1      45.418 130.886  18.202  1.00  0.00     0.019 A 
ATOM     19  C   UNL     1      43.225 131.861  17.769  1.00  0.00    -0.016 A 
ATOM     20  C   UNL     1      42.035 132.433  18.242  1.00  0.00     0.009 A 
ATOM     21  C   UNL     1      45.615 130.710  16.825  1.00  0.00    -0.018 A 
ATOM     22  C   UNL     1      43.426 131.691  16.391  1.00  0.00     0.017 A 
ATOM     23  C   UNL     1      46.800 130.132  16.342  1.00  0.00     0.009 A 
ATOM     24  C   UNL     1      44.612 131.115  15.912  1.00  0.00    -0.018 A 
ATOM     25  C   UNL     1      46.988 129.960  14.967  1.00  0.00     0.001 A 
ATOM     26  C   UNL     1      44.813 130.937  14.534  1.00  0.00     0.009 A 
ATOM     27  C   UNL     1      45.997 130.361  14.067  1.00  0.00     0.001 A 
ENDBRANCH  10  14
ENDBRANCH   1  10
TORSDOF 4
ENDMDL
MODEL 2
REMARK VINA RESULT:      -7.9      1.019      1.268
REMARK SMILES C=C1C(=O)OC[C@H]1C(=O)N(N)c1cccc2cc3ccccc3cc12
REMARK SMILES IDX 8 1 9 2 7 3 2 4 3 5 5 6 6 7 1 8 4 9 10 10 11 11 12 14 13 15
REMARK SMILES IDX 25 16 14 17 24 18 16 19 15 20 23 21 17 22 22 23 18 24 21 25
REMARK SMILES IDX 19 26 20 27
REMARK H PARENT 11 12 11 13
ROOT
ATOM      1  C   UNL     1      45.110 130.024  21.717  1.00  0.00     0.252 C 
ATOM      2  O   UNL     1      45.859 129.147  21.205  1.00  0.00    -0.272 OA
ENDROOT
BRANCH   1   3
ATOM      3  C   UNL     1      44.332 129.684  22.973  1.00  0.00     0.155 C 
ATOM      4  C   UNL     1      44.106 130.890  23.830  1.00  0.00     0.046 C 
ATOM      5  C   UNL     1      42.685 131.095  23.940  1.00  0.00     0.334 C 
ATOM      6  O   UNL     1      41.999 130.124  23.245  1.00  0.00    -0.461 OA
ATOM      7  C   UNL     1      42.894 129.198  22.632  1.00  0.00     0.251 C 
ATOM      8  C   UNL     1      45.052 131.610  24.434  1.00  0.00     0.021 C 
ATOM      9  O   UNL     1      42.123 132.022  24.581  1.00  0.00    -0.247 OA
ENDBRANCH   1   3
BRANCH   1  10
ATOM     10  N   UNL     1      45.069 131.339  21.132  1.00  0.00    -0.247 N 
BRANCH  10  11
ATOM     11  N   UNL     1      46.004 132.300  21.554  1.00  0.00    -0.241 NA
ATOM     12  H   UNL     1      46.613 132.531  20.736  1.00  0.00     0.144 HD
ATOM     13  H   UNL     1      46.608 131.859  22.284  1.00  0.00     0.144 HD
ENDBRANCH  10  11
BRANCH  10  14
ATOM     14  C   UNL     1      44.046 131.716  20.196  1.00  0.00     0.068 A 
ATOM     15  C   UNL     1      42.856 132.276  20.678  1.00  0.00     0.028 A 
ATOM     16  C   UNL     1      44.218 131.523  18.805  1.00  0.00     0.008 A 
ATOM     17  C   UNL     1      41.835 132.636  19.798  1.00  0.00     0.003 A 
ATOM     18  C   UNL     1      45.404 130.973  18.285  1.00  0.00     0.019 A 
ATOM     19  C   UNL     1      43.173 131.885  17.918  1.00  0.00    -0.016 A 
ATOM     20  C   UNL     1      41.988 132.440  18.425  1.00  0.00     0.009 A 
ATOM     21  C   UNL     1      45.550 130.767  16.906  1.00  0.00    -0.018 A 
ATOM     22  C   UNL     1      43.322 131.685  16.538  1.00  0.00     0.017 A 
ATOM     23  C   UNL     1      46.728 130.205  16.389  1.00  0.00     0.009 A 
ATOM     24  C   UNL     1      44.502 131.126  16.025  1.00  0.00    -0.018 A 
ATOM     25  C   UNL     1      46.865 130.002  15.013  1.00  0.00     0.001 A 
ATOM     26  C   UNL     1      44.652 130.918  14.645  1.00  0.00     0.009 A 
ATOM     27  C   UNL     1      45.830 130.358  14.144  1.00  0.00     0.001 A 
ENDBRANCH  10  14
ENDBRANCH   1  10
TORSDOF 4
ENDMDL
MODEL 3
REMARK VINA RESULT:      -7.8      1.019      1.081
REMARK SMILES C=C1C(=O)OC[C@H]1C(=O)N(N)c1cccc2cc3ccccc3cc12
REMARK SMILES IDX 8 1 9 2 7 3 2 4 3 5 5 6 6 7 1 8 4 9 10 10 11 11 12 14 13 15
REMARK SMILES IDX 25 16 14 17 24 18 16 19 15 20 23 21 17 22 22 23 18 24 21 25
REMARK SMILES IDX 19 26 20 27
REMARK H PARENT 11 12 11 13
ROOT
ATOM      1  C   UNL     1      44.931 131.269  22.290  1.00  0.00     0.252 C 
ATOM      2  O   UNL     1      45.179 132.465  22.607  1.00  0.00    -0.272 OA
ENDROOT
BRANCH   1   3
ATOM      3  C   UNL     1      44.539 130.286  23.376  1.00  0.00     0.155 C 
ATOM      4  C   UNL     1      43.090 130.403  23.735  1.00  0.00     0.046 C 
ATOM      5  C   UNL     1      42.460 129.140  23.446  1.00  0.00     0.334 C 
ATOM      6  O   UNL     1      43.380 128.240  22.955  1.00  0.00    -0.461 OA
ATOM      7  C   UNL     1      44.682 128.817  22.886  1.00  0.00     0.251 C 
ATOM      8  C   UNL     1      42.501 131.468  24.280  1.00  0.00     0.021 C 
ATOM      9  O   UNL     1      41.242 128.871  23.616  1.00  0.00    -0.247 OA
ENDBRANCH   1   3
BRANCH   1  10
ATOM     10  N   UNL     1      44.962 130.891  20.901  1.00  0.00    -0.247 N 
BRANCH  10  11
ATOM     11  N   UNL     1      46.010 130.074  20.441  1.00  0.00    -0.241 NA
ATOM     12  H   UNL     1      45.713 129.079  20.559  1.00  0.00     0.144 HD
ATOM     13  H   UNL     1      46.835 130.234  21.063  1.00  0.00     0.144 HD
ENDBRANCH  10  11
BRANCH  10  14
ATOM     14  C   UNL     1      44.001 131.398  19.960  1.00  0.00     0.068 A 
ATOM     15  C   UNL     1      42.810 131.958  20.439  1.00  0.00     0.028 A 
ATOM     16  C   UNL     1      44.235 131.331  18.566  1.00  0.00     0.008 A 
ATOM     17  C   UNL     1      41.848 132.441  19.552  1.00  0.00     0.003 A 
ATOM     18  C   UNL     1      45.425 130.783  18.050  1.00  0.00     0.019 A 
ATOM     19  C   UNL     1      43.249 131.817  17.672  1.00  0.00    -0.016 A 
ATOM     20  C   UNL     1      42.062 132.371  18.175  1.00  0.00     0.009 A 
ATOM     21  C   UNL     1      45.631 130.704  16.666  1.00  0.00    -0.018 A 
ATOM     22  C   UNL     1      43.459 131.743  16.287  1.00  0.00     0.017 A 
ATOM     23  C   UNL     1      46.812 130.145  16.152  1.00  0.00     0.009 A 
ATOM     24  C   UNL     1      44.641 131.187  15.777  1.00  0.00    -0.018 A 
ATOM     25  C   UNL     1      47.009 130.069  14.770  1.00  0.00     0.001 A 
ATOM     26  C   UNL     1      44.852 131.106  14.392  1.00  0.00     0.009 A 
ATOM     27  C   UNL     1      46.033 130.547  13.893  1.00  0.00     0.001 A 
ENDBRANCH  10  14
ENDBRANCH   1  10
TORSDOF 4
ENDMDL
MODEL 4
REMARK VINA RESULT:      -6.9      1.233      1.753
REMARK SMILES C=C1C(=O)OC[C@H]1C(=O)N(N)c1cccc2cc3ccccc3cc12
REMARK SMILES IDX 8 1 9 2 7 3 2 4 3 5 5 6 6 7 1 8 4 9 10 10 11 11 12 14 13 15
REMARK SMILES IDX 25 16 14 17 24 18 16 19 15 20 23 21 17 22 22 23 18 24 21 25
REMARK SMILES IDX 19 26 20 27
REMARK H PARENT 11 12 11 13
ROOT
ATOM      1  C   UNL     1      45.307 130.150  21.090  1.00  0.00     0.252 C 
ATOM      2  O   UNL     1      46.364 129.536  20.774  1.00  0.00    -0.272 OA
ENDROOT
BRANCH   1   3
ATOM      3  C   UNL     1      44.369 129.524  22.104  1.00  0.00     0.155 C 
ATOM      4  C   UNL     1      44.821 128.155  22.508  1.00  0.00     0.046 C 
ATOM      5  C   UNL     1      45.085 128.178  23.924  1.00  0.00     0.334 C 
ATOM      6  O   UNL     1      44.827 129.425  24.447  1.00  0.00    -0.461 OA
ATOM      7  C   UNL     1      44.367 130.323  23.439  1.00  0.00     0.251 C 
ATOM      8  C   UNL     1      44.907 127.091  21.711  1.00  0.00     0.021 C 
ATOM      9  O   UNL     1      45.489 127.203  24.612  1.00  0.00    -0.247 OA
ENDBRANCH   1   3
BRANCH   1  10
ATOM     10  N   UNL     1      45.060 131.453  20.531  1.00  0.00    -0.247 N 
BRANCH  10  11
ATOM     11  N   UNL     1      45.857 132.534  20.947  1.00  0.00    -0.241 NA
ATOM     12  H   UNL     1      46.856 132.234  20.887  1.00  0.00     0.144 HD
ATOM     13  H   UNL     1      45.642 132.721  21.953  1.00  0.00     0.144 HD
ENDBRANCH  10  11
BRANCH  10  14
ATOM     14  C   UNL     1      43.967 131.692  19.629  1.00  0.00     0.068 A 
ATOM     15  C   UNL     1      42.719 132.052  20.153  1.00  0.00     0.028 A 
ATOM     16  C   UNL     1      44.130 131.559  18.230  1.00  0.00     0.008 A 
ATOM     17  C   UNL     1      41.632 132.272  19.307  1.00  0.00     0.003 A 
ATOM     18  C   UNL     1      45.371 131.208  17.669  1.00  0.00     0.019 A 
ATOM     19  C   UNL     1      43.018 131.777  17.378  1.00  0.00    -0.016 A 
ATOM     20  C   UNL     1      41.777 132.134  17.926  1.00  0.00     0.009 A 
ATOM     21  C   UNL     1      45.510 131.059  16.282  1.00  0.00    -0.018 A 
ATOM     22  C   UNL     1      43.160 131.634  15.989  1.00  0.00     0.017 A 
ATOM     23  C   UNL     1      46.746 130.695  15.724  1.00  0.00     0.009 A 
ATOM     24  C   UNL     1      44.396 131.274  15.436  1.00  0.00    -0.018 A 
ATOM     25  C   UNL     1      46.876 130.548  14.340  1.00  0.00     0.001 A 
ATOM     26  C   UNL     1      44.540 131.123  14.047  1.00  0.00     0.009 A 
ATOM     27  C   UNL     1      45.776 130.761  13.505  1.00  0.00     0.001 A 
ENDBRANCH  10  14
ENDBRANCH   1  10
TORSDOF 4
ENDMDL
MODEL 5
REMARK VINA RESULT:      -6.7      2.750      6.610
REMARK SMILES C=C1C(=O)OC[C@H]1C(=O)N(N)c1cccc2cc3ccccc3cc12
REMARK SMILES IDX 8 1 9 2 7 3 2 4 3 5 5 6 6 7 1 8 4 9 10 10 11 11 12 14 13 15
REMARK SMILES IDX 25 16 14 17 24 18 16 19 15 20 23 21 17 22 22 23 18 24 21 25
REMARK SMILES IDX 19 26 20 27
REMARK H PARENT 11 12 11 13
ROOT
ATOM      1  C   UNL     1      44.683 130.395  21.798  1.00  0.00     0.252 C 
ATOM      2  O   UNL     1      45.366 129.603  21.091  1.00  0.00    -0.272 OA
ENDROOT
BRANCH   1   3
ATOM      3  C   UNL     1      44.250 131.722  21.205  1.00  0.00     0.155 C 
ATOM      4  C   UNL     1      44.201 131.673  19.709  1.00  0.00     0.046 C 
ATOM      5  C   UNL     1      42.844 131.934  19.304  1.00  0.00     0.334 C 
ATOM      6  O   UNL     1      42.043 132.156  20.402  1.00  0.00    -0.461 OA
ATOM      7  C   UNL     1      42.791 132.073  21.613  1.00  0.00     0.251 C 
ATOM      8  C   UNL     1      45.240 131.481  18.897  1.00  0.00     0.021 C 
ATOM      9  O   UNL     1      42.425 131.966  18.117  1.00  0.00    -0.247 OA
ENDBRANCH   1   3
BRANCH   1  10
ATOM     10  N   UNL     1      44.279 129.986  23.118  1.00  0.00    -0.247 N 
BRANCH  10  11
ATOM     11  N   UNL     1      44.809 130.661  24.231  1.00  0.00    -0.241 NA
ATOM     12  H   UNL     1      45.112 129.940  24.925  1.00  0.00     0.144 HD
ATOM     13  H   UNL     1      44.037 131.215  24.666  1.00  0.00     0.144 HD
ENDBRANCH  10  11
BRANCH  10  14
ATOM     14  C   UNL     1      43.418 128.854  23.326  1.00  0.00     0.068 A 
ATOM     15  C   UNL     1      42.084 129.072  23.694  1.00  0.00     0.028 A 
ATOM     16  C   UNL     1      43.898 127.532  23.176  1.00  0.00     0.008 A 
ATOM     17  C   UNL     1      41.228 127.995  23.922  1.00  0.00     0.003 A 
ATOM     18  C   UNL     1      45.230 127.276  22.799  1.00  0.00     0.019 A 
ATOM     19  C   UNL     1      43.023 126.443  23.418  1.00  0.00    -0.016 A 
ATOM     20  C   UNL     1      41.692 126.687  23.789  1.00  0.00     0.009 A 
ATOM     21  C   UNL     1      45.695 125.959  22.677  1.00  0.00    -0.018 A 
ATOM     22  C   UNL     1      43.488 125.126  23.289  1.00  0.00     0.017 A 
ATOM     23  C   UNL     1      47.027 125.705  22.314  1.00  0.00     0.009 A 
ATOM     24  C   UNL     1      44.819 124.876  22.923  1.00  0.00    -0.018 A 
ATOM     25  C   UNL     1      47.484 124.389  22.195  1.00  0.00     0.001 A 
ATOM     26  C   UNL     1      45.290 123.559  22.800  1.00  0.00     0.009 A 
ATOM     27  C   UNL     1      46.618 123.320  22.438  1.00  0.00     0.001 A 
ENDBRANCH  10  14
ENDBRANCH   1  10
TORSDOF 4
ENDMDL
MODEL 6
REMARK VINA RESULT:      -6.4      1.420      2.321
REMARK SMILES C=C1C(=O)OC[C@H]1C(=O)N(N)c1cccc2cc3ccccc3cc12
REMARK SMILES IDX 8 1 9 2 7 3 2 4 3 5 5 6 6 7 1 8 4 9 10 10 11 11 12 14 13 15
REMARK SMILES IDX 25 16 14 17 24 18 16 19 15 20 23 21 17 22 22 23 18 24 21 25
REMARK SMILES IDX 19 26 20 27
REMARK H PARENT 11 12 11 13
ROOT
ATOM      1  C   UNL     1      44.662 129.200  22.626  1.00  0.00     0.252 C 
ATOM      2  O   UNL     1      44.629 129.800  23.735  1.00  0.00    -0.272 OA
ENDROOT
BRANCH   1   3
ATOM      3  C   UNL     1      44.217 127.752  22.560  1.00  0.00     0.155 C 
ATOM      4  C   UNL     1      45.336 126.812  22.886  1.00  0.00     0.046 C 
ATOM      5  C   UNL     1      44.957 126.064  24.057  1.00  0.00     0.334 C 
ATOM      6  O   UNL     1      43.702 126.437  24.486  1.00  0.00    -0.461 OA
ATOM      7  C   UNL     1      43.145 127.442  23.643  1.00  0.00     0.251 C 
ATOM      8  C   UNL     1      46.457 126.654  22.182  1.00  0.00     0.021 C 
ATOM      9  O   UNL     1      45.655 125.184  24.625  1.00  0.00    -0.247 OA
ENDBRANCH   1   3
BRANCH   1  10
ATOM     10  N   UNL     1      45.055 129.927  21.447  1.00  0.00    -0.247 N 
BRANCH  10  11
ATOM     11  N   UNL     1      46.387 129.839  21.006  1.00  0.00    -0.241 NA
ATOM     12  H   UNL     1      46.692 130.797  20.720  1.00  0.00     0.144 HD
ATOM     13  H   UNL     1      46.401 129.234  20.153  1.00  0.00     0.144 HD
ENDBRANCH  10  11
BRANCH  10  14
ATOM     14  C   UNL     1      44.145 130.806  20.764  1.00  0.00     0.068 A 
ATOM     15  C   UNL     1      43.149 131.459  21.501  1.00  0.00     0.028 A 
ATOM     16  C   UNL     1      44.235 131.011  19.367  1.00  0.00     0.008 A 
ATOM     17  C   UNL     1      42.238 132.303  20.866  1.00  0.00     0.003 A 
ATOM     18  C   UNL     1      45.228 130.378  18.597  1.00  0.00     0.019 A 
ATOM     19  C   UNL     1      43.300 131.865  18.729  1.00  0.00    -0.016 A 
ATOM     20  C   UNL     1      42.308 132.506  19.488  1.00  0.00     0.009 A 
ATOM     21  C   UNL     1      45.288 130.574  17.211  1.00  0.00    -0.018 A 
ATOM     22  C   UNL     1      43.365 132.066  17.342  1.00  0.00     0.017 A 
ATOM     23  C   UNL     1      46.272 129.932  16.442  1.00  0.00     0.009 A 
ATOM     24  C   UNL     1      44.350 131.424  16.578  1.00  0.00    -0.018 A 
ATOM     25  C   UNL     1      46.325 130.132  15.059  1.00  0.00     0.001 A 
ATOM     26  C   UNL     1      44.415 131.618  15.189  1.00  0.00     0.009 A 
ATOM     27  C   UNL     1      45.399 130.972  14.435  1.00  0.00     0.001 A 
ENDBRANCH  10  14
ENDBRANCH   1  10
TORSDOF 4
ENDMDL


