REMARK SMILES N#C[C@H]1c2ccccc2C[C@@H]1NC(O)=C1CCCC1
REMARK SMILES IDX 12 1 11 3 3 4 4 5 5 6 9 7 10 8 6 9 8 10 7 11 2 12 1 13 13 14
REMARK SMILES IDX 14 15 15 17 16 18 19 19 17 20 18 21
REMARK H PARENT 12 2 14 16
ROOT
ATOM      1  N   UNL     1       0.547  -0.200   0.953  1.00  0.00    -0.352 N 
ATOM      2  H   UNL     1       0.674   0.735   0.506  1.00  0.00     0.163 HD
ENDROOT
BRANCH   1   3
ATOM      3  C   UNL     1      -0.752  -0.504   1.570  1.00  0.00     0.108 C 
ATOM      4  C   UNL     1      -1.530  -1.526   0.692  1.00  0.00     0.145 C 
ATOM      5  C   UNL     1      -2.577  -0.700   0.040  1.00  0.00    -0.025 A 
ATOM      6  C   UNL     1      -3.442  -1.094  -0.987  1.00  0.00     0.005 A 
ATOM      7  C   UNL     1      -2.633   0.568   0.564  1.00  0.00    -0.041 A 
ATOM      8  C   UNL     1      -1.642   0.765   1.646  1.00  0.00     0.062 C 
ATOM      9  C   UNL     1      -4.379  -0.170  -1.472  1.00  0.00     0.000 A 
ATOM     10  C   UNL     1      -3.564   1.501   0.101  1.00  0.00     0.004 A 
ATOM     11  C   UNL     1      -4.441   1.126  -0.928  1.00  0.00     0.000 A 
BRANCH   4  12
ATOM     12  C   UNL     1      -2.157  -2.570   1.518  1.00  0.00     0.073 C 
ATOM     13  N   UNL     1      -2.651  -3.391   2.166  1.00  0.00    -0.198 NA
ENDBRANCH   4  12
ENDBRANCH   1   3
BRANCH   1  14
ATOM     14  C   UNL     1       1.649  -1.135   0.940  1.00  0.00     0.183 C 
BRANCH  14  15
ATOM     15  O   UNL     1       1.551  -2.362   1.602  1.00  0.00    -0.495 OA
ATOM     16  H   UNL     1       0.726  -2.654   2.108  1.00  0.00     0.295 HD
ENDBRANCH  14  15
BRANCH  14  17
ATOM     17  C   UNL     1       2.794  -0.850   0.293  1.00  0.00    -0.011 C 
ATOM     18  C   UNL     1       3.050   0.397  -0.483  1.00  0.00     0.036 C 
ATOM     19  C   UNL     1       3.963  -1.773   0.271  1.00  0.00     0.036 C 
ATOM     20  C   UNL     1       4.398   0.165  -1.155  1.00  0.00     0.005 C 
ATOM     21  C   UNL     1       5.076  -0.971  -0.393  1.00  0.00     0.005 C 
ENDBRANCH  14  17
ENDBRANCH   1  14
TORSDOF 5


