REMARK SMILES Cc1cc(N=C=O)c(N)c(-n2nc3ccccc3n2)c1
REMARK SMILES IDX 3 1 4 2 8 3 10 4 20 5 2 6 1 7 5 8 6 9 7 10 9 11 11 14 12 15
REMARK SMILES IDX 19 16 13 17 18 18 14 19 17 20 15 21 16 22
REMARK H PARENT 9 12 9 13
ROOT
ATOM      1  C   UNL     1      -2.221   2.838  -0.744  1.00  0.00     0.035 A 
ATOM      2  C   UNL     1      -1.218   3.287   0.138  1.00  0.00     0.102 A 
ATOM      3  C   UNL     1      -0.145   2.429   0.467  1.00  0.00     0.086 A 
ATOM      4  C   UNL     1      -0.075   1.139  -0.113  1.00  0.00     0.111 A 
ATOM      5  C   UNL     1      -1.099   0.709  -0.970  1.00  0.00     0.036 A 
ATOM      6  C   UNL     1      -2.161   1.557  -1.302  1.00  0.00    -0.047 A 
ATOM      7  C   UNL     1      -3.261   1.073  -2.201  1.00  0.00     0.044 C 
ENDROOT
BRANCH   2   8
ATOM      8  N   UNL     1      -1.279   4.596   0.733  1.00  0.00    -0.166 NA
BRANCH   8   9
ATOM      9  C   UNL     1      -2.203   5.444   0.508  1.00  0.00     0.240 C 
ATOM     10  O   UNL     1      -3.100   6.268   0.289  1.00  0.00    -0.211 OA
ENDBRANCH   8   9
ENDBRANCH   2   8
BRANCH   3  11
ATOM     11  N   UNL     1       0.828   2.850   1.436  1.00  0.00    -0.395 N 
ATOM     12  H   UNL     1       1.430   2.163   1.939  1.00  0.00     0.156 HD
ATOM     13  H   UNL     1       0.890   3.844   1.750  1.00  0.00     0.156 HD
ENDBRANCH   3  11
BRANCH   4  14
ATOM     14  N   UNL     1       1.040   0.264   0.125  1.00  0.00    -0.148 N 
ATOM     15  N   UNL     1       0.916  -1.057   0.255  1.00  0.00    -0.148 NA
ATOM     16  N   UNL     1       2.309   0.671   0.148  1.00  0.00    -0.148 NA
ATOM     17  C   UNL     1       2.172  -1.506   0.391  1.00  0.00     0.113 A 
ATOM     18  C   UNL     1       3.025  -0.448   0.326  1.00  0.00     0.113 A 
ATOM     19  C   UNL     1       2.621  -2.812   0.561  1.00  0.00     0.032 A 
ATOM     20  C   UNL     1       4.404  -0.599   0.425  1.00  0.00     0.032 A 
ATOM     21  C   UNL     1       4.013  -3.008   0.669  1.00  0.00     0.002 A 
ATOM     22  C   UNL     1       4.900  -1.906   0.601  1.00  0.00     0.002 A 
ENDBRANCH   4  14
TORSDOF 4


