REMARK SMILES C=Cc1cc(NN)c([O-])c(-n2nc3ccccc3n2)c1
REMARK SMILES IDX 3 1 4 2 5 3 8 4 9 5 10 6 20 7 2 8 1 9 6 10 7 12 11 15 12 16
REMARK SMILES IDX 19 17 13 18 18 19 14 20 17 21 15 22 16 23
REMARK H PARENT 6 11 7 13 7 14
ROOT
ATOM      1  C   UNL     1      -1.319   2.232  -0.680  1.00  0.00    -0.022 A 
ATOM      2  C   UNL     1      -1.675   1.937  -2.003  1.00  0.00     0.034 A 
ATOM      3  C   UNL     1      -1.562   0.632  -2.508  1.00  0.00     0.043 A 
ATOM      4  C   UNL     1      -1.074  -0.393  -1.675  1.00  0.00    -0.055 A 
ATOM      5  O   UNL     1      -0.976  -1.686  -2.178  1.00  0.00    -0.870 OA
ATOM      6  C   UNL     1      -0.690  -0.111  -0.345  1.00  0.00     0.081 A 
ATOM      7  C   UNL     1      -0.816   1.205   0.137  1.00  0.00     0.037 A 
ENDROOT
BRANCH   1   8
ATOM      8  C   UNL     1      -1.455   3.632  -0.207  1.00  0.00     0.000 C 
ATOM      9  C   UNL     1      -1.516   3.986   1.078  1.00  0.00     0.009 C 
ENDBRANCH   1   8
BRANCH   3  10
ATOM     10  N   UNL     1      -1.943   0.339  -3.865  1.00  0.00    -0.325 N 
ATOM     11  H   UNL     1      -1.856  -0.634  -4.236  1.00  0.00     0.181 HD
BRANCH  10  12
ATOM     12  N   UNL     1      -2.434   1.339  -4.718  1.00  0.00    -0.250 NA
ATOM     13  H   UNL     1      -1.809   1.363  -5.556  1.00  0.00     0.143 HD
ATOM     14  H   UNL     1      -3.376   1.027  -5.047  1.00  0.00     0.143 HD
ENDBRANCH  10  12
ENDBRANCH   3  10
BRANCH   6  15
ATOM     15  N   UNL     1      -0.170  -1.141   0.525  1.00  0.00    -0.151 N 
ATOM     16  N   UNL     1       0.101  -2.387   0.135  1.00  0.00    -0.148 NA
ATOM     17  N   UNL     1       0.100  -0.942   1.817  1.00  0.00    -0.148 NA
ATOM     18  C   UNL     1       0.562  -3.005   1.232  1.00  0.00     0.113 A 
ATOM     19  C   UNL     1       0.562  -2.119   2.262  1.00  0.00     0.113 A 
ATOM     20  C   UNL     1       0.990  -4.320   1.382  1.00  0.00     0.032 A 
ATOM     21  C   UNL     1       0.990  -2.466   3.540  1.00  0.00     0.032 A 
ATOM     22  C   UNL     1       1.432  -4.713   2.661  1.00  0.00     0.002 A 
ATOM     23  C   UNL     1       1.432  -3.790   3.736  1.00  0.00     0.002 A 
ENDBRANCH   6  15
TORSDOF 4


