MODEL 1
REMARK VINA RESULT:      -6.2      0.000      0.000
REMARK SMILES F[C@@]12CC=N[C@@H]1CC[C@@H](c1cnc3ocnc3c1)[C@H]2Cl
REMARK SMILES IDX 1 1 2 2 3 3 4 4 5 5 6 6 7 7 8 8 9 9 19 10 20 11 10 12 11 13
REMARK SMILES IDX 18 14 12 15 17 16 13 17 16 18 14 19 15 20
REMARK H PARENT
ROOT
ATOM      1  F   UNL     1      43.091 131.999  21.178  1.00  0.00    -0.239 F 
ATOM      2  C   UNL     1      44.016 131.484  22.074  1.00  0.00     0.154 C 
ATOM      3  C   UNL     1      43.859 132.227  23.417  1.00  0.00     0.092 C 
ATOM      4  C   UNL     1      43.287 131.192  24.312  1.00  0.00     0.081 C 
ATOM      5  N   UNL     1      43.182 130.041  23.772  1.00  0.00    -0.291 NA
ATOM      6  C   UNL     1      43.638 130.014  22.409  1.00  0.00     0.144 C 
ATOM      7  C   UNL     1      44.814 129.035  22.275  1.00  0.00     0.031 C 
ATOM      8  C   UNL     1      45.435 129.104  20.874  1.00  0.00     0.012 C 
ATOM      9  C   UNL     1      45.782 130.554  20.416  1.00  0.00     0.042 C 
ATOM     10  C   UNL     1      45.447 131.628  21.490  1.00  0.00     0.128 C 
ATOM     11  Cl  UNL     1      45.733 133.296  20.895  1.00  0.00    -0.119 Cl
ENDROOT
BRANCH   9  12
ATOM     12  C   UNL     1      45.209 130.882  19.041  1.00  0.00    -0.022 A 
ATOM     13  C   UNL     1      43.935 131.513  18.941  1.00  0.00     0.119 A 
ATOM     14  C   UNL     1      45.894 130.548  17.845  1.00  0.00     0.040 A 
ATOM     15  N   UNL     1      43.382 131.796  17.722  1.00  0.00    -0.219 NA
ATOM     16  C   UNL     1      45.280 130.863  16.641  1.00  0.00     0.129 A 
ATOM     17  C   UNL     1      44.070 131.464  16.604  1.00  0.00     0.246 A 
ATOM     18  N   UNL     1      45.724 130.652  15.390  1.00  0.00    -0.215 NA
ATOM     19  O   UNL     1      43.713 131.651  15.365  1.00  0.00    -0.425 OA
ATOM     20  C   UNL     1      44.708 131.163  14.640  1.00  0.00     0.311 A 
ENDBRANCH   9  12
TORSDOF 1
ENDMDL
MODEL 2
REMARK VINA RESULT:      -6.2      3.663      6.818
REMARK SMILES F[C@@]12CC=N[C@@H]1CC[C@@H](c1cnc3ocnc3c1)[C@H]2Cl
REMARK SMILES IDX 1 1 2 2 3 3 4 4 5 5 6 6 7 7 8 8 9 9 19 10 20 11 10 12 11 13
REMARK SMILES IDX 18 14 12 15 17 16 13 17 16 18 14 19 15 20
REMARK H PARENT
ROOT
ATOM      1  F   UNL     1      46.611 132.137  15.329  1.00  0.00    -0.239 F 
ATOM      2  C   UNL     1      46.419 131.104  14.424  1.00  0.00     0.154 C 
ATOM      3  C   UNL     1      46.878 131.584  13.032  1.00  0.00     0.092 C 
ATOM      4  C   UNL     1      48.105 130.788  12.788  1.00  0.00     0.081 C 
ATOM      5  N   UNL     1      48.358 129.932  13.700  1.00  0.00    -0.291 NA
ATOM      6  C   UNL     1      47.392 129.941  14.764  1.00  0.00     0.144 C 
ATOM      7  C   UNL     1      46.702 128.571  14.849  1.00  0.00     0.031 C 
ATOM      8  C   UNL     1      45.548 128.594  15.861  1.00  0.00     0.012 C 
ATOM      9  C   UNL     1      44.554 129.776  15.646  1.00  0.00     0.042 C 
ATOM     10  C   UNL     1      44.927 130.673  14.432  1.00  0.00     0.128 C 
ATOM     11  Cl  UNL     1      43.846 132.097  14.282  1.00  0.00    -0.119 Cl
ENDROOT
BRANCH   9  12
ATOM     12  C   UNL     1      44.310 130.570  16.926  1.00  0.00    -0.022 A 
ATOM     13  C   UNL     1      45.358 130.701  17.884  1.00  0.00     0.119 A 
ATOM     14  C   UNL     1      43.054 131.160  17.214  1.00  0.00     0.040 A 
ATOM     15  N   UNL     1      45.164 131.384  19.052  1.00  0.00    -0.219 NA
ATOM     16  C   UNL     1      42.921 131.840  18.416  1.00  0.00     0.129 A 
ATOM     17  C   UNL     1      43.950 131.936  19.288  1.00  0.00     0.246 A 
ATOM     18  N   UNL     1      41.845 132.478  18.908  1.00  0.00    -0.215 NA
ATOM     19  O   UNL     1      43.575 132.618  20.332  1.00  0.00    -0.425 OA
ATOM     20  C   UNL     1      42.312 132.941  20.101  1.00  0.00     0.311 A 
ENDBRANCH   9  12
TORSDOF 1
ENDMDL
MODEL 3
REMARK VINA RESULT:      -5.9      4.450      6.374
REMARK SMILES F[C@@]12CC=N[C@@H]1CC[C@@H](c1cnc3ocnc3c1)[C@H]2Cl
REMARK SMILES IDX 1 1 2 2 3 3 4 4 5 5 6 6 7 7 8 8 9 9 19 10 20 11 10 12 11 13
REMARK SMILES IDX 18 14 12 15 17 16 13 17 16 18 14 19 15 20
REMARK H PARENT
ROOT
ATOM      1  F   UNL     1      44.092 125.755  21.456  1.00  0.00    -0.239 F 
ATOM      2  C   UNL     1      44.379 124.975  22.567  1.00  0.00     0.154 C 
ATOM      3  C   UNL     1      43.901 123.535  22.286  1.00  0.00     0.092 C 
ATOM      4  C   UNL     1      45.169 122.778  22.153  1.00  0.00     0.081 C 
ATOM      5  N   UNL     1      46.214 123.472  22.382  1.00  0.00    -0.291 NA
ATOM      6  C   UNL     1      45.920 124.840  22.711  1.00  0.00     0.144 C 
ATOM      7  C   UNL     1      46.431 125.154  24.127  1.00  0.00     0.031 C 
ATOM      8  C   UNL     1      45.988 126.552  24.578  1.00  0.00     0.012 C 
ATOM      9  C   UNL     1      44.459 126.810  24.399  1.00  0.00     0.042 C 
ATOM     10  C   UNL     1      43.698 125.582  23.823  1.00  0.00     0.128 C 
ATOM     11  Cl  UNL     1      41.970 125.944  23.506  1.00  0.00    -0.119 Cl
ENDROOT
BRANCH   9  12
ATOM     12  C   UNL     1      44.173 128.104  23.643  1.00  0.00    -0.022 A 
ATOM     13  C   UNL     1      43.048 128.899  24.010  1.00  0.00     0.119 A 
ATOM     14  C   UNL     1      44.977 128.530  22.556  1.00  0.00     0.040 A 
ATOM     15  N   UNL     1      42.749 130.050  23.335  1.00  0.00    -0.219 NA
ATOM     16  C   UNL     1      44.621 129.707  21.914  1.00  0.00     0.129 A 
ATOM     17  C   UNL     1      43.543 130.424  22.305  1.00  0.00     0.246 A 
ATOM     18  N   UNL     1      45.218 130.311  20.873  1.00  0.00    -0.215 NA
ATOM     19  O   UNL     1      43.423 131.478  21.549  1.00  0.00    -0.425 OA
ATOM     20  C   UNL     1      44.430 131.407  20.691  1.00  0.00     0.311 A 
ENDBRANCH   9  12
TORSDOF 1
ENDMDL
MODEL 4
REMARK VINA RESULT:      -5.8      3.270      6.803
REMARK SMILES F[C@@]12CC=N[C@@H]1CC[C@@H](c1cnc3ocnc3c1)[C@H]2Cl
REMARK SMILES IDX 1 1 2 2 3 3 4 4 5 5 6 6 7 7 8 8 9 9 19 10 20 11 10 12 11 13
REMARK SMILES IDX 18 14 12 15 17 16 13 17 16 18 14 19 15 20
REMARK H PARENT
ROOT
ATOM      1  F   UNL     1      46.821 132.025  15.331  1.00  0.00    -0.239 F 
ATOM      2  C   UNL     1      46.544 131.044  14.391  1.00  0.00     0.154 C 
ATOM      3  C   UNL     1      46.946 131.575  13.000  1.00  0.00     0.092 C 
ATOM      4  C   UNL     1      48.130 130.752  12.653  1.00  0.00     0.081 C 
ATOM      5  N   UNL     1      48.399 129.845  13.508  1.00  0.00    -0.291 NA
ATOM      6  C   UNL     1      47.492 129.834  14.623  1.00  0.00     0.144 C 
ATOM      7  C   UNL     1      46.759 128.485  14.681  1.00  0.00     0.031 C 
ATOM      8  C   UNL     1      45.663 128.497  15.754  1.00  0.00     0.012 C 
ATOM      9  C   UNL     1      44.701 129.721  15.650  1.00  0.00     0.042 C 
ATOM     10  C   UNL     1      45.041 130.663  14.460  1.00  0.00     0.128 C 
ATOM     11  Cl  UNL     1      44.005 132.127  14.437  1.00  0.00    -0.119 Cl
ENDROOT
BRANCH   9  12
ATOM     12  C   UNL     1      44.553 130.459  16.977  1.00  0.00    -0.022 A 
ATOM     13  C   UNL     1      43.420 131.296  17.195  1.00  0.00     0.119 A 
ATOM     14  C   UNL     1      45.531 130.365  17.999  1.00  0.00     0.040 A 
ATOM     15  N   UNL     1      43.272 131.991  18.363  1.00  0.00    -0.219 NA
ATOM     16  C   UNL     1      45.322 131.094  19.161  1.00  0.00     0.129 A 
ATOM     17  C   UNL     1      44.227 131.872  19.315  1.00  0.00     0.246 A 
ATOM     18  N   UNL     1      46.093 131.167  20.259  1.00  0.00    -0.215 NA
ATOM     19  O   UNL     1      44.263 132.448  20.483  1.00  0.00    -0.425 OA
ATOM     20  C   UNL     1      45.384 132.023  21.046  1.00  0.00     0.311 A 
ENDBRANCH   9  12
TORSDOF 1
ENDMDL
MODEL 5
REMARK VINA RESULT:      -5.7      2.725      5.958
REMARK SMILES F[C@@]12CC=N[C@@H]1CC[C@@H](c1cnc3ocnc3c1)[C@H]2Cl
REMARK SMILES IDX 1 1 2 2 3 3 4 4 5 5 6 6 7 7 8 8 9 9 19 10 20 11 10 12 11 13
REMARK SMILES IDX 18 14 12 15 17 16 13 17 16 18 14 19 15 20
REMARK H PARENT
ROOT
ATOM      1  F   UNL     1      45.036 130.166  19.254  1.00  0.00    -0.239 F 
ATOM      2  C   UNL     1      44.656 131.406  18.763  1.00  0.00     0.154 C 
ATOM      3  C   UNL     1      45.618 131.792  17.620  1.00  0.00     0.092 C 
ATOM      4  C   UNL     1      44.762 131.701  16.413  1.00  0.00     0.081 C 
ATOM      5  N   UNL     1      43.540 131.435  16.662  1.00  0.00    -0.291 NA
ATOM      6  C   UNL     1      43.274 131.276  18.066  1.00  0.00     0.144 C 
ATOM      7  C   UNL     1      42.256 132.333  18.523  1.00  0.00     0.031 C 
ATOM      8  C   UNL     1      42.074 132.303  20.046  1.00  0.00     0.012 C 
ATOM      9  C   UNL     1      43.418 132.353  20.837  1.00  0.00     0.042 C 
ATOM     10  C   UNL     1      44.664 132.449  19.912  1.00  0.00     0.128 C 
ATOM     11  Cl  UNL     1      46.201 132.377  20.835  1.00  0.00    -0.119 Cl
ENDROOT
BRANCH   9  12
ATOM     12  C   UNL     1      43.524 131.240  21.874  1.00  0.00    -0.022 A 
ATOM     13  C   UNL     1      42.752 131.316  23.070  1.00  0.00     0.119 A 
ATOM     14  C   UNL     1      44.398 130.137  21.703  1.00  0.00     0.040 A 
ATOM     15  N   UNL     1      42.843 130.348  24.031  1.00  0.00    -0.219 NA
ATOM     16  C   UNL     1      44.444 129.188  22.714  1.00  0.00     0.129 A 
ATOM     17  C   UNL     1      43.687 129.309  23.828  1.00  0.00     0.246 A 
ATOM     18  N   UNL     1      45.181 128.067  22.782  1.00  0.00    -0.215 NA
ATOM     19  O   UNL     1      43.910 128.298  24.618  1.00  0.00    -0.425 OA
ATOM     20  C   UNL     1      44.807 127.555  23.988  1.00  0.00     0.311 A 
ENDBRANCH   9  12
TORSDOF 1
ENDMDL
MODEL 6
REMARK VINA RESULT:      -5.6      2.773      6.205
REMARK SMILES F[C@@]12CC=N[C@@H]1CC[C@@H](c1cnc3ocnc3c1)[C@H]2Cl
REMARK SMILES IDX 1 1 2 2 3 3 4 4 5 5 6 6 7 7 8 8 9 9 19 10 20 11 10 12 11 13
REMARK SMILES IDX 18 14 12 15 17 16 13 17 16 18 14 19 15 20
REMARK H PARENT
ROOT
ATOM      1  F   UNL     1      45.050 129.989  18.957  1.00  0.00    -0.239 F 
ATOM      2  C   UNL     1      44.728 131.287  18.590  1.00  0.00     0.154 C 
ATOM      3  C   UNL     1      45.686 131.726  17.464  1.00  0.00     0.092 C 
ATOM      4  C   UNL     1      44.802 131.792  16.275  1.00  0.00     0.081 C 
ATOM      5  N   UNL     1      43.572 131.568  16.530  1.00  0.00    -0.291 NA
ATOM      6  C   UNL     1      43.326 131.294  17.919  1.00  0.00     0.144 C 
ATOM      7  C   UNL     1      42.377 132.356  18.496  1.00  0.00     0.031 C 
ATOM      8  C   UNL     1      42.224 132.195  20.014  1.00  0.00     0.012 C 
ATOM      9  C   UNL     1      43.585 132.102  20.772  1.00  0.00     0.042 C 
ATOM     10  C   UNL     1      44.816 132.218  19.829  1.00  0.00     0.128 C 
ATOM     11  Cl  UNL     1      46.364 131.980  20.703  1.00  0.00    -0.119 Cl
ENDROOT
BRANCH   9  12
ATOM     12  C   UNL     1      43.651 130.893  21.701  1.00  0.00    -0.022 A 
ATOM     13  C   UNL     1      44.837 130.103  21.743  1.00  0.00     0.119 A 
ATOM     14  C   UNL     1      42.551 130.507  22.507  1.00  0.00     0.040 A 
ATOM     15  N   UNL     1      44.919 128.998  22.545  1.00  0.00    -0.219 NA
ATOM     16  C   UNL     1      42.699 129.377  23.300  1.00  0.00     0.129 A 
ATOM     17  C   UNL     1      43.847 128.665  23.303  1.00  0.00     0.246 A 
ATOM     18  N   UNL     1      41.812 128.819  24.141  1.00  0.00    -0.215 NA
ATOM     19  O   UNL     1      43.734 127.659  24.123  1.00  0.00    -0.425 OA
ATOM     20  C   UNL     1      42.512 127.754  24.624  1.00  0.00     0.311 A 
ENDBRANCH   9  12
TORSDOF 1
ENDMDL
MODEL 7
REMARK VINA RESULT:      -5.3      4.892      6.922
REMARK SMILES F[C@@]12CC=N[C@@H]1CC[C@@H](c1cnc3ocnc3c1)[C@H]2Cl
REMARK SMILES IDX 1 1 2 2 3 3 4 4 5 5 6 6 7 7 8 8 9 9 19 10 20 11 10 12 11 13
REMARK SMILES IDX 18 14 12 15 17 16 13 17 16 18 14 19 15 20
REMARK H PARENT
ROOT
ATOM      1  F   UNL     1      42.402 125.592  21.859  1.00  0.00    -0.239 F 
ATOM      2  C   UNL     1      42.794 124.628  22.775  1.00  0.00     0.154 C 
ATOM      3  C   UNL     1      41.883 123.396  22.606  1.00  0.00     0.092 C 
ATOM      4  C   UNL     1      42.794 122.378  22.027  1.00  0.00     0.081 C 
ATOM      5  N   UNL     1      44.005 122.764  21.927  1.00  0.00    -0.291 NA
ATOM      6  C   UNL     1      44.208 124.108  22.395  1.00  0.00     0.144 C 
ATOM      7  C   UNL     1      45.196 124.103  23.573  1.00  0.00     0.031 C 
ATOM      8  C   UNL     1      45.309 125.496  24.206  1.00  0.00     0.012 C 
ATOM      9  C   UNL     1      43.930 126.136  24.556  1.00  0.00     0.042 C 
ATOM     10  C   UNL     1      42.726 125.214  24.211  1.00  0.00     0.128 C 
ATOM     11  Cl  UNL     1      41.150 126.019  24.503  1.00  0.00    -0.119 Cl
ENDROOT
BRANCH   9  12
ATOM     12  C   UNL     1      43.785 127.547  23.996  1.00  0.00    -0.022 A 
ATOM     13  C   UNL     1      42.732 128.386  24.464  1.00  0.00     0.119 A 
ATOM     14  C   UNL     1      44.651 128.047  22.991  1.00  0.00     0.040 A 
ATOM     15  N   UNL     1      42.559 129.646  23.963  1.00  0.00    -0.219 NA
ATOM     16  C   UNL     1      44.424 129.334  22.525  1.00  0.00     0.129 A 
ATOM     17  C   UNL     1      43.410 130.087  23.007  1.00  0.00     0.246 A 
ATOM     18  N   UNL     1      45.100 130.022  21.590  1.00  0.00    -0.215 NA
ATOM     19  O   UNL     1      43.408 131.247  22.413  1.00  0.00    -0.425 OA
ATOM     20  C   UNL     1      44.424 131.204  21.564  1.00  0.00     0.311 A 
ENDBRANCH   9  12
TORSDOF 1
ENDMDL
MODEL 8
REMARK VINA RESULT:      -5.3      7.147      8.497
REMARK SMILES F[C@@]12CC=N[C@@H]1CC[C@@H](c1cnc3ocnc3c1)[C@H]2Cl
REMARK SMILES IDX 1 1 2 2 3 3 4 4 5 5 6 6 7 7 8 8 9 9 19 10 20 11 10 12 11 13
REMARK SMILES IDX 18 14 12 15 17 16 13 17 16 18 14 19 15 20
REMARK H PARENT
ROOT
ATOM      1  F   UNL     1      46.720 125.895  21.834  1.00  0.00    -0.239 F 
ATOM      2  C   UNL     1      46.051 125.315  22.902  1.00  0.00     0.154 C 
ATOM      3  C   UNL     1      45.083 126.359  23.494  1.00  0.00     0.092 C 
ATOM      4  C   UNL     1      43.748 125.828  23.126  1.00  0.00     0.081 C 
ATOM      5  N   UNL     1      43.783 124.695  22.543  1.00  0.00    -0.291 NA
ATOM      6  C   UNL     1      45.119 124.192  22.370  1.00  0.00     0.144 C 
ATOM      7  C   UNL     1      45.273 122.861  23.123  1.00  0.00     0.031 C 
ATOM      8  C   UNL     1      46.730 122.379  23.101  1.00  0.00     0.012 C 
ATOM      9  C   UNL     1      47.754 123.467  23.549  1.00  0.00     0.042 C 
ATOM     10  C   UNL     1      47.079 124.810  23.950  1.00  0.00     0.128 C 
ATOM     11  Cl  UNL     1      48.281 126.083  24.338  1.00  0.00    -0.119 Cl
ENDROOT
BRANCH   9  12
ATOM     12  C   UNL     1      48.891 123.642  22.548  1.00  0.00    -0.022 A 
ATOM     13  C   UNL     1      50.186 124.016  23.012  1.00  0.00     0.119 A 
ATOM     14  C   UNL     1      48.695 123.475  21.154  1.00  0.00     0.040 A 
ATOM     15  N   UNL     1      51.220 124.207  22.138  1.00  0.00    -0.219 NA
ATOM     16  C   UNL     1      49.785 123.681  20.320  1.00  0.00     0.129 A 
ATOM     17  C   UNL     1      50.992 124.034  20.814  1.00  0.00     0.246 A 
ATOM     18  N   UNL     1      49.850 123.583  18.981  1.00  0.00    -0.215 NA
ATOM     19  O   UNL     1      51.842 124.167  19.836  1.00  0.00    -0.425 OA
ATOM     20  C   UNL     1      51.153 123.896  18.738  1.00  0.00     0.311 A 
ENDBRANCH   9  12
TORSDOF 1
ENDMDL
MODEL 9
REMARK VINA RESULT:      -5.1      7.439      8.271
REMARK SMILES F[C@@]12CC=N[C@@H]1CC[C@@H](c1cnc3ocnc3c1)[C@H]2Cl
REMARK SMILES IDX 1 1 2 2 3 3 4 4 5 5 6 6 7 7 8 8 9 9 19 10 20 11 10 12 11 13
REMARK SMILES IDX 18 14 12 15 17 16 13 17 16 18 14 19 15 20
REMARK H PARENT
ROOT
ATOM      1  F   UNL     1      44.348 125.536  22.090  1.00  0.00    -0.239 F 
ATOM      2  C   UNL     1      43.649 125.119  23.212  1.00  0.00     0.154 C 
ATOM      3  C   UNL     1      42.501 126.117  23.469  1.00  0.00     0.092 C 
ATOM      4  C   UNL     1      41.288 125.329  23.140  1.00  0.00     0.081 C 
ATOM      5  N   UNL     1      41.526 124.111  22.846  1.00  0.00    -0.291 NA
ATOM      6  C   UNL     1      42.924 123.782  22.895  1.00  0.00     0.144 C 
ATOM      7  C   UNL     1      43.163 122.691  23.950  1.00  0.00     0.031 C 
ATOM      8  C   UNL     1      44.662 122.433  24.150  1.00  0.00     0.012 C 
ATOM      9  C   UNL     1      45.491 123.731  24.402  1.00  0.00     0.042 C 
ATOM     10  C   UNL     1      44.616 125.017  24.422  1.00  0.00     0.128 C 
ATOM     11  Cl  UNL     1      45.602 126.506  24.585  1.00  0.00    -0.119 Cl
ENDROOT
BRANCH   9  12
ATOM     12  C   UNL     1      46.696 123.840  23.473  1.00  0.00    -0.022 A 
ATOM     13  C   UNL     1      47.865 124.526  23.915  1.00  0.00     0.119 A 
ATOM     14  C   UNL     1      46.682 123.306  22.160  1.00  0.00     0.040 A 
ATOM     15  N   UNL     1      48.953 124.664  23.098  1.00  0.00    -0.219 NA
ATOM     16  C   UNL     1      47.818 123.478  21.381  1.00  0.00     0.129 A 
ATOM     17  C   UNL     1      48.900 124.136  21.853  1.00  0.00     0.246 A 
ATOM     18  N   UNL     1      48.045 123.067  20.123  1.00  0.00    -0.215 NA
ATOM     19  O   UNL     1      49.827 124.163  20.937  1.00  0.00    -0.425 OA
ATOM     20  C   UNL     1      49.309 123.521  19.901  1.00  0.00     0.311 A 
ENDBRANCH   9  12
TORSDOF 1
ENDMDL


