REMARK SMILES Cc1ccc([C@H]2CC[C@@H](N)[C@@]3(C=O)CC=N[C@@H]23)cc1F
REMARK SMILES IDX 6 1 7 2 8 3 9 4 11 5 14 6 15 7 16 8 17 9 5 10 2 11 3 12
REMARK SMILES IDX 19 13 4 14 18 15 1 16 20 17 12 18 13 19 10 20
REMARK H PARENT 10 21 10 22
ROOT
ATOM      1  C   UNL     1       0.037  -0.129   0.140  1.00  0.00     0.045 C 
ATOM      2  C   UNL     1      -0.403   1.291  -0.290  1.00  0.00     0.012 C 
ATOM      3  C   UNL     1      -1.692   1.776   0.409  1.00  0.00     0.020 C 
ATOM      4  C   UNL     1      -2.048   0.949   1.662  1.00  0.00     0.066 C 
ATOM      5  C   UNL     1      -2.251  -0.567   1.303  1.00  0.00     0.069 C 
ATOM      6  C   UNL     1      -3.577  -0.801   0.522  1.00  0.00     0.066 C 
ATOM      7  C   UNL     1      -3.116  -1.149  -0.843  1.00  0.00     0.079 C 
ATOM      8  N   UNL     1      -1.853  -1.287  -0.941  1.00  0.00    -0.292 NA
ATOM      9  C   UNL     1      -1.162  -1.092   0.306  1.00  0.00     0.127 C 
ENDROOT
BRANCH   1  10
ATOM     10  C   UNL     1       1.115  -0.706  -0.769  1.00  0.00    -0.040 A 
ATOM     11  C   UNL     1       3.129  -1.814  -2.410  1.00  0.00    -0.015 A 
ATOM     12  C   UNL     1       3.315  -1.720  -1.024  1.00  0.00     0.007 A 
ATOM     13  C   UNL     1       1.920  -1.375  -2.972  1.00  0.00     0.126 A 
ATOM     14  C   UNL     1       2.320  -1.171  -0.212  1.00  0.00     0.004 A 
ATOM     15  C   UNL     1       0.924  -0.825  -2.160  1.00  0.00     0.043 A 
ATOM     16  C   UNL     1       4.187  -2.431  -3.278  1.00  0.00     0.047 C 
ATOM     17  F   UNL     1       1.702  -1.484  -4.308  1.00  0.00    -0.207 F 
ENDBRANCH   1  10
BRANCH   5  18
ATOM     18  C   UNL     1      -2.227  -1.387   2.581  1.00  0.00     0.235 C 
ATOM     19  O   UNL     1      -1.214  -1.445   3.261  1.00  0.00    -0.303 OA
ENDBRANCH   5  18
BRANCH   4  20
ATOM     20  N   UNL     1      -3.239   1.509   2.309  1.00  0.00    -0.327 NA
ATOM     21  H   UNL     1      -3.034   2.496   2.588  1.00  0.00     0.119 HD
ATOM     22  H   UNL     1      -3.409   0.991   3.202  1.00  0.00     0.119 HD
ENDBRANCH   4  20
TORSDOF 3


