REMARK SMILES N#C[C@H]1c2ccccc2C[C@@H]1NC(=O)C1CCCC1
REMARK SMILES IDX 3 1 4 2 5 3 6 4 7 5 8 6 9 7 10 8 11 9 2 10 1 11 12 12 13 13
REMARK SMILES IDX 14 15 15 16 16 17 19 18 17 19 18 20
REMARK H PARENT 12 14
ROOT
ATOM      1  C   UNL     1       0.494   1.691   0.643  1.00  0.00     0.145 C 
ATOM      2  C   UNL     1       0.366   2.778  -0.360  1.00  0.00    -0.025 A 
ATOM      3  C   UNL     1      -0.673   3.709  -0.463  1.00  0.00     0.005 A 
ATOM      4  C   UNL     1      -0.619   4.671  -1.483  1.00  0.00     0.000 A 
ATOM      5  C   UNL     1       0.464   4.691  -2.380  1.00  0.00     0.000 A 
ATOM      6  C   UNL     1       1.495   3.746  -2.260  1.00  0.00     0.004 A 
ATOM      7  C   UNL     1       1.418   2.792  -1.242  1.00  0.00    -0.041 A 
ATOM      8  C   UNL     1       2.406   1.730  -0.949  1.00  0.00     0.062 C 
ATOM      9  C   UNL     1       1.722   0.875   0.149  1.00  0.00     0.108 C 
ENDROOT
BRANCH   1  10
ATOM     10  C   UNL     1       0.734   2.263   1.978  1.00  0.00     0.073 C 
ATOM     11  N   UNL     1       0.921   2.712   3.028  1.00  0.00    -0.198 NA
ENDBRANCH   1  10
BRANCH   9  12
ATOM     12  N   UNL     1       1.280  -0.418  -0.388  1.00  0.00    -0.351 N 
ATOM     13  C   UNL     1       0.873  -1.493   0.472  1.00  0.00     0.223 C 
ATOM     14  H   UNL     1       1.241  -0.567  -1.422  1.00  0.00     0.163 HD
ATOM     15  O   UNL     1       0.913  -1.349   1.725  1.00  0.00    -0.275 OA
BRANCH  13  16
ATOM     16  C   UNL     1       0.376  -2.789  -0.119  1.00  0.00     0.078 C 
ATOM     17  C   UNL     1      -1.081  -3.065   0.226  1.00  0.00     0.013 C 
ATOM     18  C   UNL     1       1.137  -4.005   0.395  1.00  0.00     0.013 C 
ATOM     19  C   UNL     1      -1.235  -4.580   0.155  1.00  0.00     0.001 C 
ATOM     20  C   UNL     1       0.172  -5.175   0.243  1.00  0.00     0.001 C 
ENDBRANCH  13  16
ENDBRANCH   9  12
TORSDOF 3


