MODEL 1
REMARK VINA RESULT:     -10.4      0.000      0.000
REMARK SMILES C=Cc1ccc(-c2ccc([NH2+]c3ccc([O-])cc3F)c3ccoc23)nc1
REMARK SMILES IDX 7 1 8 2 9 3 10 4 20 5 21 6 22 7 23 8 24 9 6 10 3 11 4 12
REMARK SMILES IDX 26 13 5 14 25 15 2 16 1 17 11 18 12 21 13 22 18 23 14 24
REMARK SMILES IDX 17 25 15 26 19 27 16 28
REMARK H PARENT 11 19 11 20
ROOT
ATOM      1  C   UNL     1      45.153 131.066  18.863  1.00  0.00     0.044 A 
ATOM      2  C   UNL     1      45.996 130.502  19.850  1.00  0.00     0.020 A 
ATOM      3  C   UNL     1      45.623 130.508  21.210  1.00  0.00     0.070 A 
ATOM      4  C   UNL     1      44.394 131.069  21.624  1.00  0.00     0.145 A 
ATOM      5  C   UNL     1      43.573 131.610  20.625  1.00  0.00     0.082 A 
ATOM      6  C   UNL     1      42.336 132.215  20.693  1.00  0.00     0.057 A 
ATOM      7  C   UNL     1      42.030 132.548  19.381  1.00  0.00     0.196 A 
ATOM      8  O   UNL     1      43.005 132.175  18.574  1.00  0.00    -0.463 OA
ATOM      9  C   UNL     1      43.937 131.608  19.301  1.00  0.00     0.149 A 
ENDROOT
BRANCH   1  10
ATOM     10  C   UNL     1      45.519 131.065  17.424  1.00  0.00     0.074 A 
ATOM     11  C   UNL     1      46.241 130.982  14.719  1.00  0.00    -0.008 A 
ATOM     12  C   UNL     1      45.637 132.134  15.254  1.00  0.00     0.012 A 
ATOM     13  C   UNL     1      46.443 129.886  15.569  1.00  0.00     0.119 A 
ATOM     14  C   UNL     1      45.278 132.178  16.602  1.00  0.00     0.030 A 
ATOM     15  N   UNL     1      46.086 129.954  16.878  1.00  0.00    -0.255 NA
BRANCH  11  16
ATOM     16  C   UNL     1      46.638 130.865  13.294  1.00  0.00     0.002 C 
ATOM     17  C   UNL     1      47.894 130.965  12.854  1.00  0.00     0.009 C 
ENDBRANCH  11  16
ENDBRANCH   1  10
BRANCH   4  18
ATOM     18  N   UNL     1      44.026 131.105  23.020  1.00  0.00    -0.278 N 
ATOM     19  H   UNL     1      44.862 131.375  23.588  1.00  0.00     0.358 HD
ATOM     20  H   UNL     1      43.303 131.843  23.185  1.00  0.00     0.358 HD
BRANCH  18  21
ATOM     21  C   UNL     1      43.487 129.829  23.435  1.00  0.00     0.170 A 
ATOM     22  C   UNL     1      44.241 128.652  23.257  1.00  0.00     0.071 A 
ATOM     23  C   UNL     1      42.192 129.730  23.986  1.00  0.00     0.183 A 
ATOM     24  C   UNL     1      43.728 127.414  23.654  1.00  0.00    -0.002 A 
ATOM     25  C   UNL     1      41.686 128.486  24.380  1.00  0.00     0.037 A 
ATOM     26  C   UNL     1      42.454 127.330  24.218  1.00  0.00    -0.106 A 
ATOM     27  F   UNL     1      41.406 130.828  24.125  1.00  0.00    -0.200 F 
ATOM     28  O   UNL     1      41.947 126.098  24.613  1.00  0.00    -0.872 OA
ENDBRANCH  18  21
ENDBRANCH   4  18
TORSDOF 4
ENDMDL
MODEL 2
REMARK VINA RESULT:     -10.3      1.083      1.613
REMARK SMILES C=Cc1ccc(-c2ccc([NH2+]c3ccc([O-])cc3F)c3ccoc23)nc1
REMARK SMILES IDX 7 1 8 2 9 3 10 4 20 5 21 6 22 7 23 8 24 9 6 10 3 11 4 12
REMARK SMILES IDX 26 13 5 14 25 15 2 16 1 17 11 18 12 21 13 22 18 23 14 24
REMARK SMILES IDX 17 25 15 26 19 27 16 28
REMARK H PARENT 11 19 11 20
ROOT
ATOM      1  C   UNL     1      45.144 130.936  18.946  1.00  0.00     0.044 A 
ATOM      2  C   UNL     1      45.913 130.314  19.957  1.00  0.00     0.020 A 
ATOM      3  C   UNL     1      45.478 130.309  21.299  1.00  0.00     0.070 A 
ATOM      4  C   UNL     1      44.258 130.919  21.668  1.00  0.00     0.145 A 
ATOM      5  C   UNL     1      43.511 131.518  20.645  1.00  0.00     0.082 A 
ATOM      6  C   UNL     1      42.300 132.178  20.670  1.00  0.00     0.057 A 
ATOM      7  C   UNL     1      42.072 132.551  19.353  1.00  0.00     0.196 A 
ATOM      8  O   UNL     1      43.065 132.149  18.584  1.00  0.00    -0.463 OA
ATOM      9  C   UNL     1      43.935 131.525  19.340  1.00  0.00     0.149 A 
ENDROOT
BRANCH   1  10
ATOM     10  C   UNL     1      45.576 130.947  17.525  1.00  0.00     0.074 A 
ATOM     11  C   UNL     1      46.368 131.053  14.840  1.00  0.00    -0.008 A 
ATOM     12  C   UNL     1      46.489 129.854  15.566  1.00  0.00     0.012 A 
ATOM     13  C   UNL     1      45.866 132.180  15.505  1.00  0.00     0.119 A 
ATOM     14  C   UNL     1      46.094 129.799  16.904  1.00  0.00     0.030 A 
ATOM     15  N   UNL     1      45.487 132.100  16.807  1.00  0.00    -0.255 NA
BRANCH  11  16
ATOM     16  C   UNL     1      46.777 131.183  13.420  1.00  0.00     0.002 C 
ATOM     17  C   UNL     1      47.857 130.603  12.894  1.00  0.00     0.009 C 
ENDBRANCH  11  16
ENDBRANCH   1  10
BRANCH   4  18
ATOM     18  N   UNL     1      43.827 130.944  23.047  1.00  0.00    -0.278 N 
ATOM     19  H   UNL     1      44.649 131.155  23.659  1.00  0.00     0.358 HD
ATOM     20  H   UNL     1      43.136 131.715  23.196  1.00  0.00     0.358 HD
BRANCH  18  21
ATOM     21  C   UNL     1      43.203 129.689  23.404  1.00  0.00     0.170 A 
ATOM     22  C   UNL     1      41.798 129.581  23.431  1.00  0.00     0.071 A 
ATOM     23  C   UNL     1      43.978 128.567  23.768  1.00  0.00     0.183 A 
ATOM     24  C   UNL     1      41.185 128.373  23.776  1.00  0.00    -0.002 A 
ATOM     25  C   UNL     1      43.356 127.362  24.113  1.00  0.00     0.037 A 
ATOM     26  C   UNL     1      41.962 127.264  24.113  1.00  0.00    -0.106 A 
ATOM     27  F   UNL     1      45.332 128.639  23.812  1.00  0.00    -0.200 F 
ATOM     28  O   UNL     1      41.350 126.064  24.454  1.00  0.00    -0.872 OA
ENDBRANCH  18  21
ENDBRANCH   4  18
TORSDOF 4
ENDMDL
MODEL 3
REMARK VINA RESULT:     -10.2      0.944      1.336
REMARK SMILES C=Cc1ccc(-c2ccc([NH2+]c3ccc([O-])cc3F)c3ccoc23)nc1
REMARK SMILES IDX 7 1 8 2 9 3 10 4 20 5 21 6 22 7 23 8 24 9 6 10 3 11 4 12
REMARK SMILES IDX 26 13 5 14 25 15 2 16 1 17 11 18 12 21 13 22 18 23 14 24
REMARK SMILES IDX 17 25 15 26 19 27 16 28
REMARK H PARENT 11 19 11 20
ROOT
ATOM      1  C   UNL     1      45.167 131.032  18.889  1.00  0.00     0.044 A 
ATOM      2  C   UNL     1      45.996 130.502  19.905  1.00  0.00     0.020 A 
ATOM      3  C   UNL     1      45.600 130.543  21.258  1.00  0.00     0.070 A 
ATOM      4  C   UNL     1      44.361 131.110  21.635  1.00  0.00     0.145 A 
ATOM      5  C   UNL     1      43.555 131.618  20.607  1.00  0.00     0.082 A 
ATOM      6  C   UNL     1      42.314 132.219  20.637  1.00  0.00     0.057 A 
ATOM      7  C   UNL     1      42.029 132.512  19.312  1.00  0.00     0.196 A 
ATOM      8  O   UNL     1      43.019 132.121  18.532  1.00  0.00    -0.463 OA
ATOM      9  C   UNL     1      43.942 131.580  19.291  1.00  0.00     0.149 A 
ENDROOT
BRANCH   1  10
ATOM     10  C   UNL     1      45.557 130.992  17.457  1.00  0.00     0.074 A 
ATOM     11  C   UNL     1      46.307 130.831  14.763  1.00  0.00    -0.008 A 
ATOM     12  C   UNL     1      45.937 132.068  15.320  1.00  0.00     0.012 A 
ATOM     13  C   UNL     1      46.266 129.696  15.585  1.00  0.00     0.119 A 
ATOM     14  C   UNL     1      45.564 132.150  16.663  1.00  0.00     0.030 A 
ATOM     15  N   UNL     1      45.901 129.803  16.889  1.00  0.00    -0.255 NA
BRANCH  11  16
ATOM     16  C   UNL     1      46.705 130.670  13.342  1.00  0.00     0.002 C 
ATOM     17  C   UNL     1      47.823 131.172  12.814  1.00  0.00     0.009 C 
ENDBRANCH  11  16
ENDBRANCH   1  10
BRANCH   4  18
ATOM     18  N   UNL     1      43.970 131.184  23.023  1.00  0.00    -0.278 N 
ATOM     19  H   UNL     1      44.818 131.355  23.610  1.00  0.00     0.358 HD
ATOM     20  H   UNL     1      43.331 131.999  23.177  1.00  0.00     0.358 HD
BRANCH  18  21
ATOM     21  C   UNL     1      43.280 129.976  23.420  1.00  0.00     0.170 A 
ATOM     22  C   UNL     1      41.947 130.039  23.871  1.00  0.00     0.071 A 
ATOM     23  C   UNL     1      43.933 128.725  23.398  1.00  0.00     0.183 A 
ATOM     24  C   UNL     1      41.272 128.878  24.257  1.00  0.00    -0.002 A 
ATOM     25  C   UNL     1      43.249 127.567  23.787  1.00  0.00     0.037 A 
ATOM     26  C   UNL     1      41.920 127.642  24.212  1.00  0.00    -0.106 A 
ATOM     27  F   UNL     1      45.233 128.622  23.025  1.00  0.00    -0.200 F 
ATOM     28  O   UNL     1      41.247 126.489  24.594  1.00  0.00    -0.872 OA
ENDBRANCH  18  21
ENDBRANCH   4  18
TORSDOF 4
ENDMDL
MODEL 4
REMARK VINA RESULT:      -8.5      0.872      1.179
REMARK SMILES C=Cc1ccc(-c2ccc([NH2+]c3ccc([O-])cc3F)c3ccoc23)nc1
REMARK SMILES IDX 7 1 8 2 9 3 10 4 20 5 21 6 22 7 23 8 24 9 6 10 3 11 4 12
REMARK SMILES IDX 26 13 5 14 25 15 2 16 1 17 11 18 12 21 13 22 18 23 14 24
REMARK SMILES IDX 17 25 15 26 19 27 16 28
REMARK H PARENT 11 19 11 20
ROOT
ATOM      1  C   UNL     1      45.125 130.844  19.417  1.00  0.00     0.044 A 
ATOM      2  C   UNL     1      45.857 130.037  20.320  1.00  0.00     0.020 A 
ATOM      3  C   UNL     1      45.465 129.920  21.669  1.00  0.00     0.070 A 
ATOM      4  C   UNL     1      44.325 130.600  22.155  1.00  0.00     0.145 A 
ATOM      5  C   UNL     1      43.612 131.383  21.237  1.00  0.00     0.082 A 
ATOM      6  C   UNL     1      42.477 132.152  21.387  1.00  0.00     0.057 A 
ATOM      7  C   UNL     1      42.248 132.696  20.131  1.00  0.00     0.196 A 
ATOM      8  O   UNL     1      43.171 132.289  19.280  1.00  0.00    -0.463 OA
ATOM      9  C   UNL     1      43.996 131.499  19.925  1.00  0.00     0.149 A 
ENDROOT
BRANCH   1  10
ATOM     10  C   UNL     1      45.513 130.977  17.990  1.00  0.00     0.074 A 
ATOM     11  C   UNL     1      46.203 131.304  15.295  1.00  0.00    -0.008 A 
ATOM     12  C   UNL     1      46.601 130.148  15.990  1.00  0.00     0.012 A 
ATOM     13  C   UNL     1      45.480 132.280  15.994  1.00  0.00     0.119 A 
ATOM     14  C   UNL     1      46.257 129.983  17.333  1.00  0.00     0.030 A 
ATOM     15  N   UNL     1      45.157 132.095  17.300  1.00  0.00    -0.255 NA
BRANCH  11  16
ATOM     16  C   UNL     1      46.542 131.547  13.871  1.00  0.00     0.002 C 
ATOM     17  C   UNL     1      47.312 130.745  13.134  1.00  0.00     0.009 C 
ENDBRANCH  11  16
ENDBRANCH   1  10
BRANCH   4  18
ATOM     18  N   UNL     1      43.942 130.508  23.545  1.00  0.00    -0.278 N 
ATOM     19  H   UNL     1      44.784 130.663  24.144  1.00  0.00     0.358 HD
ATOM     20  H   UNL     1      43.261 131.266  23.783  1.00  0.00     0.358 HD
BRANCH  18  21
ATOM     21  C   UNL     1      43.322 129.229  23.815  1.00  0.00     0.170 A 
ATOM     22  C   UNL     1      44.118 128.078  23.979  1.00  0.00     0.071 A 
ATOM     23  C   UNL     1      41.918 129.100  23.883  1.00  0.00     0.183 A 
ATOM     24  C   UNL     1      43.529 126.838  24.239  1.00  0.00    -0.002 A 
ATOM     25  C   UNL     1      41.336 127.855  24.144  1.00  0.00     0.037 A 
ATOM     26  C   UNL     1      42.140 126.726  24.326  1.00  0.00    -0.106 A 
ATOM     27  F   UNL     1      41.108 130.169  23.677  1.00  0.00    -0.200 F 
ATOM     28  O   UNL     1      41.556 125.492  24.586  1.00  0.00    -0.872 OA
ENDBRANCH  18  21
ENDBRANCH   4  18
TORSDOF 4
ENDMDL
MODEL 5
REMARK VINA RESULT:      -8.3      0.955      1.075
REMARK SMILES C=Cc1ccc(-c2ccc([NH2+]c3ccc([O-])cc3F)c3ccoc23)nc1
REMARK SMILES IDX 7 1 8 2 9 3 10 4 20 5 21 6 22 7 23 8 24 9 6 10 3 11 4 12
REMARK SMILES IDX 26 13 5 14 25 15 2 16 1 17 11 18 12 21 13 22 18 23 14 24
REMARK SMILES IDX 17 25 15 26 19 27 16 28
REMARK H PARENT 11 19 11 20
ROOT
ATOM      1  C   UNL     1      45.269 131.173  18.038  1.00  0.00     0.044 A 
ATOM      2  C   UNL     1      46.103 130.863  19.138  1.00  0.00     0.020 A 
ATOM      3  C   UNL     1      45.618 130.944  20.460  1.00  0.00     0.070 A 
ATOM      4  C   UNL     1      44.284 131.330  20.721  1.00  0.00     0.145 A 
ATOM      5  C   UNL     1      43.477 131.620  19.613  1.00  0.00     0.082 A 
ATOM      6  C   UNL     1      42.158 132.012  19.526  1.00  0.00     0.057 A 
ATOM      7  C   UNL     1      41.917 132.153  18.167  1.00  0.00     0.196 A 
ATOM      8  O   UNL     1      43.004 131.869  17.477  1.00  0.00    -0.463 OA
ATOM      9  C   UNL     1      43.949 131.544  18.326  1.00  0.00     0.149 A 
ENDROOT
BRANCH   1  10
ATOM     10  C   UNL     1      45.753 131.087  16.636  1.00  0.00     0.074 A 
ATOM     11  C   UNL     1      46.663 130.837  13.999  1.00  0.00    -0.008 A 
ATOM     12  C   UNL     1      46.500 132.111  14.572  1.00  0.00     0.012 A 
ATOM     13  C   UNL     1      46.337 129.716  14.775  1.00  0.00     0.119 A 
ATOM     14  C   UNL     1      46.048 132.238  15.887  1.00  0.00     0.030 A 
ATOM     15  N   UNL     1      45.901 129.866  16.052  1.00  0.00    -0.255 NA
BRANCH  11  16
ATOM     16  C   UNL     1      47.130 130.632  12.606  1.00  0.00     0.002 C 
ATOM     17  C   UNL     1      48.367 130.257  12.276  1.00  0.00     0.009 C 
ENDBRANCH  11  16
ENDBRANCH   1  10
BRANCH   4  18
ATOM     18  N   UNL     1      43.796 131.445  22.076  1.00  0.00    -0.278 N 
ATOM     19  H   UNL     1      44.370 132.154  22.587  1.00  0.00     0.358 HD
ATOM     20  H   UNL     1      42.812 131.800  22.077  1.00  0.00     0.358 HD
BRANCH  18  21
ATOM     21  C   UNL     1      43.823 130.159  22.735  1.00  0.00     0.170 A 
ATOM     22  C   UNL     1      44.747 129.175  22.329  1.00  0.00     0.071 A 
ATOM     23  C   UNL     1      42.910 129.849  23.765  1.00  0.00     0.183 A 
ATOM     24  C   UNL     1      44.781 127.928  22.959  1.00  0.00    -0.002 A 
ATOM     25  C   UNL     1      42.950 128.597  24.391  1.00  0.00     0.037 A 
ATOM     26  C   UNL     1      43.887 127.640  23.992  1.00  0.00    -0.106 A 
ATOM     27  F   UNL     1      41.965 130.743  24.153  1.00  0.00    -0.200 F 
ATOM     28  O   UNL     1      43.923 126.400  24.618  1.00  0.00    -0.872 OA
ENDBRANCH  18  21
ENDBRANCH   4  18
TORSDOF 4
ENDMDL


