REMARK SMILES Cc1cc2ccc([C@@H]3O[C@H](C)NN3C(O)=C3C[NH2+]C3)cc2[nH]1
REMARK SMILES IDX 8 1 9 2 10 3 11 4 12 5 13 6 7 8 2 9 3 10 22 11 4 12 21 13
REMARK SMILES IDX 5 14 20 15 6 16 1 17 14 19 15 20 16 22 17 23 19 24 18 25
REMARK H PARENT 12 7 22 18 15 21 18 26 18 27
ROOT
ATOM      1  C   UNL     1       0.401   1.990   0.505  1.00  0.00     0.267 C 
ATOM      2  O   UNL     1       0.143   3.047  -0.383  1.00  0.00    -0.333 OA
ATOM      3  C   UNL     1       1.204   3.062  -1.324  1.00  0.00     0.204 C 
ATOM      4  C   UNL     1       0.636   3.139  -2.735  1.00  0.00     0.058 C 
ATOM      5  N   UNL     1       2.025   1.855  -1.188  1.00  0.00    -0.201 NA
ATOM      6  N   UNL     1       1.516   1.256  -0.040  1.00  0.00    -0.243 N 
ATOM      7  H   UNL     1       3.007   2.149  -0.975  1.00  0.00     0.151 HD
ENDROOT
BRANCH   1   8
ATOM      8  C   UNL     1      -0.823   1.114   0.621  1.00  0.00     0.005 A 
ATOM      9  C   UNL     1      -4.381  -0.874   2.557  1.00  0.00     0.013 A 
ATOM     10  C   UNL     1      -4.212  -1.187   1.210  1.00  0.00     0.031 A 
ATOM     11  N   UNL     1      -3.423  -0.017   2.983  1.00  0.00    -0.359 N 
ATOM     12  C   UNL     1      -3.085  -0.493   0.826  1.00  0.00    -0.000 A 
ATOM     13  C   UNL     1      -2.635   0.202   1.917  1.00  0.00     0.046 A 
ATOM     14  C   UNL     1      -2.443  -0.421  -0.407  1.00  0.00     0.011 A 
ATOM     15  C   UNL     1      -1.509   1.019   1.853  1.00  0.00     0.035 A 
ATOM     16  C   UNL     1      -1.301   0.392  -0.506  1.00  0.00     0.009 A 
ATOM     17  C   UNL     1      -5.518  -1.337   3.407  1.00  0.00     0.064 C 
ATOM     18  H   UNL     1      -3.323   0.396   3.937  1.00  0.00     0.166 HD
ENDBRANCH   1   8
BRANCH   6  19
ATOM     19  C   UNL     1       2.088   0.085   0.570  1.00  0.00     0.214 C 
BRANCH  19  20
ATOM     20  O   UNL     1       1.695  -0.274   1.859  1.00  0.00    -0.493 OA
ATOM     21  H   UNL     1       2.068  -1.093   2.325  1.00  0.00     0.295 HD
ENDBRANCH  19  20
BRANCH  19  22
ATOM     22  C   UNL     1       2.974  -0.669  -0.084  1.00  0.00     0.099 C 
ATOM     23  C   UNL     1       3.673  -0.732  -1.423  1.00  0.00     0.304 C 
ATOM     24  C   UNL     1       3.772  -1.930   0.157  1.00  0.00     0.304 C 
ATOM     25  N   UNL     1       4.410  -1.944  -1.140  1.00  0.00    -0.339 N 
ATOM     26  H   UNL     1       5.442  -1.784  -1.083  1.00  0.00     0.346 HD
ATOM     27  H   UNL     1       4.101  -2.751  -1.733  1.00  0.00     0.346 HD
ENDBRANCH  19  22
ENDBRANCH   6  19
TORSDOF 4


