MODEL 1
REMARK VINA RESULT:      -6.1      0.000      0.000
REMARK SMILES Cc1cc(N)c([N-]C(=O)OC(C)(C)C)c(-n2nc3ccccc3[nH+]2)c1
REMARK SMILES IDX 7 1 6 2 2 3 3 4 25 5 4 6 15 7 1 8 5 9 16 12 17 13 24 14
REMARK SMILES IDX 18 15 23 16 19 17 22 18 20 19 21 20 8 22 9 23 10 24 11 25
REMARK SMILES IDX 12 26 13 27 14 28
REMARK H PARENT 5 10 5 11 24 21
ROOT
ATOM      1  N   UNL     1      45.396 130.120  21.051  1.00  0.00    -0.587 NA
ENDROOT
BRANCH   1   2
ATOM      2  C   UNL     1      44.283 131.028  21.076  1.00  0.00    -0.076 A 
ATOM      3  C   UNL     1      42.028 132.713  21.191  1.00  0.00    -0.047 A 
ATOM      4  C   UNL     1      42.610 132.230  22.368  1.00  0.00     0.027 A 
ATOM      5  C   UNL     1      42.578 132.355  19.954  1.00  0.00     0.036 A 
ATOM      6  C   UNL     1      43.737 131.401  22.322  1.00  0.00     0.019 A 
ATOM      7  C   UNL     1      43.717 131.538  19.882  1.00  0.00     0.116 A 
ATOM      8  C   UNL     1      40.795 133.565  21.251  1.00  0.00     0.044 C 
BRANCH   6   9
ATOM      9  N   UNL     1      44.302 130.917  23.547  1.00  0.00    -0.400 N 
ATOM     10  H   UNL     1      44.377 131.542  24.381  1.00  0.00     0.156 HD
ATOM     11  H   UNL     1      44.657 129.940  23.640  1.00  0.00     0.156 HD
ENDBRANCH   6   9
BRANCH   7  12
ATOM     12  N   UNL     1      44.317 131.289  18.601  1.00  0.00    -0.014 N 
ATOM     13  N   UNL     1      45.421 130.561  18.428  1.00  0.00     0.053 NA
ATOM     14  N   UNL     1      43.852 131.777  17.452  1.00  0.00    -0.161 N 
ATOM     15  C   UNL     1      45.650 130.588  17.103  1.00  0.00     0.249 A 
ATOM     16  C   UNL     1      44.684 131.335  16.502  1.00  0.00     0.198 A 
ATOM     17  C   UNL     1      46.656 129.957  16.378  1.00  0.00     0.064 A 
ATOM     18  C   UNL     1      44.632 131.518  15.124  1.00  0.00     0.058 A 
ATOM     19  C   UNL     1      46.644 130.122  14.979  1.00  0.00     0.005 A 
ATOM     20  C   UNL     1      45.636 130.897  14.354  1.00  0.00     0.005 A 
ATOM     21  H   UNL     1      42.992 132.358  17.330  1.00  0.00     0.340 HD
ENDBRANCH   7  12
ENDBRANCH   1   2
BRANCH   1  22
ATOM     22  C   UNL     1      45.350 128.774  21.531  1.00  0.00     0.233 C 
ATOM     23  O   UNL     1      46.275 127.983  21.211  1.00  0.00    -0.274 OA
BRANCH  22  24
ATOM     24  O   UNL     1      44.299 128.363  22.367  1.00  0.00    -0.472 OA
BRANCH  24  25
ATOM     25  C   UNL     1      44.306 127.230  23.249  1.00  0.00     0.102 C 
ATOM     26  C   UNL     1      44.343 125.910  22.455  1.00  0.00     0.056 C 
ATOM     27  C   UNL     1      45.501 127.313  24.217  1.00  0.00     0.056 C 
ATOM     28  C   UNL     1      43.002 127.282  24.060  1.00  0.00     0.056 C 
ENDBRANCH  24  25
ENDBRANCH  22  24
ENDBRANCH   1  22
TORSDOF 6
ENDMDL
MODEL 2
REMARK VINA RESULT:      -5.9      0.524      1.409
REMARK SMILES Cc1cc(N)c([N-]C(=O)OC(C)(C)C)c(-n2nc3ccccc3[nH+]2)c1
REMARK SMILES IDX 7 1 6 2 2 3 3 4 25 5 4 6 15 7 1 8 5 9 16 12 17 13 24 14
REMARK SMILES IDX 18 15 23 16 19 17 22 18 20 19 21 20 8 22 9 23 10 24 11 25
REMARK SMILES IDX 12 26 13 27 14 28
REMARK H PARENT 5 10 5 11 24 21
ROOT
ATOM      1  N   UNL     1      45.506 129.944  21.094  1.00  0.00    -0.587 NA
ENDROOT
BRANCH   1   2
ATOM      2  C   UNL     1      44.417 130.879  21.074  1.00  0.00    -0.076 A 
ATOM      3  C   UNL     1      42.201 132.619  21.090  1.00  0.00    -0.047 A 
ATOM      4  C   UNL     1      42.670 132.063  22.285  1.00  0.00     0.027 A 
ATOM      5  C   UNL     1      42.843 132.308  19.885  1.00  0.00     0.036 A 
ATOM      6  C   UNL     1      43.778 131.206  22.288  1.00  0.00     0.019 A 
ATOM      7  C   UNL     1      43.964 131.464  19.866  1.00  0.00     0.116 A 
ATOM      8  C   UNL     1      40.987 133.501  21.092  1.00  0.00     0.044 C 
BRANCH   6   9
ATOM      9  N   UNL     1      44.227 130.647  23.529  1.00  0.00    -0.400 N 
ATOM     10  H   UNL     1      45.196 130.831  23.876  1.00  0.00     0.156 HD
ATOM     11  H   UNL     1      43.611 130.041  24.114  1.00  0.00     0.156 HD
ENDBRANCH   6   9
BRANCH   7  12
ATOM     12  N   UNL     1      44.662 131.262  18.626  1.00  0.00    -0.014 N 
ATOM     13  N   UNL     1      44.710 132.165  17.646  1.00  0.00     0.053 NA
ATOM     14  N   UNL     1      45.315 130.145  18.311  1.00  0.00    -0.161 N 
ATOM     15  C   UNL     1      45.439 131.586  16.676  1.00  0.00     0.249 A 
ATOM     16  C   UNL     1      45.813 130.343  17.085  1.00  0.00     0.198 A 
ATOM     17  C   UNL     1      45.827 132.108  15.446  1.00  0.00     0.064 A 
ATOM     18  C   UNL     1      46.609 129.509  16.307  1.00  0.00     0.058 A 
ATOM     19  C   UNL     1      46.630 131.294  14.623  1.00  0.00     0.005 A 
ATOM     20  C   UNL     1      47.020 130.001  15.052  1.00  0.00     0.005 A 
ATOM     21  H   UNL     1      45.435 129.305  18.922  1.00  0.00     0.340 HD
ENDBRANCH   7  12
ENDBRANCH   1   2
BRANCH   1  22
ATOM     22  C   UNL     1      45.403 128.596  21.559  1.00  0.00     0.233 C 
ATOM     23  O   UNL     1      46.367 127.811  21.365  1.00  0.00    -0.274 OA
BRANCH  22  24
ATOM     24  O   UNL     1      44.250 128.175  22.242  1.00  0.00    -0.472 OA
BRANCH  24  25
ATOM     25  C   UNL     1      44.200 127.250  23.339  1.00  0.00     0.102 C 
ATOM     26  C   UNL     1      45.575 127.126  24.022  1.00  0.00     0.056 C 
ATOM     27  C   UNL     1      43.128 127.683  24.356  1.00  0.00     0.056 C 
ATOM     28  C   UNL     1      43.812 125.882  22.758  1.00  0.00     0.056 C 
ENDBRANCH  24  25
ENDBRANCH  22  24
ENDBRANCH   1  22
TORSDOF 6
ENDMDL
MODEL 3
REMARK VINA RESULT:      -5.5      1.965      2.926
REMARK SMILES Cc1cc(N)c([N-]C(=O)OC(C)(C)C)c(-n2nc3ccccc3[nH+]2)c1
REMARK SMILES IDX 7 1 6 2 2 3 3 4 25 5 4 6 15 7 1 8 5 9 16 12 17 13 24 14
REMARK SMILES IDX 18 15 23 16 19 17 22 18 20 19 21 20 8 22 9 23 10 24 11 25
REMARK SMILES IDX 12 26 13 27 14 28
REMARK H PARENT 5 10 5 11 24 21
ROOT
ATOM      1  N   UNL     1      45.516 128.179  21.784  1.00  0.00    -0.587 NA
ENDROOT
BRANCH   1   2
ATOM      2  C   UNL     1      44.927 129.290  22.476  1.00  0.00    -0.076 A 
ATOM      3  C   UNL     1      43.675 131.387  23.882  1.00  0.00    -0.047 A 
ATOM      4  C   UNL     1      44.143 130.260  24.565  1.00  0.00     0.027 A 
ATOM      5  C   UNL     1      43.837 131.468  22.493  1.00  0.00     0.036 A 
ATOM      6  C   UNL     1      44.777 129.218  23.877  1.00  0.00     0.019 A 
ATOM      7  C   UNL     1      44.482 130.443  21.784  1.00  0.00     0.116 A 
ATOM      8  C   UNL     1      42.960 132.477  24.623  1.00  0.00     0.044 C 
BRANCH   6   9
ATOM      9  N   UNL     1      45.236 128.073  24.607  1.00  0.00    -0.400 N 
ATOM     10  H   UNL     1      45.014 127.965  25.623  1.00  0.00     0.156 HD
ATOM     11  H   UNL     1      45.805 127.324  24.155  1.00  0.00     0.156 HD
ENDBRANCH   6   9
BRANCH   7  12
ATOM     12  N   UNL     1      44.730 130.617  20.379  1.00  0.00    -0.014 N 
ATOM     13  N   UNL     1      43.948 131.335  19.572  1.00  0.00     0.053 NA
ATOM     14  N   UNL     1      45.751 130.063  19.728  1.00  0.00    -0.161 N 
ATOM     15  C   UNL     1      44.516 131.231  18.357  1.00  0.00     0.249 A 
ATOM     16  C   UNL     1      45.626 130.450  18.453  1.00  0.00     0.198 A 
ATOM     17  C   UNL     1      44.126 131.819  17.158  1.00  0.00     0.064 A 
ATOM     18  C   UNL     1      46.449 130.186  17.363  1.00  0.00     0.058 A 
ATOM     19  C   UNL     1      44.929 131.573  16.027  1.00  0.00     0.005 A 
ATOM     20  C   UNL     1      46.086 130.761  16.129  1.00  0.00     0.005 A 
ATOM     21  H   UNL     1      46.506 129.475  20.147  1.00  0.00     0.340 HD
ENDBRANCH   7  12
ENDBRANCH   1   2
BRANCH   1  22
ATOM     22  C   UNL     1      45.401 126.816  22.202  1.00  0.00     0.233 C 
ATOM     23  O   UNL     1      44.258 126.293  22.263  1.00  0.00    -0.274 OA
BRANCH  22  24
ATOM     24  O   UNL     1      46.555 126.077  22.509  1.00  0.00    -0.472 OA
BRANCH  24  25
ATOM     25  C   UNL     1      46.602 124.701  22.913  1.00  0.00     0.102 C 
ATOM     26  C   UNL     1      46.090 123.776  21.792  1.00  0.00     0.056 C 
ATOM     27  C   UNL     1      48.035 124.311  23.323  1.00  0.00     0.056 C 
ATOM     28  C   UNL     1      45.678 124.556  24.133  1.00  0.00     0.056 C 
ENDBRANCH  24  25
ENDBRANCH  22  24
ENDBRANCH   1  22
TORSDOF 6
ENDMDL
MODEL 4
REMARK VINA RESULT:      -4.8      0.875      1.261
REMARK SMILES Cc1cc(N)c([N-]C(=O)OC(C)(C)C)c(-n2nc3ccccc3[nH+]2)c1
REMARK SMILES IDX 7 1 6 2 2 3 3 4 25 5 4 6 15 7 1 8 5 9 16 12 17 13 24 14
REMARK SMILES IDX 18 15 23 16 19 17 22 18 20 19 21 20 8 22 9 23 10 24 11 25
REMARK SMILES IDX 12 26 13 27 14 28
REMARK H PARENT 5 10 5 11 24 21
ROOT
ATOM      1  N   UNL     1      45.158 129.895  21.327  1.00  0.00    -0.587 NA
ENDROOT
BRANCH   1   2
ATOM      2  C   UNL     1      44.115 130.881  21.324  1.00  0.00    -0.076 A 
ATOM      3  C   UNL     1      41.984 132.723  21.376  1.00  0.00    -0.047 A 
ATOM      4  C   UNL     1      42.453 132.153  22.564  1.00  0.00     0.027 A 
ATOM      5  C   UNL     1      42.584 132.375  20.160  1.00  0.00     0.036 A 
ATOM      6  C   UNL     1      43.519 131.245  22.550  1.00  0.00     0.019 A 
ATOM      7  C   UNL     1      43.663 131.479  20.122  1.00  0.00     0.116 A 
ATOM      8  C   UNL     1      40.813 133.662  21.398  1.00  0.00     0.044 C 
BRANCH   6   9
ATOM      9  N   UNL     1      43.968 130.672  23.785  1.00  0.00    -0.400 N 
ATOM     10  H   UNL     1      43.329 130.077  24.358  1.00  0.00     0.156 HD
ATOM     11  H   UNL     1      44.933 130.836  24.147  1.00  0.00     0.156 HD
ENDBRANCH   6   9
BRANCH   7  12
ATOM     12  N   UNL     1      44.324 131.236  18.870  1.00  0.00    -0.014 N 
ATOM     13  N   UNL     1      45.372 130.423  18.729  1.00  0.00     0.053 NA
ATOM     14  N   UNL     1      43.981 131.815  17.720  1.00  0.00    -0.161 N 
ATOM     15  C   UNL     1      45.690 130.489  17.424  1.00  0.00     0.249 A 
ATOM     16  C   UNL     1      44.833 131.344  16.802  1.00  0.00     0.198 A 
ATOM     17  C   UNL     1      46.685 129.805  16.732  1.00  0.00     0.064 A 
ATOM     18  C   UNL     1      44.889 131.594  15.435  1.00  0.00     0.058 A 
ATOM     19  C   UNL     1      46.780 130.034  15.345  1.00  0.00     0.005 A 
ATOM     20  C   UNL     1      45.886 130.923  14.699  1.00  0.00     0.005 A 
ATOM     21  H   UNL     1      43.183 132.474  17.574  1.00  0.00     0.340 HD
ENDBRANCH   7  12
ENDBRANCH   1   2
BRANCH   1  22
ATOM     22  C   UNL     1      45.047 128.604  21.931  1.00  0.00     0.233 C 
ATOM     23  O   UNL     1      43.993 128.314  22.556  1.00  0.00    -0.274 OA
BRANCH  22  24
ATOM     24  O   UNL     1      46.091 127.674  21.797  1.00  0.00    -0.472 OA
BRANCH  24  25
ATOM     25  C   UNL     1      46.213 126.425  22.492  1.00  0.00     0.102 C 
ATOM     26  C   UNL     1      47.467 125.656  22.035  1.00  0.00     0.056 C 
ATOM     27  C   UNL     1      46.247 126.660  24.014  1.00  0.00     0.056 C 
ATOM     28  C   UNL     1      44.969 125.591  22.145  1.00  0.00     0.056 C 
ENDBRANCH  24  25
ENDBRANCH  22  24
ENDBRANCH   1  22
TORSDOF 6
ENDMDL
MODEL 5
REMARK VINA RESULT:      -4.8      4.410      7.318
REMARK SMILES Cc1cc(N)c([N-]C(=O)OC(C)(C)C)c(-n2nc3ccccc3[nH+]2)c1
REMARK SMILES IDX 7 1 6 2 2 3 3 4 25 5 4 6 15 7 1 8 5 9 16 12 17 13 24 14
REMARK SMILES IDX 18 15 23 16 19 17 22 18 20 19 21 20 8 22 9 23 10 24 11 25
REMARK SMILES IDX 12 26 13 27 14 28
REMARK H PARENT 5 10 5 11 24 21
ROOT
ATOM      1  N   UNL     1      46.012 125.172  23.747  1.00  0.00    -0.587 NA
ENDROOT
BRANCH   1   2
ATOM      2  C   UNL     1      44.698 124.615  23.593  1.00  0.00    -0.076 A 
ATOM      3  C   UNL     1      42.168 123.442  23.190  1.00  0.00    -0.047 A 
ATOM      4  C   UNL     1      43.269 122.648  23.527  1.00  0.00     0.027 A 
ATOM      5  C   UNL     1      42.331 124.827  23.058  1.00  0.00     0.036 A 
ATOM      6  C   UNL     1      44.528 123.222  23.740  1.00  0.00     0.019 A 
ATOM      7  C   UNL     1      43.580 125.427  23.281  1.00  0.00     0.116 A 
ATOM      8  C   UNL     1      40.834 122.812  22.921  1.00  0.00     0.044 C 
BRANCH   6   9
ATOM      9  N   UNL     1      45.636 122.377  24.075  1.00  0.00    -0.400 N 
ATOM     10  H   UNL     1      45.760 122.025  25.051  1.00  0.00     0.156 HD
ATOM     11  H   UNL     1      46.348 122.097  23.365  1.00  0.00     0.156 HD
ENDBRANCH   6   9
BRANCH   7  12
ATOM     12  N   UNL     1      43.680 126.860  23.249  1.00  0.00    -0.014 N 
ATOM     13  N   UNL     1      42.925 127.673  23.989  1.00  0.00     0.053 NA
ATOM     14  N   UNL     1      44.517 127.532  22.461  1.00  0.00    -0.161 N 
ATOM     15  C   UNL     1      43.319 128.914  23.653  1.00  0.00     0.249 A 
ATOM     16  C   UNL     1      44.300 128.828  22.713  1.00  0.00     0.198 A 
ATOM     17  C   UNL     1      42.881 130.135  24.157  1.00  0.00     0.064 A 
ATOM     18  C   UNL     1      44.935 129.951  22.192  1.00  0.00     0.058 A 
ATOM     19  C   UNL     1      43.495 131.299  23.651  1.00  0.00     0.005 A 
ATOM     20  C   UNL     1      44.517 131.207  22.674  1.00  0.00     0.005 A 
ATOM     21  H   UNL     1      45.218 127.117  21.807  1.00  0.00     0.340 HD
ENDBRANCH   7  12
ENDBRANCH   1   2
BRANCH   1  22
ATOM     22  C   UNL     1      46.937 125.367  22.674  1.00  0.00     0.233 C 
ATOM     23  O   UNL     1      46.586 125.058  21.505  1.00  0.00    -0.274 OA
BRANCH  22  24
ATOM     24  O   UNL     1      48.202 125.919  22.930  1.00  0.00    -0.472 OA
BRANCH  24  25
ATOM     25  C   UNL     1      49.451 125.212  22.953  1.00  0.00     0.102 C 
ATOM     26  C   UNL     1      49.753 124.576  21.583  1.00  0.00     0.056 C 
ATOM     27  C   UNL     1      50.593 126.156  23.374  1.00  0.00     0.056 C 
ATOM     28  C   UNL     1      49.318 124.094  23.998  1.00  0.00     0.056 C 
ENDBRANCH  24  25
ENDBRANCH  22  24
ENDBRANCH   1  22
TORSDOF 6
ENDMDL
MODEL 6
REMARK VINA RESULT:      -4.7      0.829      1.129
REMARK SMILES Cc1cc(N)c([N-]C(=O)OC(C)(C)C)c(-n2nc3ccccc3[nH+]2)c1
REMARK SMILES IDX 7 1 6 2 2 3 3 4 25 5 4 6 15 7 1 8 5 9 16 12 17 13 24 14
REMARK SMILES IDX 18 15 23 16 19 17 22 18 20 19 21 20 8 22 9 23 10 24 11 25
REMARK SMILES IDX 12 26 13 27 14 28
REMARK H PARENT 5 10 5 11 24 21
ROOT
ATOM      1  N   UNL     1      45.699 130.423  20.792  1.00  0.00    -0.587 NA
ENDROOT
BRANCH   1   2
ATOM      2  C   UNL     1      44.514 131.232  20.745  1.00  0.00    -0.076 A 
ATOM      3  C   UNL     1      42.125 132.724  20.727  1.00  0.00    -0.047 A 
ATOM      4  C   UNL     1      42.730 132.376  21.939  1.00  0.00     0.027 A 
ATOM      5  C   UNL     1      42.717 132.329  19.521  1.00  0.00     0.036 A 
ATOM      6  C   UNL     1      43.924 131.645  21.958  1.00  0.00     0.019 A 
ATOM      7  C   UNL     1      43.921 131.608  19.515  1.00  0.00     0.116 A 
ATOM      8  C   UNL     1      40.823 133.471  20.718  1.00  0.00     0.044 C 
BRANCH   6   9
ATOM      9  N   UNL     1      44.513 131.297  23.218  1.00  0.00    -0.400 N 
ATOM     10  H   UNL     1      45.433 131.700  23.504  1.00  0.00     0.156 HD
ATOM     11  H   UNL     1      44.049 130.635  23.877  1.00  0.00     0.156 HD
ENDBRANCH   6   9
BRANCH   7  12
ATOM     12  N   UNL     1      44.556 131.322  18.258  1.00  0.00    -0.014 N 
ATOM     13  N   UNL     1      44.813 130.088  17.821  1.00  0.00     0.053 NA
ATOM     14  N   UNL     1      44.978 132.254  17.406  1.00  0.00    -0.161 N 
ATOM     15  C   UNL     1      45.415 130.260  16.631  1.00  0.00     0.249 A 
ATOM     16  C   UNL     1      45.516 131.592  16.375  1.00  0.00     0.198 A 
ATOM     17  C   UNL     1      45.859 129.296  15.731  1.00  0.00     0.064 A 
ATOM     18  C   UNL     1      46.066 132.086  15.196  1.00  0.00     0.058 A 
ATOM     19  C   UNL     1      46.429 129.754  14.525  1.00  0.00     0.005 A 
ATOM     20  C   UNL     1      46.531 131.142  14.259  1.00  0.00     0.005 A 
ATOM     21  H   UNL     1      44.873 133.287  17.518  1.00  0.00     0.340 HD
ENDBRANCH   7  12
ENDBRANCH   1   2
BRANCH   1  22
ATOM     22  C   UNL     1      45.733 129.067  21.245  1.00  0.00     0.233 C 
ATOM     23  O   UNL     1      45.923 128.150  20.404  1.00  0.00    -0.274 OA
BRANCH  22  24
ATOM     24  O   UNL     1      45.583 128.780  22.611  1.00  0.00    -0.472 OA
BRANCH  24  25
ATOM     25  C   UNL     1      44.693 127.811  23.185  1.00  0.00     0.102 C 
ATOM     26  C   UNL     1      43.247 128.341  23.224  1.00  0.00     0.056 C 
ATOM     27  C   UNL     1      44.763 126.488  22.398  1.00  0.00     0.056 C 
ATOM     28  C   UNL     1      45.166 127.560  24.625  1.00  0.00     0.056 C 
ENDBRANCH  24  25
ENDBRANCH  22  24
ENDBRANCH   1  22
TORSDOF 6
ENDMDL
MODEL 7
REMARK VINA RESULT:      -4.5      1.889      2.637
REMARK SMILES Cc1cc(N)c([N-]C(=O)OC(C)(C)C)c(-n2nc3ccccc3[nH+]2)c1
REMARK SMILES IDX 7 1 6 2 2 3 3 4 25 5 4 6 15 7 1 8 5 9 16 12 17 13 24 14
REMARK SMILES IDX 18 15 23 16 19 17 22 18 20 19 21 20 8 22 9 23 10 24 11 25
REMARK SMILES IDX 12 26 13 27 14 28
REMARK H PARENT 5 10 5 11 24 21
ROOT
ATOM      1  N   UNL     1      45.151 128.091  21.717  1.00  0.00    -0.587 NA
ENDROOT
BRANCH   1   2
ATOM      2  C   UNL     1      44.767 129.281  22.422  1.00  0.00    -0.076 A 
ATOM      3  C   UNL     1      43.904 131.550  23.853  1.00  0.00    -0.047 A 
ATOM      4  C   UNL     1      44.175 130.353  24.524  1.00  0.00     0.027 A 
ATOM      5  C   UNL     1      44.069 131.614  22.464  1.00  0.00     0.036 A 
ATOM      6  C   UNL     1      44.615 129.223  23.823  1.00  0.00     0.019 A 
ATOM      7  C   UNL     1      44.523 130.500  21.742  1.00  0.00     0.116 A 
ATOM      8  C   UNL     1      43.392 132.741  24.608  1.00  0.00     0.044 C 
BRANCH   6   9
ATOM      9  N   UNL     1      44.875 128.010  24.541  1.00  0.00    -0.400 N 
ATOM     10  H   UNL     1      45.850 127.752  24.814  1.00  0.00     0.156 HD
ATOM     11  H   UNL     1      44.109 127.352  24.804  1.00  0.00     0.156 HD
ENDBRANCH   6   9
BRANCH   7  12
ATOM     12  N   UNL     1      44.788 130.640  20.337  1.00  0.00    -0.014 N 
ATOM     13  N   UNL     1      45.731 129.955  19.688  1.00  0.00     0.053 NA
ATOM     14  N   UNL     1      44.141 131.485  19.536  1.00  0.00    -0.161 N 
ATOM     15  C   UNL     1      45.660 130.387  18.416  1.00  0.00     0.249 A 
ATOM     16  C   UNL     1      44.681 131.328  18.322  1.00  0.00     0.198 A 
ATOM     17  C   UNL     1      46.396 129.972  17.311  1.00  0.00     0.064 A 
ATOM     18  C   UNL     1      44.346 131.938  17.118  1.00  0.00     0.058 A 
ATOM     19  C   UNL     1      46.093 130.570  16.071  1.00  0.00     0.005 A 
ATOM     20  C   UNL     1      45.071 131.548  15.975  1.00  0.00     0.005 A 
ATOM     21  H   UNL     1      43.352 132.113  19.809  1.00  0.00     0.340 HD
ENDBRANCH   7  12
ENDBRANCH   1   2
BRANCH   1  22
ATOM     22  C   UNL     1      45.553 126.873  22.349  1.00  0.00     0.233 C 
ATOM     23  O   UNL     1      46.761 126.527  22.287  1.00  0.00    -0.274 OA
BRANCH  22  24
ATOM     24  O   UNL     1      44.610 126.100  23.046  1.00  0.00    -0.472 OA
BRANCH  24  25
ATOM     25  C   UNL     1      44.273 124.730  22.786  1.00  0.00     0.102 C 
ATOM     26  C   UNL     1      43.961 123.977  24.094  1.00  0.00     0.056 C 
ATOM     27  C   UNL     1      43.079 124.647  21.816  1.00  0.00     0.056 C 
ATOM     28  C   UNL     1      45.498 124.081  22.123  1.00  0.00     0.056 C 
ENDBRANCH  24  25
ENDBRANCH  22  24
ENDBRANCH   1  22
TORSDOF 6
ENDMDL
MODEL 8
REMARK VINA RESULT:      -3.7      1.917      2.729
REMARK SMILES Cc1cc(N)c([N-]C(=O)OC(C)(C)C)c(-n2nc3ccccc3[nH+]2)c1
REMARK SMILES IDX 7 1 6 2 2 3 3 4 25 5 4 6 15 7 1 8 5 9 16 12 17 13 24 14
REMARK SMILES IDX 18 15 23 16 19 17 22 18 20 19 21 20 8 22 9 23 10 24 11 25
REMARK SMILES IDX 12 26 13 27 14 28
REMARK H PARENT 5 10 5 11 24 21
ROOT
ATOM      1  N   UNL     1      44.706 128.154  21.629  1.00  0.00    -0.587 NA
ENDROOT
BRANCH   1   2
ATOM      2  C   UNL     1      44.673 129.391  22.356  1.00  0.00    -0.076 A 
ATOM      3  C   UNL     1      44.489 131.780  23.838  1.00  0.00    -0.047 A 
ATOM      4  C   UNL     1      44.506 130.544  24.492  1.00  0.00     0.027 A 
ATOM      5  C   UNL     1      44.567 131.823  22.441  1.00  0.00     0.036 A 
ATOM      6  C   UNL     1      44.609 129.351  23.765  1.00  0.00     0.019 A 
ATOM      7  C   UNL     1      44.686 130.642  21.692  1.00  0.00     0.116 A 
ATOM      8  C   UNL     1      44.335 133.049  24.624  1.00  0.00     0.044 C 
BRANCH   6   9
ATOM      9  N   UNL     1      44.615 128.101  24.466  1.00  0.00    -0.400 N 
ATOM     10  H   UNL     1      44.185 128.022  25.415  1.00  0.00     0.156 HD
ATOM     11  H   UNL     1      45.049 127.244  24.058  1.00  0.00     0.156 HD
ENDBRANCH   6   9
BRANCH   7  12
ATOM     12  N   UNL     1      44.880 130.735  20.271  1.00  0.00    -0.014 N 
ATOM     13  N   UNL     1      44.073 131.415  19.455  1.00  0.00     0.053 NA
ATOM     14  N   UNL     1      45.869 130.134  19.612  1.00  0.00    -0.161 N 
ATOM     15  C   UNL     1      44.591 131.238  18.227  1.00  0.00     0.249 A 
ATOM     16  C   UNL     1      45.697 130.450  18.323  1.00  0.00     0.198 A 
ATOM     17  C   UNL     1      44.159 131.762  17.013  1.00  0.00     0.064 A 
ATOM     18  C   UNL     1      46.474 130.117  17.218  1.00  0.00     0.058 A 
ATOM     19  C   UNL     1      44.915 131.445  15.867  1.00  0.00     0.005 A 
ATOM     20  C   UNL     1      46.068 130.627  15.969  1.00  0.00     0.005 A 
ATOM     21  H   UNL     1      46.635 129.562  20.033  1.00  0.00     0.340 HD
ENDBRANCH   7  12
ENDBRANCH   1   2
BRANCH   1  22
ATOM     22  C   UNL     1      45.590 127.068  21.923  1.00  0.00     0.233 C 
ATOM     23  O   UNL     1      46.741 127.324  22.365  1.00  0.00    -0.274 OA
BRANCH  22  24
ATOM     24  O   UNL     1      45.158 125.744  21.744  1.00  0.00    -0.472 OA
BRANCH  24  25
ATOM     25  C   UNL     1      44.473 124.934  22.711  1.00  0.00     0.102 C 
ATOM     26  C   UNL     1      43.013 124.681  22.288  1.00  0.00     0.056 C 
ATOM     27  C   UNL     1      45.216 123.600  22.914  1.00  0.00     0.056 C 
ATOM     28  C   UNL     1      44.475 125.712  24.036  1.00  0.00     0.056 C 
ENDBRANCH  24  25
ENDBRANCH  22  24
ENDBRANCH   1  22
TORSDOF 6
ENDMDL
MODEL 9
REMARK VINA RESULT:      -3.6      2.030      6.130
REMARK SMILES Cc1cc(N)c([N-]C(=O)OC(C)(C)C)c(-n2nc3ccccc3[nH+]2)c1
REMARK SMILES IDX 7 1 6 2 2 3 3 4 25 5 4 6 15 7 1 8 5 9 16 12 17 13 24 14
REMARK SMILES IDX 18 15 23 16 19 17 22 18 20 19 21 20 8 22 9 23 10 24 11 25
REMARK SMILES IDX 12 26 13 27 14 28
REMARK H PARENT 5 10 5 11 24 21
ROOT
ATOM      1  N   UNL     1      44.449 130.188  19.962  1.00  0.00    -0.587 NA
ENDROOT
BRANCH   1   2
ATOM      2  C   UNL     1      43.774 130.693  21.124  1.00  0.00    -0.076 A 
ATOM      3  C   UNL     1      42.527 131.795  23.397  1.00  0.00    -0.047 A 
ATOM      4  C   UNL     1      42.486 132.470  22.172  1.00  0.00     0.027 A 
ATOM      5  C   UNL     1      43.190 130.565  23.485  1.00  0.00     0.036 A 
ATOM      6  C   UNL     1      43.093 131.925  21.034  1.00  0.00     0.019 A 
ATOM      7  C   UNL     1      43.793 129.992  22.355  1.00  0.00     0.116 A 
ATOM      8  C   UNL     1      41.910 132.409  24.619  1.00  0.00     0.044 C 
BRANCH   6   9
ATOM      9  N   UNL     1      43.040 132.647  19.797  1.00  0.00    -0.400 N 
ATOM     10  H   UNL     1      43.881 132.707  19.180  1.00  0.00     0.156 HD
ATOM     11  H   UNL     1      42.173 133.134  19.482  1.00  0.00     0.156 HD
ENDBRANCH   6   9
BRANCH   7  12
ATOM     12  N   UNL     1      44.362 128.677  22.460  1.00  0.00    -0.014 N 
ATOM     13  N   UNL     1      45.546 128.338  21.948  1.00  0.00     0.053 NA
ATOM     14  N   UNL     1      43.761 127.649  23.057  1.00  0.00    -0.161 N 
ATOM     15  C   UNL     1      45.695 127.036  22.251  1.00  0.00     0.249 A 
ATOM     16  C   UNL     1      44.597 126.612  22.935  1.00  0.00     0.198 A 
ATOM     17  C   UNL     1      46.771 126.195  21.985  1.00  0.00     0.064 A 
ATOM     18  C   UNL     1      44.474 125.313  23.417  1.00  0.00     0.058 A 
ATOM     19  C   UNL     1      46.685 124.868  22.451  1.00  0.00     0.005 A 
ATOM     20  C   UNL     1      45.542 124.429  23.164  1.00  0.00     0.005 A 
ATOM     21  H   UNL     1      42.838 127.672  23.547  1.00  0.00     0.340 HD
ENDBRANCH   7  12
ENDBRANCH   1   2
BRANCH   1  22
ATOM     22  C   UNL     1      45.593 130.803  19.362  1.00  0.00     0.233 C 
ATOM     23  O   UNL     1      46.731 130.572  19.846  1.00  0.00    -0.274 OA
BRANCH  22  24
ATOM     24  O   UNL     1      45.436 131.628  18.237  1.00  0.00    -0.472 OA
BRANCH  24  25
ATOM     25  C   UNL     1      45.182 131.195  16.892  1.00  0.00     0.102 C 
ATOM     26  C   UNL     1      43.670 131.170  16.594  1.00  0.00     0.056 C 
ATOM     27  C   UNL     1      45.916 132.104  15.889  1.00  0.00     0.056 C 
ATOM     28  C   UNL     1      45.733 129.766  16.766  1.00  0.00     0.056 C 
ENDBRANCH  24  25
ENDBRANCH  22  24
ENDBRANCH   1  22
TORSDOF 6
ENDMDL


