REMARK SMILES Cc1n[nH]c2cc(-c3ccc([O-])cc3)ccc12
REMARK SMILES IDX 1 1 2 2 3 3 4 4 5 5 6 6 7 7 15 8 16 9 17 10 8 12 9 13 14 14
REMARK SMILES IDX 10 15 13 16 11 17 12 18
REMARK H PARENT 4 11
ROOT
ATOM      1  C   UNL     1       3.081   1.966  -2.471  1.00  0.00     0.069 C 
ATOM      2  C   UNL     1       2.216   0.781  -2.192  1.00  0.00     0.067 A 
ATOM      3  N   UNL     1       2.377  -0.435  -2.767  1.00  0.00    -0.180 NA
ATOM      4  N   UNL     1       1.412  -1.233  -2.320  1.00  0.00    -0.278 N 
ATOM      5  C   UNL     1       0.638  -0.534  -1.474  1.00  0.00     0.066 A 
ATOM      6  C   UNL     1      -0.492  -0.963  -0.783  1.00  0.00     0.037 A 
ATOM      7  C   UNL     1      -1.157  -0.028   0.049  1.00  0.00    -0.016 A 
ATOM      8  C   UNL     1      -0.655   1.301   0.146  1.00  0.00     0.009 A 
ATOM      9  C   UNL     1       0.490   1.696  -0.570  1.00  0.00     0.013 A 
ATOM     10  C   UNL     1       1.109   0.741  -1.370  1.00  0.00     0.023 A 
ATOM     11  H   UNL     1       1.292  -2.232  -2.599  1.00  0.00     0.190 HD
ENDROOT
BRANCH   7  12
ATOM     12  C   UNL     1      -2.368  -0.431   0.808  1.00  0.00    -0.018 A 
ATOM     13  C   UNL     1      -3.464   0.444   0.925  1.00  0.00     0.008 A 
ATOM     14  C   UNL     1      -2.438  -1.695   1.423  1.00  0.00     0.008 A 
ATOM     15  C   UNL     1      -4.603   0.062   1.641  1.00  0.00    -0.008 A 
ATOM     16  C   UNL     1      -3.579  -2.073   2.139  1.00  0.00    -0.008 A 
ATOM     17  C   UNL     1      -4.661  -1.196   2.247  1.00  0.00    -0.109 A 
ATOM     18  O   UNL     1      -5.794  -1.573   2.958  1.00  0.00    -0.872 OA
ENDBRANCH   7  12
TORSDOF 1


