REMARK SMILES O=C(N(c1ccc2cc[nH]c2c1)c1ccc(O)cc1F)C1(CF)CNC1
REMARK SMILES IDX 1 1 2 2 3 3 4 4 5 5 12 6 6 7 11 8 7 9 10 10 8 11 9 12 13 14
REMARK SMILES IDX 14 15 19 16 15 17 18 18 16 19 20 20 17 21 21 23 24 24 26 25
REMARK SMILES IDX 25 26 22 28 23 29
REMARK H PARENT 10 13 17 22 25 27
ROOT
ATOM      1  O   UNL     1      -0.820  -2.128   1.894  1.00  0.00    -0.273 OA
ATOM      2  C   UNL     1      -0.832  -1.058   1.226  1.00  0.00     0.243 C 
ENDROOT
BRANCH   2   3
ATOM      3  N   UNL     1       0.396  -0.327   1.051  1.00  0.00    -0.277 N 
BRANCH   3   4
ATOM      4  C   UNL     1       0.436   1.090   1.298  1.00  0.00     0.051 A 
ATOM      5  C   UNL     1       0.979   1.968   0.324  1.00  0.00     0.027 A 
ATOM      6  C   UNL     1      -0.033   1.609   2.524  1.00  0.00     0.053 A 
ATOM      7  C   UNL     1       1.034   3.353   0.557  1.00  0.00     0.012 A 
ATOM      8  C   UNL     1       0.034   2.986   2.723  1.00  0.00     0.047 A 
ATOM      9  C   UNL     1       0.548   3.826   1.773  1.00  0.00    -0.000 A 
ATOM     10  N   UNL     1      -0.362   3.675   3.805  1.00  0.00    -0.361 N 
ATOM     11  C   UNL     1       0.475   5.108   2.273  1.00  0.00     0.028 A 
ATOM     12  C   UNL     1      -0.096   4.973   3.535  1.00  0.00     0.083 A 
ATOM     13  H   UNL     1      -0.789   3.292   4.678  1.00  0.00     0.166 HD
ENDBRANCH   3   4
BRANCH   3  14
ATOM     14  C   UNL     1       1.578  -1.025   0.605  1.00  0.00     0.085 A 
ATOM     15  C   UNL     1       1.484  -1.988  -0.416  1.00  0.00     0.033 A 
ATOM     16  C   UNL     1       2.838  -0.755   1.176  1.00  0.00     0.150 A 
ATOM     17  C   UNL     1       2.624  -2.661  -0.863  1.00  0.00     0.048 A 
ATOM     18  C   UNL     1       3.975  -1.432   0.725  1.00  0.00     0.087 A 
ATOM     19  C   UNL     1       3.871  -2.385  -0.296  1.00  0.00     0.118 A 
ATOM     20  F   UNL     1       2.964   0.141   2.187  1.00  0.00    -0.205 F 
BRANCH  19  21
ATOM     21  O   UNL     1       4.999  -3.064  -0.753  1.00  0.00    -0.508 OA
ATOM     22  H   UNL     1       5.917  -2.887  -0.362  1.00  0.00     0.293 HD
ENDBRANCH  19  21
ENDBRANCH   3  14
ENDBRANCH   2   3
BRANCH   2  23
ATOM     23  C   UNL     1      -2.137  -0.583   0.616  1.00  0.00     0.103 C 
ATOM     24  C   UNL     1      -2.002   0.116  -0.738  1.00  0.00     0.102 C 
ATOM     25  C   UNL     1      -2.855  -1.668  -0.189  1.00  0.00     0.102 C 
ATOM     26  N   UNL     1      -2.723  -0.939  -1.451  1.00  0.00    -0.314 NA
ATOM     27  H   UNL     1      -3.666  -0.570  -1.720  1.00  0.00     0.122 HD
BRANCH  23  28
ATOM     28  C   UNL     1      -3.063   0.150   1.602  1.00  0.00     0.234 C 
ATOM     29  F   UNL     1      -3.304  -0.641   2.711  1.00  0.00    -0.250 F 
ENDBRANCH  23  28
ENDBRANCH   2  23
TORSDOF 6


