MODEL 1
REMARK VINA RESULT:      -7.3      0.000      0.000
REMARK SMILES N#CC[C@H]1C[C@H]1C(=O)NCCc1ccc(-c2cnc3ccnn3c2)cc1
REMARK SMILES IDX 7 1 8 2 9 3 6 5 4 6 5 7 3 8 2 9 1 10 10 11 11 12 12 13 13 14
REMARK SMILES IDX 26 15 14 16 25 17 15 18 16 19 17 20 24 21 18 22 23 23 19 24
REMARK SMILES IDX 22 25 20 26 21 27
REMARK H PARENT 9 4
ROOT
ATOM      1  C   UNL     1      41.585 128.463  23.682  1.00  0.00     0.223 C 
ATOM      2  O   UNL     1      40.519 128.443  23.008  1.00  0.00    -0.275 OA
ATOM      3  N   UNL     1      42.543 129.514  23.494  1.00  0.00    -0.356 N 
ATOM      4  H   UNL     1      43.423 129.494  24.057  1.00  0.00     0.163 HD
ENDROOT
BRANCH   1   5
ATOM      5  C   UNL     1      41.899 127.327  24.616  1.00  0.00     0.083 C 
ATOM      6  C   UNL     1      42.124 125.940  24.007  1.00  0.00     0.016 C 
ATOM      7  C   UNL     1      43.311 126.759  24.503  1.00  0.00     0.019 C 
BRANCH   6   8
ATOM      8  C   UNL     1      42.031 125.787  22.482  1.00  0.00     0.124 C 
BRANCH   8   9
ATOM      9  C   UNL     1      42.836 124.642  22.048  1.00  0.00     0.062 C 
ATOM     10  N   UNL     1      43.468 123.737  21.704  1.00  0.00    -0.198 NA
ENDBRANCH   8   9
ENDBRANCH   6   8
ENDBRANCH   1   5
BRANCH   3  11
ATOM     11  C   UNL     1      42.430 130.512  22.429  1.00  0.00     0.120 C 
BRANCH  11  12
ATOM     12  C   UNL     1      43.737 131.296  22.240  1.00  0.00     0.056 C 
BRANCH  12  13
ATOM     13  C   UNL     1      44.248 131.225  20.822  1.00  0.00    -0.046 A 
ATOM     14  C   UNL     1      45.359 130.427  20.504  1.00  0.00     0.004 A 
ATOM     15  C   UNL     1      43.622 131.962  19.806  1.00  0.00     0.004 A 
ATOM     16  C   UNL     1      45.854 130.394  19.198  1.00  0.00     0.009 A 
ATOM     17  C   UNL     1      44.119 131.933  18.501  1.00  0.00     0.009 A 
ATOM     18  C   UNL     1      45.246 131.155  18.184  1.00  0.00    -0.015 A 
BRANCH  18  19
ATOM     19  C   UNL     1      45.789 131.142  16.803  1.00  0.00     0.018 A 
ATOM     20  C   UNL     1      45.556 132.224  15.915  1.00  0.00     0.124 A 
ATOM     21  C   UNL     1      46.560 130.059  16.335  1.00  0.00     0.125 A 
ATOM     22  N   UNL     1      46.069 132.212  14.650  1.00  0.00    -0.236 NA
ATOM     23  N   UNL     1      47.035 130.113  15.068  1.00  0.00    -0.222 N 
ATOM     24  C   UNL     1      46.802 131.144  14.255  1.00  0.00     0.154 A 
ATOM     25  N   UNL     1      47.768 129.203  14.452  1.00  0.00    -0.175 NA
ATOM     26  C   UNL     1      47.403 130.928  13.040  1.00  0.00     0.071 A 
ATOM     27  C   UNL     1      48.006 129.683  13.206  1.00  0.00     0.138 A 
ENDBRANCH  18  19
ENDBRANCH  12  13
ENDBRANCH  11  12
ENDBRANCH   3  11
TORSDOF 7
ENDMDL
MODEL 2
REMARK VINA RESULT:      -6.9      1.508      2.036
REMARK SMILES N#CC[C@H]1C[C@H]1C(=O)NCCc1ccc(-c2cnc3ccnn3c2)cc1
REMARK SMILES IDX 7 1 8 2 9 3 6 5 4 6 5 7 3 8 2 9 1 10 10 11 11 12 12 13 13 14
REMARK SMILES IDX 26 15 14 16 25 17 15 18 16 19 17 20 24 21 18 22 23 23 19 24
REMARK SMILES IDX 22 25 20 26 21 27
REMARK H PARENT 9 4
ROOT
ATOM      1  C   UNL     1      43.072 127.431  23.850  1.00  0.00     0.223 C 
ATOM      2  O   UNL     1      44.038 126.972  24.519  1.00  0.00    -0.275 OA
ATOM      3  N   UNL     1      43.003 128.830  23.541  1.00  0.00    -0.356 N 
ATOM      4  H   UNL     1      42.181 129.182  22.999  1.00  0.00     0.163 HD
ENDROOT
BRANCH   1   5
ATOM      5  C   UNL     1      41.937 126.525  23.459  1.00  0.00     0.083 C 
ATOM      6  C   UNL     1      42.099 125.023  23.712  1.00  0.00     0.016 C 
ATOM      7  C   UNL     1      41.203 125.859  24.619  1.00  0.00     0.019 C 
BRANCH   6   8
ATOM      8  C   UNL     1      43.399 124.528  24.360  1.00  0.00     0.124 C 
BRANCH   8   9
ATOM      9  C   UNL     1      44.087 123.605  23.454  1.00  0.00     0.062 C 
ATOM     10  N   UNL     1      44.630 122.878  22.736  1.00  0.00    -0.198 NA
ENDBRANCH   8   9
ENDBRANCH   6   8
ENDBRANCH   1   5
BRANCH   3  11
ATOM     11  C   UNL     1      43.931 129.814  24.099  1.00  0.00     0.120 C 
BRANCH  11  12
ATOM     12  C   UNL     1      43.732 131.205  23.478  1.00  0.00     0.056 C 
BRANCH  12  13
ATOM     13  C   UNL     1      44.028 131.220  21.998  1.00  0.00    -0.046 A 
ATOM     14  C   UNL     1      43.220 131.956  21.117  1.00  0.00     0.004 A 
ATOM     15  C   UNL     1      45.114 130.494  21.486  1.00  0.00     0.004 A 
ATOM     16  C   UNL     1      43.473 131.936  19.743  1.00  0.00     0.009 A 
ATOM     17  C   UNL     1      45.366 130.471  20.113  1.00  0.00     0.009 A 
ATOM     18  C   UNL     1      44.543 131.185  19.224  1.00  0.00    -0.015 A 
BRANCH  18  19
ATOM     19  C   UNL     1      44.796 131.142  17.763  1.00  0.00     0.018 A 
ATOM     20  C   UNL     1      43.832 131.620  16.839  1.00  0.00     0.124 A 
ATOM     21  C   UNL     1      46.006 130.632  17.250  1.00  0.00     0.125 A 
ATOM     22  N   UNL     1      44.076 131.589  15.496  1.00  0.00    -0.236 NA
ATOM     23  N   UNL     1      46.180 130.629  15.907  1.00  0.00    -0.222 N 
ATOM     24  C   UNL     1      45.256 131.088  15.060  1.00  0.00     0.154 A 
ATOM     25  N   UNL     1      47.234 130.194  15.240  1.00  0.00    -0.175 NA
ATOM     26  C   UNL     1      45.701 130.963  13.768  1.00  0.00     0.071 A 
ATOM     27  C   UNL     1      46.962 130.390  13.925  1.00  0.00     0.138 A 
ENDBRANCH  18  19
ENDBRANCH  12  13
ENDBRANCH  11  12
ENDBRANCH   3  11
TORSDOF 7
ENDMDL
MODEL 3
REMARK VINA RESULT:      -6.9      2.039      2.353
REMARK SMILES N#CC[C@H]1C[C@H]1C(=O)NCCc1ccc(-c2cnc3ccnn3c2)cc1
REMARK SMILES IDX 7 1 8 2 9 3 6 5 4 6 5 7 3 8 2 9 1 10 10 11 11 12 12 13 13 14
REMARK SMILES IDX 26 15 14 16 25 17 15 18 16 19 17 20 24 21 18 22 23 23 19 24
REMARK SMILES IDX 22 25 20 26 21 27
REMARK H PARENT 9 4
ROOT
ATOM      1  C   UNL     1      44.762 126.917  22.942  1.00  0.00     0.223 C 
ATOM      2  O   UNL     1      45.690 126.821  23.791  1.00  0.00    -0.275 OA
ATOM      3  N   UNL     1      44.125 128.180  22.703  1.00  0.00    -0.356 N 
ATOM      4  H   UNL     1      43.349 128.224  22.004  1.00  0.00     0.163 HD
ENDROOT
BRANCH   1   5
ATOM      5  C   UNL     1      44.254 125.684  22.247  1.00  0.00     0.083 C 
ATOM      6  C   UNL     1      44.440 124.337  22.952  1.00  0.00     0.016 C 
ATOM      7  C   UNL     1      43.067 124.998  22.916  1.00  0.00     0.019 C 
BRANCH   6   8
ATOM      8  C   UNL     1      45.118 124.320  24.329  1.00  0.00     0.124 C 
BRANCH   8   9
ATOM      9  C   UNL     1      46.351 123.532  24.266  1.00  0.00     0.062 C 
ATOM     10  N   UNL     1      47.325 122.908  24.214  1.00  0.00    -0.198 NA
ENDBRANCH   8   9
ENDBRANCH   6   8
ENDBRANCH   1   5
BRANCH   3  11
ATOM     11  C   UNL     1      44.386 129.369  23.515  1.00  0.00     0.120 C 
BRANCH  11  12
ATOM     12  C   UNL     1      43.916 130.653  22.817  1.00  0.00     0.056 C 
BRANCH  12  13
ATOM     13  C   UNL     1      44.352 130.715  21.374  1.00  0.00    -0.046 A 
ATOM     14  C   UNL     1      45.454 129.968  20.930  1.00  0.00     0.004 A 
ATOM     15  C   UNL     1      43.662 131.525  20.460  1.00  0.00     0.004 A 
ATOM     16  C   UNL     1      45.880 130.058  19.602  1.00  0.00     0.009 A 
ATOM     17  C   UNL     1      44.089 131.618  19.133  1.00  0.00     0.009 A 
ATOM     18  C   UNL     1      45.208 130.892  18.691  1.00  0.00    -0.015 A 
BRANCH  18  19
ATOM     19  C   UNL     1      45.677 131.009  17.288  1.00  0.00     0.018 A 
ATOM     20  C   UNL     1      45.340 132.136  16.496  1.00  0.00     0.124 A 
ATOM     21  C   UNL     1      46.478 130.007  16.704  1.00  0.00     0.125 A 
ATOM     22  N   UNL     1      45.785 132.244  15.210  1.00  0.00    -0.236 NA
ATOM     23  N   UNL     1      46.881 130.178  15.423  1.00  0.00    -0.222 N 
ATOM     24  C   UNL     1      46.551 131.250  14.701  1.00  0.00     0.154 A 
ATOM     25  N   UNL     1      47.628 129.358  14.705  1.00  0.00    -0.175 NA
ATOM     26  C   UNL     1      47.098 131.156  13.445  1.00  0.00     0.071 A 
ATOM     27  C   UNL     1      47.774 129.939  13.488  1.00  0.00     0.138 A 
ENDBRANCH  18  19
ENDBRANCH  12  13
ENDBRANCH  11  12
ENDBRANCH   3  11
TORSDOF 7
ENDMDL
MODEL 4
REMARK VINA RESULT:      -6.7      1.664      1.844
REMARK SMILES N#CC[C@H]1C[C@H]1C(=O)NCCc1ccc(-c2cnc3ccnn3c2)cc1
REMARK SMILES IDX 7 1 8 2 9 3 6 5 4 6 5 7 3 8 2 9 1 10 10 11 11 12 12 13 13 14
REMARK SMILES IDX 26 15 14 16 25 17 15 18 16 19 17 20 24 21 18 22 23 23 19 24
REMARK SMILES IDX 22 25 20 26 21 27
REMARK H PARENT 9 4
ROOT
ATOM      1  C   UNL     1      44.237 127.887  22.868  1.00  0.00     0.223 C 
ATOM      2  O   UNL     1      45.065 127.866  21.916  1.00  0.00    -0.275 OA
ATOM      3  N   UNL     1      43.893 129.126  23.503  1.00  0.00    -0.356 N 
ATOM      4  H   UNL     1      43.216 129.107  24.300  1.00  0.00     0.163 HD
ENDROOT
BRANCH   1   5
ATOM      5  C   UNL     1      43.684 126.596  23.405  1.00  0.00     0.083 C 
ATOM      6  C   UNL     1      44.545 125.336  23.269  1.00  0.00     0.016 C 
ATOM      7  C   UNL     1      44.411 126.028  24.621  1.00  0.00     0.019 C 
BRANCH   6   8
ATOM      8  C   UNL     1      45.925 125.462  22.609  1.00  0.00     0.124 C 
BRANCH   8   9
ATOM      9  C   UNL     1      46.267 124.210  21.929  1.00  0.00     0.062 C 
ATOM     10  N   UNL     1      46.537 123.222  21.390  1.00  0.00    -0.198 NA
ENDBRANCH   8   9
ENDBRANCH   6   8
ENDBRANCH   1   5
BRANCH   3  11
ATOM     11  C   UNL     1      44.575 130.387  23.210  1.00  0.00     0.120 C 
BRANCH  11  12
ATOM     12  C   UNL     1      43.757 131.270  22.256  1.00  0.00     0.056 C 
BRANCH  12  13
ATOM     13  C   UNL     1      44.265 131.206  20.837  1.00  0.00    -0.046 A 
ATOM     14  C   UNL     1      45.252 130.275  20.474  1.00  0.00     0.004 A 
ATOM     15  C   UNL     1      43.760 132.080  19.863  1.00  0.00     0.004 A 
ATOM     16  C   UNL     1      45.749 130.244  19.168  1.00  0.00     0.009 A 
ATOM     17  C   UNL     1      44.259 132.053  18.559  1.00  0.00     0.009 A 
ATOM     18  C   UNL     1      45.265 131.141  18.199  1.00  0.00    -0.015 A 
BRANCH  18  19
ATOM     19  C   UNL     1      45.812 131.127  16.819  1.00  0.00     0.018 A 
ATOM     20  C   UNL     1      45.528 132.177  15.909  1.00  0.00     0.124 A 
ATOM     21  C   UNL     1      46.639 130.074  16.376  1.00  0.00     0.125 A 
ATOM     22  N   UNL     1      46.045 132.165  14.645  1.00  0.00    -0.236 NA
ATOM     23  N   UNL     1      47.114 130.126  15.109  1.00  0.00    -0.222 N 
ATOM     24  C   UNL     1      46.832 131.128  14.274  1.00  0.00     0.154 A 
ATOM     25  N   UNL     1      47.894 129.243  14.513  1.00  0.00    -0.175 NA
ATOM     26  C   UNL     1      47.447 130.918  13.065  1.00  0.00     0.071 A 
ATOM     27  C   UNL     1      48.111 129.708  13.258  1.00  0.00     0.138 A 
ENDBRANCH  18  19
ENDBRANCH  12  13
ENDBRANCH  11  12
ENDBRANCH   3  11
TORSDOF 7
ENDMDL
MODEL 5
REMARK VINA RESULT:      -6.1      1.147      1.672
REMARK SMILES N#CC[C@H]1C[C@H]1C(=O)NCCc1ccc(-c2cnc3ccnn3c2)cc1
REMARK SMILES IDX 7 1 8 2 9 3 6 5 4 6 5 7 3 8 2 9 1 10 10 11 11 12 12 13 13 14
REMARK SMILES IDX 26 15 14 16 25 17 15 18 16 19 17 20 24 21 18 22 23 23 19 24
REMARK SMILES IDX 22 25 20 26 21 27
REMARK H PARENT 9 4
ROOT
ATOM      1  C   UNL     1      41.700 128.746  23.568  1.00  0.00     0.223 C 
ATOM      2  O   UNL     1      41.452 129.983  23.581  1.00  0.00    -0.275 OA
ATOM      3  N   UNL     1      43.052 128.277  23.664  1.00  0.00    -0.356 N 
ATOM      4  H   UNL     1      43.226 127.246  23.634  1.00  0.00     0.163 HD
ENDROOT
BRANCH   1   5
ATOM      5  C   UNL     1      40.583 127.762  23.354  1.00  0.00     0.083 C 
ATOM      6  C   UNL     1      40.837 126.298  23.725  1.00  0.00     0.016 C 
ATOM      7  C   UNL     1      39.975 127.177  24.625  1.00  0.00     0.019 C 
BRANCH   6   8
ATOM      8  C   UNL     1      42.206 125.918  24.306  1.00  0.00     0.124 C 
BRANCH   8   9
ATOM      9  C   UNL     1      42.601 124.593  23.823  1.00  0.00     0.062 C 
ATOM     10  N   UNL     1      42.910 123.545  23.443  1.00  0.00    -0.198 NA
ENDBRANCH   8   9
ENDBRANCH   6   8
ENDBRANCH   1   5
BRANCH   3  11
ATOM     11  C   UNL     1      44.209 129.171  23.619  1.00  0.00     0.120 C 
BRANCH  11  12
ATOM     12  C   UNL     1      43.847 130.546  23.038  1.00  0.00     0.056 C 
BRANCH  12  13
ATOM     13  C   UNL     1      44.327 130.712  21.617  1.00  0.00    -0.046 A 
ATOM     14  C   UNL     1      43.626 131.533  20.719  1.00  0.00     0.004 A 
ATOM     15  C   UNL     1      45.477 130.042  21.175  1.00  0.00     0.004 A 
ATOM     16  C   UNL     1      44.049 131.654  19.393  1.00  0.00     0.009 A 
ATOM     17  C   UNL     1      45.900 130.159  19.849  1.00  0.00     0.009 A 
ATOM     18  C   UNL     1      45.185 130.959  18.940  1.00  0.00    -0.015 A 
BRANCH  18  19
ATOM     19  C   UNL     1      45.620 131.065  17.525  1.00  0.00     0.018 A 
ATOM     20  C   UNL     1      45.406 132.254  16.782  1.00  0.00     0.124 A 
ATOM     21  C   UNL     1      46.266 129.990  16.882  1.00  0.00     0.125 A 
ATOM     22  N   UNL     1      45.820 132.349  15.484  1.00  0.00    -0.236 NA
ATOM     23  N   UNL     1      46.646 130.153  15.592  1.00  0.00    -0.222 N 
ATOM     24  C   UNL     1      46.435 131.284  14.916  1.00  0.00     0.154 A 
ATOM     25  N   UNL     1      47.257 129.270  14.823  1.00  0.00    -0.175 NA
ATOM     26  C   UNL     1      46.924 131.165  13.640  1.00  0.00     0.071 A 
ATOM     27  C   UNL     1      47.438 129.871  13.620  1.00  0.00     0.138 A 
ENDBRANCH  18  19
ENDBRANCH  12  13
ENDBRANCH  11  12
ENDBRANCH   3  11
TORSDOF 7
ENDMDL
MODEL 6
REMARK VINA RESULT:      -5.0      2.731      3.188
REMARK SMILES N#CC[C@H]1C[C@H]1C(=O)NCCc1ccc(-c2cnc3ccnn3c2)cc1
REMARK SMILES IDX 7 1 8 2 9 3 6 5 4 6 5 7 3 8 2 9 1 10 10 11 11 12 12 13 13 14
REMARK SMILES IDX 26 15 14 16 25 17 15 18 16 19 17 20 24 21 18 22 23 23 19 24
REMARK SMILES IDX 22 25 20 26 21 27
REMARK H PARENT 9 4
ROOT
ATOM      1  C   UNL     1      45.057 126.796  23.469  1.00  0.00     0.223 C 
ATOM      2  O   UNL     1      44.506 126.337  24.507  1.00  0.00    -0.275 OA
ATOM      3  N   UNL     1      44.997 128.199  23.176  1.00  0.00    -0.356 N 
ATOM      4  H   UNL     1      45.450 128.546  22.301  1.00  0.00     0.163 HD
ENDROOT
BRANCH   1   5
ATOM      5  C   UNL     1      45.696 125.856  22.484  1.00  0.00     0.083 C 
ATOM      6  C   UNL     1      46.848 124.976  22.979  1.00  0.00     0.016 C 
ATOM      7  C   UNL     1      45.466 124.372  22.753  1.00  0.00     0.019 C 
BRANCH   6   8
ATOM      8  C   UNL     1      47.276 125.088  24.448  1.00  0.00     0.124 C 
BRANCH   8   9
ATOM      9  C   UNL     1      48.540 125.823  24.543  1.00  0.00     0.062 C 
ATOM     10  N   UNL     1      49.538 126.404  24.615  1.00  0.00    -0.198 NA
ENDBRANCH   8   9
ENDBRANCH   6   8
ENDBRANCH   1   5
BRANCH   3  11
ATOM     11  C   UNL     1      44.182 129.138  23.948  1.00  0.00     0.120 C 
BRANCH  11  12
ATOM     12  C   UNL     1      44.382 130.587  23.479  1.00  0.00     0.056 C 
BRANCH  12  13
ATOM     13  C   UNL     1      44.563 130.687  21.985  1.00  0.00    -0.046 A 
ATOM     14  C   UNL     1      45.130 129.626  21.262  1.00  0.00     0.004 A 
ATOM     15  C   UNL     1      44.170 131.847  21.301  1.00  0.00     0.004 A 
ATOM     16  C   UNL     1      45.333 129.737  19.884  1.00  0.00     0.009 A 
ATOM     17  C   UNL     1      44.376 131.962  19.924  1.00  0.00     0.009 A 
ATOM     18  C   UNL     1      44.968 130.911  19.201  1.00  0.00    -0.015 A 
BRANCH  18  19
ATOM     19  C   UNL     1      45.209 131.041  17.743  1.00  0.00     0.018 A 
ATOM     20  C   UNL     1      44.359 131.833  16.929  1.00  0.00     0.124 A 
ATOM     21  C   UNL     1      46.295 130.388  17.125  1.00  0.00     0.125 A 
ATOM     22  N   UNL     1      44.593 131.959  15.590  1.00  0.00    -0.236 NA
ATOM     23  N   UNL     1      46.465 130.554  15.792  1.00  0.00    -0.222 N 
ATOM     24  C   UNL     1      45.652 131.308  15.050  1.00  0.00     0.154 A 
ATOM     25  N   UNL     1      47.413 130.029  15.037  1.00  0.00    -0.175 NA
ATOM     26  C   UNL     1      46.064 131.295  13.742  1.00  0.00     0.071 A 
ATOM     27  C   UNL     1      47.186 130.470  13.775  1.00  0.00     0.138 A 
ENDBRANCH  18  19
ENDBRANCH  12  13
ENDBRANCH  11  12
ENDBRANCH   3  11
TORSDOF 7
ENDMDL


