REMARK SMILES S/C(=[NH+]/c1ccccc1Cl)N1CCC[C@@H](Cc2cc3ccccc3[nH]2)C1
REMARK SMILES IDX 11 1 12 2 13 3 14 4 15 5 26 6 2 7 1 8 3 10 4 12 5 13 9 14
REMARK SMILES IDX 6 15 8 16 7 17 10 18 16 19 17 20 18 21 25 22 19 23 24 24
REMARK SMILES IDX 20 25 23 26 21 27 22 28
REMARK H PARENT 1 9 3 11 25 29
ROOT
ATOM      1  N   UNL     1      -0.216  -1.550   0.393  1.00  0.00    -0.256 N 
ATOM      2  C   UNL     1      -0.358  -3.003   0.531  1.00  0.00     0.237 C 
ATOM      3  C   UNL     1       1.027  -3.655   0.523  1.00  0.00     0.046 C 
ATOM      4  C   UNL     1       1.835  -3.210  -0.705  1.00  0.00     0.012 C 
ATOM      5  C   UNL     1       1.942  -1.672  -0.778  1.00  0.00     0.037 C 
ATOM      6  C   UNL     1       0.531  -1.049  -0.764  1.00  0.00     0.241 C 
ENDROOT
BRANCH   1   7
ATOM      7  C   UNL     1      -0.490  -0.685   1.510  1.00  0.00     0.308 C 
BRANCH   7   8
ATOM      8  S   UNL     1       0.852   0.270   2.225  1.00  0.00    -0.056 SA
ATOM      9  H   UNL     1       1.205  -0.783   3.089  1.00  0.00     0.116 HD
ENDBRANCH   7   8
BRANCH   7  10
ATOM     10  N   UNL     1      -1.677  -0.617   2.047  1.00  0.00    -0.234 N 
ATOM     11  H   UNL     1      -1.798  -0.051   2.917  1.00  0.00     0.313 HD
BRANCH  10  12
ATOM     12  C   UNL     1      -2.844  -1.272   1.518  1.00  0.00     0.144 A 
ATOM     13  C   UNL     1      -3.185  -1.139   0.159  1.00  0.00     0.053 A 
ATOM     14  C   UNL     1      -3.689  -2.008   2.370  1.00  0.00     0.087 A 
ATOM     15  C   UNL     1      -4.330  -1.760  -0.346  1.00  0.00     0.004 A 
ATOM     16  C   UNL     1      -4.835  -2.626   1.856  1.00  0.00     0.025 A 
ATOM     17  C   UNL     1      -5.153  -2.505   0.501  1.00  0.00     0.002 A 
ATOM     18  Cl  UNL     1      -3.311  -2.202   4.077  1.00  0.00    -0.080 Cl
ENDBRANCH  10  12
ENDBRANCH   7  10
ENDBRANCH   1   7
BRANCH   5  19
ATOM     19  C   UNL     1       2.736  -1.250  -2.030  1.00  0.00     0.061 C 
BRANCH  19  20
ATOM     20  C   UNL     1       3.017   0.224  -2.033  1.00  0.00     0.016 A 
ATOM     21  C   UNL     1       3.989   0.854  -1.259  1.00  0.00     0.031 A 
ATOM     22  N   UNL     1       2.289   1.127  -2.732  1.00  0.00    -0.358 N 
ATOM     23  C   UNL     1       3.833   2.197  -1.521  1.00  0.00    -0.000 A 
ATOM     24  C   UNL     1       2.800   2.327  -2.412  1.00  0.00     0.046 A 
ATOM     25  C   UNL     1       4.518   3.304  -1.022  1.00  0.00     0.010 A 
ATOM     26  C   UNL     1       2.378   3.575  -2.868  1.00  0.00     0.026 A 
ATOM     27  C   UNL     1       4.117   4.577  -1.467  1.00  0.00     0.001 A 
ATOM     28  C   UNL     1       3.053   4.713  -2.386  1.00  0.00     0.002 A 
ATOM     29  H   UNL     1       1.485   0.932  -3.370  1.00  0.00     0.166 HD
ENDBRANCH  19  20
ENDBRANCH   5  19
TORSDOF 6


