MODEL 1
REMARK VINA RESULT:      -5.6      0.000      0.000
REMARK SMILES O=C(c1cscn1)N1C[C@H]2CCCC[C@H]2N[C@H]1c1ccc2[nH]ccc2c1
REMARK SMILES IDX 8 1 9 2 10 3 11 4 12 5 13 6 14 7 15 8 16 9 17 10 2 12 1 13
REMARK SMILES IDX 3 14 4 15 7 16 5 17 6 18 18 19 19 20 26 21 20 22 25 23 21 24
REMARK SMILES IDX 24 25 22 26 23 27
REMARK H PARENT 16 11 22 28
ROOT
ATOM      1  N   UNL     1      43.782 126.405  23.398  1.00  0.00    -0.317 N 
ATOM      2  C   UNL     1      44.197 125.237  22.604  1.00  0.00     0.127 C 
ATOM      3  C   UNL     1      45.474 124.566  23.177  1.00  0.00     0.026 C 
ATOM      4  C   UNL     1      46.427 124.182  22.018  1.00  0.00     0.007 C 
ATOM      5  C   UNL     1      47.768 123.654  22.526  1.00  0.00     0.000 C 
ATOM      6  C   UNL     1      48.447 124.698  23.409  1.00  0.00     0.002 C 
ATOM      7  C   UNL     1      47.575 125.017  24.624  1.00  0.00     0.019 C 
ATOM      8  C   UNL     1      46.155 125.475  24.239  1.00  0.00     0.060 C 
ATOM      9  N   UNL     1      46.149 126.877  23.798  1.00  0.00    -0.290 NA
ATOM     10  C   UNL     1      44.771 127.411  23.838  1.00  0.00     0.185 C 
ATOM     11  H   UNL     1      46.535 126.934  22.828  1.00  0.00     0.125 HD
ENDROOT
BRANCH   1  12
ATOM     12  C   UNL     1      42.393 126.602  23.718  1.00  0.00     0.274 C 
ATOM     13  O   UNL     1      42.008 127.716  24.165  1.00  0.00    -0.267 OA
BRANCH  12  14
ATOM     14  C   UNL     1      41.420 125.502  23.573  1.00  0.00     0.139 A 
ATOM     15  C   UNL     1      41.194 124.838  22.369  1.00  0.00     0.100 A 
ATOM     16  N   UNL     1      40.644 125.085  24.612  1.00  0.00    -0.240 NA
ATOM     17  S   UNL     1      39.996 123.690  22.638  1.00  0.00    -0.130 S 
ATOM     18  C   UNL     1      39.808 124.085  24.260  1.00  0.00     0.176 A 
ENDBRANCH  12  14
ENDBRANCH   1  12
BRANCH  10  19
ATOM     19  C   UNL     1      44.663 128.686  23.022  1.00  0.00    -0.010 A 
ATOM     20  C   UNL     1      43.927 129.790  23.531  1.00  0.00     0.009 A 
ATOM     21  C   UNL     1      45.291 128.794  21.759  1.00  0.00     0.017 A 
ATOM     22  C   UNL     1      43.809 130.981  22.792  1.00  0.00     0.027 A 
ATOM     23  C   UNL     1      45.153 129.987  21.055  1.00  0.00    -0.000 A 
ATOM     24  C   UNL     1      44.438 131.042  21.552  1.00  0.00     0.045 A 
ATOM     25  C   UNL     1      45.645 130.364  19.825  1.00  0.00     0.028 A 
ATOM     26  N   UNL     1      44.452 132.075  20.693  1.00  0.00    -0.361 N 
ATOM     27  C   UNL     1      45.189 131.664  19.635  1.00  0.00     0.083 A 
ATOM     28  H   UNL     1      43.992 133.004  20.813  1.00  0.00     0.166 HD
ENDBRANCH  10  19
TORSDOF 3
ENDMDL
MODEL 2
REMARK VINA RESULT:      -5.1      2.475      3.520
REMARK SMILES O=C(c1cscn1)N1C[C@H]2CCCC[C@H]2N[C@H]1c1ccc2[nH]ccc2c1
REMARK SMILES IDX 8 1 9 2 10 3 11 4 12 5 13 6 14 7 15 8 16 9 17 10 2 12 1 13
REMARK SMILES IDX 3 14 4 15 7 16 5 17 6 18 18 19 19 20 26 21 20 22 25 23 21 24
REMARK SMILES IDX 24 25 22 26 23 27
REMARK H PARENT 16 11 22 28
ROOT
ATOM      1  N   UNL     1      46.458 123.668  22.868  1.00  0.00    -0.317 N 
ATOM      2  C   UNL     1      46.806 123.171  21.527  1.00  0.00     0.127 C 
ATOM      3  C   UNL     1      48.339 123.013  21.343  1.00  0.00     0.026 C 
ATOM      4  C   UNL     1      48.754 123.530  19.944  1.00  0.00     0.007 C 
ATOM      5  C   UNL     1      50.270 123.540  19.759  1.00  0.00     0.000 C 
ATOM      6  C   UNL     1      50.927 124.409  20.830  1.00  0.00     0.002 C 
ATOM      7  C   UNL     1      50.626 123.856  22.223  1.00  0.00     0.019 C 
ATOM      8  C   UNL     1      49.116 123.709  22.496  1.00  0.00     0.060 C 
ATOM      9  N   UNL     1      48.505 125.007  22.819  1.00  0.00    -0.290 NA
ATOM     10  C   UNL     1      47.196 124.798  23.471  1.00  0.00     0.185 C 
ATOM     11  H   UNL     1      48.391 125.562  21.939  1.00  0.00     0.125 HD
ENDROOT
BRANCH   1  12
ATOM     12  C   UNL     1      45.361 123.082  23.592  1.00  0.00     0.274 C 
ATOM     13  O   UNL     1      45.593 122.383  24.616  1.00  0.00    -0.267 OA
BRANCH  12  14
ATOM     14  C   UNL     1      43.972 123.252  23.127  1.00  0.00     0.139 A 
ATOM     15  C   UNL     1      43.544 122.888  21.851  1.00  0.00     0.100 A 
ATOM     16  N   UNL     1      43.013 123.815  23.913  1.00  0.00    -0.240 NA
ATOM     17  S   UNL     1      41.914 123.279  21.730  1.00  0.00    -0.130 S 
ATOM     18  C   UNL     1      41.818 123.897  23.289  1.00  0.00     0.176 A 
ENDBRANCH  12  14
ENDBRANCH   1  12
BRANCH  10  19
ATOM     19  C   UNL     1      46.371 126.072  23.446  1.00  0.00    -0.010 A 
ATOM     20  C   UNL     1      45.687 126.493  24.618  1.00  0.00     0.009 A 
ATOM     21  C   UNL     1      46.278 126.852  22.270  1.00  0.00     0.017 A 
ATOM     22  C   UNL     1      44.914 127.668  24.619  1.00  0.00     0.027 A 
ATOM     23  C   UNL     1      45.504 128.009  22.307  1.00  0.00    -0.000 A 
ATOM     24  C   UNL     1      44.845 128.403  23.438  1.00  0.00     0.045 A 
ATOM     25  C   UNL     1      45.237 128.940  21.328  1.00  0.00     0.028 A 
ATOM     26  N   UNL     1      44.169 129.544  23.224  1.00  0.00    -0.361 N 
ATOM     27  C   UNL     1      44.407 129.876  21.935  1.00  0.00     0.083 A 
ATOM     28  H   UNL     1      43.583 130.070  23.910  1.00  0.00     0.166 HD
ENDBRANCH  10  19
TORSDOF 3
ENDMDL
MODEL 3
REMARK VINA RESULT:      -5.1      2.384      6.303
REMARK SMILES O=C(c1cscn1)N1C[C@H]2CCCC[C@H]2N[C@H]1c1ccc2[nH]ccc2c1
REMARK SMILES IDX 8 1 9 2 10 3 11 4 12 5 13 6 14 7 15 8 16 9 17 10 2 12 1 13
REMARK SMILES IDX 3 14 4 15 7 16 5 17 6 18 18 19 19 20 26 21 20 22 25 23 21 24
REMARK SMILES IDX 24 25 22 26 23 27
REMARK H PARENT 16 11 22 28
ROOT
ATOM      1  N   UNL     1      45.202 127.440  23.056  1.00  0.00    -0.317 N 
ATOM      2  C   UNL     1      45.445 128.185  21.810  1.00  0.00     0.127 C 
ATOM      3  C   UNL     1      45.086 129.689  21.949  1.00  0.00     0.026 C 
ATOM      4  C   UNL     1      44.346 130.169  20.677  1.00  0.00     0.007 C 
ATOM      5  C   UNL     1      43.833 131.602  20.815  1.00  0.00     0.000 C 
ATOM      6  C   UNL     1      42.894 131.714  22.014  1.00  0.00     0.002 C 
ATOM      7  C   UNL     1      43.632 131.350  23.303  1.00  0.00     0.019 C 
ATOM      8  C   UNL     1      44.278 129.952  23.251  1.00  0.00     0.060 C 
ATOM      9  N   UNL     1      43.278 128.896  23.460  1.00  0.00    -0.290 NA
ATOM     10  C   UNL     1      43.951 127.630  23.819  1.00  0.00     0.185 C 
ATOM     11  H   UNL     1      42.716 128.775  22.585  1.00  0.00     0.125 HD
ENDROOT
BRANCH   1  12
ATOM     12  C   UNL     1      46.169 126.482  23.523  1.00  0.00     0.274 C 
ATOM     13  O   UNL     1      46.766 126.681  24.616  1.00  0.00    -0.267 OA
BRANCH  12  14
ATOM     14  C   UNL     1      46.504 125.292  22.719  1.00  0.00     0.139 A 
ATOM     15  C   UNL     1      47.590 125.241  21.846  1.00  0.00     0.100 A 
ATOM     16  N   UNL     1      45.743 124.163  22.752  1.00  0.00    -0.240 NA
ATOM     17  S   UNL     1      47.585 123.728  21.116  1.00  0.00    -0.130 S 
ATOM     18  C   UNL     1      46.211 123.203  21.925  1.00  0.00     0.176 A 
ENDBRANCH  12  14
ENDBRANCH   1  12
BRANCH  10  19
ATOM     19  C   UNL     1      43.013 126.451  23.643  1.00  0.00    -0.010 A 
ATOM     20  C   UNL     1      42.019 126.185  24.624  1.00  0.00     0.009 A 
ATOM     21  C   UNL     1      43.109 125.611  22.508  1.00  0.00     0.017 A 
ATOM     22  C   UNL     1      41.140 125.096  24.485  1.00  0.00     0.027 A 
ATOM     23  C   UNL     1      42.222 124.542  22.403  1.00  0.00    -0.000 A 
ATOM     24  C   UNL     1      41.274 124.292  23.356  1.00  0.00     0.045 A 
ATOM     25  C   UNL     1      42.091 123.580  21.427  1.00  0.00     0.028 A 
ATOM     26  N   UNL     1      40.544 123.213  23.031  1.00  0.00    -0.361 N 
ATOM     27  C   UNL     1      41.040 122.774  21.852  1.00  0.00     0.083 A 
ATOM     28  H   UNL     1      39.754 122.796  23.573  1.00  0.00     0.166 HD
ENDBRANCH  10  19
TORSDOF 3
ENDMDL
MODEL 4
REMARK VINA RESULT:      -4.6      5.583      9.010
REMARK SMILES O=C(c1cscn1)N1C[C@H]2CCCC[C@H]2N[C@H]1c1ccc2[nH]ccc2c1
REMARK SMILES IDX 8 1 9 2 10 3 11 4 12 5 13 6 14 7 15 8 16 9 17 10 2 12 1 13
REMARK SMILES IDX 3 14 4 15 7 16 5 17 6 18 18 19 19 20 26 21 20 22 25 23 21 24
REMARK SMILES IDX 24 25 22 26 23 27
REMARK H PARENT 16 11 22 28
ROOT
ATOM      1  N   UNL     1      49.772 124.368  22.945  1.00  0.00    -0.317 N 
ATOM      2  C   UNL     1      48.693 125.367  23.017  1.00  0.00     0.127 C 
ATOM      3  C   UNL     1      47.328 124.725  23.383  1.00  0.00     0.026 C 
ATOM      4  C   UNL     1      46.208 125.344  22.511  1.00  0.00     0.007 C 
ATOM      5  C   UNL     1      44.865 124.648  22.718  1.00  0.00     0.000 C 
ATOM      6  C   UNL     1      44.985 123.160  22.397  1.00  0.00     0.002 C 
ATOM      7  C   UNL     1      46.007 122.497  23.321  1.00  0.00     0.019 C 
ATOM      8  C   UNL     1      47.390 123.175  23.270  1.00  0.00     0.060 C 
ATOM      9  N   UNL     1      48.135 122.775  22.068  1.00  0.00    -0.290 NA
ATOM     10  C   UNL     1      49.570 123.085  22.239  1.00  0.00     0.185 C 
ATOM     11  H   UNL     1      47.748 123.283  21.238  1.00  0.00     0.125 HD
ENDROOT
BRANCH   1  12
ATOM     12  C   UNL     1      51.057 124.652  23.527  1.00  0.00     0.274 C 
ATOM     13  O   UNL     1      51.650 123.761  24.193  1.00  0.00    -0.267 OA
BRANCH  12  14
ATOM     14  C   UNL     1      51.670 125.988  23.394  1.00  0.00     0.139 A 
ATOM     15  C   UNL     1      51.111 127.142  23.941  1.00  0.00     0.100 A 
ATOM     16  N   UNL     1      52.817 126.186  22.688  1.00  0.00    -0.240 NA
ATOM     17  S   UNL     1      52.104 128.432  23.529  1.00  0.00    -0.130 S 
ATOM     18  C   UNL     1      53.193 127.483  22.672  1.00  0.00     0.176 A 
ENDBRANCH  12  14
ENDBRANCH   1  12
BRANCH  10  19
ATOM     19  C   UNL     1      50.289 123.071  20.903  1.00  0.00    -0.010 A 
ATOM     20  C   UNL     1      49.583 123.411  19.717  1.00  0.00     0.009 A 
ATOM     21  C   UNL     1      51.659 122.728  20.821  1.00  0.00     0.017 A 
ATOM     22  C   UNL     1      50.227 123.401  18.466  1.00  0.00     0.027 A 
ATOM     23  C   UNL     1      52.264 122.729  19.566  1.00  0.00    -0.000 A 
ATOM     24  C   UNL     1      51.574 123.052  18.431  1.00  0.00     0.045 A 
ATOM     25  C   UNL     1      53.558 122.439  19.195  1.00  0.00     0.028 A 
ATOM     26  N   UNL     1      52.371 122.981  17.351  1.00  0.00    -0.361 N 
ATOM     27  C   UNL     1      53.585 122.606  17.814  1.00  0.00     0.083 A 
ATOM     28  H   UNL     1      52.111 123.175  16.359  1.00  0.00     0.166 HD
ENDBRANCH  10  19
TORSDOF 3
ENDMDL
MODEL 5
REMARK VINA RESULT:      -4.5      1.005      1.562
REMARK SMILES O=C(c1cscn1)N1C[C@H]2CCCC[C@H]2N[C@H]1c1ccc2[nH]ccc2c1
REMARK SMILES IDX 8 1 9 2 10 3 11 4 12 5 13 6 14 7 15 8 16 9 17 10 2 12 1 13
REMARK SMILES IDX 3 14 4 15 7 16 5 17 6 18 18 19 19 20 26 21 20 22 25 23 21 24
REMARK SMILES IDX 24 25 22 26 23 27
REMARK H PARENT 16 11 22 28
ROOT
ATOM      1  N   UNL     1      43.691 126.761  23.566  1.00  0.00    -0.317 N 
ATOM      2  C   UNL     1      43.929 125.428  22.988  1.00  0.00     0.127 C 
ATOM      3  C   UNL     1      45.223 124.773  23.542  1.00  0.00     0.026 C 
ATOM      4  C   UNL     1      45.996 124.088  22.389  1.00  0.00     0.007 C 
ATOM      5  C   UNL     1      47.354 123.555  22.843  1.00  0.00     0.000 C 
ATOM      6  C   UNL     1      48.204 124.689  23.413  1.00  0.00     0.002 C 
ATOM      7  C   UNL     1      47.513 125.314  24.625  1.00  0.00     0.019 C 
ATOM      8  C   UNL     1      46.088 125.810  24.314  1.00  0.00     0.060 C 
ATOM      9  N   UNL     1      46.115 127.094  23.598  1.00  0.00    -0.290 NA
ATOM     10  C   UNL     1      44.790 127.743  23.679  1.00  0.00     0.185 C 
ATOM     11  H   UNL     1      46.379 126.925  22.599  1.00  0.00     0.125 HD
ENDROOT
BRANCH   1  12
ATOM     12  C   UNL     1      42.369 127.137  23.991  1.00  0.00     0.274 C 
ATOM     13  O   UNL     1      42.200 128.218  24.618  1.00  0.00    -0.267 OA
BRANCH  12  14
ATOM     14  C   UNL     1      41.214 126.254  23.741  1.00  0.00     0.139 A 
ATOM     15  C   UNL     1      39.899 126.713  23.688  1.00  0.00     0.100 A 
ATOM     16  N   UNL     1      41.358 124.909  23.578  1.00  0.00    -0.240 NA
ATOM     17  S   UNL     1      38.907 125.385  23.416  1.00  0.00    -0.130 S 
ATOM     18  C   UNL     1      40.176 124.286  23.383  1.00  0.00     0.176 A 
ENDBRANCH  12  14
ENDBRANCH   1  12
BRANCH  10  19
ATOM     19  C   UNL     1      44.661 128.838  22.636  1.00  0.00    -0.010 A 
ATOM     20  C   UNL     1      45.541 128.859  21.521  1.00  0.00     0.009 A 
ATOM     21  C   UNL     1      43.667 129.838  22.755  1.00  0.00     0.017 A 
ATOM     22  C   UNL     1      45.444 129.866  20.543  1.00  0.00     0.027 A 
ATOM     23  C   UNL     1      43.600 130.819  21.769  1.00  0.00    -0.000 A 
ATOM     24  C   UNL     1      44.456 130.834  20.703  1.00  0.00     0.045 A 
ATOM     25  C   UNL     1      42.752 131.896  21.632  1.00  0.00     0.028 A 
ATOM     26  N   UNL     1      44.192 131.873  19.893  1.00  0.00    -0.361 N 
ATOM     27  C   UNL     1      43.151 132.525  20.458  1.00  0.00     0.083 A 
ATOM     28  H   UNL     1      44.686 132.127  19.009  1.00  0.00     0.166 HD
ENDBRANCH  10  19
TORSDOF 3
ENDMDL
MODEL 6
REMARK VINA RESULT:      -3.5      4.564      7.286
REMARK SMILES O=C(c1cscn1)N1C[C@H]2CCCC[C@H]2N[C@H]1c1ccc2[nH]ccc2c1
REMARK SMILES IDX 8 1 9 2 10 3 11 4 12 5 13 6 14 7 15 8 16 9 17 10 2 12 1 13
REMARK SMILES IDX 3 14 4 15 7 16 5 17 6 18 18 19 19 20 26 21 20 22 25 23 21 24
REMARK SMILES IDX 24 25 22 26 23 27
REMARK H PARENT 16 11 22 28
ROOT
ATOM      1  N   UNL     1      45.288 132.004  21.629  1.00  0.00    -0.317 N 
ATOM      2  C   UNL     1      44.180 132.077  22.595  1.00  0.00     0.127 C 
ATOM      3  C   UNL     1      44.066 130.788  23.452  1.00  0.00     0.026 C 
ATOM      4  C   UNL     1      42.577 130.389  23.600  1.00  0.00     0.007 C 
ATOM      5  C   UNL     1      42.408 129.045  24.306  1.00  0.00     0.000 C 
ATOM      6  C   UNL     1      43.147 127.949  23.540  1.00  0.00     0.002 C 
ATOM      7  C   UNL     1      44.642 128.262  23.473  1.00  0.00     0.019 C 
ATOM      8  C   UNL     1      44.939 129.645  22.861  1.00  0.00     0.060 C 
ATOM      9  N   UNL     1      44.824 129.613  21.395  1.00  0.00    -0.290 NA
ATOM     10  C   UNL     1      45.501 130.791  20.813  1.00  0.00     0.185 C 
ATOM     11  H   UNL     1      43.812 129.605  21.130  1.00  0.00     0.125 HD
ENDROOT
BRANCH   1  12
ATOM     12  C   UNL     1      46.156 133.137  21.439  1.00  0.00     0.274 C 
ATOM     13  O   UNL     1      46.118 133.774  20.352  1.00  0.00    -0.267 OA
BRANCH  12  14
ATOM     14  C   UNL     1      47.119 133.535  22.483  1.00  0.00     0.139 A 
ATOM     15  C   UNL     1      48.469 133.768  22.226  1.00  0.00     0.100 A 
ATOM     16  N   UNL     1      46.753 133.668  23.788  1.00  0.00    -0.240 NA
ATOM     17  S   UNL     1      49.204 134.163  23.685  1.00  0.00    -0.130 S 
ATOM     18  C   UNL     1      47.790 134.016  24.579  1.00  0.00     0.176 A 
ENDBRANCH  12  14
ENDBRANCH   1  12
BRANCH  10  19
ATOM     19  C   UNL     1      45.063 131.008  19.376  1.00  0.00    -0.010 A 
ATOM     20  C   UNL     1      43.790 131.578  19.104  1.00  0.00     0.009 A 
ATOM     21  C   UNL     1      45.911 130.657  18.299  1.00  0.00     0.017 A 
ATOM     22  C   UNL     1      43.361 131.786  17.781  1.00  0.00     0.027 A 
ATOM     23  C   UNL     1      45.453 130.877  17.002  1.00  0.00    -0.000 A 
ATOM     24  C   UNL     1      44.224 131.420  16.751  1.00  0.00     0.045 A 
ATOM     25  C   UNL     1      46.053 130.633  15.787  1.00  0.00     0.028 A 
ATOM     26  N   UNL     1      44.012 131.533  15.429  1.00  0.00    -0.361 N 
ATOM     27  C   UNL     1      45.129 131.053  14.836  1.00  0.00     0.083 A 
ATOM     28  H   UNL     1      43.164 131.914  14.955  1.00  0.00     0.166 HD
ENDBRANCH  10  19
TORSDOF 3
ENDMDL
MODEL 7
REMARK VINA RESULT:      -3.3      2.584      6.035
REMARK SMILES O=C(c1cscn1)N1C[C@H]2CCCC[C@H]2N[C@H]1c1ccc2[nH]ccc2c1
REMARK SMILES IDX 8 1 9 2 10 3 11 4 12 5 13 6 14 7 15 8 16 9 17 10 2 12 1 13
REMARK SMILES IDX 3 14 4 15 7 16 5 17 6 18 18 19 19 20 26 21 20 22 25 23 21 24
REMARK SMILES IDX 24 25 22 26 23 27
REMARK H PARENT 16 11 22 28
ROOT
ATOM      1  N   UNL     1      44.581 126.624  23.263  1.00  0.00    -0.317 N 
ATOM      2  C   UNL     1      43.494 126.470  22.282  1.00  0.00     0.127 C 
ATOM      3  C   UNL     1      42.413 125.465  22.761  1.00  0.00     0.026 C 
ATOM      4  C   UNL     1      41.983 124.558  21.583  1.00  0.00     0.007 C 
ATOM      5  C   UNL     1      41.030 123.449  22.027  1.00  0.00     0.000 C 
ATOM      6  C   UNL     1      41.684 122.591  23.107  1.00  0.00     0.002 C 
ATOM      7  C   UNL     1      42.021 123.442  24.331  1.00  0.00     0.019 C 
ATOM      8  C   UNL     1      42.908 124.656  23.993  1.00  0.00     0.060 C 
ATOM      9  N   UNL     1      44.312 124.256  23.817  1.00  0.00    -0.290 NA
ATOM     10  C   UNL     1      45.188 125.443  23.910  1.00  0.00     0.185 C 
ATOM     11  H   UNL     1      44.423 123.792  22.886  1.00  0.00     0.125 HD
ENDROOT
BRANCH   1  12
ATOM     12  C   UNL     1      45.094 127.933  23.570  1.00  0.00     0.274 C 
ATOM     13  O   UNL     1      45.792 128.100  24.606  1.00  0.00    -0.267 OA
BRANCH  12  14
ATOM     14  C   UNL     1      44.777 129.090  22.713  1.00  0.00     0.139 A 
ATOM     15  C   UNL     1      44.200 130.263  23.196  1.00  0.00     0.100 A 
ATOM     16  N   UNL     1      44.997 129.072  21.369  1.00  0.00    -0.240 NA
ATOM     17  S   UNL     1      43.982 131.299  21.891  1.00  0.00    -0.130 S 
ATOM     18  C   UNL     1      44.616 130.222  20.770  1.00  0.00     0.176 A 
ENDBRANCH  12  14
ENDBRANCH   1  12
BRANCH  10  19
ATOM     19  C   UNL     1      46.562 125.145  23.339  1.00  0.00    -0.010 A 
ATOM     20  C   UNL     1      47.716 125.711  23.944  1.00  0.00     0.009 A 
ATOM     21  C   UNL     1      46.712 124.303  22.212  1.00  0.00     0.017 A 
ATOM     22  C   UNL     1      49.001 125.453  23.431  1.00  0.00     0.027 A 
ATOM     23  C   UNL     1      47.997 124.070  21.731  1.00  0.00    -0.000 A 
ATOM     24  C   UNL     1      49.101 124.625  22.317  1.00  0.00     0.045 A 
ATOM     25  C   UNL     1      48.432 123.310  20.668  1.00  0.00     0.028 A 
ATOM     26  N   UNL     1      50.221 124.252  21.675  1.00  0.00    -0.361 N 
ATOM     27  C   UNL     1      49.816 123.448  20.665  1.00  0.00     0.083 A 
ATOM     28  H   UNL     1      51.202 124.524  21.905  1.00  0.00     0.166 HD
ENDBRANCH  10  19
TORSDOF 3
ENDMDL
MODEL 8
REMARK VINA RESULT:      -3.2      1.549      2.051
REMARK SMILES O=C(c1cscn1)N1C[C@H]2CCCC[C@H]2N[C@H]1c1ccc2[nH]ccc2c1
REMARK SMILES IDX 8 1 9 2 10 3 11 4 12 5 13 6 14 7 15 8 16 9 17 10 2 12 1 13
REMARK SMILES IDX 3 14 4 15 7 16 5 17 6 18 18 19 19 20 26 21 20 22 25 23 21 24
REMARK SMILES IDX 24 25 22 26 23 27
REMARK H PARENT 16 11 22 28
ROOT
ATOM      1  N   UNL     1      42.809 127.192  23.329  1.00  0.00    -0.317 N 
ATOM      2  C   UNL     1      42.899 125.890  22.650  1.00  0.00     0.127 C 
ATOM      3  C   UNL     1      44.120 125.062  23.133  1.00  0.00     0.026 C 
ATOM      4  C   UNL     1      44.809 124.388  21.921  1.00  0.00     0.007 C 
ATOM      5  C   UNL     1      46.105 123.682  22.315  1.00  0.00     0.000 C 
ATOM      6  C   UNL     1      47.074 124.673  22.955  1.00  0.00     0.002 C 
ATOM      7  C   UNL     1      46.462 125.274  24.220  1.00  0.00     0.019 C 
ATOM      8  C   UNL     1      45.095 125.940  23.968  1.00  0.00     0.060 C 
ATOM      9  N   UNL     1      45.255 127.264  23.350  1.00  0.00    -0.290 NA
ATOM     10  C   UNL     1      44.007 128.041  23.499  1.00  0.00     0.185 C 
ATOM     11  H   UNL     1      45.493 127.145  22.338  1.00  0.00     0.125 HD
ENDROOT
BRANCH   1  12
ATOM     12  C   UNL     1      41.537 127.673  23.800  1.00  0.00     0.274 C 
ATOM     13  O   UNL     1      41.406 128.888  24.109  1.00  0.00    -0.267 OA
BRANCH  12  14
ATOM     14  C   UNL     1      40.396 126.753  23.968  1.00  0.00     0.139 A 
ATOM     15  C   UNL     1      39.219 127.109  24.625  1.00  0.00     0.100 A 
ATOM     16  N   UNL     1      40.434 125.469  23.518  1.00  0.00    -0.240 NA
ATOM     17  S   UNL     1      38.207 125.768  24.618  1.00  0.00    -0.130 S 
ATOM     18  C   UNL     1      39.298 124.793  23.794  1.00  0.00     0.176 A 
ENDBRANCH  12  14
ENDBRANCH   1  12
BRANCH  10  19
ATOM     19  C   UNL     1      43.988 129.220  22.543  1.00  0.00    -0.010 A 
ATOM     20  C   UNL     1      45.072 129.420  21.647  1.00  0.00     0.009 A 
ATOM     21  C   UNL     1      42.898 130.123  22.527  1.00  0.00     0.017 A 
ATOM     22  C   UNL     1      45.079 130.507  20.754  1.00  0.00     0.027 A 
ATOM     23  C   UNL     1      42.939 131.187  21.630  1.00  0.00    -0.000 A 
ATOM     24  C   UNL     1      43.990 131.374  20.776  1.00  0.00     0.045 A 
ATOM     25  C   UNL     1      42.036 132.202  21.402  1.00  0.00     0.028 A 
ATOM     26  N   UNL     1      43.798 132.463  20.013  1.00  0.00    -0.361 N 
ATOM     27  C   UNL     1      42.604 132.973  20.393  1.00  0.00     0.083 A 
ATOM     28  H   UNL     1      44.436 132.841  19.278  1.00  0.00     0.166 HD
ENDBRANCH  10  19
TORSDOF 3
ENDMDL
MODEL 9
REMARK VINA RESULT:      -2.8      3.674      5.991
REMARK SMILES O=C(c1cscn1)N1C[C@H]2CCCC[C@H]2N[C@H]1c1ccc2[nH]ccc2c1
REMARK SMILES IDX 8 1 9 2 10 3 11 4 12 5 13 6 14 7 15 8 16 9 17 10 2 12 1 13
REMARK SMILES IDX 3 14 4 15 7 16 5 17 6 18 18 19 19 20 26 21 20 22 25 23 21 24
REMARK SMILES IDX 24 25 22 26 23 27
REMARK H PARENT 16 11 22 28
ROOT
ATOM      1  N   UNL     1      44.000 130.829  23.384  1.00  0.00    -0.317 N 
ATOM      2  C   UNL     1      42.924 130.061  24.030  1.00  0.00     0.127 C 
ATOM      3  C   UNL     1      43.393 128.644  24.456  1.00  0.00     0.026 C 
ATOM      4  C   UNL     1      42.293 127.607  24.120  1.00  0.00     0.007 C 
ATOM      5  C   UNL     1      42.756 126.174  24.378  1.00  0.00     0.000 C 
ATOM      6  C   UNL     1      44.004 125.864  23.555  1.00  0.00     0.002 C 
ATOM      7  C   UNL     1      45.145 126.805  23.944  1.00  0.00     0.019 C 
ATOM      8  C   UNL     1      44.766 128.293  23.815  1.00  0.00     0.060 C 
ATOM      9  N   UNL     1      44.808 128.734  22.413  1.00  0.00    -0.290 NA
ATOM     10  C   UNL     1      44.857 130.209  22.351  1.00  0.00     0.185 C 
ATOM     11  H   UNL     1      43.962 128.375  21.914  1.00  0.00     0.125 HD
ENDROOT
BRANCH   1  12
ATOM     12  C   UNL     1      44.202 132.214  23.722  1.00  0.00     0.274 C 
ATOM     13  O   UNL     1      43.230 132.900  24.139  1.00  0.00    -0.267 OA
BRANCH  12  14
ATOM     14  C   UNL     1      45.520 132.851  23.547  1.00  0.00     0.139 A 
ATOM     15  C   UNL     1      46.230 133.439  24.593  1.00  0.00     0.100 A 
ATOM     16  N   UNL     1      46.121 132.938  22.327  1.00  0.00    -0.240 NA
ATOM     17  S   UNL     1      47.651 134.067  23.954  1.00  0.00    -0.130 S 
ATOM     18  C   UNL     1      47.309 133.578  22.384  1.00  0.00     0.176 A 
ENDBRANCH  12  14
ENDBRANCH   1  12
BRANCH  10  19
ATOM     19  C   UNL     1      44.495 130.703  20.963  1.00  0.00    -0.010 A 
ATOM     20  C   UNL     1      43.255 131.365  20.750  1.00  0.00     0.009 A 
ATOM     21  C   UNL     1      45.379 130.519  19.874  1.00  0.00     0.017 A 
ATOM     22  C   UNL     1      42.895 131.829  19.471  1.00  0.00     0.027 A 
ATOM     23  C   UNL     1      44.990 130.991  18.623  1.00  0.00    -0.000 A 
ATOM     24  C   UNL     1      43.793 131.621  18.427  1.00  0.00     0.045 A 
ATOM     25  C   UNL     1      45.637 130.948  17.408  1.00  0.00     0.028 A 
ATOM     26  N   UNL     1      43.647 131.982  17.142  1.00  0.00    -0.361 N 
ATOM     27  C   UNL     1      44.773 131.572  16.515  1.00  0.00     0.083 A 
ATOM     28  H   UNL     1      42.835 132.477  16.712  1.00  0.00     0.166 HD
ENDBRANCH  10  19
TORSDOF 3
ENDMDL


