REMARK SMILES Cc1cc(NN)c(O)c([O-])c1F
REMARK SMILES IDX 1 1 2 2 3 3 4 4 7 5 9 6 10 7 11 8 12 9 5 10 6 12 8 15
REMARK H PARENT 5 11 6 13 6 14 8 16
ROOT
ATOM      1  C   UNL     1      -2.700  -0.792   0.815  1.00  0.00     0.047 C 
ATOM      2  C   UNL     1      -1.506  -0.091   0.232  1.00  0.00    -0.014 A 
ATOM      3  C   UNL     1      -0.218  -0.614   0.414  1.00  0.00     0.037 A 
ATOM      4  C   UNL     1       0.914   0.040  -0.114  1.00  0.00     0.091 A 
ATOM      5  C   UNL     1       0.733   1.265  -0.808  1.00  0.00     0.135 A 
ATOM      6  C   UNL     1      -0.559   1.781  -0.984  1.00  0.00    -0.026 A 
ATOM      7  O   UNL     1      -0.738   2.976  -1.671  1.00  0.00    -0.868 OA
ATOM      8  C   UNL     1      -1.670   1.112  -0.466  1.00  0.00     0.122 A 
ATOM      9  F   UNL     1      -2.909   1.641  -0.639  1.00  0.00    -0.207 F 
ENDROOT
BRANCH   4  10
ATOM     10  N   UNL     1       2.220  -0.552   0.042  1.00  0.00    -0.321 N 
ATOM     11  H   UNL     1       3.038  -0.188  -0.492  1.00  0.00     0.181 HD
BRANCH  10  12
ATOM     12  N   UNL     1       2.431  -1.645   0.900  1.00  0.00    -0.250 NA
ATOM     13  H   UNL     1       3.463  -1.790   0.986  1.00  0.00     0.143 HD
ATOM     14  H   UNL     1       2.057  -2.493   0.415  1.00  0.00     0.143 HD
ENDBRANCH  10  12
ENDBRANCH   4  10
BRANCH   5  15
ATOM     15  O   UNL     1       1.801   2.007  -1.320  1.00  0.00    -0.506 OA
ATOM     16  H   UNL     1       2.774   1.792  -1.159  1.00  0.00     0.293 HD
ENDBRANCH   5  15
TORSDOF 3


