REMARK SMILES Cc1cc(N)c(/N=C(\O)OC(C)(C)C)c(-n2nc3ccccc3[nH+]2)c1
REMARK SMILES IDX 8 1 9 2 7 4 6 5 4 6 15 7 3 8 25 9 2 10 1 11 5 12 16 15 17 16
REMARK SMILES IDX 24 17 18 18 23 19 19 20 22 21 20 22 21 23 10 25 11 26 12 27
REMARK SMILES IDX 13 28 14 29
REMARK H PARENT 9 3 5 13 5 14 24 24
ROOT
ATOM      1  C   UNL     1      -0.274   1.074  -0.032  1.00  0.00     0.386 C 
ENDROOT
BRANCH   1   2
ATOM      2  O   UNL     1      -0.547   0.996  -1.395  1.00  0.00    -0.466 OA
ATOM      3  H   UNL     1      -0.505   1.823  -1.978  1.00  0.00     0.298 HD
ENDBRANCH   1   2
BRANCH   1   4
ATOM      4  N   UNL     1      -0.327   0.006   0.709  1.00  0.00    -0.174 NA
BRANCH   4   5
ATOM      5  C   UNL     1      -0.594  -1.310   0.202  1.00  0.00     0.125 A 
ATOM      6  C   UNL     1      -1.719  -2.017   0.672  1.00  0.00     0.061 A 
ATOM      7  C   UNL     1       0.254  -1.904  -0.765  1.00  0.00     0.156 A 
ATOM      8  C   UNL     1      -2.013  -3.284   0.151  1.00  0.00     0.031 A 
ATOM      9  C   UNL     1      -0.069  -3.167  -1.284  1.00  0.00     0.040 A 
ATOM     10  C   UNL     1      -1.190  -3.866  -0.821  1.00  0.00    -0.047 A 
ATOM     11  C   UNL     1      -1.539  -5.204  -1.403  1.00  0.00     0.044 C 
BRANCH   6  12
ATOM     12  N   UNL     1      -2.589  -1.445   1.657  1.00  0.00    -0.397 N 
ATOM     13  H   UNL     1      -2.424  -0.492   2.049  1.00  0.00     0.156 HD
ATOM     14  H   UNL     1      -3.422  -1.973   2.001  1.00  0.00     0.156 HD
ENDBRANCH   6  12
BRANCH   7  15
ATOM     15  N   UNL     1       1.464  -1.256  -1.192  1.00  0.00    -0.010 N 
ATOM     16  N   UNL     1       2.277  -0.591  -0.371  1.00  0.00     0.054 NA
ATOM     17  N   UNL     1       1.917  -1.269  -2.445  1.00  0.00    -0.161 N 
ATOM     18  C   UNL     1       3.282  -0.158  -1.151  1.00  0.00     0.249 A 
ATOM     19  C   UNL     1       3.061  -0.574  -2.429  1.00  0.00     0.198 A 
ATOM     20  C   UNL     1       4.397   0.598  -0.802  1.00  0.00     0.064 A 
ATOM     21  C   UNL     1       3.929  -0.271  -3.473  1.00  0.00     0.058 A 
ATOM     22  C   UNL     1       5.304   0.925  -1.830  1.00  0.00     0.005 A 
ATOM     23  C   UNL     1       5.071   0.493  -3.159  1.00  0.00     0.005 A 
ATOM     24  H   UNL     1       1.451  -1.714  -3.267  1.00  0.00     0.340 HD
ENDBRANCH   7  15
ENDBRANCH   4   5
ENDBRANCH   1   4
BRANCH   1  25
ATOM     25  O   UNL     1       0.044   2.326   0.519  1.00  0.00    -0.445 OA
BRANCH  25  26
ATOM     26  C   UNL     1       0.467   2.595   1.866  1.00  0.00     0.106 C 
ATOM     27  C   UNL     1       0.721   4.106   1.964  1.00  0.00     0.056 C 
ATOM     28  C   UNL     1       1.778   1.849   2.181  1.00  0.00     0.056 C 
ATOM     29  C   UNL     1      -0.634   2.211   2.874  1.00  0.00     0.056 C 
ENDBRANCH  25  26
ENDBRANCH   1  25
TORSDOF 7


