MODEL 1
REMARK VINA RESULT:      -7.8      0.000      0.000
REMARK SMILES [N-]=[N+]=Nc1nccc2ccc(-c3cccc([C@H]4CO4)c3)cc12
REMARK SMILES IDX 6 1 5 2 4 3 22 4 21 5 11 6 10 7 9 8 8 9 7 10 3 11 2 12 1 13
REMARK SMILES IDX 12 14 13 15 20 16 14 17 16 18 15 19 17 20 19 21 18 22
REMARK H PARENT
ROOT
ATOM      1  C   UNL     1      43.948 131.290  23.336  1.00  0.00     0.112 A 
ATOM      2  N   UNL     1      42.982 132.007  22.707  1.00  0.00    -0.254 NA
ATOM      3  C   UNL     1      42.949 132.151  21.352  1.00  0.00     0.134 A 
ATOM      4  C   UNL     1      43.945 131.540  20.562  1.00  0.00     0.010 A 
ATOM      5  C   UNL     1      43.956 131.659  19.159  1.00  0.00     0.019 A 
ATOM      6  C   UNL     1      44.963 131.040  18.394  1.00  0.00    -0.018 A 
ATOM      7  C   UNL     1      45.962 130.301  19.049  1.00  0.00     0.009 A 
ATOM      8  C   UNL     1      45.960 130.176  20.440  1.00  0.00     0.009 A 
ATOM      9  C   UNL     1      44.959 130.791  21.202  1.00  0.00    -0.015 A 
ATOM     10  C   UNL     1      44.954 130.669  22.597  1.00  0.00     0.029 A 
ENDROOT
BRANCH   3  11
ATOM     11  N   UNL     1      41.903 132.919  20.744  1.00  0.00    -0.040 NA
BRANCH  11  12
ATOM     12  N   UNL     1      41.685 132.863  19.535  1.00  0.00     0.007 N 
ATOM     13  N   UNL     1      41.466 132.808  18.325  1.00  0.00    -0.003 NA
ENDBRANCH  11  12
ENDBRANCH   3  11
BRANCH   6  14
ATOM     14  C   UNL     1      44.969 131.166  16.914  1.00  0.00    -0.018 A 
ATOM     15  C   UNL     1      43.778 131.440  16.216  1.00  0.00     0.009 A 
ATOM     16  C   UNL     1      46.164 131.010  16.188  1.00  0.00     0.015 A 
ATOM     17  C   UNL     1      43.783 131.549  14.824  1.00  0.00     0.001 A 
ATOM     18  C   UNL     1      46.173 131.139  14.791  1.00  0.00    -0.016 A 
ATOM     19  C   UNL     1      44.973 131.392  14.112  1.00  0.00     0.006 A 
BRANCH  18  20
ATOM     20  C   UNL     1      47.444 130.942  14.020  1.00  0.00     0.174 C 
ATOM     21  O   UNL     1      47.342 129.873  13.107  1.00  0.00    -0.368 OA
ATOM     22  C   UNL     1      48.149 129.658  14.241  1.00  0.00     0.198 C 
ENDBRANCH  18  20
ENDBRANCH   6  14
TORSDOF 4
ENDMDL
MODEL 2
REMARK VINA RESULT:      -7.6      0.799      1.145
REMARK SMILES [N-]=[N+]=Nc1nccc2ccc(-c3cccc([C@H]4CO4)c3)cc12
REMARK SMILES IDX 6 1 5 2 4 3 22 4 21 5 11 6 10 7 9 8 8 9 7 10 3 11 2 12 1 13
REMARK SMILES IDX 12 14 13 15 20 16 14 17 16 18 15 19 17 20 19 21 18 22
REMARK H PARENT
ROOT
ATOM      1  C   UNL     1      43.766 131.313  23.313  1.00  0.00     0.112 A 
ATOM      2  N   UNL     1      42.812 132.013  22.646  1.00  0.00    -0.254 NA
ATOM      3  C   UNL     1      42.820 132.142  21.290  1.00  0.00     0.134 A 
ATOM      4  C   UNL     1      43.847 131.535  20.537  1.00  0.00     0.010 A 
ATOM      5  C   UNL     1      43.900 131.639  19.134  1.00  0.00     0.019 A 
ATOM      6  C   UNL     1      44.937 131.024  18.408  1.00  0.00    -0.018 A 
ATOM      7  C   UNL     1      45.924 130.304  19.101  1.00  0.00     0.009 A 
ATOM      8  C   UNL     1      45.881 130.194  20.492  1.00  0.00     0.009 A 
ATOM      9  C   UNL     1      44.849 130.804  21.217  1.00  0.00    -0.015 A 
ATOM     10  C   UNL     1      44.802 130.696  22.612  1.00  0.00     0.029 A 
ENDROOT
BRANCH   3  11
ATOM     11  N   UNL     1      41.785 132.891  20.641  1.00  0.00    -0.040 NA
BRANCH  11  12
ATOM     12  N   UNL     1      40.871 133.412  21.281  1.00  0.00     0.007 N 
ATOM     13  N   UNL     1      39.959 133.932  21.921  1.00  0.00    -0.003 NA
ENDBRANCH  11  12
ENDBRANCH   3  11
BRANCH   6  14
ATOM     14  C   UNL     1      44.988 131.135  16.927  1.00  0.00    -0.018 A 
ATOM     15  C   UNL     1      43.853 131.542  16.203  1.00  0.00     0.009 A 
ATOM     16  C   UNL     1      46.171 130.833  16.227  1.00  0.00     0.015 A 
ATOM     17  C   UNL     1      43.899 131.636  14.810  1.00  0.00     0.001 A 
ATOM     18  C   UNL     1      46.223 130.946  14.830  1.00  0.00    -0.016 A 
ATOM     19  C   UNL     1      45.076 131.334  14.124  1.00  0.00     0.006 A 
BRANCH  18  20
ATOM     20  C   UNL     1      47.478 130.594  14.087  1.00  0.00     0.174 C 
ATOM     21  O   UNL     1      47.974 131.688  13.351  1.00  0.00    -0.368 OA
ATOM     22  C   UNL     1      47.395 130.641  12.609  1.00  0.00     0.198 C 
ENDBRANCH  18  20
ENDBRANCH   6  14
TORSDOF 4
ENDMDL
MODEL 3
REMARK VINA RESULT:      -7.5      1.978      2.866
REMARK SMILES [N-]=[N+]=Nc1nccc2ccc(-c3cccc([C@H]4CO4)c3)cc12
REMARK SMILES IDX 6 1 5 2 4 3 22 4 21 5 11 6 10 7 9 8 8 9 7 10 3 11 2 12 1 13
REMARK SMILES IDX 12 14 13 15 20 16 14 17 16 18 15 19 17 20 19 21 18 22
REMARK H PARENT
ROOT
ATOM      1  C   UNL     1      43.197 132.158  22.793  1.00  0.00     0.112 A 
ATOM      2  N   UNL     1      44.536 132.116  22.568  1.00  0.00    -0.254 NA
ATOM      3  C   UNL     1      45.059 131.968  21.319  1.00  0.00     0.134 A 
ATOM      4  C   UNL     1      44.195 131.853  20.210  1.00  0.00     0.010 A 
ATOM      5  C   UNL     1      44.685 131.698  18.900  1.00  0.00     0.019 A 
ATOM      6  C   UNL     1      43.800 131.585  17.811  1.00  0.00    -0.018 A 
ATOM      7  C   UNL     1      42.415 131.626  18.048  1.00  0.00     0.009 A 
ATOM      8  C   UNL     1      41.919 131.780  19.343  1.00  0.00     0.009 A 
ATOM      9  C   UNL     1      42.798 131.893  20.428  1.00  0.00    -0.015 A 
ATOM     10  C   UNL     1      42.303 132.047  21.729  1.00  0.00     0.029 A 
ENDROOT
BRANCH   3  11
ATOM     11  N   UNL     1      46.481 131.932  21.143  1.00  0.00    -0.040 NA
BRANCH  11  12
ATOM     12  N   UNL     1      47.195 132.873  21.489  1.00  0.00     0.007 N 
ATOM     13  N   UNL     1      47.908 133.813  21.836  1.00  0.00    -0.003 NA
ENDBRANCH  11  12
ENDBRANCH   3  11
BRANCH   6  14
ATOM     14  C   UNL     1      44.322 131.423  16.429  1.00  0.00    -0.018 A 
ATOM     15  C   UNL     1      43.485 131.644  15.320  1.00  0.00     0.009 A 
ATOM     16  C   UNL     1      45.660 131.045  16.210  1.00  0.00     0.015 A 
ATOM     17  C   UNL     1      43.974 131.482  14.022  1.00  0.00     0.001 A 
ATOM     18  C   UNL     1      46.156 130.902  14.906  1.00  0.00    -0.016 A 
ATOM     19  C   UNL     1      45.302 131.106  13.813  1.00  0.00     0.006 A 
BRANCH  18  20
ATOM     20  C   UNL     1      47.574 130.469  14.678  1.00  0.00     0.174 C 
ATOM     21  O   UNL     1      48.125 131.068  13.527  1.00  0.00    -0.368 OA
ATOM     22  C   UNL     1      47.829 129.694  13.441  1.00  0.00     0.198 C 
ENDBRANCH  18  20
ENDBRANCH   6  14
TORSDOF 4
ENDMDL
MODEL 4
REMARK VINA RESULT:      -7.0      1.908      2.950
REMARK SMILES [N-]=[N+]=Nc1nccc2ccc(-c3cccc([C@H]4CO4)c3)cc12
REMARK SMILES IDX 6 1 5 2 4 3 22 4 21 5 11 6 10 7 9 8 8 9 7 10 3 11 2 12 1 13
REMARK SMILES IDX 12 14 13 15 20 16 14 17 16 18 15 19 17 20 19 21 18 22
REMARK H PARENT
ROOT
ATOM      1  C   UNL     1      42.687 131.913  22.502  1.00  0.00     0.112 A 
ATOM      2  N   UNL     1      43.872 131.269  22.345  1.00  0.00    -0.254 NA
ATOM      3  C   UNL     1      44.417 131.040  21.117  1.00  0.00     0.134 A 
ATOM      4  C   UNL     1      43.741 131.481  19.960  1.00  0.00     0.010 A 
ATOM      5  C   UNL     1      44.261 131.269  18.670  1.00  0.00     0.019 A 
ATOM      6  C   UNL     1      43.566 131.719  17.532  1.00  0.00    -0.018 A 
ATOM      7  C   UNL     1      42.338 132.383  17.699  1.00  0.00     0.009 A 
ATOM      8  C   UNL     1      41.813 132.599  18.974  1.00  0.00     0.009 A 
ATOM      9  C   UNL     1      42.505 132.152  20.108  1.00  0.00    -0.015 A 
ATOM     10  C   UNL     1      41.981 132.367  21.388  1.00  0.00     0.029 A 
ENDROOT
BRANCH   3  11
ATOM     11  N   UNL     1      45.672 130.356  21.013  1.00  0.00    -0.040 NA
BRANCH  11  12
ATOM     12  N   UNL     1      45.767 129.150  21.238  1.00  0.00     0.007 N 
ATOM     13  N   UNL     1      45.861 127.944  21.464  1.00  0.00    -0.003 NA
ENDBRANCH  11  12
ENDBRANCH   3  11
BRANCH   6  14
ATOM     14  C   UNL     1      44.120 131.495  16.172  1.00  0.00    -0.018 A 
ATOM     15  C   UNL     1      43.279 131.522  15.045  1.00  0.00     0.009 A 
ATOM     16  C   UNL     1      45.494 131.249  15.992  1.00  0.00     0.015 A 
ATOM     17  C   UNL     1      43.800 131.301  13.768  1.00  0.00     0.001 A 
ATOM     18  C   UNL     1      46.021 131.047  14.707  1.00  0.00    -0.016 A 
ATOM     19  C   UNL     1      45.163 131.058  13.598  1.00  0.00     0.006 A 
BRANCH  18  20
ATOM     20  C   UNL     1      47.481 130.756  14.524  1.00  0.00     0.174 C 
ATOM     21  O   UNL     1      47.754 130.243  13.240  1.00  0.00    -0.368 OA
ATOM     22  C   UNL     1      47.841 129.335  14.312  1.00  0.00     0.198 C 
ENDBRANCH  18  20
ENDBRANCH   6  14
TORSDOF 4
ENDMDL
MODEL 5
REMARK VINA RESULT:      -6.9      2.376      3.225
REMARK SMILES [N-]=[N+]=Nc1nccc2ccc(-c3cccc([C@H]4CO4)c3)cc12
REMARK SMILES IDX 6 1 5 2 4 3 22 4 21 5 11 6 10 7 9 8 8 9 7 10 3 11 2 12 1 13
REMARK SMILES IDX 12 14 13 15 20 16 14 17 16 18 15 19 17 20 19 21 18 22
REMARK H PARENT
ROOT
ATOM      1  C   UNL     1      44.019 130.582  23.603  1.00  0.00     0.112 A 
ATOM      2  N   UNL     1      44.745 129.548  23.103  1.00  0.00    -0.254 NA
ATOM      3  C   UNL     1      45.031 129.435  21.776  1.00  0.00     0.134 A 
ATOM      4  C   UNL     1      44.565 130.417  20.876  1.00  0.00     0.010 A 
ATOM      5  C   UNL     1      44.833 130.345  19.496  1.00  0.00     0.019 A 
ATOM      6  C   UNL     1      44.356 131.338  18.620  1.00  0.00    -0.018 A 
ATOM      7  C   UNL     1      43.603 132.404  19.139  1.00  0.00     0.009 A 
ATOM      8  C   UNL     1      43.332 132.485  20.506  1.00  0.00     0.009 A 
ATOM      9  C   UNL     1      43.806 131.498  21.380  1.00  0.00    -0.015 A 
ATOM     10  C   UNL     1      43.536 131.576  22.752  1.00  0.00     0.029 A 
ENDROOT
BRANCH   3  11
ATOM     11  N   UNL     1      45.803 128.322  21.308  1.00  0.00    -0.040 NA
BRANCH  11  12
ATOM     12  N   UNL     1      45.834 127.257  21.924  1.00  0.00     0.007 N 
ATOM     13  N   UNL     1      45.866 126.193  22.539  1.00  0.00    -0.003 NA
ENDBRANCH  11  12
ENDBRANCH   3  11
BRANCH   6  14
ATOM     14  C   UNL     1      44.643 131.259  17.164  1.00  0.00    -0.018 A 
ATOM     15  C   UNL     1      43.646 131.570  16.222  1.00  0.00     0.009 A 
ATOM     16  C   UNL     1      45.915 130.869  16.706  1.00  0.00     0.015 A 
ATOM     17  C   UNL     1      43.914 131.487  14.854  1.00  0.00     0.001 A 
ATOM     18  C   UNL     1      46.191 130.804  15.332  1.00  0.00    -0.016 A 
ATOM     19  C   UNL     1      45.179 131.099  14.409  1.00  0.00     0.006 A 
BRANCH  18  20
ATOM     20  C   UNL     1      47.540 130.359  14.850  1.00  0.00     0.174 C 
ATOM     21  O   UNL     1      47.599 130.301  13.443  1.00  0.00    -0.368 OA
ATOM     22  C   UNL     1      47.579 129.069  14.123  1.00  0.00     0.198 C 
ENDBRANCH  18  20
ENDBRANCH   6  14
TORSDOF 4
ENDMDL
MODEL 6
REMARK VINA RESULT:      -6.5      2.802      3.625
REMARK SMILES [N-]=[N+]=Nc1nccc2ccc(-c3cccc([C@H]4CO4)c3)cc12
REMARK SMILES IDX 6 1 5 2 4 3 22 4 21 5 11 6 10 7 9 8 8 9 7 10 3 11 2 12 1 13
REMARK SMILES IDX 12 14 13 15 20 16 14 17 16 18 15 19 17 20 19 21 18 22
REMARK H PARENT
ROOT
ATOM      1  C   UNL     1      44.471 129.917  24.585  1.00  0.00     0.112 A 
ATOM      2  N   UNL     1      44.921 128.842  23.887  1.00  0.00    -0.254 NA
ATOM      3  C   UNL     1      45.025 128.850  22.528  1.00  0.00     0.134 A 
ATOM      4  C   UNL     1      44.659 130.006  21.807  1.00  0.00     0.010 A 
ATOM      5  C   UNL     1      44.748 130.064  20.404  1.00  0.00     0.019 A 
ATOM      6  C   UNL     1      44.375 131.230  19.709  1.00  0.00    -0.018 A 
ATOM      7  C   UNL     1      43.909 132.339  20.434  1.00  0.00     0.009 A 
ATOM      8  C   UNL     1      43.817 132.292  21.826  1.00  0.00     0.009 A 
ATOM      9  C   UNL     1      44.188 131.133  22.520  1.00  0.00    -0.015 A 
ATOM     10  C   UNL     1      44.097 131.082  23.916  1.00  0.00     0.029 A 
ENDROOT
BRANCH   3  11
ATOM     11  N   UNL     1      45.508 127.686  21.847  1.00  0.00    -0.040 NA
BRANCH  11  12
ATOM     12  N   UNL     1      45.631 126.607  22.425  1.00  0.00     0.007 N 
ATOM     13  N   UNL     1      45.754 125.529  23.005  1.00  0.00    -0.003 NA
ENDBRANCH  11  12
ENDBRANCH   3  11
BRANCH   6  14
ATOM     14  C   UNL     1      44.473 131.288  18.227  1.00  0.00    -0.018 A 
ATOM     15  C   UNL     1      43.404 131.785  17.460  1.00  0.00     0.009 A 
ATOM     16  C   UNL     1      45.635 130.842  17.570  1.00  0.00     0.015 A 
ATOM     17  C   UNL     1      43.494 131.830  16.067  1.00  0.00     0.001 A 
ATOM     18  C   UNL     1      45.733 130.905  16.171  1.00  0.00    -0.016 A 
ATOM     19  C   UNL     1      44.649 131.386  15.423  1.00  0.00     0.006 A 
BRANCH  18  20
ATOM     20  C   UNL     1      46.961 130.402  15.474  1.00  0.00     0.174 C 
ATOM     21  O   UNL     1      46.817 130.433  14.072  1.00  0.00    -0.368 OA
ATOM     22  C   UNL     1      46.798 129.163  14.679  1.00  0.00     0.198 C 
ENDBRANCH  18  20
ENDBRANCH   6  14
TORSDOF 4
ENDMDL
MODEL 7
REMARK VINA RESULT:      -6.1      2.696      3.813
REMARK SMILES [N-]=[N+]=Nc1nccc2ccc(-c3cccc([C@H]4CO4)c3)cc12
REMARK SMILES IDX 6 1 5 2 4 3 22 4 21 5 11 6 10 7 9 8 8 9 7 10 3 11 2 12 1 13
REMARK SMILES IDX 12 14 13 15 20 16 14 17 16 18 15 19 17 20 19 21 18 22
REMARK H PARENT
ROOT
ATOM      1  C   UNL     1      42.589 131.213  24.625  1.00  0.00     0.112 A 
ATOM      2  N   UNL     1      43.481 130.198  24.487  1.00  0.00    -0.254 NA
ATOM      3  C   UNL     1      44.093 129.923  23.301  1.00  0.00     0.134 A 
ATOM      4  C   UNL     1      43.801 130.711  22.167  1.00  0.00     0.010 A 
ATOM      5  C   UNL     1      44.406 130.468  20.920  1.00  0.00     0.019 A 
ATOM      6  C   UNL     1      44.096 131.268  19.804  1.00  0.00    -0.018 A 
ATOM      7  C   UNL     1      43.171 132.316  19.949  1.00  0.00     0.009 A 
ATOM      8  C   UNL     1      42.566 132.566  21.182  1.00  0.00     0.009 A 
ATOM      9  C   UNL     1      42.873 131.771  22.294  1.00  0.00    -0.015 A 
ATOM     10  C   UNL     1      42.268 132.018  23.532  1.00  0.00     0.029 A 
ENDROOT
BRANCH   3  11
ATOM     11  N   UNL     1      45.026 128.840  23.217  1.00  0.00    -0.040 NA
BRANCH  11  12
ATOM     12  N   UNL     1      44.655 127.667  23.256  1.00  0.00     0.007 N 
ATOM     13  N   UNL     1      44.284 126.495  23.295  1.00  0.00    -0.003 NA
ENDBRANCH  11  12
ENDBRANCH   3  11
BRANCH   6  14
ATOM     14  C   UNL     1      44.739 131.009  18.490  1.00  0.00    -0.018 A 
ATOM     15  C   UNL     1      45.899 130.218  18.406  1.00  0.00     0.009 A 
ATOM     16  C   UNL     1      44.198 131.554  17.310  1.00  0.00     0.015 A 
ATOM     17  C   UNL     1      46.508 129.984  17.171  1.00  0.00     0.001 A 
ATOM     18  C   UNL     1      44.799 131.303  16.067  1.00  0.00    -0.016 A 
ATOM     19  C   UNL     1      45.965 130.528  16.006  1.00  0.00     0.006 A 
BRANCH  18  20
ATOM     20  C   UNL     1      44.236 131.910  14.817  1.00  0.00     0.174 C 
ATOM     21  O   UNL     1      43.456 130.987  14.092  1.00  0.00    -0.368 OA
ATOM     22  C   UNL     1      44.705 131.326  13.539  1.00  0.00     0.198 C 
ENDBRANCH  18  20
ENDBRANCH   6  14
TORSDOF 4
ENDMDL
MODEL 8
REMARK VINA RESULT:      -5.9      2.980      4.111
REMARK SMILES [N-]=[N+]=Nc1nccc2ccc(-c3cccc([C@H]4CO4)c3)cc12
REMARK SMILES IDX 6 1 5 2 4 3 22 4 21 5 11 6 10 7 9 8 8 9 7 10 3 11 2 12 1 13
REMARK SMILES IDX 12 14 13 15 20 16 14 17 16 18 15 19 17 20 19 21 18 22
REMARK H PARENT
ROOT
ATOM      1  C   UNL     1      44.162 130.329  24.475  1.00  0.00     0.112 A 
ATOM      2  N   UNL     1      44.560 129.118  24.007  1.00  0.00    -0.254 NA
ATOM      3  C   UNL     1      44.877 128.913  22.697  1.00  0.00     0.134 A 
ATOM      4  C   UNL     1      44.793 129.984  21.784  1.00  0.00     0.010 A 
ATOM      5  C   UNL     1      45.108 129.824  20.421  1.00  0.00     0.019 A 
ATOM      6  C   UNL     1      45.015 130.910  19.530  1.00  0.00    -0.018 A 
ATOM      7  C   UNL     1      44.599 132.161  20.018  1.00  0.00     0.009 A 
ATOM      8  C   UNL     1      44.285 132.330  21.367  1.00  0.00     0.009 A 
ATOM      9  C   UNL     1      44.377 131.251  22.255  1.00  0.00    -0.015 A 
ATOM     10  C   UNL     1      44.063 131.417  23.610  1.00  0.00     0.029 A 
ENDROOT
BRANCH   3  11
ATOM     11  N   UNL     1      45.293 127.612  22.262  1.00  0.00    -0.040 NA
BRANCH  11  12
ATOM     12  N   UNL     1      45.934 126.863  22.998  1.00  0.00     0.007 N 
ATOM     13  N   UNL     1      46.575 126.114  23.733  1.00  0.00    -0.003 NA
ENDBRANCH  11  12
ENDBRANCH   3  11
BRANCH   6  14
ATOM     14  C   UNL     1      45.350 130.737  18.094  1.00  0.00    -0.018 A 
ATOM     15  C   UNL     1      46.378 129.860  17.702  1.00  0.00     0.009 A 
ATOM     16  C   UNL     1      44.648 131.449  17.104  1.00  0.00     0.015 A 
ATOM     17  C   UNL     1      46.700 129.705  16.351  1.00  0.00     0.001 A 
ATOM     18  C   UNL     1      44.958 131.279  15.746  1.00  0.00    -0.016 A 
ATOM     19  C   UNL     1      45.999 130.416  15.377  1.00  0.00     0.006 A 
BRANCH  18  20
ATOM     20  C   UNL     1      44.226 132.064  14.698  1.00  0.00     0.174 C 
ATOM     21  O   UNL     1      42.828 131.963  14.850  1.00  0.00    -0.368 OA
ATOM     22  C   UNL     1      43.394 131.277  13.758  1.00  0.00     0.198 C 
ENDBRANCH  18  20
ENDBRANCH   6  14
TORSDOF 4
ENDMDL
MODEL 9
REMARK VINA RESULT:      -5.9      1.797      3.110
REMARK SMILES [N-]=[N+]=Nc1nccc2ccc(-c3cccc([C@H]4CO4)c3)cc12
REMARK SMILES IDX 6 1 5 2 4 3 22 4 21 5 11 6 10 7 9 8 8 9 7 10 3 11 2 12 1 13
REMARK SMILES IDX 12 14 13 15 20 16 14 17 16 18 15 19 17 20 19 21 18 22
REMARK H PARENT
ROOT
ATOM      1  C   UNL     1      42.045 132.643  21.999  1.00  0.00     0.112 A 
ATOM      2  N   UNL     1      43.116 131.869  22.309  1.00  0.00    -0.254 NA
ATOM      3  C   UNL     1      43.906 131.303  21.353  1.00  0.00     0.134 A 
ATOM      4  C   UNL     1      43.614 131.520  19.991  1.00  0.00     0.010 A 
ATOM      5  C   UNL     1      44.398 130.957  18.965  1.00  0.00     0.019 A 
ATOM      6  C   UNL     1      44.084 131.189  17.613  1.00  0.00    -0.018 A 
ATOM      7  C   UNL     1      42.973 131.989  17.296  1.00  0.00     0.009 A 
ATOM      8  C   UNL     1      42.189 132.551  18.305  1.00  0.00     0.009 A 
ATOM      9  C   UNL     1      42.500 132.322  19.651  1.00  0.00    -0.015 A 
ATOM     10  C   UNL     1      41.716 132.885  20.666  1.00  0.00     0.029 A 
ENDROOT
BRANCH   3  11
ATOM     11  N   UNL     1      45.024 130.496  21.742  1.00  0.00    -0.040 NA
BRANCH  11  12
ATOM     12  N   UNL     1      44.871 129.418  22.315  1.00  0.00     0.007 N 
ATOM     13  N   UNL     1      44.718 128.341  22.889  1.00  0.00    -0.003 NA
ENDBRANCH  11  12
ENDBRANCH   3  11
BRANCH   6  14
ATOM     14  C   UNL     1      44.915 130.595  16.534  1.00  0.00    -0.018 A 
ATOM     15  C   UNL     1      45.051 129.200  16.424  1.00  0.00     0.009 A 
ATOM     16  C   UNL     1      45.583 131.420  15.610  1.00  0.00     0.015 A 
ATOM     17  C   UNL     1      45.841 128.643  15.415  1.00  0.00     0.001 A 
ATOM     18  C   UNL     1      46.361 130.861  14.585  1.00  0.00    -0.016 A 
ATOM     19  C   UNL     1      46.499 129.469  14.503  1.00  0.00     0.006 A 
BRANCH  18  20
ATOM     20  C   UNL     1      47.093 131.746  13.621  1.00  0.00     0.174 C 
ATOM     21  O   UNL     1      47.223 131.143  12.353  1.00  0.00    -0.368 OA
ATOM     22  C   UNL     1      48.395 131.237  13.128  1.00  0.00     0.198 C 
ENDBRANCH  18  20
ENDBRANCH   6  14
TORSDOF 4
ENDMDL


