REMARK SMILES Cc1cc(-c2cccc3ncoc23)cc(OC(=S)/N=C(\O)COc2ccc(Cl)cc2)c1F
REMARK SMILES IDX 20 1 21 2 19 4 17 5 18 6 16 7 15 8 14 9 31 10 4 11 2 12 3 13
REMARK SMILES IDX 32 14 1 15 5 16 6 17 13 18 7 19 12 20 9 21 8 22 11 23 10 24
REMARK SMILES IDX 22 25 23 26 24 27 25 28 30 29 26 30 29 31 27 32 28 33
REMARK H PARENT 21 3
ROOT
ATOM      1  C   UNL     1      -1.716  -3.674   2.612  1.00  0.00     0.228 C 
ENDROOT
BRANCH   1   2
ATOM      2  O   UNL     1      -2.575  -4.678   3.051  1.00  0.00    -0.494 OA
ATOM      3  H   UNL     1      -2.416  -5.158   3.929  1.00  0.00     0.295 HD
ENDBRANCH   1   2
BRANCH   1   4
ATOM      4  N   UNL     1      -1.904  -3.069   1.475  1.00  0.00    -0.168 NA
BRANCH   4   5
ATOM      5  C   UNL     1      -2.927  -3.271   0.484  1.00  0.00     0.292 C 
ATOM      6  S   UNL     1      -4.179  -4.307   0.701  1.00  0.00    -0.016 S 
BRANCH   5   7
ATOM      7  O   UNL     1      -2.831  -2.607  -0.743  1.00  0.00    -0.427 OA
BRANCH   7   8
ATOM      8  C   UNL     1      -2.035  -1.473  -0.955  1.00  0.00     0.166 A 
ATOM      9  C   UNL     1      -1.967  -0.442  -0.004  1.00  0.00     0.059 A 
ATOM     10  C   UNL     1      -1.327  -1.353  -2.156  1.00  0.00     0.168 A 
ATOM     11  C   UNL     1      -1.200   0.712  -0.247  1.00  0.00    -0.010 A 
ATOM     12  C   UNL     1      -0.525  -0.227  -2.398  1.00  0.00    -0.011 A 
ATOM     13  C   UNL     1      -0.485   0.810  -1.453  1.00  0.00     0.015 A 
ATOM     14  F   UNL     1      -1.411  -2.345  -3.079  1.00  0.00    -0.203 F 
ATOM     15  C   UNL     1       0.226  -0.095  -3.691  1.00  0.00     0.048 C 
BRANCH  11  16
ATOM     16  C   UNL     1      -1.171   1.817   0.748  1.00  0.00     0.027 A 
ATOM     17  C   UNL     1      -2.328   2.179   1.482  1.00  0.00     0.013 A 
ATOM     18  C   UNL     1      -0.006   2.549   1.017  1.00  0.00     0.162 A 
ATOM     19  C   UNL     1      -2.285   3.224   2.433  1.00  0.00     0.003 A 
ATOM     20  O   UNL     1       1.189   2.422   0.503  1.00  0.00    -0.443 OA
ATOM     21  C   UNL     1       0.031   3.555   1.936  1.00  0.00     0.110 A 
ATOM     22  C   UNL     1      -1.090   3.926   2.669  1.00  0.00     0.032 A 
ATOM     23  C   UNL     1       1.943   3.333   1.093  1.00  0.00     0.309 A 
ATOM     24  N   UNL     1       1.267   4.077   2.006  1.00  0.00    -0.217 NA
ENDBRANCH  11  16
ENDBRANCH   7   8
ENDBRANCH   5   7
ENDBRANCH   4   5
ENDBRANCH   1   4
BRANCH   1  25
ATOM     25  C   UNL     1      -0.522  -3.313   3.456  1.00  0.00     0.326 C 
BRANCH  25  26
ATOM     26  O   UNL     1       0.158  -2.152   2.967  1.00  0.00    -0.484 OA
BRANCH  26  27
ATOM     27  C   UNL     1       0.925  -2.089   1.790  1.00  0.00     0.120 A 
ATOM     28  C   UNL     1       1.137  -3.208   0.959  1.00  0.00     0.048 A 
ATOM     29  C   UNL     1       1.484  -0.857   1.429  1.00  0.00     0.048 A 
ATOM     30  C   UNL     1       1.862  -3.076  -0.229  1.00  0.00     0.024 A 
ATOM     31  C   UNL     1       2.218  -0.731   0.245  1.00  0.00     0.024 A 
ATOM     32  C   UNL     1       2.398  -1.836  -0.589  1.00  0.00     0.041 A 
ATOM     33  Cl  UNL     1       3.297  -1.669  -2.086  1.00  0.00    -0.084 Cl
ENDBRANCH  26  27
ENDBRANCH  25  26
ENDBRANCH   1  25
TORSDOF 9


