REMARK SMILES O/C(=C\Cc1c(F)cc2ncccc2c1F)c1ccccc1
REMARK SMILES IDX 3 1 2 2 1 3 17 5 18 6 22 7 19 8 21 9 20 10 4 11 5 12 6 13
REMARK SMILES IDX 15 14 8 15 14 16 9 17 13 18 10 19 12 20 11 21 7 22 16 23
REMARK H PARENT 1 4
ROOT
ATOM      1  C   UNL     1       0.938  -0.142   0.263  1.00  0.00     0.025 C 
ENDROOT
BRANCH   1   2
ATOM      2  C   UNL     1       1.766  -1.150   0.571  1.00  0.00     0.119 C 
BRANCH   2   3
ATOM      3  O   UNL     1       1.928  -2.201  -0.334  1.00  0.00    -0.508 OA
ATOM      4  H   UNL     1       2.499  -3.010  -0.119  1.00  0.00     0.293 HD
ENDBRANCH   2   3
BRANCH   2   5
ATOM      5  C   UNL     1       2.519  -1.157   1.851  1.00  0.00     0.016 A 
ATOM      6  C   UNL     1       3.845  -1.623   1.883  1.00  0.00     0.012 A 
ATOM      7  C   UNL     1       1.923  -0.717   3.050  1.00  0.00     0.012 A 
ATOM      8  C   UNL     1       4.562  -1.641   3.084  1.00  0.00     0.001 A 
ATOM      9  C   UNL     1       2.643  -0.739   4.248  1.00  0.00     0.001 A 
ATOM     10  C   UNL     1       3.961  -1.199   4.265  1.00  0.00     0.000 A 
ENDBRANCH   2   5
ENDBRANCH   1   2
BRANCH   1  11
ATOM     11  C   UNL     1       0.162  -0.124  -1.025  1.00  0.00     0.073 C 
BRANCH  11  12
ATOM     12  C   UNL     1      -0.697   1.112  -1.116  1.00  0.00     0.028 A 
ATOM     13  C   UNL     1      -0.187   2.289  -1.697  1.00  0.00     0.131 A 
ATOM     14  C   UNL     1      -1.993   1.117  -0.564  1.00  0.00     0.139 A 
ATOM     15  C   UNL     1      -0.969   3.446  -1.754  1.00  0.00     0.068 A 
ATOM     16  C   UNL     1      -2.780   2.281  -0.621  1.00  0.00     0.036 A 
ATOM     17  C   UNL     1      -2.261   3.449  -1.222  1.00  0.00     0.076 A 
ATOM     18  C   UNL     1      -4.077   2.318  -0.088  1.00  0.00     0.015 A 
ATOM     19  N   UNL     1      -3.017   4.579  -1.279  1.00  0.00    -0.256 NA
ATOM     20  C   UNL     1      -4.828   3.493  -0.163  1.00  0.00     0.021 A 
ATOM     21  C   UNL     1      -4.276   4.624  -0.768  1.00  0.00     0.112 A 
ATOM     22  F   UNL     1       1.071   2.319  -2.204  1.00  0.00    -0.206 F 
ATOM     23  F   UNL     1      -2.480  -0.004   0.031  1.00  0.00    -0.206 F 
ENDBRANCH  11  12
ENDBRANCH   1  11
TORSDOF 5


