MODEL 1
REMARK VINA RESULT:     -10.1      0.000      0.000
REMARK SMILES c1cc(-c2ccc3cc[nH]c3c2)cc([C@@H]2CO2)c1
REMARK SMILES IDX 4 1 5 2 6 3 7 4 8 5 9 6 10 7 11 8 12 9 3 11 1 12 2 13 18 14
REMARK SMILES IDX 14 15 13 16 15 17 16 18 17 19
REMARK H PARENT 10 10
ROOT
ATOM      1  C   UNL     1      44.735 131.240  16.843  1.00  0.00    -0.016 A 
ATOM      2  C   UNL     1      44.207 131.729  15.618  1.00  0.00     0.009 A 
ATOM      3  C   UNL     1      44.861 131.477  14.398  1.00  0.00     0.011 A 
ATOM      4  C   UNL     1      46.037 130.737  14.432  1.00  0.00    -0.001 A 
ATOM      5  C   UNL     1      46.880 130.342  13.417  1.00  0.00     0.028 A 
ATOM      6  C   UNL     1      47.895 129.627  14.044  1.00  0.00     0.083 A 
ATOM      7  N   UNL     1      47.693 129.580  15.381  1.00  0.00    -0.361 N 
ATOM      8  C   UNL     1      46.556 130.259  15.605  1.00  0.00     0.046 A 
ATOM      9  C   UNL     1      45.935 130.490  16.830  1.00  0.00     0.035 A 
ATOM     10  H   UNL     1      48.299 129.111  16.090  1.00  0.00     0.166 HD
ENDROOT
BRANCH   1  11
ATOM     11  C   UNL     1      44.036 131.514  18.125  1.00  0.00    -0.018 A 
ATOM     12  C   UNL     1      42.051 132.231  19.337  1.00  0.00     0.001 A 
ATOM     13  C   UNL     1      42.709 131.980  18.130  1.00  0.00     0.009 A 
ATOM     14  C   UNL     1      42.708 132.021  20.552  1.00  0.00     0.006 A 
ATOM     15  C   UNL     1      44.036 131.574  20.566  1.00  0.00    -0.016 A 
ATOM     16  C   UNL     1      44.691 131.306  19.353  1.00  0.00     0.015 A 
BRANCH  15  17
ATOM     17  C   UNL     1      44.726 131.315  21.873  1.00  0.00     0.174 C 
ATOM     18  C   UNL     1      44.249 130.143  22.641  1.00  0.00     0.198 C 
ATOM     19  O   UNL     1      43.847 131.452  22.965  1.00  0.00    -0.368 OA
ENDBRANCH  15  17
ENDBRANCH   1  11
TORSDOF 2
ENDMDL
MODEL 2
REMARK VINA RESULT:      -9.6      1.036      1.385
REMARK SMILES c1cc(-c2ccc3cc[nH]c3c2)cc([C@@H]2CO2)c1
REMARK SMILES IDX 4 1 5 2 6 3 7 4 8 5 9 6 10 7 11 8 12 9 3 11 1 12 2 13 18 14
REMARK SMILES IDX 14 15 13 16 15 17 16 18 17 19
REMARK H PARENT 10 10
ROOT
ATOM      1  C   UNL     1      45.131 130.885  16.816  1.00  0.00    -0.016 A 
ATOM      2  C   UNL     1      45.293 129.501  16.536  1.00  0.00     0.009 A 
ATOM      3  C   UNL     1      46.066 129.072  15.442  1.00  0.00     0.011 A 
ATOM      4  C   UNL     1      46.661 130.044  14.646  1.00  0.00    -0.001 A 
ATOM      5  C   UNL     1      47.457 129.925  13.527  1.00  0.00     0.028 A 
ATOM      6  C   UNL     1      47.757 131.231  13.154  1.00  0.00     0.083 A 
ATOM      7  N   UNL     1      47.178 132.116  13.998  1.00  0.00    -0.361 N 
ATOM      8  C   UNL     1      46.514 131.379  14.904  1.00  0.00     0.046 A 
ATOM      9  C   UNL     1      45.756 131.840  15.978  1.00  0.00     0.035 A 
ATOM     10  H   UNL     1      47.237 133.157  13.951  1.00  0.00     0.166 HD
ENDROOT
BRANCH   1  11
ATOM     11  C   UNL     1      44.312 131.327  17.974  1.00  0.00    -0.018 A 
ATOM     12  C   UNL     1      42.235 132.223  18.872  1.00  0.00     0.001 A 
ATOM     13  C   UNL     1      43.006 131.814  17.781  1.00  0.00     0.009 A 
ATOM     14  C   UNL     1      42.756 132.155  20.165  1.00  0.00     0.006 A 
ATOM     15  C   UNL     1      44.061 131.690  20.375  1.00  0.00    -0.016 A 
ATOM     16  C   UNL     1      44.829 131.262  19.281  1.00  0.00     0.015 A 
BRANCH  15  17
ATOM     17  C   UNL     1      44.604 131.583  21.769  1.00  0.00     0.174 C 
ATOM     18  C   UNL     1      44.244 130.357  22.517  1.00  0.00     0.198 C 
ATOM     19  O   UNL     1      43.576 131.576  22.732  1.00  0.00    -0.368 OA
ENDBRANCH  15  17
ENDBRANCH   1  11
TORSDOF 2
ENDMDL
MODEL 3
REMARK VINA RESULT:      -9.4      3.288      6.782
REMARK SMILES c1cc(-c2ccc3cc[nH]c3c2)cc([C@@H]2CO2)c1
REMARK SMILES IDX 4 1 5 2 6 3 7 4 8 5 9 6 10 7 11 8 12 9 3 11 1 12 2 13 18 14
REMARK SMILES IDX 14 15 13 16 15 17 16 18 17 19
REMARK H PARENT 10 10
ROOT
ATOM      1  C   UNL     1      44.661 131.238  18.609  1.00  0.00    -0.016 A 
ATOM      2  C   UNL     1      45.709 130.731  19.424  1.00  0.00     0.009 A 
ATOM      3  C   UNL     1      45.591 130.721  20.825  1.00  0.00     0.011 A 
ATOM      4  C   UNL     1      44.422 131.224  21.384  1.00  0.00    -0.001 A 
ATOM      5  C   UNL     1      44.034 131.343  22.700  1.00  0.00     0.028 A 
ATOM      6  C   UNL     1      42.767 131.917  22.655  1.00  0.00     0.083 A 
ATOM      7  N   UNL     1      42.389 132.144  21.376  1.00  0.00    -0.361 N 
ATOM      8  C   UNL     1      43.406 131.715  20.611  1.00  0.00     0.046 A 
ATOM      9  C   UNL     1      43.487 131.741  19.220  1.00  0.00     0.035 A 
ATOM     10  H   UNL     1      41.489 132.565  21.055  1.00  0.00     0.166 HD
ENDROOT
BRANCH   1  11
ATOM     11  C   UNL     1      44.796 131.245  17.129  1.00  0.00    -0.018 A 
ATOM     12  C   UNL     1      43.836 131.614  14.923  1.00  0.00     0.001 A 
ATOM     13  C   UNL     1      43.706 131.602  16.315  1.00  0.00     0.009 A 
ATOM     14  C   UNL     1      45.051 131.267  14.328  1.00  0.00     0.006 A 
ATOM     15  C   UNL     1      46.142 130.892  15.123  1.00  0.00    -0.016 A 
ATOM     16  C   UNL     1      46.016 130.897  16.521  1.00  0.00     0.015 A 
BRANCH  15  17
ATOM     17  C   UNL     1      47.456 130.556  14.482  1.00  0.00     0.174 C 
ATOM     18  C   UNL     1      47.652 131.049  13.100  1.00  0.00     0.198 C 
ATOM     19  O   UNL     1      47.292 129.714  13.364  1.00  0.00    -0.368 OA
ENDBRANCH  15  17
ENDBRANCH   1  11
TORSDOF 2
ENDMDL
MODEL 4
REMARK VINA RESULT:      -9.3      1.366      2.340
REMARK SMILES c1cc(-c2ccc3cc[nH]c3c2)cc([C@@H]2CO2)c1
REMARK SMILES IDX 4 1 5 2 6 3 7 4 8 5 9 6 10 7 11 8 12 9 3 11 1 12 2 13 18 14
REMARK SMILES IDX 14 15 13 16 15 17 16 18 17 19
REMARK H PARENT 10 10
ROOT
ATOM      1  C   UNL     1      45.793 131.031  17.103  1.00  0.00    -0.016 A 
ATOM      2  C   UNL     1      45.484 132.136  16.266  1.00  0.00     0.009 A 
ATOM      3  C   UNL     1      45.936 132.182  14.935  1.00  0.00     0.011 A 
ATOM      4  C   UNL     1      46.695 131.114  14.469  1.00  0.00    -0.001 A 
ATOM      5  C   UNL     1      47.265 130.888  13.235  1.00  0.00     0.028 A 
ATOM      6  C   UNL     1      47.906 129.658  13.351  1.00  0.00     0.083 A 
ATOM      7  N   UNL     1      47.741 129.147  14.593  1.00  0.00    -0.361 N 
ATOM      8  C   UNL     1      46.999 130.043  15.264  1.00  0.00     0.046 A 
ATOM      9  C   UNL     1      46.568 129.965  16.587  1.00  0.00     0.035 A 
ATOM     10  H   UNL     1      48.115 128.240  14.952  1.00  0.00     0.166 HD
ENDROOT
BRANCH   1  11
ATOM     11  C   UNL     1      45.311 130.993  18.508  1.00  0.00    -0.018 A 
ATOM     12  C   UNL     1      45.586 130.273  20.817  1.00  0.00     0.001 A 
ATOM     13  C   UNL     1      46.038 130.302  19.494  1.00  0.00     0.009 A 
ATOM     14  C   UNL     1      44.404 130.929  21.169  1.00  0.00     0.006 A 
ATOM     15  C   UNL     1      43.658 131.607  20.197  1.00  0.00    -0.016 A 
ATOM     16  C   UNL     1      44.121 131.651  18.872  1.00  0.00     0.015 A 
BRANCH  15  17
ATOM     17  C   UNL     1      42.409 132.342  20.587  1.00  0.00     0.174 C 
ATOM     18  C   UNL     1      41.373 132.469  19.536  1.00  0.00     0.198 C 
ATOM     19  O   UNL     1      42.247 133.528  19.844  1.00  0.00    -0.368 OA
ENDBRANCH  15  17
ENDBRANCH   1  11
TORSDOF 2
ENDMDL
MODEL 5
REMARK VINA RESULT:      -9.0      2.941      6.486
REMARK SMILES c1cc(-c2ccc3cc[nH]c3c2)cc([C@@H]2CO2)c1
REMARK SMILES IDX 4 1 5 2 6 3 7 4 8 5 9 6 10 7 11 8 12 9 3 11 1 12 2 13 18 14
REMARK SMILES IDX 14 15 13 16 15 17 16 18 17 19
REMARK H PARENT 10 10
ROOT
ATOM      1  C   UNL     1      44.122 131.445  18.159  1.00  0.00    -0.016 A 
ATOM      2  C   UNL     1      42.804 131.897  18.438  1.00  0.00     0.009 A 
ATOM      3  C   UNL     1      42.358 132.047  19.764  1.00  0.00     0.011 A 
ATOM      4  C   UNL     1      43.246 131.736  20.787  1.00  0.00    -0.001 A 
ATOM      5  C   UNL     1      43.091 131.783  22.156  1.00  0.00     0.028 A 
ATOM      6  C   UNL     1      44.311 131.359  22.674  1.00  0.00     0.083 A 
ATOM      7  N   UNL     1      45.179 131.064  21.678  1.00  0.00    -0.361 N 
ATOM      8  C   UNL     1      44.518 131.300  20.533  1.00  0.00     0.046 A 
ATOM      9  C   UNL     1      44.993 131.140  19.233  1.00  0.00     0.035 A 
ATOM     10  H   UNL     1      46.160 130.724  21.783  1.00  0.00     0.166 HD
ENDROOT
BRANCH   1  11
ATOM     11  C   UNL     1      44.582 131.290  16.755  1.00  0.00    -0.018 A 
ATOM     12  C   UNL     1      44.197 131.548  14.366  1.00  0.00     0.001 A 
ATOM     13  C   UNL     1      43.760 131.688  15.686  1.00  0.00     0.009 A 
ATOM     14  C   UNL     1      45.456 131.007  14.097  1.00  0.00     0.006 A 
ATOM     15  C   UNL     1      46.282 130.589  15.148  1.00  0.00    -0.016 A 
ATOM     16  C   UNL     1      45.850 130.746  16.475  1.00  0.00     0.015 A 
BRANCH  15  17
ATOM     17  C   UNL     1      47.649 130.042  14.858  1.00  0.00     0.174 C 
ATOM     18  C   UNL     1      48.047 130.010  13.432  1.00  0.00     0.198 C 
ATOM     19  O   UNL     1      47.587 128.858  14.097  1.00  0.00    -0.368 OA
ENDBRANCH  15  17
ENDBRANCH   1  11
TORSDOF 2
ENDMDL
MODEL 6
REMARK VINA RESULT:      -8.8      0.921      1.019
REMARK SMILES c1cc(-c2ccc3cc[nH]c3c2)cc([C@@H]2CO2)c1
REMARK SMILES IDX 4 1 5 2 6 3 7 4 8 5 9 6 10 7 11 8 12 9 3 11 1 12 2 13 18 14
REMARK SMILES IDX 14 15 13 16 15 17 16 18 17 19
REMARK H PARENT 10 10
ROOT
ATOM      1  C   UNL     1      44.923 131.176  16.330  1.00  0.00    -0.016 A 
ATOM      2  C   UNL     1      44.549 131.690  15.059  1.00  0.00     0.009 A 
ATOM      3  C   UNL     1      45.320 131.416  13.915  1.00  0.00     0.011 A 
ATOM      4  C   UNL     1      46.456 130.629  14.070  1.00  0.00    -0.001 A 
ATOM      5  C   UNL     1      47.387 130.204  13.147  1.00  0.00     0.028 A 
ATOM      6  C   UNL     1      48.300 129.447  13.875  1.00  0.00     0.083 A 
ATOM      7  N   UNL     1      47.954 129.404  15.182  1.00  0.00    -0.361 N 
ATOM      8  C   UNL     1      46.827 130.127  15.287  1.00  0.00     0.046 A 
ATOM      9  C   UNL     1      46.087 130.379  16.441  1.00  0.00     0.035 A 
ATOM     10  H   UNL     1      48.461 128.909  15.948  1.00  0.00     0.166 HD
ENDROOT
BRANCH   1  11
ATOM     11  C   UNL     1      44.102 131.473  17.532  1.00  0.00    -0.018 A 
ATOM     12  C   UNL     1      41.977 132.111  18.533  1.00  0.00     0.001 A 
ATOM     13  C   UNL     1      42.750 131.839  17.401  1.00  0.00     0.009 A 
ATOM     14  C   UNL     1      42.543 132.025  19.807  1.00  0.00     0.006 A 
ATOM     15  C   UNL     1      43.892 131.679  19.956  1.00  0.00    -0.016 A 
ATOM     16  C   UNL     1      44.664 131.389  18.819  1.00  0.00     0.015 A 
BRANCH  15  17
ATOM     17  C   UNL     1      44.487 131.552  21.327  1.00  0.00     0.174 C 
ATOM     18  C   UNL     1      45.946 131.782  21.429  1.00  0.00     0.198 C 
ATOM     19  O   UNL     1      45.403 130.484  21.403  1.00  0.00    -0.368 OA
ENDBRANCH  15  17
ENDBRANCH   1  11
TORSDOF 2
ENDMDL
MODEL 7
REMARK VINA RESULT:      -8.2      1.274      1.908
REMARK SMILES c1cc(-c2ccc3cc[nH]c3c2)cc([C@@H]2CO2)c1
REMARK SMILES IDX 4 1 5 2 6 3 7 4 8 5 9 6 10 7 11 8 12 9 3 11 1 12 2 13 18 14
REMARK SMILES IDX 14 15 13 16 15 17 16 18 17 19
REMARK H PARENT 10 10
ROOT
ATOM      1  C   UNL     1      44.667 131.208  18.012  1.00  0.00    -0.016 A 
ATOM      2  C   UNL     1      45.741 130.295  18.189  1.00  0.00     0.009 A 
ATOM      3  C   UNL     1      46.531 129.892  17.097  1.00  0.00     0.011 A 
ATOM      4  C   UNL     1      46.225 130.412  15.845  1.00  0.00    -0.001 A 
ATOM      5  C   UNL     1      46.812 130.201  14.616  1.00  0.00     0.028 A 
ATOM      6  C   UNL     1      46.084 130.984  13.726  1.00  0.00     0.083 A 
ATOM      7  N   UNL     1      45.096 131.649  14.370  1.00  0.00    -0.361 N 
ATOM      8  C   UNL     1      45.194 131.292  15.661  1.00  0.00     0.046 A 
ATOM      9  C   UNL     1      44.391 131.714  16.719  1.00  0.00     0.035 A 
ATOM     10  H   UNL     1      44.402 132.303  13.946  1.00  0.00     0.166 HD
ENDROOT
BRANCH   1  11
ATOM     11  C   UNL     1      43.838 131.628  19.171  1.00  0.00    -0.018 A 
ATOM     12  C   UNL     1      41.847 132.707  20.064  1.00  0.00     0.001 A 
ATOM     13  C   UNL     1      42.629 132.319  18.972  1.00  0.00     0.009 A 
ATOM     14  C   UNL     1      42.262 132.414  21.365  1.00  0.00     0.006 A 
ATOM     15  C   UNL     1      43.472 131.742  21.583  1.00  0.00    -0.016 A 
ATOM     16  C   UNL     1      44.248 131.336  20.486  1.00  0.00     0.015 A 
BRANCH  15  17
ATOM     17  C   UNL     1      43.897 131.395  22.980  1.00  0.00     0.174 C 
ATOM     18  C   UNL     1      43.097 130.353  23.664  1.00  0.00     0.198 C 
ATOM     19  O   UNL     1      42.904 131.723  23.924  1.00  0.00    -0.368 OA
ENDBRANCH  15  17
ENDBRANCH   1  11
TORSDOF 2
ENDMDL
MODEL 8
REMARK VINA RESULT:      -7.8      0.922      1.060
REMARK SMILES c1cc(-c2ccc3cc[nH]c3c2)cc([C@@H]2CO2)c1
REMARK SMILES IDX 4 1 5 2 6 3 7 4 8 5 9 6 10 7 11 8 12 9 3 11 1 12 2 13 18 14
REMARK SMILES IDX 14 15 13 16 15 17 16 18 17 19
REMARK H PARENT 10 10
ROOT
ATOM      1  C   UNL     1      45.037 131.148  17.624  1.00  0.00    -0.016 A 
ATOM      2  C   UNL     1      44.791 132.156  16.653  1.00  0.00     0.009 A 
ATOM      3  C   UNL     1      45.404 132.103  15.388  1.00  0.00     0.011 A 
ATOM      4  C   UNL     1      46.255 131.037  15.121  1.00  0.00    -0.001 A 
ATOM      5  C   UNL     1      46.983 130.729  13.992  1.00  0.00     0.028 A 
ATOM      6  C   UNL     1      47.651 129.548  14.302  1.00  0.00     0.083 A 
ATOM      7  N   UNL     1      47.353 129.144  15.558  1.00  0.00    -0.361 N 
ATOM      8  C   UNL     1      46.500 130.059  16.046  1.00  0.00     0.046 A 
ATOM      9  C   UNL     1      45.911 130.079  17.309  1.00  0.00     0.035 A 
ATOM     10  H   UNL     1      47.714 128.294  16.045  1.00  0.00     0.166 HD
ENDROOT
BRANCH   1  11
ATOM     11  C   UNL     1      44.385 131.213  18.957  1.00  0.00    -0.018 A 
ATOM     12  C   UNL     1      42.532 131.916  20.369  1.00  0.00     0.001 A 
ATOM     13  C   UNL     1      43.147 131.862  19.116  1.00  0.00     0.009 A 
ATOM     14  C   UNL     1      43.145 131.329  21.478  1.00  0.00     0.006 A 
ATOM     15  C   UNL     1      44.386 130.695  21.343  1.00  0.00    -0.016 A 
ATOM     16  C   UNL     1      44.996 130.624  20.080  1.00  0.00     0.015 A 
BRANCH  15  17
ATOM     17  C   UNL     1      45.024 130.033  22.529  1.00  0.00     0.174 C 
ATOM     18  C   UNL     1      44.319 128.849  23.072  1.00  0.00     0.198 C 
ATOM     19  O   UNL     1      44.209 130.116  23.675  1.00  0.00    -0.368 OA
ENDBRANCH  15  17
ENDBRANCH   1  11
TORSDOF 2
ENDMDL
MODEL 9
REMARK VINA RESULT:      -7.3      1.179      2.024
REMARK SMILES c1cc(-c2ccc3cc[nH]c3c2)cc([C@@H]2CO2)c1
REMARK SMILES IDX 4 1 5 2 6 3 7 4 8 5 9 6 10 7 11 8 12 9 3 11 1 12 2 13 18 14
REMARK SMILES IDX 14 15 13 16 15 17 16 18 17 19
REMARK H PARENT 10 10
ROOT
ATOM      1  C   UNL     1      45.565 130.882  17.496  1.00  0.00    -0.016 A 
ATOM      2  C   UNL     1      44.942 131.896  16.720  1.00  0.00     0.009 A 
ATOM      3  C   UNL     1      45.234 132.038  15.352  1.00  0.00     0.011 A 
ATOM      4  C   UNL     1      46.150 131.158  14.787  1.00  0.00    -0.001 A 
ATOM      5  C   UNL     1      46.624 131.060  13.497  1.00  0.00     0.028 A 
ATOM      6  C   UNL     1      47.519 129.995  13.519  1.00  0.00     0.083 A 
ATOM      7  N   UNL     1      47.597 129.459  14.759  1.00  0.00    -0.361 N 
ATOM      8  C   UNL     1      46.756 130.176  15.522  1.00  0.00     0.046 A 
ATOM      9  C   UNL     1      46.491 130.006  16.880  1.00  0.00     0.035 A 
ATOM     10  H   UNL     1      48.190 128.653  15.057  1.00  0.00     0.166 HD
ENDROOT
BRANCH   1  11
ATOM     11  C   UNL     1      45.250 130.740  18.941  1.00  0.00    -0.018 A 
ATOM     12  C   UNL     1      45.742 129.789  21.127  1.00  0.00     0.001 A 
ATOM     13  C   UNL     1      46.036 129.915  19.766  1.00  0.00     0.009 A 
ATOM     14  C   UNL     1      44.661 130.479  21.679  1.00  0.00     0.006 A 
ATOM     15  C   UNL     1      43.857 131.291  20.869  1.00  0.00    -0.016 A 
ATOM     16  C   UNL     1      44.163 131.432  19.506  1.00  0.00     0.015 A 
BRANCH  15  17
ATOM     17  C   UNL     1      42.719 132.060  21.473  1.00  0.00     0.174 C 
ATOM     18  C   UNL     1      42.823 132.347  22.923  1.00  0.00     0.198 C 
ATOM     19  O   UNL     1      42.023 131.298  22.432  1.00  0.00    -0.368 OA
ENDBRANCH  15  17
ENDBRANCH   1  11
TORSDOF 2
ENDMDL


