MODEL 1
REMARK VINA RESULT:     -10.7      0.000      0.000
REMARK SMILES Cc1ccnc(F)c1-c1cc2cc(F)ccc2[nH]1
REMARK SMILES IDX 9 1 10 2 11 3 12 4 13 5 14 6 15 7 16 8 17 9 18 10 8 12 2 13
REMARK SMILES IDX 3 14 4 15 6 16 5 17 1 18 7 19
REMARK H PARENT 18 11
ROOT
ATOM      1  C   UNL     1      45.110 131.219  17.458  1.00  0.00     0.051 A 
ATOM      2  C   UNL     1      45.714 130.000  17.150  1.00  0.00     0.037 A 
ATOM      3  C   UNL     1      46.344 130.210  15.943  1.00  0.00     0.003 A 
ATOM      4  C   UNL     1      47.105 129.348  15.157  1.00  0.00     0.049 A 
ATOM      5  C   UNL     1      47.639 129.854  13.956  1.00  0.00     0.123 A 
ATOM      6  F   UNL     1      48.385 129.052  13.160  1.00  0.00    -0.207 F 
ATOM      7  C   UNL     1      47.404 131.197  13.581  1.00  0.00     0.041 A 
ATOM      8  C   UNL     1      46.633 132.042  14.399  1.00  0.00     0.030 A 
ATOM      9  C   UNL     1      46.114 131.510  15.579  1.00  0.00     0.046 A 
ATOM     10  N   UNL     1      45.363 132.139  16.496  1.00  0.00    -0.354 N 
ATOM     11  H   UNL     1      45.065 133.141  16.482  1.00  0.00     0.167 HD
ENDROOT
BRANCH   1  12
ATOM     12  C   UNL     1      44.324 131.493  18.681  1.00  0.00     0.056 A 
ATOM     13  C   UNL     1      44.872 131.336  19.978  1.00  0.00    -0.036 A 
ATOM     14  C   UNL     1      44.060 131.571  21.097  1.00  0.00     0.024 A 
ATOM     15  C   UNL     1      42.741 131.988  20.922  1.00  0.00     0.114 A 
ATOM     16  C   UNL     1      42.989 131.929  18.562  1.00  0.00     0.222 A 
ATOM     17  N   UNL     1      42.241 132.159  19.672  1.00  0.00    -0.228 NA
ATOM     18  C   UNL     1      46.303 130.917  20.198  1.00  0.00     0.045 C 
ATOM     19  F   UNL     1      42.420 132.089  17.342  1.00  0.00    -0.184 F 
ENDBRANCH   1  12
TORSDOF 1
ENDMDL
MODEL 2
REMARK VINA RESULT:     -10.7      0.868      1.501
REMARK SMILES Cc1ccnc(F)c1-c1cc2cc(F)ccc2[nH]1
REMARK SMILES IDX 9 1 10 2 11 3 12 4 13 5 14 6 15 7 16 8 17 9 18 10 8 12 2 13
REMARK SMILES IDX 3 14 4 15 6 16 5 17 1 18 7 19
REMARK H PARENT 18 11
ROOT
ATOM      1  C   UNL     1      45.064 131.210  17.573  1.00  0.00     0.051 A 
ATOM      2  C   UNL     1      45.414 132.173  16.625  1.00  0.00     0.037 A 
ATOM      3  C   UNL     1      46.087 131.477  15.645  1.00  0.00     0.003 A 
ATOM      4  C   UNL     1      46.666 131.919  14.457  1.00  0.00     0.049 A 
ATOM      5  C   UNL     1      47.289 130.960  13.635  1.00  0.00     0.123 A 
ATOM      6  F   UNL     1      47.864 131.343  12.470  1.00  0.00    -0.207 F 
ATOM      7  C   UNL     1      47.314 129.599  14.018  1.00  0.00     0.041 A 
ATOM      8  C   UNL     1      46.719 129.186  15.224  1.00  0.00     0.030 A 
ATOM      9  C   UNL     1      46.113 130.159  16.018  1.00  0.00     0.046 A 
ATOM     10  N   UNL     1      45.490 129.981  17.193  1.00  0.00    -0.354 N 
ATOM     11  H   UNL     1      45.339 129.075  17.691  1.00  0.00     0.167 HD
ENDROOT
BRANCH   1  12
ATOM     12  C   UNL     1      44.303 131.477  18.814  1.00  0.00     0.056 A 
ATOM     13  C   UNL     1      44.876 131.304  20.098  1.00  0.00    -0.036 A 
ATOM     14  C   UNL     1      44.087 131.532  21.235  1.00  0.00     0.024 A 
ATOM     15  C   UNL     1      42.767 131.956  21.090  1.00  0.00     0.114 A 
ATOM     16  C   UNL     1      42.969 131.919  18.725  1.00  0.00     0.222 A 
ATOM     17  N   UNL     1      42.244 132.142  19.852  1.00  0.00    -0.228 NA
ATOM     18  C   UNL     1      46.309 130.877  20.287  1.00  0.00     0.045 C 
ATOM     19  F   UNL     1      42.376 132.094  17.518  1.00  0.00    -0.184 F 
ENDBRANCH   1  12
TORSDOF 1
ENDMDL
MODEL 3
REMARK VINA RESULT:     -10.6      1.785      2.571
REMARK SMILES Cc1ccnc(F)c1-c1cc2cc(F)ccc2[nH]1
REMARK SMILES IDX 9 1 10 2 11 3 12 4 13 5 14 6 15 7 16 8 17 9 18 10 8 12 2 13
REMARK SMILES IDX 3 14 4 15 6 16 5 17 1 18 7 19
REMARK H PARENT 18 11
ROOT
ATOM      1  C   UNL     1      45.244 131.140  17.902  1.00  0.00     0.051 A 
ATOM      2  C   UNL     1      45.358 132.092  16.889  1.00  0.00     0.037 A 
ATOM      3  C   UNL     1      46.011 131.445  15.864  1.00  0.00     0.003 A 
ATOM      4  C   UNL     1      46.394 131.899  14.604  1.00  0.00     0.049 A 
ATOM      5  C   UNL     1      47.050 130.992  13.750  1.00  0.00     0.123 A 
ATOM      6  F   UNL     1      47.440 131.390  12.515  1.00  0.00    -0.207 F 
ATOM      7  C   UNL     1      47.300 129.666  14.174  1.00  0.00     0.041 A 
ATOM      8  C   UNL     1      46.899 129.238  15.453  1.00  0.00     0.030 A 
ATOM      9  C   UNL     1      46.255 130.161  16.276  1.00  0.00     0.046 A 
ATOM     10  N   UNL     1      45.790 129.960  17.519  1.00  0.00    -0.354 N 
ATOM     11  H   UNL     1      45.818 129.068  18.061  1.00  0.00     0.167 HD
ENDROOT
BRANCH   1  12
ATOM     12  C   UNL     1      44.591 131.364  19.211  1.00  0.00     0.056 A 
ATOM     13  C   UNL     1      43.235 131.759  19.315  1.00  0.00    -0.036 A 
ATOM     14  C   UNL     1      42.688 131.998  20.585  1.00  0.00     0.024 A 
ATOM     15  C   UNL     1      43.470 131.810  21.723  1.00  0.00     0.114 A 
ATOM     16  C   UNL     1      45.332 131.178  20.394  1.00  0.00     0.222 A 
ATOM     17  N   UNL     1      44.760 131.406  21.605  1.00  0.00    -0.228 NA
ATOM     18  C   UNL     1      42.356 131.938  18.104  1.00  0.00     0.045 C 
ATOM     19  F   UNL     1      46.635 130.805  20.344  1.00  0.00    -0.184 F 
ENDBRANCH   1  12
TORSDOF 1
ENDMDL
MODEL 4
REMARK VINA RESULT:     -10.4      1.603      2.120
REMARK SMILES Cc1ccnc(F)c1-c1cc2cc(F)ccc2[nH]1
REMARK SMILES IDX 9 1 10 2 11 3 12 4 13 5 14 6 15 7 16 8 17 9 18 10 8 12 2 13
REMARK SMILES IDX 3 14 4 15 6 16 5 17 1 18 7 19
REMARK H PARENT 18 11
ROOT
ATOM      1  C   UNL     1      45.093 131.237  18.059  1.00  0.00     0.051 A 
ATOM      2  C   UNL     1      45.741 130.064  17.670  1.00  0.00     0.037 A 
ATOM      3  C   UNL     1      46.193 130.313  16.393  1.00  0.00     0.003 A 
ATOM      4  C   UNL     1      46.908 129.506  15.511  1.00  0.00     0.049 A 
ATOM      5  C   UNL     1      47.243 130.044  14.254  1.00  0.00     0.123 A 
ATOM      6  F   UNL     1      47.938 129.294  13.365  1.00  0.00    -0.207 F 
ATOM      7  C   UNL     1      46.862 131.363  13.917  1.00  0.00     0.041 A 
ATOM      8  C   UNL     1      46.142 132.153  14.831  1.00  0.00     0.030 A 
ATOM      9  C   UNL     1      45.821 131.591  16.067  1.00  0.00     0.046 A 
ATOM     10  N   UNL     1      45.150 132.168  17.076  1.00  0.00    -0.354 N 
ATOM     11  H   UNL     1      44.779 133.144  17.104  1.00  0.00     0.167 HD
ENDROOT
BRANCH   1  12
ATOM     12  C   UNL     1      44.453 131.459  19.374  1.00  0.00     0.056 A 
ATOM     13  C   UNL     1      43.094 131.844  19.493  1.00  0.00    -0.036 A 
ATOM     14  C   UNL     1      42.561 132.081  20.768  1.00  0.00     0.024 A 
ATOM     15  C   UNL     1      43.357 131.902  21.898  1.00  0.00     0.114 A 
ATOM     16  C   UNL     1      45.208 131.281  20.549  1.00  0.00     0.222 A 
ATOM     17  N   UNL     1      44.648 131.507  21.766  1.00  0.00    -0.228 NA
ATOM     18  C   UNL     1      42.201 132.015  18.292  1.00  0.00     0.045 C 
ATOM     19  F   UNL     1      46.513 130.917  20.485  1.00  0.00    -0.184 F 
ENDBRANCH   1  12
TORSDOF 1
ENDMDL
MODEL 5
REMARK VINA RESULT:      -9.1      1.526      1.890
REMARK SMILES Cc1ccnc(F)c1-c1cc2cc(F)ccc2[nH]1
REMARK SMILES IDX 9 1 10 2 11 3 12 4 13 5 14 6 15 7 16 8 17 9 18 10 8 12 2 13
REMARK SMILES IDX 3 14 4 15 6 16 5 17 1 18 7 19
REMARK H PARENT 18 11
ROOT
ATOM      1  C   UNL     1      44.211 131.517  18.396  1.00  0.00     0.051 A 
ATOM      2  C   UNL     1      45.515 131.297  17.950  1.00  0.00     0.037 A 
ATOM      3  C   UNL     1      45.421 131.274  16.576  1.00  0.00     0.003 A 
ATOM      4  C   UNL     1      46.403 131.091  15.604  1.00  0.00     0.049 A 
ATOM      5  C   UNL     1      46.005 131.126  14.254  1.00  0.00     0.123 A 
ATOM      6  F   UNL     1      46.925 130.954  13.275  1.00  0.00    -0.207 F 
ATOM      7  C   UNL     1      44.649 131.344  13.915  1.00  0.00     0.041 A 
ATOM      8  C   UNL     1      43.682 131.526  14.921  1.00  0.00     0.030 A 
ATOM      9  C   UNL     1      44.108 131.482  16.248  1.00  0.00     0.046 A 
ATOM     10  N   UNL     1      43.357 131.634  17.350  1.00  0.00    -0.354 N 
ATOM     11  H   UNL     1      42.333 131.834  17.387  1.00  0.00     0.167 HD
ENDROOT
BRANCH   1  12
ATOM     12  C   UNL     1      43.807 131.640  19.814  1.00  0.00     0.056 A 
ATOM     13  C   UNL     1      44.550 131.041  20.861  1.00  0.00    -0.036 A 
ATOM     14  C   UNL     1      44.088 131.159  22.180  1.00  0.00     0.024 A 
ATOM     15  C   UNL     1      42.931 131.889  22.448  1.00  0.00     0.114 A 
ATOM     16  C   UNL     1      42.652 132.376  20.142  1.00  0.00     0.222 A 
ATOM     17  N   UNL     1      42.248 132.478  21.435  1.00  0.00    -0.228 NA
ATOM     18  C   UNL     1      45.821 130.273  20.606  1.00  0.00     0.045 C 
ATOM     19  F   UNL     1      41.907 132.964  19.173  1.00  0.00    -0.184 F 
ENDBRANCH   1  12
TORSDOF 1
ENDMDL
MODEL 6
REMARK VINA RESULT:      -9.1      2.055      6.220
REMARK SMILES Cc1ccnc(F)c1-c1cc2cc(F)ccc2[nH]1
REMARK SMILES IDX 9 1 10 2 11 3 12 4 13 5 14 6 15 7 16 8 17 9 18 10 8 12 2 13
REMARK SMILES IDX 3 14 4 15 6 16 5 17 1 18 7 19
REMARK H PARENT 18 11
ROOT
ATOM      1  C   UNL     1      44.896 131.320  16.877  1.00  0.00     0.051 A 
ATOM      2  C   UNL     1      45.305 131.213  18.207  1.00  0.00     0.037 A 
ATOM      3  C   UNL     1      44.209 131.595  18.948  1.00  0.00     0.003 A 
ATOM      4  C   UNL     1      44.034 131.681  20.327  1.00  0.00     0.049 A 
ATOM      5  C   UNL     1      42.777 132.101  20.804  1.00  0.00     0.123 A 
ATOM      6  F   UNL     1      42.561 132.200  22.138  1.00  0.00    -0.207 F 
ATOM      7  C   UNL     1      41.738 132.417  19.898  1.00  0.00     0.041 A 
ATOM      8  C   UNL     1      41.947 132.317  18.510  1.00  0.00     0.030 A 
ATOM      9  C   UNL     1      43.204 131.902  18.069  1.00  0.00     0.046 A 
ATOM     10  N   UNL     1      43.609 131.737  16.800  1.00  0.00    -0.354 N 
ATOM     11  H   UNL     1      43.036 131.872  15.937  1.00  0.00     0.167 HD
ENDROOT
BRANCH   1  12
ATOM     12  C   UNL     1      45.734 130.996  15.701  1.00  0.00     0.056 A 
ATOM     13  C   UNL     1      45.842 129.676  15.198  1.00  0.00    -0.036 A 
ATOM     14  C   UNL     1      46.688 129.428  14.106  1.00  0.00     0.024 A 
ATOM     15  C   UNL     1      47.379 130.482  13.510  1.00  0.00     0.114 A 
ATOM     16  C   UNL     1      46.444 132.025  15.053  1.00  0.00     0.222 A 
ATOM     17  N   UNL     1      47.241 131.744  13.989  1.00  0.00    -0.228 NA
ATOM     18  C   UNL     1      45.084 128.522  15.801  1.00  0.00     0.045 C 
ATOM     19  F   UNL     1      46.374 133.303  15.502  1.00  0.00    -0.184 F 
ENDBRANCH   1  12
TORSDOF 1
ENDMDL
MODEL 7
REMARK VINA RESULT:      -8.4      1.982      6.305
REMARK SMILES Cc1ccnc(F)c1-c1cc2cc(F)ccc2[nH]1
REMARK SMILES IDX 9 1 10 2 11 3 12 4 13 5 14 6 15 7 16 8 17 9 18 10 8 12 2 13
REMARK SMILES IDX 3 14 4 15 6 16 5 17 1 18 7 19
REMARK H PARENT 18 11
ROOT
ATOM      1  C   UNL     1      45.004 131.244  16.862  1.00  0.00     0.051 A 
ATOM      2  C   UNL     1      43.701 131.743  16.831  1.00  0.00     0.037 A 
ATOM      3  C   UNL     1      43.354 131.912  18.154  1.00  0.00     0.003 A 
ATOM      4  C   UNL     1      42.175 132.382  18.727  1.00  0.00     0.049 A 
ATOM      5  C   UNL     1      42.112 132.454  20.132  1.00  0.00     0.123 A 
ATOM      6  F   UNL     1      40.985 132.904  20.734  1.00  0.00    -0.207 F 
ATOM      7  C   UNL     1      43.221 132.061  20.918  1.00  0.00     0.041 A 
ATOM      8  C   UNL     1      44.398 131.593  20.306  1.00  0.00     0.030 A 
ATOM      9  C   UNL     1      44.428 131.529  18.914  1.00  0.00     0.046 A 
ATOM     10  N   UNL     1      45.444 131.121  18.138  1.00  0.00    -0.354 N 
ATOM     11  H   UNL     1      46.387 130.806  18.456  1.00  0.00     0.167 HD
ENDROOT
BRANCH   1  12
ATOM     12  C   UNL     1      45.818 130.919  15.670  1.00  0.00     0.056 A 
ATOM     13  C   UNL     1      45.918 129.598  15.166  1.00  0.00    -0.036 A 
ATOM     14  C   UNL     1      46.742 129.350  14.058  1.00  0.00     0.024 A 
ATOM     15  C   UNL     1      47.420 130.404  13.447  1.00  0.00     0.114 A 
ATOM     16  C   UNL     1      46.515 131.948  15.007  1.00  0.00     0.222 A 
ATOM     17  N   UNL     1      47.290 131.667  13.927  1.00  0.00    -0.228 NA
ATOM     18  C   UNL     1      45.172 128.444  15.785  1.00  0.00     0.045 C 
ATOM     19  F   UNL     1      46.452 133.226  15.455  1.00  0.00    -0.184 F 
ENDBRANCH   1  12
TORSDOF 1
ENDMDL


