REMARK SMILES Cn1n[nH+]c2cc([N-]C(=O)c3cc(F)cn3/C(S)=N/[C@H]3CCCO3)ccc21
REMARK SMILES IDX 16 1 15 2 13 3 14 4 12 5 11 6 17 7 18 8 19 10 20 11 24 12
REMARK SMILES IDX 21 13 23 14 22 15 9 16 10 17 8 18 7 19 25 20 6 21 26 22 5 23
REMARK SMILES IDX 27 24 4 25 2 26 3 27 1 29
REMARK H PARENT 18 9 4 28
ROOT
ATOM      1  N   UNL     1      -2.766  -0.724   2.457  1.00  0.00    -0.292 N 
ATOM      2  C   UNL     1      -3.283  -0.913   3.688  1.00  0.00     0.133 A 
ATOM      3  C   UNL     1      -2.266  -0.950   4.614  1.00  0.00     0.142 A 
ATOM      4  F   UNL     1      -2.408  -1.118   5.951  1.00  0.00    -0.205 F 
ATOM      5  C   UNL     1      -1.078  -0.783   3.938  1.00  0.00     0.069 A 
ATOM      6  C   UNL     1      -1.416  -0.653   2.602  1.00  0.00     0.076 A 
ENDROOT
BRANCH   1   7
ATOM      7  C   UNL     1      -3.546  -0.535   1.265  1.00  0.00     0.167 C 
BRANCH   7   8
ATOM      8  S   UNL     1      -5.072  -1.471   1.054  1.00  0.00    -0.105 SA
ATOM      9  H   UNL     1      -5.834  -0.476   1.694  1.00  0.00     0.111 HD
ENDBRANCH   7   8
BRANCH   7  10
ATOM     10  N   UNL     1      -3.167   0.343   0.382  1.00  0.00    -0.230 NA
BRANCH  10  11
ATOM     11  C   UNL     1      -3.856   0.639  -0.873  1.00  0.00     0.237 C 
ATOM     12  O   UNL     1      -3.798  -0.486  -1.721  1.00  0.00    -0.356 OA
ATOM     13  C   UNL     1      -3.175   1.801  -1.569  1.00  0.00     0.059 C 
ATOM     14  C   UNL     1      -2.806  -0.242  -2.695  1.00  0.00     0.163 C 
ATOM     15  C   UNL     1      -2.183   1.122  -2.461  1.00  0.00     0.033 C 
ENDBRANCH  10  11
ENDBRANCH   7  10
ENDBRANCH   1   7
BRANCH   6  16
ATOM     16  C   UNL     1      -0.425  -0.554   1.512  1.00  0.00     0.103 C 
ATOM     17  O   UNL     1      -0.738  -0.881   0.336  1.00  0.00    -0.313 OA
BRANCH  16  18
ATOM     18  N   UNL     1       0.895  -0.077   1.805  1.00  0.00    -0.621 NA
BRANCH  18  19
ATOM     19  C   UNL     1       2.039  -0.136   0.941  1.00  0.00    -0.129 A 
ATOM     20  C   UNL     1       2.174  -1.140  -0.063  1.00  0.00    -0.011 A 
ATOM     21  C   UNL     1       3.078   0.798   1.140  1.00  0.00     0.042 A 
ATOM     22  C   UNL     1       3.317  -1.186  -0.885  1.00  0.00     0.057 A 
ATOM     23  C   UNL     1       4.187   0.719   0.305  1.00  0.00     0.194 A 
ATOM     24  C   UNL     1       4.300  -0.225  -0.667  1.00  0.00     0.197 A 
ATOM     25  N   UNL     1       5.301   1.470   0.290  1.00  0.00    -0.143 N 
ATOM     26  N   UNL     1       5.485  -0.038  -1.275  1.00  0.00    -0.133 N 
ATOM     27  N   UNL     1       6.080   0.990  -0.676  1.00  0.00     0.088 NA
ATOM     28  H   UNL     1       5.538   2.275   0.911  1.00  0.00     0.342 HD
ATOM     29  C   UNL     1       6.076  -0.834  -2.342  1.00  0.00     0.327 C 
ENDBRANCH  18  19
ENDBRANCH  16  18
ENDBRANCH   6  16
TORSDOF 7


