REMARK SMILES C=Cc1cc(-c2ccc(C(C)=O)c3[nH]ncc23)ccc1[O-]
REMARK SMILES IDX 6 1 7 2 8 3 9 4 13 5 14 6 15 7 16 8 17 9 5 11 3 12 4 13
REMARK SMILES IDX 20 14 19 15 18 16 21 17 2 18 1 19 10 20 11 21 12 22
REMARK H PARENT 14 10
ROOT
ATOM      1  C   UNL     1       1.128   0.753  -0.777  1.00  0.00    -0.007 A 
ATOM      2  C   UNL     1       0.265  -0.361  -0.717  1.00  0.00     0.010 A 
ATOM      3  C   UNL     1       0.545  -1.450   0.136  1.00  0.00     0.015 A 
ATOM      4  C   UNL     1       1.692  -1.454   0.965  1.00  0.00     0.043 A 
ATOM      5  C   UNL     1       2.530  -0.327   0.887  1.00  0.00     0.076 A 
ATOM      6  N   UNL     1       3.677  -0.074   1.547  1.00  0.00    -0.277 N 
ATOM      7  N   UNL     1       4.129   1.117   1.173  1.00  0.00    -0.183 NA
ATOM      8  C   UNL     1       3.275   1.634   0.262  1.00  0.00     0.144 A 
ATOM      9  C   UNL     1       2.256   0.726   0.052  1.00  0.00     0.028 A 
ATOM     10  H   UNL     1       4.168  -0.685   2.233  1.00  0.00     0.190 HD
ENDROOT
BRANCH   1  11
ATOM     11  C   UNL     1       0.837   1.885  -1.686  1.00  0.00    -0.017 A 
ATOM     12  C   UNL     1      -0.739   3.536  -2.573  1.00  0.00    -0.034 A 
ATOM     13  C   UNL     1      -0.443   2.466  -1.704  1.00  0.00     0.016 A 
ATOM     14  C   UNL     1       0.277   4.027  -3.416  1.00  0.00    -0.102 A 
ATOM     15  C   UNL     1       1.547   3.444  -3.405  1.00  0.00    -0.007 A 
ATOM     16  C   UNL     1       1.825   2.376  -2.552  1.00  0.00     0.008 A 
ATOM     17  O   UNL     1       0.031   5.090  -4.280  1.00  0.00    -0.872 OA
BRANCH  12  18
ATOM     18  C   UNL     1      -2.079   4.177  -2.594  1.00  0.00    -0.001 C 
ATOM     19  C   UNL     1      -3.199   3.567  -2.204  1.00  0.00     0.009 C 
ENDBRANCH  12  18
ENDBRANCH   1  11
BRANCH   4  20
ATOM     20  C   UNL     1       1.960  -2.591   1.883  1.00  0.00     0.161 C 
ATOM     21  C   UNL     1       1.414  -3.959   1.609  1.00  0.00     0.093 C 
ATOM     22  O   UNL     1       2.611  -2.407   2.946  1.00  0.00    -0.294 OA
ENDBRANCH   4  20
TORSDOF 3


