REMARK SMILES CC(=O)N1C[NH2+]C[C@H](F)[C@H]1c1cc2ccc(F)cc2[nH]1
REMARK SMILES IDX 4 1 5 2 6 3 7 4 8 5 9 6 10 7 2 10 1 11 3 12 11 13 12 14
REMARK SMILES IDX 20 15 13 16 19 17 14 18 18 19 15 20 16 21 17 23
REMARK H PARENT 6 8 6 9 20 22
ROOT
ATOM      1  N   UNL     1       2.016   0.501  -0.292  1.00  0.00    -0.284 N 
ATOM      2  C   UNL     1       3.326   0.913   0.239  1.00  0.00     0.391 C 
ATOM      3  N   UNL     1       3.239   1.257   1.663  1.00  0.00    -0.327 N 
ATOM      4  C   UNL     1       2.688   0.140   2.438  1.00  0.00     0.302 C 
ATOM      5  C   UNL     1       1.261  -0.164   1.986  1.00  0.00     0.250 C 
ATOM      6  F   UNL     1       0.772  -1.241   2.706  1.00  0.00    -0.238 F 
ATOM      7  C   UNL     1       1.219  -0.480   0.480  1.00  0.00     0.177 C 
ATOM      8  H   UNL     1       2.641   2.108   1.785  1.00  0.00     0.347 HD
ATOM      9  H   UNL     1       4.200   1.472   2.018  1.00  0.00     0.347 HD
ENDROOT
BRANCH   1  10
ATOM     10  C   UNL     1       1.814   0.684  -1.710  1.00  0.00     0.224 C 
ATOM     11  C   UNL     1       1.395  -0.446  -2.601  1.00  0.00     0.114 C 
ATOM     12  O   UNL     1       1.992   1.823  -2.220  1.00  0.00    -0.275 OA
ENDBRANCH   1  10
BRANCH   7  13
ATOM     13  C   UNL     1      -0.224  -0.497   0.038  1.00  0.00     0.042 A 
ATOM     14  C   UNL     1      -0.966  -1.647  -0.226  1.00  0.00     0.034 A 
ATOM     15  N   UNL     1      -0.982   0.616  -0.113  1.00  0.00    -0.356 N 
ATOM     16  C   UNL     1      -2.220  -1.189  -0.563  1.00  0.00    -0.000 A 
ATOM     17  C   UNL     1      -2.196   0.179  -0.485  1.00  0.00     0.049 A 
ATOM     18  C   UNL     1      -3.371  -1.885  -0.928  1.00  0.00     0.013 A 
ATOM     19  C   UNL     1      -3.323   0.949  -0.768  1.00  0.00     0.065 A 
ATOM     20  C   UNL     1      -4.525  -1.135  -1.221  1.00  0.00     0.040 A 
ATOM     21  C   UNL     1      -4.502   0.277  -1.141  1.00  0.00     0.125 A 
ATOM     22  H   UNL     1      -0.684   1.607   0.030  1.00  0.00     0.166 HD
ATOM     23  F   UNL     1      -5.621   0.986  -1.425  1.00  0.00    -0.207 F 
ENDBRANCH   7  13
TORSDOF 2


