REMARK SMILES CC(=O)c1ccc(-c2ccc3cc[nH]c3c2)cn1
REMARK SMILES IDX 4 1 5 2 6 3 7 4 17 5 18 6 2 7 1 8 3 9 8 10 9 11 16 12 10 13
REMARK SMILES IDX 15 14 11 15 14 16 12 17 13 18
REMARK H PARENT 14 19
ROOT
ATOM      1  C   UNL     1      -2.179  -2.428  -2.140  1.00  0.00     0.106 A 
ATOM      2  C   UNL     1      -0.783  -2.442  -2.279  1.00  0.00     0.033 A 
ATOM      3  C   UNL     1      -0.005  -1.586  -1.499  1.00  0.00     0.013 A 
ATOM      4  C   UNL     1      -0.613  -0.715  -0.580  1.00  0.00     0.000 A 
ATOM      5  C   UNL     1      -2.013  -0.735  -0.473  1.00  0.00     0.120 A 
ATOM      6  N   UNL     1      -2.750  -1.576  -1.245  1.00  0.00    -0.253 NA
ENDROOT
BRANCH   1   7
ATOM      7  C   UNL     1      -3.036  -3.321  -2.950  1.00  0.00     0.178 C 
ATOM      8  C   UNL     1      -4.525  -3.298  -2.793  1.00  0.00     0.095 C 
ATOM      9  O   UNL     1      -2.519  -4.114  -3.783  1.00  0.00    -0.293 OA
ENDBRANCH   1   7
BRANCH   4  10
ATOM     10  C   UNL     1       0.203   0.200   0.258  1.00  0.00    -0.015 A 
ATOM     11  C   UNL     1       1.338   0.858  -0.292  1.00  0.00     0.009 A 
ATOM     12  C   UNL     1      -0.141   0.427   1.612  1.00  0.00     0.035 A 
ATOM     13  C   UNL     1       2.118   1.727   0.492  1.00  0.00     0.011 A 
ATOM     14  C   UNL     1       0.654   1.294   2.359  1.00  0.00     0.046 A 
ATOM     15  C   UNL     1       1.743   1.919   1.818  1.00  0.00    -0.001 A 
ATOM     16  N   UNL     1       0.500   1.635   3.649  1.00  0.00    -0.361 N 
ATOM     17  C   UNL     1       2.308   2.696   2.807  1.00  0.00     0.028 A 
ATOM     18  C   UNL     1       1.509   2.493   3.927  1.00  0.00     0.083 A 
ATOM     19  H   UNL     1      -0.243   1.308   4.306  1.00  0.00     0.166 HD
ENDBRANCH   4  10
TORSDOF 2


