REMARK SMILES Cc1ccc([C@@H]2CC[C@@H]3CC=N[C@]3(C=O)C2)c(F)c1F
REMARK SMILES IDX 6 1 7 2 8 3 9 4 10 5 11 6 12 7 13 8 16 9 5 10 2 11 3 12
REMARK SMILES IDX 19 13 4 14 17 15 1 16 20 17 18 18 14 19 15 20
REMARK H PARENT
ROOT
ATOM      1  C   UNL     1      -0.073   0.549  -0.251  1.00  0.00     0.025 C 
ATOM      2  C   UNL     1      -0.576   1.528   0.850  1.00  0.00     0.009 C 
ATOM      3  C   UNL     1      -1.811   1.007   1.592  1.00  0.00     0.007 C 
ATOM      4  C   UNL     1      -2.964   0.738   0.603  1.00  0.00     0.029 C 
ATOM      5  C   UNL     1      -4.107  -0.052   1.262  1.00  0.00     0.054 C 
ATOM      6  C   UNL     1      -4.220  -1.257   0.407  1.00  0.00     0.079 C 
ATOM      7  N   UNL     1      -3.398  -1.281  -0.569  1.00  0.00    -0.283 NA
ATOM      8  C   UNL     1      -2.537  -0.127  -0.627  1.00  0.00     0.119 C 
ATOM      9  C   UNL     1      -1.064  -0.602  -0.550  1.00  0.00     0.047 C 
ENDROOT
BRANCH   1  10
ATOM     10  C   UNL     1       1.302  -0.016   0.076  1.00  0.00    -0.006 A 
ATOM     11  C   UNL     1       3.836  -1.103   0.683  1.00  0.00    -0.012 A 
ATOM     12  C   UNL     1       2.774  -1.235   1.588  1.00  0.00     0.007 A 
ATOM     13  C   UNL     1       3.621  -0.450  -0.541  1.00  0.00     0.162 A 
ATOM     14  C   UNL     1       1.521  -0.697   1.289  1.00  0.00     0.007 A 
ATOM     15  C   UNL     1       2.365   0.091  -0.843  1.00  0.00     0.162 A 
ATOM     16  C   UNL     1       5.176  -1.707   0.993  1.00  0.00     0.047 C 
ATOM     17  F   UNL     1       4.628  -0.340  -1.445  1.00  0.00    -0.203 F 
ATOM     18  F   UNL     1       2.191   0.711  -2.038  1.00  0.00    -0.203 F 
ENDBRANCH   1  10
BRANCH   8  19
ATOM     19  C   UNL     1      -2.797   0.598  -1.931  1.00  0.00     0.254 C 
ATOM     20  O   UNL     1      -2.313   1.699  -2.146  1.00  0.00    -0.301 OA
ENDBRANCH   8  19
TORSDOF 2


