MODEL 1
REMARK VINA RESULT:      -8.2      0.000      0.000
REMARK SMILES O=C=Nc1c(/C(O)=N/Cc2ccc[nH]2)ccc2cc[nH]c12
REMARK SMILES IDX 6 1 7 2 8 4 9 5 10 6 11 7 14 8 12 9 13 10 5 12 15 13 4 14
REMARK SMILES IDX 16 15 21 16 17 17 20 18 18 19 19 20 3 22 2 23 1 24
REMARK H PARENT 7 3 14 11 20 21
ROOT
ATOM      1  C   UNL     1      44.350 131.644  17.570  1.00  0.00     0.216 C 
ENDROOT
BRANCH   1   2
ATOM      2  O   UNL     1      43.131 132.045  17.020  1.00  0.00    -0.493 OA
ATOM      3  H   UNL     1      43.064 132.832  16.386  1.00  0.00     0.295 HD
ENDBRANCH   1   2
BRANCH   1   4
ATOM      4  N   UNL     1      45.409 131.576  16.820  1.00  0.00    -0.245 NA
BRANCH   4   5
ATOM      5  C   UNL     1      45.433 131.992  15.424  1.00  0.00     0.199 C 
BRANCH   5   6
ATOM      6  C   UNL     1      46.381 131.120  14.665  1.00  0.00     0.037 A 
ATOM      7  C   UNL     1      46.609 129.781  14.911  1.00  0.00     0.025 A 
ATOM      8  N   UNL     1      47.204 131.566  13.699  1.00  0.00    -0.363 N 
ATOM      9  C   UNL     1      47.606 129.394  14.036  1.00  0.00     0.020 A 
ATOM     10  C   UNL     1      47.948 130.516  13.306  1.00  0.00     0.082 A 
ATOM     11  H   UNL     1      47.265 132.541  13.328  1.00  0.00     0.166 HD
ENDBRANCH   5   6
ENDBRANCH   4   5
ENDBRANCH   1   4
BRANCH   1  12
ATOM     12  C   UNL     1      44.448 131.270  18.999  1.00  0.00     0.065 A 
ATOM     13  C   UNL     1      45.605 130.583  19.448  1.00  0.00     0.017 A 
ATOM     14  C   UNL     1      43.421 131.614  19.923  1.00  0.00     0.113 A 
ATOM     15  C   UNL     1      45.741 130.197  20.788  1.00  0.00     0.011 A 
ATOM     16  C   UNL     1      43.582 131.182  21.261  1.00  0.00     0.073 A 
ATOM     17  C   UNL     1      44.707 130.505  21.662  1.00  0.00     0.002 A 
ATOM     18  N   UNL     1      42.725 131.296  22.296  1.00  0.00    -0.359 N 
ATOM     19  C   UNL     1      44.567 130.200  22.997  1.00  0.00     0.028 A 
ATOM     20  C   UNL     1      43.325 130.705  23.354  1.00  0.00     0.083 A 
ATOM     21  H   UNL     1      41.768 131.707  22.308  1.00  0.00     0.166 HD
BRANCH  14  22
ATOM     22  N   UNL     1      42.310 132.413  19.476  1.00  0.00    -0.165 NA
BRANCH  22  23
ATOM     23  C   UNL     1      41.526 133.065  20.235  1.00  0.00     0.240 C 
ATOM     24  O   UNL     1      40.767 133.706  20.975  1.00  0.00    -0.211 OA
ENDBRANCH  22  23
ENDBRANCH  14  22
ENDBRANCH   1  12
TORSDOF 7
ENDMDL
MODEL 2
REMARK VINA RESULT:      -7.8      1.055      1.188
REMARK SMILES O=C=Nc1c(/C(O)=N/Cc2ccc[nH]2)ccc2cc[nH]c12
REMARK SMILES IDX 6 1 7 2 8 4 9 5 10 6 11 7 14 8 12 9 13 10 5 12 15 13 4 14
REMARK SMILES IDX 16 15 21 16 17 17 20 18 18 19 19 20 3 22 2 23 1 24
REMARK H PARENT 7 3 14 11 20 21
ROOT
ATOM      1  C   UNL     1      45.147 131.066  17.492  1.00  0.00     0.216 C 
ENDROOT
BRANCH   1   2
ATOM      2  O   UNL     1      44.767 132.268  16.891  1.00  0.00    -0.493 OA
ATOM      3  H   UNL     1      45.359 132.739  16.218  1.00  0.00     0.295 HD
ENDBRANCH   1   2
BRANCH   1   4
ATOM      4  N   UNL     1      45.616 130.096  16.765  1.00  0.00    -0.245 NA
BRANCH   4   5
ATOM      5  C   UNL     1      45.238 129.880  15.375  1.00  0.00     0.199 C 
BRANCH   5   6
ATOM      6  C   UNL     1      46.433 130.090  14.501  1.00  0.00     0.037 A 
ATOM      7  C   UNL     1      46.590 131.116  13.592  1.00  0.00     0.025 A 
ATOM      8  N   UNL     1      47.473 129.239  14.432  1.00  0.00    -0.363 N 
ATOM      9  C   UNL     1      47.793 130.884  12.954  1.00  0.00     0.020 A 
ATOM     10  C   UNL     1      48.309 129.722  13.495  1.00  0.00     0.082 A 
ATOM     11  H   UNL     1      47.605 128.364  14.988  1.00  0.00     0.166 HD
ENDBRANCH   5   6
ENDBRANCH   4   5
ENDBRANCH   1   4
BRANCH   1  12
ATOM     12  C   UNL     1      44.999 130.872  18.953  1.00  0.00     0.065 A 
ATOM     13  C   UNL     1      46.024 130.193  19.658  1.00  0.00     0.017 A 
ATOM     14  C   UNL     1      43.868 131.380  19.653  1.00  0.00     0.113 A 
ATOM     15  C   UNL     1      45.927 129.974  21.039  1.00  0.00     0.011 A 
ATOM     16  C   UNL     1      43.792 131.114  21.040  1.00  0.00     0.073 A 
ATOM     17  C   UNL     1      44.795 130.440  21.693  1.00  0.00     0.002 A 
ATOM     18  N   UNL     1      42.797 131.400  21.905  1.00  0.00    -0.359 N 
ATOM     19  C   UNL     1      44.432 130.315  23.016  1.00  0.00     0.028 A 
ATOM     20  C   UNL     1      43.187 130.919  23.107  1.00  0.00     0.083 A 
ATOM     21  H   UNL     1      41.879 131.854  21.714  1.00  0.00     0.166 HD
BRANCH  14  22
ATOM     22  N   UNL     1      42.895 132.168  18.943  1.00  0.00    -0.165 NA
BRANCH  22  23
ATOM     23  C   UNL     1      41.945 132.818  19.483  1.00  0.00     0.240 C 
ATOM     24  O   UNL     1      41.019 133.454  20.003  1.00  0.00    -0.211 OA
ENDBRANCH  22  23
ENDBRANCH  14  22
ENDBRANCH   1  12
TORSDOF 7
ENDMDL
MODEL 3
REMARK VINA RESULT:      -7.4      2.358      3.135
REMARK SMILES O=C=Nc1c(/C(O)=N/Cc2ccc[nH]2)ccc2cc[nH]c12
REMARK SMILES IDX 6 1 7 2 8 4 9 5 10 6 11 7 14 8 12 9 13 10 5 12 15 13 4 14
REMARK SMILES IDX 16 15 21 16 17 17 20 18 18 19 19 20 3 22 2 23 1 24
REMARK H PARENT 7 3 14 11 20 21
ROOT
ATOM      1  C   UNL     1      45.298 130.736  17.471  1.00  0.00     0.216 C 
ENDROOT
BRANCH   1   2
ATOM      2  O   UNL     1      46.655 130.528  17.730  1.00  0.00    -0.493 OA
ATOM      3  H   UNL     1      47.070 129.606  17.695  1.00  0.00     0.295 HD
ENDBRANCH   1   2
BRANCH   1   4
ATOM      4  N   UNL     1      44.830 130.549  16.274  1.00  0.00    -0.245 NA
BRANCH   4   5
ATOM      5  C   UNL     1      45.218 129.428  15.426  1.00  0.00     0.199 C 
BRANCH   5   6
ATOM      6  C   UNL     1      46.370 129.837  14.565  1.00  0.00     0.037 A 
ATOM      7  C   UNL     1      46.430 130.984  13.800  1.00  0.00     0.025 A 
ATOM      8  N   UNL     1      47.462 129.078  14.361  1.00  0.00    -0.363 N 
ATOM      9  C   UNL     1      47.628 130.924  13.113  1.00  0.00     0.020 A 
ATOM     10  C   UNL     1      48.236 129.740  13.481  1.00  0.00     0.082 A 
ATOM     11  H   UNL     1      47.669 128.148  14.791  1.00  0.00     0.166 HD
ENDBRANCH   5   6
ENDBRANCH   4   5
ENDBRANCH   1   4
BRANCH   1  12
ATOM     12  C   UNL     1      44.386 131.192  18.544  1.00  0.00     0.065 A 
ATOM     13  C   UNL     1      43.200 131.882  18.184  1.00  0.00     0.017 A 
ATOM     14  C   UNL     1      44.665 130.923  19.913  1.00  0.00     0.113 A 
ATOM     15  C   UNL     1      42.309 132.344  19.162  1.00  0.00     0.011 A 
ATOM     16  C   UNL     1      43.757 131.431  20.872  1.00  0.00     0.073 A 
ATOM     17  C   UNL     1      42.625 132.109  20.493  1.00  0.00     0.002 A 
ATOM     18  N   UNL     1      43.837 131.394  22.218  1.00  0.00    -0.359 N 
ATOM     19  C   UNL     1      41.957 132.495  21.635  1.00  0.00     0.028 A 
ATOM     20  C   UNL     1      42.742 132.036  22.683  1.00  0.00     0.083 A 
ATOM     21  H   UNL     1      44.597 131.004  22.815  1.00  0.00     0.166 HD
BRANCH  14  22
ATOM     22  N   UNL     1      45.811 130.120  20.255  1.00  0.00    -0.165 NA
BRANCH  22  23
ATOM     23  C   UNL     1      45.788 129.095  21.005  1.00  0.00     0.240 C 
ATOM     24  O   UNL     1      45.763 128.100  21.742  1.00  0.00    -0.211 OA
ENDBRANCH  22  23
ENDBRANCH  14  22
ENDBRANCH   1  12
TORSDOF 7
ENDMDL
MODEL 4
REMARK VINA RESULT:      -7.2      1.659      2.194
REMARK SMILES O=C=Nc1c(/C(O)=N/Cc2ccc[nH]2)ccc2cc[nH]c12
REMARK SMILES IDX 6 1 7 2 8 4 9 5 10 6 11 7 14 8 12 9 13 10 5 12 15 13 4 14
REMARK SMILES IDX 16 15 21 16 17 17 20 18 18 19 19 20 3 22 2 23 1 24
REMARK H PARENT 7 3 14 11 20 21
ROOT
ATOM      1  C   UNL     1      45.063 131.451  19.881  1.00  0.00     0.216 C 
ENDROOT
BRANCH   1   2
ATOM      2  O   UNL     1      45.577 132.733  20.091  1.00  0.00    -0.493 OA
ATOM      3  H   UNL     1      45.474 133.469  19.404  1.00  0.00     0.295 HD
ENDBRANCH   1   2
BRANCH   1   4
ATOM      4  N   UNL     1      44.994 130.969  18.676  1.00  0.00    -0.245 NA
BRANCH   4   5
ATOM      5  C   UNL     1      44.669 131.775  17.506  1.00  0.00     0.199 C 
BRANCH   5   6
ATOM      6  C   UNL     1      45.525 131.344  16.358  1.00  0.00     0.037 A 
ATOM      7  C   UNL     1      46.232 130.162  16.286  1.00  0.00     0.025 A 
ATOM      8  N   UNL     1      45.782 132.112  15.284  1.00  0.00    -0.363 N 
ATOM      9  C   UNL     1      46.938 130.209  15.099  1.00  0.00     0.020 A 
ATOM     10  C   UNL     1      46.639 131.421  14.509  1.00  0.00     0.082 A 
ATOM     11  H   UNL     1      45.403 133.066  15.089  1.00  0.00     0.166 HD
ENDBRANCH   5   6
ENDBRANCH   4   5
ENDBRANCH   1   4
BRANCH   1  12
ATOM     12  C   UNL     1      44.570 130.639  21.017  1.00  0.00     0.065 A 
ATOM     13  C   UNL     1      45.324 129.511  21.427  1.00  0.00     0.017 A 
ATOM     14  C   UNL     1      43.380 130.991  21.713  1.00  0.00     0.113 A 
ATOM     15  C   UNL     1      44.896 128.704  22.489  1.00  0.00     0.011 A 
ATOM     16  C   UNL     1      42.965 130.136  22.761  1.00  0.00     0.073 A 
ATOM     17  C   UNL     1      43.709 129.041  23.125  1.00  0.00     0.002 A 
ATOM     18  N   UNL     1      41.842 130.192  23.506  1.00  0.00    -0.359 N 
ATOM     19  C   UNL     1      43.047 128.397  24.147  1.00  0.00     0.028 A 
ATOM     20  C   UNL     1      41.893 129.139  24.353  1.00  0.00     0.083 A 
ATOM     21  H   UNL     1      41.050 130.865  23.441  1.00  0.00     0.166 HD
BRANCH  14  22
ATOM     22  N   UNL     1      42.689 132.205  21.360  1.00  0.00    -0.165 NA
BRANCH  22  23
ATOM     23  C   UNL     1      42.122 132.425  20.245  1.00  0.00     0.240 C 
ATOM     24  O   UNL     1      41.575 132.641  19.155  1.00  0.00    -0.211 OA
ENDBRANCH  22  23
ENDBRANCH  14  22
ENDBRANCH   1  12
TORSDOF 7
ENDMDL
MODEL 5
REMARK VINA RESULT:      -7.2      2.263      3.125
REMARK SMILES O=C=Nc1c(/C(O)=N/Cc2ccc[nH]2)ccc2cc[nH]c12
REMARK SMILES IDX 6 1 7 2 8 4 9 5 10 6 11 7 14 8 12 9 13 10 5 12 15 13 4 14
REMARK SMILES IDX 16 15 21 16 17 17 20 18 18 19 19 20 3 22 2 23 1 24
REMARK H PARENT 7 3 14 11 20 21
ROOT
ATOM      1  C   UNL     1      45.163 131.040  18.265  1.00  0.00     0.216 C 
ENDROOT
BRANCH   1   2
ATOM      2  O   UNL     1      46.255 130.170  18.278  1.00  0.00    -0.493 OA
ATOM      3  H   UNL     1      46.377 129.455  17.571  1.00  0.00     0.295 HD
ENDBRANCH   1   2
BRANCH   1   4
ATOM      4  N   UNL     1      44.828 131.645  17.165  1.00  0.00    -0.245 NA
BRANCH   4   5
ATOM      5  C   UNL     1      44.457 130.942  15.944  1.00  0.00     0.199 C 
BRANCH   5   6
ATOM      6  C   UNL     1      45.691 130.635  15.157  1.00  0.00     0.037 A 
ATOM      7  C   UNL     1      46.325 131.503  14.291  1.00  0.00     0.025 A 
ATOM      8  N   UNL     1      46.286 129.429  15.132  1.00  0.00    -0.363 N 
ATOM      9  C   UNL     1      47.367 130.790  13.728  1.00  0.00     0.020 A 
ATOM     10  C   UNL     1      47.313 129.519  14.267  1.00  0.00     0.082 A 
ATOM     11  H   UNL     1      46.002 128.578  15.669  1.00  0.00     0.166 HD
ENDBRANCH   5   6
ENDBRANCH   4   5
ENDBRANCH   1   4
BRANCH   1  12
ATOM     12  C   UNL     1      44.392 131.303  19.502  1.00  0.00     0.065 A 
ATOM     13  C   UNL     1      43.253 132.144  19.430  1.00  0.00     0.017 A 
ATOM     14  C   UNL     1      44.759 130.706  20.740  1.00  0.00     0.113 A 
ATOM     15  C   UNL     1      42.496 132.433  20.573  1.00  0.00     0.011 A 
ATOM     16  C   UNL     1      43.987 131.044  21.877  1.00  0.00     0.073 A 
ATOM     17  C   UNL     1      42.898 131.874  21.778  1.00  0.00     0.002 A 
ATOM     18  N   UNL     1      44.177 130.692  23.165  1.00  0.00    -0.359 N 
ATOM     19  C   UNL     1      42.369 132.034  23.040  1.00  0.00     0.028 A 
ATOM     20  C   UNL     1      43.192 131.289  23.872  1.00  0.00     0.083 A 
ATOM     21  H   UNL     1      44.943 130.119  23.578  1.00  0.00     0.166 HD
BRANCH  14  22
ATOM     22  N   UNL     1      45.847 129.763  20.773  1.00  0.00    -0.165 NA
BRANCH  22  23
ATOM     23  C   UNL     1      45.795 128.605  21.295  1.00  0.00     0.240 C 
ATOM     24  O   UNL     1      45.750 127.475  21.800  1.00  0.00    -0.211 OA
ENDBRANCH  22  23
ENDBRANCH  14  22
ENDBRANCH   1  12
TORSDOF 7
ENDMDL
MODEL 6
REMARK VINA RESULT:      -7.2      2.131      3.044
REMARK SMILES O=C=Nc1c(/C(O)=N/Cc2ccc[nH]2)ccc2cc[nH]c12
REMARK SMILES IDX 6 1 7 2 8 4 9 5 10 6 11 7 14 8 12 9 13 10 5 12 15 13 4 14
REMARK SMILES IDX 16 15 21 16 17 17 20 18 18 19 19 20 3 22 2 23 1 24
REMARK H PARENT 7 3 14 11 20 21
ROOT
ATOM      1  C   UNL     1      45.173 131.321  17.023  1.00  0.00     0.216 C 
ENDROOT
BRANCH   1   2
ATOM      2  O   UNL     1      45.705 132.353  16.247  1.00  0.00    -0.493 OA
ATOM      3  H   UNL     1      46.694 132.570  16.251  1.00  0.00     0.295 HD
ENDBRANCH   1   2
BRANCH   1   4
ATOM      4  N   UNL     1      45.501 130.089  16.777  1.00  0.00    -0.245 NA
BRANCH   4   5
ATOM      5  C   UNL     1      45.248 129.429  15.502  1.00  0.00     0.199 C 
BRANCH   5   6
ATOM      6  C   UNL     1      46.305 129.827  14.523  1.00  0.00     0.037 A 
ATOM      7  C   UNL     1      47.541 129.226  14.390  1.00  0.00     0.025 A 
ATOM      8  N   UNL     1      46.211 130.891  13.705  1.00  0.00    -0.363 N 
ATOM      9  C   UNL     1      48.220 129.952  13.431  1.00  0.00     0.020 A 
ATOM     10  C   UNL     1      47.373 130.968  13.031  1.00  0.00     0.082 A 
ATOM     11  H   UNL     1      45.399 131.542  13.615  1.00  0.00     0.166 HD
ENDBRANCH   5   6
ENDBRANCH   4   5
ENDBRANCH   1   4
BRANCH   1  12
ATOM     12  C   UNL     1      44.215 131.613  18.114  1.00  0.00     0.065 A 
ATOM     13  C   UNL     1      42.931 132.114  17.780  1.00  0.00     0.017 A 
ATOM     14  C   UNL     1      44.552 131.371  19.475  1.00  0.00     0.113 A 
ATOM     15  C   UNL     1      41.993 132.416  18.775  1.00  0.00     0.011 A 
ATOM     16  C   UNL     1      43.590 131.716  20.453  1.00  0.00     0.073 A 
ATOM     17  C   UNL     1      42.360 132.214  20.098  1.00  0.00     0.002 A 
ATOM     18  N   UNL     1      43.694 131.674  21.797  1.00  0.00    -0.359 N 
ATOM     19  C   UNL     1      41.657 132.474  21.254  1.00  0.00     0.028 A 
ATOM     20  C   UNL     1      42.518 132.129  22.285  1.00  0.00     0.083 A 
ATOM     21  H   UNL     1      44.513 131.398  22.378  1.00  0.00     0.166 HD
BRANCH  14  22
ATOM     22  N   UNL     1      45.814 130.753  19.790  1.00  0.00    -0.165 NA
BRANCH  22  23
ATOM     23  C   UNL     1      45.961 129.711  20.503  1.00  0.00     0.240 C 
ATOM     24  O   UNL     1      46.098 128.698  21.201  1.00  0.00    -0.211 OA
ENDBRANCH  22  23
ENDBRANCH  14  22
ENDBRANCH   1  12
TORSDOF 7
ENDMDL
MODEL 7
REMARK VINA RESULT:      -6.6      2.004      2.428
REMARK SMILES O=C=Nc1c(/C(O)=N/Cc2ccc[nH]2)ccc2cc[nH]c12
REMARK SMILES IDX 6 1 7 2 8 4 9 5 10 6 11 7 14 8 12 9 13 10 5 12 15 13 4 14
REMARK SMILES IDX 16 15 21 16 17 17 20 18 18 19 19 20 3 22 2 23 1 24
REMARK H PARENT 7 3 14 11 20 21
ROOT
ATOM      1  C   UNL     1      45.823 130.680  17.168  1.00  0.00     0.216 C 
ENDROOT
BRANCH   1   2
ATOM      2  O   UNL     1      46.315 131.698  16.349  1.00  0.00    -0.493 OA
ATOM      3  H   UNL     1      46.086 131.749  15.363  1.00  0.00     0.295 HD
ENDBRANCH   1   2
BRANCH   1   4
ATOM      4  N   UNL     1      45.780 129.458  16.730  1.00  0.00    -0.245 NA
BRANCH   4   5
ATOM      5  C   UNL     1      45.402 129.106  15.367  1.00  0.00     0.199 C 
BRANCH   5   6
ATOM      6  C   UNL     1      46.406 129.674  14.415  1.00  0.00     0.037 A 
ATOM      7  C   UNL     1      47.690 129.202  14.229  1.00  0.00     0.025 A 
ATOM      8  N   UNL     1      46.204 130.785  13.684  1.00  0.00    -0.363 N 
ATOM      9  C   UNL     1      48.287 130.059  13.326  1.00  0.00     0.020 A 
ATOM     10  C   UNL     1      47.346 131.021  13.011  1.00  0.00     0.082 A 
ATOM     11  H   UNL     1      45.335 131.363  13.649  1.00  0.00     0.166 HD
ENDBRANCH   5   6
ENDBRANCH   4   5
ENDBRANCH   1   4
BRANCH   1  12
ATOM     12  C   UNL     1      45.324 130.981  18.529  1.00  0.00     0.065 A 
ATOM     13  C   UNL     1      46.223 130.883  19.622  1.00  0.00     0.017 A 
ATOM     14  C   UNL     1      43.980 131.392  18.748  1.00  0.00     0.113 A 
ATOM     15  C   UNL     1      45.798 131.146  20.931  1.00  0.00     0.011 A 
ATOM     16  C   UNL     1      43.581 131.621  20.086  1.00  0.00     0.073 A 
ATOM     17  C   UNL     1      44.471 131.502  21.126  1.00  0.00     0.002 A 
ATOM     18  N   UNL     1      42.358 131.925  20.566  1.00  0.00    -0.359 N 
ATOM     19  C   UNL     1      43.794 131.761  22.297  1.00  0.00     0.028 A 
ATOM     20  C   UNL     1      42.487 132.016  21.909  1.00  0.00     0.083 A 
ATOM     21  H   UNL     1      41.461 132.029  20.046  1.00  0.00     0.166 HD
BRANCH  14  22
ATOM     22  N   UNL     1      43.113 131.600  17.617  1.00  0.00    -0.165 NA
BRANCH  22  23
ATOM     23  C   UNL     1      43.504 131.790  16.422  1.00  0.00     0.240 C 
ATOM     24  O   UNL     1      43.886 131.968  15.258  1.00  0.00    -0.211 OA
ENDBRANCH  22  23
ENDBRANCH  14  22
ENDBRANCH   1  12
TORSDOF 7
ENDMDL
MODEL 8
REMARK VINA RESULT:      -6.6      2.143      2.983
REMARK SMILES O=C=Nc1c(/C(O)=N/Cc2ccc[nH]2)ccc2cc[nH]c12
REMARK SMILES IDX 6 1 7 2 8 4 9 5 10 6 11 7 14 8 12 9 13 10 5 12 15 13 4 14
REMARK SMILES IDX 16 15 21 16 17 17 20 18 18 19 19 20 3 22 2 23 1 24
REMARK H PARENT 7 3 14 11 20 21
ROOT
ATOM      1  C   UNL     1      44.893 131.540  17.114  1.00  0.00     0.216 C 
ENDROOT
BRANCH   1   2
ATOM      2  O   UNL     1      45.517 132.639  16.519  1.00  0.00    -0.493 OA
ATOM      3  H   UNL     1      44.995 133.330  15.994  1.00  0.00     0.295 HD
ENDBRANCH   1   2
BRANCH   1   4
ATOM      4  N   UNL     1      45.046 130.354  16.606  1.00  0.00    -0.245 NA
BRANCH   4   5
ATOM      5  C   UNL     1      44.845 130.053  15.194  1.00  0.00     0.199 C 
BRANCH   5   6
ATOM      6  C   UNL     1      46.156 130.138  14.481  1.00  0.00     0.037 A 
ATOM      7  C   UNL     1      46.481 131.063  13.509  1.00  0.00     0.025 A 
ATOM      8  N   UNL     1      47.158 129.254  14.641  1.00  0.00    -0.363 N 
ATOM      9  C   UNL     1      47.749 130.731  13.072  1.00  0.00     0.020 A 
ATOM     10  C   UNL     1      48.135 129.615  13.789  1.00  0.00     0.082 A 
ATOM     11  H   UNL     1      47.174 128.436  15.291  1.00  0.00     0.166 HD
ENDBRANCH   5   6
ENDBRANCH   4   5
ENDBRANCH   1   4
BRANCH   1  12
ATOM     12  C   UNL     1      44.036 131.713  18.309  1.00  0.00     0.065 A 
ATOM     13  C   UNL     1      42.674 132.063  18.127  1.00  0.00     0.017 A 
ATOM     14  C   UNL     1      44.549 131.506  19.620  1.00  0.00     0.113 A 
ATOM     15  C   UNL     1      41.824 132.249  19.225  1.00  0.00     0.011 A 
ATOM     16  C   UNL     1      43.668 131.732  20.704  1.00  0.00     0.073 A 
ATOM     17  C   UNL     1      42.357 132.085  20.496  1.00  0.00     0.002 A 
ATOM     18  N   UNL     1      43.926 131.695  22.027  1.00  0.00    -0.359 N 
ATOM     19  C   UNL     1      41.762 132.255  21.726  1.00  0.00     0.028 A 
ATOM     20  C   UNL     1      42.767 132.008  22.650  1.00  0.00     0.083 A 
ATOM     21  H   UNL     1      44.831 131.514  22.510  1.00  0.00     0.166 HD
BRANCH  14  22
ATOM     22  N   UNL     1      45.901 131.038  19.782  1.00  0.00    -0.165 NA
BRANCH  22  23
ATOM     23  C   UNL     1      46.805 131.630  20.451  1.00  0.00     0.240 C 
ATOM     24  O   UNL     1      47.684 132.213  21.099  1.00  0.00    -0.211 OA
ENDBRANCH  22  23
ENDBRANCH  14  22
ENDBRANCH   1  12
TORSDOF 7
ENDMDL
MODEL 9
REMARK VINA RESULT:      -6.5      2.170      3.160
REMARK SMILES O=C=Nc1c(/C(O)=N/Cc2ccc[nH]2)ccc2cc[nH]c12
REMARK SMILES IDX 6 1 7 2 8 4 9 5 10 6 11 7 14 8 12 9 13 10 5 12 15 13 4 14
REMARK SMILES IDX 16 15 21 16 17 17 20 18 18 19 19 20 3 22 2 23 1 24
REMARK H PARENT 7 3 14 11 20 21
ROOT
ATOM      1  C   UNL     1      44.453 131.792  16.727  1.00  0.00     0.216 C 
ENDROOT
BRANCH   1   2
ATOM      2  O   UNL     1      45.487 132.667  16.388  1.00  0.00    -0.493 OA
ATOM      3  H   UNL     1      45.375 133.374  15.672  1.00  0.00     0.295 HD
ENDBRANCH   1   2
BRANCH   1   4
ATOM      4  N   UNL     1      44.028 130.923  15.860  1.00  0.00    -0.245 NA
BRANCH   4   5
ATOM      5  C   UNL     1      44.319 131.002  14.434  1.00  0.00     0.199 C 
BRANCH   5   6
ATOM      6  C   UNL     1      45.716 130.527  14.190  1.00  0.00     0.037 A 
ATOM      7  C   UNL     1      46.666 131.188  13.438  1.00  0.00     0.025 A 
ATOM      8  N   UNL     1      46.189 129.338  14.605  1.00  0.00    -0.363 N 
ATOM      9  C   UNL     1      47.776 130.365  13.413  1.00  0.00     0.020 A 
ATOM     10  C   UNL     1      47.448 129.237  14.140  1.00  0.00     0.082 A 
ATOM     11  H   UNL     1      45.678 128.623  15.169  1.00  0.00     0.166 HD
ENDBRANCH   5   6
ENDBRANCH   4   5
ENDBRANCH   1   4
BRANCH   1  12
ATOM     12  C   UNL     1      43.816 131.857  18.062  1.00  0.00     0.065 A 
ATOM     13  C   UNL     1      42.470 132.294  18.155  1.00  0.00     0.017 A 
ATOM     14  C   UNL     1      44.519 131.462  19.235  1.00  0.00     0.113 A 
ATOM     15  C   UNL     1      41.825 132.384  19.396  1.00  0.00     0.011 A 
ATOM     16  C   UNL     1      43.844 131.594  20.471  1.00  0.00     0.073 A 
ATOM     17  C   UNL     1      42.545 132.036  20.530  1.00  0.00     0.002 A 
ATOM     18  N   UNL     1      44.310 131.380  21.718  1.00  0.00    -0.359 N 
ATOM     19  C   UNL     1      42.171 132.081  21.855  1.00  0.00     0.028 A 
ATOM     20  C   UNL     1      43.293 131.670  22.560  1.00  0.00     0.083 A 
ATOM     21  H   UNL     1      45.267 131.095  22.016  1.00  0.00     0.166 HD
BRANCH  14  22
ATOM     22  N   UNL     1      45.843 130.910  19.110  1.00  0.00    -0.165 NA
BRANCH  22  23
ATOM     23  C   UNL     1      46.216 130.102  18.203  1.00  0.00     0.240 C 
ATOM     24  O   UNL     1      46.585 129.319  17.317  1.00  0.00    -0.211 OA
ENDBRANCH  22  23
ENDBRANCH  14  22
ENDBRANCH   1  12
TORSDOF 7
ENDMDL


