REMARK SMILES C#Cc1cncc(Nc2cc(C)cc(-n3nc4cc(F)ccc4[nH+]3)c2O)c1
REMARK SMILES IDX 8 1 7 3 3 4 4 5 27 6 5 7 6 8 2 9 1 10 9 11 10 12 25 13 11 14
REMARK SMILES IDX 14 15 13 16 12 17 26 18 15 20 16 21 24 22 17 23 23 24 18 25
REMARK SMILES IDX 22 26 19 27 21 28 20 30
REMARK H PARENT 8 2 26 19 24 29
ROOT
ATOM      1  N   UNL     1       0.486  -0.705   2.614  1.00  0.00    -0.351 N 
ATOM      2  H   UNL     1       1.499  -0.658   2.867  1.00  0.00     0.167 HD
ENDROOT
BRANCH   1   3
ATOM      3  C   UNL     1      -0.482  -0.334   3.612  1.00  0.00     0.058 A 
ATOM      4  C   UNL     1      -2.702   0.407   4.262  1.00  0.00     0.045 A 
ATOM      5  C   UNL     1      -2.286   0.414   5.597  1.00  0.00     0.128 A 
ATOM      6  C   UNL     1      -1.793   0.037   3.266  1.00  0.00     0.046 A 
ATOM      7  N   UNL     1      -1.010   0.070   5.913  1.00  0.00    -0.261 NA
ATOM      8  C   UNL     1      -0.109  -0.294   4.962  1.00  0.00     0.137 A 
BRANCH   4   9
ATOM      9  C   UNL     1      -4.048   0.783   3.917  1.00  0.00    -0.069 C 
ATOM     10  C   UNL     1      -5.175   1.097   3.627  1.00  0.00     0.010 C 
ENDBRANCH   4   9
ENDBRANCH   1   3
BRANCH   1  11
ATOM     11  C   UNL     1       0.141  -1.215   1.316  1.00  0.00     0.084 A 
ATOM     12  C   UNL     1      -0.830  -2.222   1.200  1.00  0.00     0.033 A 
ATOM     13  C   UNL     1       0.823  -0.770   0.162  1.00  0.00     0.171 A 
ATOM     14  C   UNL     1      -1.145  -2.772  -0.047  1.00  0.00    -0.046 A 
ATOM     15  C   UNL     1       0.509  -1.324  -1.097  1.00  0.00     0.172 A 
ATOM     16  C   UNL     1      -0.459  -2.336  -1.186  1.00  0.00     0.042 A 
ATOM     17  C   UNL     1      -2.155  -3.877  -0.151  1.00  0.00     0.044 C 
BRANCH  13  18
ATOM     18  O   UNL     1       1.818   0.207   0.251  1.00  0.00    -0.504 OA
ATOM     19  H   UNL     1       2.050   0.683   1.113  1.00  0.00     0.293 HD
ENDBRANCH  13  18
BRANCH  15  20
ATOM     20  N   UNL     1       1.178  -0.883  -2.291  1.00  0.00    -0.009 N 
ATOM     21  N   UNL     1       1.511  -1.706  -3.287  1.00  0.00     0.054 NA
ATOM     22  N   UNL     1       1.485   0.384  -2.564  1.00  0.00    -0.161 N 
ATOM     23  C   UNL     1       2.067  -0.914  -4.221  1.00  0.00     0.252 A 
ATOM     24  C   UNL     1       2.050   0.373  -3.778  1.00  0.00     0.198 A 
ATOM     25  C   UNL     1       2.579  -1.259  -5.468  1.00  0.00     0.103 A 
ATOM     26  C   UNL     1       2.535   1.432  -4.539  1.00  0.00     0.061 A 
ATOM     27  C   UNL     1       3.089  -0.217  -6.270  1.00  0.00     0.128 A 
ATOM     28  C   UNL     1       3.066   1.122  -5.807  1.00  0.00     0.044 A 
ATOM     29  H   UNL     1       1.275   1.217  -1.970  1.00  0.00     0.340 HD
ATOM     30  F   UNL     1       3.600  -0.499  -7.493  1.00  0.00    -0.207 F 
ENDBRANCH  15  20
ENDBRANCH   1  11
TORSDOF 5


