MODEL 1
REMARK VINA RESULT:      -6.2      0.000      0.000
REMARK SMILES CC[C@](C)(N)/C=C(/O)n1nc2cc(-c3c[nH+]c(F)cc3C)ccc2c1C
REMARK SMILES IDX 7 1 8 2 6 4 3 5 4 6 5 7 2 10 1 11 9 12 10 13 25 14 11 15
REMARK SMILES IDX 24 16 12 17 23 18 13 19 22 20 26 21 14 22 20 23 15 24 19 25
REMARK SMILES IDX 16 26 17 27 21 28 18 30
REMARK H PARENT 8 3 5 8 5 9 16 29
ROOT
ATOM      1  C   UNL     1      43.091 131.560  21.590  1.00  0.00     0.209 C 
ENDROOT
BRANCH   1   2
ATOM      2  O   UNL     1      42.276 132.608  22.020  1.00  0.00    -0.493 OA
ATOM      3  H   UNL     1      42.198 133.479  21.508  1.00  0.00     0.295 HD
ENDBRANCH   1   2
BRANCH   1   4
ATOM      4  C   UNL     1      43.477 130.618  22.476  1.00  0.00     0.062 C 
BRANCH   4   5
ATOM      5  C   UNL     1      43.265 130.640  23.987  1.00  0.00     0.036 C 
ATOM      6  C   UNL     1      44.401 131.470  24.622  1.00  0.00     0.033 C 
BRANCH   5   7
ATOM      7  N   UNL     1      41.959 131.237  24.306  1.00  0.00    -0.322 NA
ATOM      8  H   UNL     1      41.321 130.504  24.694  1.00  0.00     0.119 HD
ATOM      9  H   UNL     1      42.063 131.988  25.026  1.00  0.00     0.119 HD
ENDBRANCH   5   7
BRANCH   5  10
ATOM     10  C   UNL     1      43.326 129.166  24.497  1.00  0.00     0.023 C 
ATOM     11  C   UNL     1      44.504 128.340  23.967  1.00  0.00     0.006 C 
ENDBRANCH   5  10
ENDBRANCH   4   5
ENDBRANCH   1   4
BRANCH   1  12
ATOM     12  N   UNL     1      43.500 131.548  20.213  1.00  0.00    -0.205 N 
ATOM     13  N   UNL     1      44.624 130.984  19.780  1.00  0.00    -0.165 NA
ATOM     14  C   UNL     1      42.765 131.991  19.161  1.00  0.00     0.052 A 
ATOM     15  C   UNL     1      44.613 131.084  18.439  1.00  0.00     0.094 A 
ATOM     16  C   UNL     1      43.468 131.698  18.011  1.00  0.00     0.023 A 
ATOM     17  C   UNL     1      45.580 130.632  17.547  1.00  0.00     0.040 A 
ATOM     18  C   UNL     1      43.199 131.904  16.661  1.00  0.00     0.013 A 
ATOM     19  C   UNL     1      45.347 130.817  16.166  1.00  0.00    -0.010 A 
ATOM     20  C   UNL     1      44.158 131.462  15.731  1.00  0.00     0.010 A 
ATOM     21  C   UNL     1      41.406 132.616  19.248  1.00  0.00     0.067 C 
BRANCH  19  22
ATOM     22  C   UNL     1      46.355 130.364  15.182  1.00  0.00     0.049 A 
ATOM     23  C   UNL     1      47.060 131.267  14.351  1.00  0.00    -0.028 A 
ATOM     24  C   UNL     1      46.617 128.990  15.061  1.00  0.00     0.317 A 
ATOM     25  C   UNL     1      48.033 130.766  13.473  1.00  0.00     0.118 A 
ATOM     26  N   UNL     1      47.554 128.538  14.185  1.00  0.00    -0.186 N 
ATOM     27  C   UNL     1      48.264 129.392  13.402  1.00  0.00     0.358 A 
ATOM     28  C   UNL     1      46.810 132.752  14.390  1.00  0.00     0.045 C 
ATOM     29  H   UNL     1      47.735 127.512  14.119  1.00  0.00     0.456 HD
ATOM     30  F   UNL     1      49.198 128.907  12.546  1.00  0.00    -0.136 F 
ENDBRANCH  19  22
ENDBRANCH   1  12
TORSDOF 7
ENDMDL
MODEL 2
REMARK VINA RESULT:      -6.1      1.402      1.920
REMARK SMILES CC[C@](C)(N)/C=C(/O)n1nc2cc(-c3c[nH+]c(F)cc3C)ccc2c1C
REMARK SMILES IDX 7 1 8 2 6 4 3 5 4 6 5 7 2 10 1 11 9 12 10 13 25 14 11 15
REMARK SMILES IDX 24 16 12 17 23 18 13 19 22 20 26 21 14 22 20 23 15 24 19 25
REMARK SMILES IDX 16 26 17 27 21 28 18 30
REMARK H PARENT 8 3 5 8 5 9 16 29
ROOT
ATOM      1  C   UNL     1      43.963 130.969  23.333  1.00  0.00     0.209 C 
ENDROOT
BRANCH   1   2
ATOM      2  O   UNL     1      44.109 132.104  24.133  1.00  0.00    -0.493 OA
ATOM      3  H   UNL     1      43.482 132.898  24.066  1.00  0.00     0.295 HD
ENDBRANCH   1   2
BRANCH   1   4
ATOM      4  C   UNL     1      43.742 129.774  23.919  1.00  0.00     0.062 C 
BRANCH   4   5
ATOM      5  C   UNL     1      42.806 128.672  23.430  1.00  0.00     0.036 C 
ATOM      6  C   UNL     1      41.924 128.226  24.617  1.00  0.00     0.033 C 
BRANCH   5   7
ATOM      7  N   UNL     1      41.964 129.174  22.333  1.00  0.00    -0.322 NA
ATOM      8  H   UNL     1      40.957 128.991  22.547  1.00  0.00     0.119 HD
ATOM      9  H   UNL     1      42.087 130.205  22.215  1.00  0.00     0.119 HD
ENDBRANCH   5   7
BRANCH   5  10
ATOM     10  C   UNL     1      43.687 127.482  22.937  1.00  0.00     0.023 C 
ATOM     11  C   UNL     1      44.804 127.055  23.897  1.00  0.00     0.006 C 
ENDBRANCH   5  10
ENDBRANCH   4   5
ENDBRANCH   1   4
BRANCH   1  12
ATOM     12  N   UNL     1      44.078 131.130  21.911  1.00  0.00    -0.205 N 
ATOM     13  N   UNL     1      45.103 130.674  21.196  1.00  0.00    -0.165 NA
ATOM     14  C   UNL     1      43.130 131.648  21.089  1.00  0.00     0.052 A 
ATOM     15  C   UNL     1      44.812 130.919  19.906  1.00  0.00     0.094 A 
ATOM     16  C   UNL     1      43.586 131.518  19.795  1.00  0.00     0.023 A 
ATOM     17  C   UNL     1      45.585 130.617  18.790  1.00  0.00     0.040 A 
ATOM     18  C   UNL     1      43.038 131.857  18.560  1.00  0.00     0.013 A 
ATOM     19  C   UNL     1      45.066 130.941  17.516  1.00  0.00    -0.010 A 
ATOM     20  C   UNL     1      43.795 131.569  17.410  1.00  0.00     0.010 A 
ATOM     21  C   UNL     1      41.801 132.190  21.523  1.00  0.00     0.067 C 
BRANCH  19  22
ATOM     22  C   UNL     1      45.859 130.650  16.301  1.00  0.00     0.049 A 
ATOM     23  C   UNL     1      46.237 131.660  15.385  1.00  0.00    -0.028 A 
ATOM     24  C   UNL     1      46.245 129.325  16.044  1.00  0.00     0.317 A 
ATOM     25  C   UNL     1      47.028 131.314  14.279  1.00  0.00     0.118 A 
ATOM     26  N   UNL     1      46.997 129.023  14.951  1.00  0.00    -0.186 N 
ATOM     27  C   UNL     1      47.397 129.983  14.077  1.00  0.00     0.358 A 
ATOM     28  C   UNL     1      45.831 133.099  15.568  1.00  0.00     0.045 C 
ATOM     29  H   UNL     1      47.277 128.031  14.785  1.00  0.00     0.456 HD
ATOM     30  F   UNL     1      48.153 129.648  13.002  1.00  0.00    -0.136 F 
ENDBRANCH  19  22
ENDBRANCH   1  12
TORSDOF 7
ENDMDL
MODEL 3
REMARK VINA RESULT:      -5.9      0.837      1.072
REMARK SMILES CC[C@](C)(N)/C=C(/O)n1nc2cc(-c3c[nH+]c(F)cc3C)ccc2c1C
REMARK SMILES IDX 7 1 8 2 6 4 3 5 4 6 5 7 2 10 1 11 9 12 10 13 25 14 11 15
REMARK SMILES IDX 24 16 12 17 23 18 13 19 22 20 26 21 14 22 20 23 15 24 19 25
REMARK SMILES IDX 16 26 17 27 21 28 18 30
REMARK H PARENT 8 3 5 8 5 9 16 29
ROOT
ATOM      1  C   UNL     1      43.154 131.764  21.464  1.00  0.00     0.209 C 
ENDROOT
BRANCH   1   2
ATOM      2  O   UNL     1      41.931 132.366  21.764  1.00  0.00    -0.493 OA
ATOM      3  H   UNL     1      41.800 132.947  22.584  1.00  0.00     0.295 HD
ENDBRANCH   1   2
BRANCH   1   4
ATOM      4  C   UNL     1      43.916 131.283  22.469  1.00  0.00     0.062 C 
BRANCH   4   5
ATOM      5  C   UNL     1      43.754 129.942  23.180  1.00  0.00     0.036 C 
ATOM      6  C   UNL     1      44.745 128.939  22.550  1.00  0.00     0.033 C 
BRANCH   5   7
ATOM      7  N   UNL     1      44.029 130.093  24.617  1.00  0.00    -0.322 NA
ATOM      8  H   UNL     1      44.416 131.047  24.804  1.00  0.00     0.119 HD
ATOM      9  H   UNL     1      43.151 129.987  25.174  1.00  0.00     0.119 HD
ENDBRANCH   5   7
BRANCH   5  10
ATOM     10  C   UNL     1      42.286 129.459  22.957  1.00  0.00     0.023 C 
ATOM     11  C   UNL     1      41.843 128.288  23.842  1.00  0.00     0.006 C 
ENDBRANCH   5  10
ENDBRANCH   4   5
ENDBRANCH   1   4
BRANCH   1  12
ATOM     12  N   UNL     1      43.557 131.708  20.087  1.00  0.00    -0.205 N 
ATOM     13  N   UNL     1      44.684 131.141  19.668  1.00  0.00    -0.165 NA
ATOM     14  C   UNL     1      42.811 132.104  19.024  1.00  0.00     0.052 A 
ATOM     15  C   UNL     1      44.665 131.192  18.325  1.00  0.00     0.094 A 
ATOM     16  C   UNL     1      43.510 131.777  17.882  1.00  0.00     0.023 A 
ATOM     17  C   UNL     1      45.633 130.719  17.444  1.00  0.00     0.040 A 
ATOM     18  C   UNL     1      43.232 131.931  16.526  1.00  0.00     0.013 A 
ATOM     19  C   UNL     1      45.390 130.851  16.058  1.00  0.00    -0.010 A 
ATOM     20  C   UNL     1      44.192 131.466  15.607  1.00  0.00     0.010 A 
ATOM     21  C   UNL     1      41.445 132.716  19.096  1.00  0.00     0.067 C 
BRANCH  19  22
ATOM     22  C   UNL     1      46.398 130.374  15.085  1.00  0.00     0.049 A 
ATOM     23  C   UNL     1      47.056 131.249  14.188  1.00  0.00    -0.028 A 
ATOM     24  C   UNL     1      46.707 129.005  15.044  1.00  0.00     0.317 A 
ATOM     25  C   UNL     1      48.032 130.729  13.324  1.00  0.00     0.118 A 
ATOM     26  N   UNL     1      47.647 128.534  14.181  1.00  0.00    -0.186 N 
ATOM     27  C   UNL     1      48.312 129.362  13.334  1.00  0.00     0.358 A 
ATOM     28  C   UNL     1      46.753 132.723  14.141  1.00  0.00     0.045 C 
ATOM     29  H   UNL     1      47.864 127.512  14.174  1.00  0.00     0.456 HD
ATOM     30  F   UNL     1      49.249 128.859  12.492  1.00  0.00    -0.136 F 
ENDBRANCH  19  22
ENDBRANCH   1  12
TORSDOF 7
ENDMDL
MODEL 4
REMARK VINA RESULT:      -5.5      1.147      1.671
REMARK SMILES CC[C@](C)(N)/C=C(/O)n1nc2cc(-c3c[nH+]c(F)cc3C)ccc2c1C
REMARK SMILES IDX 7 1 8 2 6 4 3 5 4 6 5 7 2 10 1 11 9 12 10 13 25 14 11 15
REMARK SMILES IDX 24 16 12 17 23 18 13 19 22 20 26 21 14 22 20 23 15 24 19 25
REMARK SMILES IDX 16 26 17 27 21 28 18 30
REMARK H PARENT 8 3 5 8 5 9 16 29
ROOT
ATOM      1  C   UNL     1      42.993 131.815  21.781  1.00  0.00     0.209 C 
ENDROOT
BRANCH   1   2
ATOM      2  O   UNL     1      41.916 132.597  22.202  1.00  0.00    -0.493 OA
ATOM      3  H   UNL     1      41.509 132.506  23.126  1.00  0.00     0.295 HD
ENDBRANCH   1   2
BRANCH   1   4
ATOM      4  C   UNL     1      43.686 131.102  22.694  1.00  0.00     0.062 C 
BRANCH   4   5
ATOM      5  C   UNL     1      43.273 129.775  23.325  1.00  0.00     0.036 C 
ATOM      6  C   UNL     1      42.496 130.080  24.624  1.00  0.00     0.033 C 
BRANCH   5   7
ATOM      7  N   UNL     1      42.428 129.012  22.394  1.00  0.00    -0.322 NA
ATOM      8  H   UNL     1      43.030 128.471  21.732  1.00  0.00     0.119 HD
ATOM      9  H   UNL     1      41.827 128.332  22.914  1.00  0.00     0.119 HD
ENDBRANCH   5   7
BRANCH   5  10
ATOM     10  C   UNL     1      44.575 128.978  23.653  1.00  0.00     0.023 C 
ATOM     11  C   UNL     1      44.684 127.603  22.983  1.00  0.00     0.006 C 
ENDBRANCH   5  10
ENDBRANCH   4   5
ENDBRANCH   1   4
BRANCH   1  12
ATOM     12  N   UNL     1      43.328 131.827  20.385  1.00  0.00    -0.205 N 
ATOM     13  N   UNL     1      44.483 131.383  19.897  1.00  0.00    -0.165 NA
ATOM     14  C   UNL     1      42.494 132.169  19.370  1.00  0.00     0.052 A 
ATOM     15  C   UNL     1      44.390 131.459  18.558  1.00  0.00     0.094 A 
ATOM     16  C   UNL     1      43.163 131.936  18.187  1.00  0.00     0.023 A 
ATOM     17  C   UNL     1      45.353 131.102  17.619  1.00  0.00     0.040 A 
ATOM     18  C   UNL     1      42.802 132.089  16.850  1.00  0.00     0.013 A 
ATOM     19  C   UNL     1      45.028 131.237  16.251  1.00  0.00    -0.010 A 
ATOM     20  C   UNL     1      43.754 131.741  15.875  1.00  0.00     0.010 A 
ATOM     21  C   UNL     1      41.080 132.641  19.524  1.00  0.00     0.067 C 
BRANCH  19  22
ATOM     22  C   UNL     1      46.027 130.883  15.218  1.00  0.00     0.049 A 
ATOM     23  C   UNL     1      46.341 129.540  14.899  1.00  0.00    -0.028 A 
ATOM     24  C   UNL     1      46.692 131.914  14.535  1.00  0.00     0.317 A 
ATOM     25  C   UNL     1      47.266 129.283  13.876  1.00  0.00     0.118 A 
ATOM     26  N   UNL     1      47.597 131.627  13.561  1.00  0.00    -0.186 N 
ATOM     27  C   UNL     1      47.889 130.345  13.218  1.00  0.00     0.358 A 
ATOM     28  C   UNL     1      45.701 128.378  15.612  1.00  0.00     0.045 C 
ATOM     29  H   UNL     1      48.074 132.411  13.063  1.00  0.00     0.456 HD
ATOM     30  F   UNL     1      48.791 130.095  12.237  1.00  0.00    -0.136 F 
ENDBRANCH  19  22
ENDBRANCH   1  12
TORSDOF 7
ENDMDL
MODEL 5
REMARK VINA RESULT:      -4.4      1.162      1.739
REMARK SMILES CC[C@](C)(N)/C=C(/O)n1nc2cc(-c3c[nH+]c(F)cc3C)ccc2c1C
REMARK SMILES IDX 7 1 8 2 6 4 3 5 4 6 5 7 2 10 1 11 9 12 10 13 25 14 11 15
REMARK SMILES IDX 24 16 12 17 23 18 13 19 22 20 26 21 14 22 20 23 15 24 19 25
REMARK SMILES IDX 16 26 17 27 21 28 18 30
REMARK H PARENT 8 3 5 8 5 9 16 29
ROOT
ATOM      1  C   UNL     1      42.769 131.529  21.454  1.00  0.00     0.209 C 
ENDROOT
BRANCH   1   2
ATOM      2  O   UNL     1      42.206 132.678  22.013  1.00  0.00    -0.493 OA
ATOM      3  H   UNL     1      41.214 132.755  22.208  1.00  0.00     0.295 HD
ENDBRANCH   1   2
BRANCH   1   4
ATOM      4  C   UNL     1      42.928 130.432  22.225  1.00  0.00     0.062 C 
BRANCH   4   5
ATOM      5  C   UNL     1      44.141 130.083  23.082  1.00  0.00     0.036 C 
ATOM      6  C   UNL     1      44.978 129.027  22.329  1.00  0.00     0.033 C 
BRANCH   5   7
ATOM      7  N   UNL     1      44.948 131.287  23.332  1.00  0.00    -0.322 NA
ATOM      8  H   UNL     1      45.951 131.020  23.461  1.00  0.00     0.119 HD
ATOM      9  H   UNL     1      44.891 131.944  22.520  1.00  0.00     0.119 HD
ENDBRANCH   5   7
BRANCH   5  10
ATOM     10  C   UNL     1      43.618 129.493  24.430  1.00  0.00     0.023 C 
ATOM     11  C   UNL     1      42.720 128.258  24.296  1.00  0.00     0.006 C 
ENDBRANCH   5  10
ENDBRANCH   4   5
ENDBRANCH   1   4
BRANCH   1  12
ATOM     12  N   UNL     1      43.175 131.580  20.078  1.00  0.00    -0.205 N 
ATOM     13  N   UNL     1      44.362 131.168  19.642  1.00  0.00    -0.165 NA
ATOM     14  C   UNL     1      42.388 131.931  19.029  1.00  0.00     0.052 A 
ATOM     15  C   UNL     1      44.338 131.274  18.302  1.00  0.00     0.094 A 
ATOM     16  C   UNL     1      43.122 131.738  17.877  1.00  0.00     0.023 A 
ATOM     17  C   UNL     1      45.354 130.957  17.407  1.00  0.00     0.040 A 
ATOM     18  C   UNL     1      42.828 131.916  16.528  1.00  0.00     0.013 A 
ATOM     19  C   UNL     1      45.098 131.119  16.027  1.00  0.00    -0.010 A 
ATOM     20  C   UNL     1      43.836 131.608  15.596  1.00  0.00     0.010 A 
ATOM     21  C   UNL     1      40.959 132.374  19.119  1.00  0.00     0.067 C 
BRANCH  19  22
ATOM     22  C   UNL     1      46.156 130.807  15.039  1.00  0.00     0.049 A 
ATOM     23  C   UNL     1      46.493 129.479  14.686  1.00  0.00    -0.028 A 
ATOM     24  C   UNL     1      46.855 131.865  14.437  1.00  0.00     0.317 A 
ATOM     25  C   UNL     1      47.476 129.263  13.709  1.00  0.00     0.118 A 
ATOM     26  N   UNL     1      47.816 131.618  13.506  1.00  0.00    -0.186 N 
ATOM     27  C   UNL     1      48.132 130.351  13.131  1.00  0.00     0.358 A 
ATOM     28  C   UNL     1      45.818 128.288  15.315  1.00  0.00     0.045 C 
ATOM     29  H   UNL     1      48.318 132.422  13.068  1.00  0.00     0.456 HD
ATOM     30  F   UNL     1      49.089 130.142  12.193  1.00  0.00    -0.136 F 
ENDBRANCH  19  22
ENDBRANCH   1  12
TORSDOF 7
ENDMDL
MODEL 6
REMARK VINA RESULT:      -4.3      6.388      9.741
REMARK SMILES CC[C@](C)(N)/C=C(/O)n1nc2cc(-c3c[nH+]c(F)cc3C)ccc2c1C
REMARK SMILES IDX 7 1 8 2 6 4 3 5 4 6 5 7 2 10 1 11 9 12 10 13 25 14 11 15
REMARK SMILES IDX 24 16 12 17 23 18 13 19 22 20 26 21 14 22 20 23 15 24 19 25
REMARK SMILES IDX 16 26 17 27 21 28 18 30
REMARK H PARENT 8 3 5 8 5 9 16 29
ROOT
ATOM      1  C   UNL     1      48.557 123.771  21.674  1.00  0.00     0.209 C 
ENDROOT
BRANCH   1   2
ATOM      2  O   UNL     1      48.492 122.376  21.651  1.00  0.00    -0.493 OA
ATOM      3  H   UNL     1      47.923 121.873  20.979  1.00  0.00     0.295 HD
ENDBRANCH   1   2
BRANCH   1   4
ATOM      4  C   UNL     1      49.710 124.383  21.331  1.00  0.00     0.062 C 
BRANCH   4   5
ATOM      5  C   UNL     1      50.980 124.482  22.171  1.00  0.00     0.036 C 
ATOM      6  C   UNL     1      51.003 125.868  22.850  1.00  0.00     0.033 C 
BRANCH   5   7
ATOM      7  N   UNL     1      51.000 123.418  23.187  1.00  0.00    -0.322 NA
ATOM      8  H   UNL     1      51.600 122.626  22.858  1.00  0.00     0.119 HD
ATOM      9  H   UNL     1      51.399 123.773  24.086  1.00  0.00     0.119 HD
ENDBRANCH   5   7
BRANCH   5  10
ATOM     10  C   UNL     1      52.200 124.334  21.208  1.00  0.00     0.023 C 
ATOM     11  C   UNL     1      53.178 123.207  21.561  1.00  0.00     0.006 C 
ENDBRANCH   5  10
ENDBRANCH   4   5
ENDBRANCH   1   4
BRANCH   1  12
ATOM     12  N   UNL     1      47.387 124.492  22.090  1.00  0.00    -0.205 N 
ATOM     13  N   UNL     1      47.327 125.817  22.180  1.00  0.00    -0.165 NA
ATOM     14  C   UNL     1      46.163 123.953  22.328  1.00  0.00     0.052 A 
ATOM     15  C   UNL     1      46.057 126.126  22.495  1.00  0.00     0.094 A 
ATOM     16  C   UNL     1      45.296 124.993  22.589  1.00  0.00     0.023 A 
ATOM     17  C   UNL     1      45.516 127.392  22.693  1.00  0.00     0.040 A 
ATOM     18  C   UNL     1      43.936 125.038  22.883  1.00  0.00     0.013 A 
ATOM     19  C   UNL     1      44.138 127.485  22.990  1.00  0.00    -0.010 A 
ATOM     20  C   UNL     1      43.356 126.303  23.093  1.00  0.00     0.010 A 
ATOM     21  C   UNL     1      45.820 122.497  22.245  1.00  0.00     0.067 C 
BRANCH  19  22
ATOM     22  C   UNL     1      43.522 128.811  23.222  1.00  0.00     0.049 A 
ATOM     23  C   UNL     1      43.939 129.971  22.526  1.00  0.00    -0.028 A 
ATOM     24  C   UNL     1      42.492 128.924  24.170  1.00  0.00     0.317 A 
ATOM     25  C   UNL     1      43.277 131.184  22.768  1.00  0.00     0.118 A 
ATOM     26  N   UNL     1      41.885 130.121  24.392  1.00  0.00    -0.186 N 
ATOM     27  C   UNL     1      42.250 131.239  23.712  1.00  0.00     0.358 A 
ATOM     28  C   UNL     1      45.061 129.941  21.523  1.00  0.00     0.045 C 
ATOM     29  H   UNL     1      41.117 130.178  25.097  1.00  0.00     0.456 HD
ATOM     30  F   UNL     1      41.616 132.415  23.952  1.00  0.00    -0.136 F 
ENDBRANCH  19  22
ENDBRANCH   1  12
TORSDOF 7
ENDMDL
MODEL 7
REMARK VINA RESULT:      -4.3      1.096      1.407
REMARK SMILES CC[C@](C)(N)/C=C(/O)n1nc2cc(-c3c[nH+]c(F)cc3C)ccc2c1C
REMARK SMILES IDX 7 1 8 2 6 4 3 5 4 6 5 7 2 10 1 11 9 12 10 13 25 14 11 15
REMARK SMILES IDX 24 16 12 17 23 18 13 19 22 20 26 21 14 22 20 23 15 24 19 25
REMARK SMILES IDX 16 26 17 27 21 28 18 30
REMARK H PARENT 8 3 5 8 5 9 16 29
ROOT
ATOM      1  C   UNL     1      42.784 131.749  20.994  1.00  0.00     0.209 C 
ENDROOT
BRANCH   1   2
ATOM      2  O   UNL     1      41.966 132.831  21.322  1.00  0.00    -0.493 OA
ATOM      3  H   UNL     1      42.220 133.788  21.102  1.00  0.00     0.295 HD
ENDBRANCH   1   2
BRANCH   1   4
ATOM      4  C   UNL     1      43.100 130.848  21.948  1.00  0.00     0.062 C 
BRANCH   4   5
ATOM      5  C   UNL     1      44.453 130.675  22.633  1.00  0.00     0.036 C 
ATOM      6  C   UNL     1      45.040 129.312  22.204  1.00  0.00     0.033 C 
BRANCH   5   7
ATOM      7  N   UNL     1      45.361 131.765  22.243  1.00  0.00    -0.322 NA
ATOM      8  H   UNL     1      45.995 132.000  23.041  1.00  0.00     0.119 HD
ATOM      9  H   UNL     1      45.956 131.477  21.432  1.00  0.00     0.119 HD
ENDBRANCH   5   7
BRANCH   5  10
ATOM     10  C   UNL     1      44.213 130.695  24.175  1.00  0.00     0.023 C 
ATOM     11  C   UNL     1      42.920 131.385  24.625  1.00  0.00     0.006 C 
ENDBRANCH   5  10
ENDBRANCH   4   5
ENDBRANCH   1   4
BRANCH   1  12
ATOM     12  N   UNL     1      43.272 131.659  19.646  1.00  0.00    -0.205 N 
ATOM     13  N   UNL     1      44.452 131.140  19.320  1.00  0.00    -0.165 NA
ATOM     14  C   UNL     1      42.572 131.968  18.525  1.00  0.00     0.052 A 
ATOM     15  C   UNL     1      44.512 131.135  17.977  1.00  0.00     0.094 A 
ATOM     16  C   UNL     1      43.356 131.635  17.441  1.00  0.00     0.023 A 
ATOM     17  C   UNL     1      45.556 130.683  17.176  1.00  0.00     0.040 A 
ATOM     18  C   UNL     1      43.154 131.717  16.066  1.00  0.00     0.013 A 
ATOM     19  C   UNL     1      45.392 130.744  15.774  1.00  0.00    -0.010 A 
ATOM     20  C   UNL     1      44.191 131.272  15.227  1.00  0.00     0.010 A 
ATOM     21  C   UNL     1      41.173 132.504  18.489  1.00  0.00     0.067 C 
BRANCH  19  22
ATOM     22  C   UNL     1      46.481 130.287  14.884  1.00  0.00     0.049 A 
ATOM     23  C   UNL     1      47.311 131.190  14.177  1.00  0.00    -0.028 A 
ATOM     24  C   UNL     1      46.696 128.908  14.727  1.00  0.00     0.317 A 
ATOM     25  C   UNL     1      48.352 130.681  13.386  1.00  0.00     0.118 A 
ATOM     26  N   UNL     1      47.704 128.450  13.937  1.00  0.00    -0.186 N 
ATOM     27  C   UNL     1      48.531 129.301  13.276  1.00  0.00     0.358 A 
ATOM     28  C   UNL     1      47.122 132.681  14.260  1.00  0.00     0.045 C 
ATOM     29  H   UNL     1      47.847 127.420  13.842  1.00  0.00     0.456 HD
ATOM     30  F   UNL     1      49.532 128.810  12.503  1.00  0.00    -0.136 F 
ENDBRANCH  19  22
ENDBRANCH   1  12
TORSDOF 7
ENDMDL
MODEL 8
REMARK VINA RESULT:      -4.2      1.297      1.709
REMARK SMILES CC[C@](C)(N)/C=C(/O)n1nc2cc(-c3c[nH+]c(F)cc3C)ccc2c1C
REMARK SMILES IDX 7 1 8 2 6 4 3 5 4 6 5 7 2 10 1 11 9 12 10 13 25 14 11 15
REMARK SMILES IDX 24 16 12 17 23 18 13 19 22 20 26 21 14 22 20 23 15 24 19 25
REMARK SMILES IDX 16 26 17 27 21 28 18 30
REMARK H PARENT 8 3 5 8 5 9 16 29
ROOT
ATOM      1  C   UNL     1      44.606 130.994  21.701  1.00  0.00     0.209 C 
ENDROOT
BRANCH   1   2
ATOM      2  O   UNL     1      45.282 131.926  22.490  1.00  0.00    -0.493 OA
ATOM      3  H   UNL     1      46.118 132.400  22.171  1.00  0.00     0.295 HD
ENDBRANCH   1   2
BRANCH   1   4
ATOM      4  C   UNL     1      43.844 130.053  22.297  1.00  0.00     0.062 C 
BRANCH   4   5
ATOM      5  C   UNL     1      43.427 130.007  23.765  1.00  0.00     0.036 C 
ATOM      6  C   UNL     1      43.005 128.560  24.102  1.00  0.00     0.033 C 
BRANCH   5   7
ATOM      7  N   UNL     1      44.547 130.422  24.623  1.00  0.00    -0.322 NA
ATOM      8  H   UNL     1      45.347 129.759  24.506  1.00  0.00     0.119 HD
ATOM      9  H   UNL     1      44.879 131.378  24.359  1.00  0.00     0.119 HD
ENDBRANCH   5   7
BRANCH   5  10
ATOM     10  C   UNL     1      42.217 130.976  23.947  1.00  0.00     0.023 C 
ATOM     11  C   UNL     1      42.546 132.312  24.623  1.00  0.00     0.006 C 
ENDBRANCH   5  10
ENDBRANCH   4   5
ENDBRANCH   1   4
BRANCH   1  12
ATOM     12  N   UNL     1      44.776 131.069  20.277  1.00  0.00    -0.205 N 
ATOM     13  N   UNL     1      45.808 130.542  19.626  1.00  0.00    -0.165 NA
ATOM     14  C   UNL     1      43.875 131.570  19.393  1.00  0.00     0.052 A 
ATOM     15  C   UNL     1      45.571 130.723  18.315  1.00  0.00     0.094 A 
ATOM     16  C   UNL     1      44.371 131.353  18.126  1.00  0.00     0.023 A 
ATOM     17  C   UNL     1      46.372 130.334  17.246  1.00  0.00     0.040 A 
ATOM     18  C   UNL     1      43.878 131.639  16.855  1.00  0.00     0.013 A 
ATOM     19  C   UNL     1      45.908 130.601  15.938  1.00  0.00    -0.010 A 
ATOM     20  C   UNL     1      44.665 131.263  15.751  1.00  0.00     0.010 A 
ATOM     21  C   UNL     1      42.551 132.178  19.748  1.00  0.00     0.067 C 
BRANCH  19  22
ATOM     22  C   UNL     1      46.733 130.218  14.771  1.00  0.00     0.049 A 
ATOM     23  C   UNL     1      46.658 130.901  13.534  1.00  0.00    -0.028 A 
ATOM     24  C   UNL     1      47.617 129.133  14.892  1.00  0.00     0.317 A 
ATOM     25  C   UNL     1      47.504 130.506  12.487  1.00  0.00     0.118 A 
ATOM     26  N   UNL     1      48.410 128.767  13.849  1.00  0.00    -0.186 N 
ATOM     27  C   UNL     1      48.375 129.430  12.664  1.00  0.00     0.358 A 
ATOM     28  C   UNL     1      45.709 132.048  13.310  1.00  0.00     0.045 C 
ATOM     29  H   UNL     1      49.064 127.961  13.966  1.00  0.00     0.456 HD
ATOM     30  F   UNL     1      49.186 129.044  11.648  1.00  0.00    -0.136 F 
ENDBRANCH  19  22
ENDBRANCH   1  12
TORSDOF 7
ENDMDL
MODEL 9
REMARK VINA RESULT:      -4.1      1.439      1.640
REMARK SMILES CC[C@](C)(N)/C=C(/O)n1nc2cc(-c3c[nH+]c(F)cc3C)ccc2c1C
REMARK SMILES IDX 7 1 8 2 6 4 3 5 4 6 5 7 2 10 1 11 9 12 10 13 25 14 11 15
REMARK SMILES IDX 24 16 12 17 23 18 13 19 22 20 26 21 14 22 20 23 15 24 19 25
REMARK SMILES IDX 16 26 17 27 21 28 18 30
REMARK H PARENT 8 3 5 8 5 9 16 29
ROOT
ATOM      1  C   UNL     1      44.555 132.470  22.672  1.00  0.00     0.209 C 
ENDROOT
BRANCH   1   2
ATOM      2  O   UNL     1      45.442 133.417  23.185  1.00  0.00    -0.493 OA
ATOM      3  H   UNL     1      46.052 133.966  22.589  1.00  0.00     0.295 HD
ENDBRANCH   1   2
BRANCH   1   4
ATOM      4  C   UNL     1      43.787 131.756  23.522  1.00  0.00     0.062 C 
BRANCH   4   5
ATOM      5  C   UNL     1      43.657 130.237  23.585  1.00  0.00     0.036 C 
ATOM      6  C   UNL     1      44.677 129.708  24.617  1.00  0.00     0.033 C 
BRANCH   5   7
ATOM      7  N   UNL     1      42.291 129.862  23.983  1.00  0.00    -0.322 NA
ATOM      8  H   UNL     1      41.698 129.732  23.131  1.00  0.00     0.119 HD
ATOM      9  H   UNL     1      42.296 128.960  24.513  1.00  0.00     0.119 HD
ENDBRANCH   5   7
BRANCH   5  10
ATOM     10  C   UNL     1      43.984 129.672  22.167  1.00  0.00     0.023 C 
ATOM     11  C   UNL     1      44.743 128.340  22.154  1.00  0.00     0.006 C 
ENDBRANCH   5  10
ENDBRANCH   4   5
ENDBRANCH   1   4
BRANCH   1  12
ATOM     12  N   UNL     1      44.519 132.283  21.248  1.00  0.00    -0.205 N 
ATOM     13  N   UNL     1      45.568 131.901  20.525  1.00  0.00    -0.165 NA
ATOM     14  C   UNL     1      43.412 132.348  20.465  1.00  0.00     0.052 A 
ATOM     15  C   UNL     1      45.129 131.738  19.265  1.00  0.00     0.094 A 
ATOM     16  C   UNL     1      43.788 131.997  19.185  1.00  0.00     0.023 A 
ATOM     17  C   UNL     1      45.867 131.342  18.154  1.00  0.00     0.040 A 
ATOM     18  C   UNL     1      43.082 131.878  17.991  1.00  0.00     0.013 A 
ATOM     19  C   UNL     1      45.190 131.205  16.922  1.00  0.00    -0.010 A 
ATOM     20  C   UNL     1      43.798 131.484  16.847  1.00  0.00     0.010 A 
ATOM     21  C   UNL     1      42.027 132.671  20.937  1.00  0.00     0.067 C 
BRANCH  19  22
ATOM     22  C   UNL     1      45.937 130.799  15.711  1.00  0.00     0.049 A 
ATOM     23  C   UNL     1      45.571 131.234  14.415  1.00  0.00    -0.028 A 
ATOM     24  C   UNL     1      47.045 129.947  15.851  1.00  0.00     0.317 A 
ATOM     25  C   UNL     1      46.356 130.843  13.320  1.00  0.00     0.118 A 
ATOM     26  N   UNL     1      47.771 129.574  14.764  1.00  0.00    -0.186 N 
ATOM     27  C   UNL     1      47.455 130.006  13.515  1.00  0.00     0.358 A 
ATOM     28  C   UNL     1      44.375 132.117  14.176  1.00  0.00     0.045 C 
ATOM     29  H   UNL     1      48.595 128.945  14.895  1.00  0.00     0.456 HD
ATOM     30  F   UNL     1      48.208 129.621  12.454  1.00  0.00    -0.136 F 
ENDBRANCH  19  22
ENDBRANCH   1  12
TORSDOF 7
ENDMDL


