MODEL 1
REMARK VINA RESULT:      -6.3      0.000      0.000
REMARK SMILES Cc1ccc(NC(=O)[N-]c2c(F)cc(F)cc2F)c(-c2ccc3c(c2)[N-]C(=O)C3)c1
REMARK SMILES IDX 6 1 7 2 8 3 5 5 2 6 3 7 30 8 4 9 19 10 1 11 20 12 21 13
REMARK SMILES IDX 25 14 22 15 24 16 23 17 26 18 29 19 27 20 28 21 9 22 10 23
REMARK SMILES IDX 11 24 17 25 13 26 16 27 14 28 12 29 18 30 15 31
REMARK H PARENT 6 4
ROOT
ATOM      1  N   UNL     1      46.446 132.662  21.416  1.00  0.00    -0.423 N 
ATOM      2  C   UNL     1      47.147 133.754  22.025  1.00  0.00     0.160 C 
ATOM      3  O   UNL     1      46.879 134.103  23.206  1.00  0.00    -0.298 OA
ATOM      4  H   UNL     1      46.875 132.213  20.576  1.00  0.00     0.029 HD
ENDROOT
BRANCH   1   5
ATOM      5  C   UNL     1      45.309 132.030  22.023  1.00  0.00    -0.033 A 
ATOM      6  C   UNL     1      43.085 130.871  23.304  1.00  0.00    -0.051 A 
ATOM      7  C   UNL     1      44.122 131.433  24.058  1.00  0.00     0.004 A 
ATOM      8  C   UNL     1      43.160 130.890  21.904  1.00  0.00     0.012 A 
ATOM      9  C   UNL     1      45.229 131.995  23.422  1.00  0.00     0.004 A 
ATOM     10  C   UNL     1      44.275 131.445  21.250  1.00  0.00    -0.015 A 
ATOM     11  C   UNL     1      41.875 130.303  23.987  1.00  0.00     0.044 C 
BRANCH  10  12
ATOM     12  C   UNL     1      44.356 131.353  19.772  1.00  0.00    -0.019 A 
ATOM     13  C   UNL     1      43.337 131.915  18.966  1.00  0.00     0.009 A 
ATOM     14  C   UNL     1      45.441 130.691  19.157  1.00  0.00    -0.007 A 
ATOM     15  C   UNL     1      43.406 131.836  17.565  1.00  0.00     0.003 A 
ATOM     16  C   UNL     1      45.487 130.629  17.765  1.00  0.00    -0.130 A 
ATOM     17  C   UNL     1      44.497 131.188  16.988  1.00  0.00    -0.057 A 
ATOM     18  N   UNL     1      46.516 130.028  16.997  1.00  0.00    -0.626 NA
ATOM     19  C   UNL     1      44.797 131.001  15.543  1.00  0.00     0.089 C 
ATOM     20  C   UNL     1      46.093 130.256  15.654  1.00  0.00     0.059 C 
ATOM     21  O   UNL     1      46.759 129.863  14.661  1.00  0.00    -0.320 OA
ENDBRANCH  10  12
ENDBRANCH   1   5
BRANCH   2  22
ATOM     22  N   UNL     1      48.206 134.394  21.304  1.00  0.00    -0.396 NA
BRANCH  22  23
ATOM     23  C   UNL     1      49.198 135.269  21.860  1.00  0.00     0.034 A 
ATOM     24  C   UNL     1      49.931 134.835  22.974  1.00  0.00     0.132 A 
ATOM     25  C   UNL     1      49.503 136.518  21.279  1.00  0.00     0.132 A 
ATOM     26  C   UNL     1      50.919 135.650  23.532  1.00  0.00     0.079 A 
ATOM     27  C   UNL     1      50.495 137.329  21.842  1.00  0.00     0.079 A 
ATOM     28  C   UNL     1      51.198 136.899  22.970  1.00  0.00     0.129 A 
ATOM     29  F   UNL     1      49.673 133.623  23.527  1.00  0.00    -0.207 F 
ATOM     30  F   UNL     1      48.893 136.932  20.142  1.00  0.00    -0.207 F 
ATOM     31  F   UNL     1      52.160 137.687  23.511  1.00  0.00    -0.207 F 
ENDBRANCH  22  23
ENDBRANCH   2  22
TORSDOF 4
ENDMDL
MODEL 2
REMARK VINA RESULT:      -6.2      0.107      1.526
REMARK SMILES Cc1ccc(NC(=O)[N-]c2c(F)cc(F)cc2F)c(-c2ccc3c(c2)[N-]C(=O)C3)c1
REMARK SMILES IDX 6 1 7 2 8 3 5 5 2 6 3 7 30 8 4 9 19 10 1 11 20 12 21 13
REMARK SMILES IDX 25 14 22 15 24 16 23 17 26 18 29 19 27 20 28 21 9 22 10 23
REMARK SMILES IDX 11 24 17 25 13 26 16 27 14 28 12 29 18 30 15 31
REMARK H PARENT 6 4
ROOT
ATOM      1  N   UNL     1      46.480 132.748  21.393  1.00  0.00    -0.423 N 
ATOM      2  C   UNL     1      47.149 133.859  22.003  1.00  0.00     0.160 C 
ATOM      3  O   UNL     1      46.868 134.200  23.184  1.00  0.00    -0.298 OA
ATOM      4  H   UNL     1      46.923 132.311  20.553  1.00  0.00     0.029 HD
ENDROOT
BRANCH   1   5
ATOM      5  C   UNL     1      45.360 132.084  21.997  1.00  0.00    -0.033 A 
ATOM      6  C   UNL     1      43.165 130.864  23.271  1.00  0.00    -0.051 A 
ATOM      7  C   UNL     1      44.177 131.467  24.028  1.00  0.00     0.004 A 
ATOM      8  C   UNL     1      43.250 130.872  21.872  1.00  0.00     0.012 A 
ATOM      9  C   UNL     1      45.269 132.060  23.395  1.00  0.00     0.004 A 
ATOM     10  C   UNL     1      44.352 131.457  21.221  1.00  0.00    -0.015 A 
ATOM     11  C   UNL     1      41.969 130.262  23.950  1.00  0.00     0.044 C 
BRANCH  10  12
ATOM     12  C   UNL     1      44.448 131.354  19.745  1.00  0.00    -0.019 A 
ATOM     13  C   UNL     1      43.467 131.958  18.922  1.00  0.00     0.009 A 
ATOM     14  C   UNL     1      45.509 130.639  19.147  1.00  0.00    -0.007 A 
ATOM     15  C   UNL     1      43.550 131.869  17.523  1.00  0.00     0.003 A 
ATOM     16  C   UNL     1      45.570 130.569  17.757  1.00  0.00    -0.130 A 
ATOM     17  C   UNL     1      44.618 131.168  16.964  1.00  0.00    -0.057 A 
ATOM     18  N   UNL     1      46.581 129.917  17.005  1.00  0.00    -0.626 NA
ATOM     19  C   UNL     1      44.928 130.960  15.523  1.00  0.00     0.089 C 
ATOM     20  C   UNL     1      46.186 130.157  15.656  1.00  0.00     0.059 C 
ATOM     21  O   UNL     1      46.847 129.729  14.673  1.00  0.00    -0.320 OA
ENDBRANCH  10  12
ENDBRANCH   1   5
BRANCH   2  22
ATOM     22  N   UNL     1      48.191 134.528  21.284  1.00  0.00    -0.396 NA
BRANCH  22  23
ATOM     23  C   UNL     1      49.255 135.299  21.862  1.00  0.00     0.034 A 
ATOM     24  C   UNL     1      49.553 136.554  21.310  1.00  0.00     0.132 A 
ATOM     25  C   UNL     1      49.958 134.864  23.004  1.00  0.00     0.132 A 
ATOM     26  C   UNL     1      50.569 137.344  21.857  1.00  0.00     0.079 A 
ATOM     27  C   UNL     1      50.973 135.660  23.547  1.00  0.00     0.079 A 
ATOM     28  C   UNL     1      51.282 136.895  22.971  1.00  0.00     0.129 A 
ATOM     29  F   UNL     1      48.865 137.004  20.231  1.00  0.00    -0.207 F 
ATOM     30  F   UNL     1      49.634 133.708  23.630  1.00  0.00    -0.207 F 
ATOM     31  F   UNL     1      52.265 137.664  23.502  1.00  0.00    -0.207 F 
ENDBRANCH  22  23
ENDBRANCH   2  22
TORSDOF 4
ENDMDL
MODEL 3
REMARK VINA RESULT:      -6.1      1.068      1.447
REMARK SMILES Cc1ccc(NC(=O)[N-]c2c(F)cc(F)cc2F)c(-c2ccc3c(c2)[N-]C(=O)C3)c1
REMARK SMILES IDX 6 1 7 2 8 3 5 5 2 6 3 7 30 8 4 9 19 10 1 11 20 12 21 13
REMARK SMILES IDX 25 14 22 15 24 16 23 17 26 18 29 19 27 20 28 21 9 22 10 23
REMARK SMILES IDX 11 24 17 25 13 26 16 27 14 28 12 29 18 30 15 31
REMARK H PARENT 6 4
ROOT
ATOM      1  N   UNL     1      46.645 132.930  21.631  1.00  0.00    -0.423 N 
ATOM      2  C   UNL     1      47.369 133.983  22.279  1.00  0.00     0.160 C 
ATOM      3  O   UNL     1      47.096 134.305  23.467  1.00  0.00    -0.298 OA
ATOM      4  H   UNL     1      47.070 132.493  20.782  1.00  0.00     0.029 HD
ENDROOT
BRANCH   1   5
ATOM      5  C   UNL     1      45.482 132.314  22.206  1.00  0.00    -0.033 A 
ATOM      6  C   UNL     1      43.194 131.198  23.410  1.00  0.00    -0.051 A 
ATOM      7  C   UNL     1      44.110 131.932  24.174  1.00  0.00     0.004 A 
ATOM      8  C   UNL     1      43.423 131.023  22.038  1.00  0.00     0.012 A 
ATOM      9  C   UNL     1      45.249 132.473  23.578  1.00  0.00     0.004 A 
ATOM     10  C   UNL     1      44.573 131.555  21.426  1.00  0.00    -0.015 A 
ATOM     11  C   UNL     1      41.948 130.652  24.043  1.00  0.00     0.044 C 
BRANCH  10  12
ATOM     12  C   UNL     1      44.823 131.259  19.994  1.00  0.00    -0.019 A 
ATOM     13  C   UNL     1      45.923 130.453  19.615  1.00  0.00     0.009 A 
ATOM     14  C   UNL     1      43.976 131.791  18.998  1.00  0.00    -0.007 A 
ATOM     15  C   UNL     1      46.167 130.165  18.263  1.00  0.00     0.003 A 
ATOM     16  C   UNL     1      44.238 131.486  17.663  1.00  0.00    -0.130 A 
ATOM     17  C   UNL     1      45.305 130.693  17.303  1.00  0.00    -0.057 A 
ATOM     18  N   UNL     1      43.472 131.916  16.550  1.00  0.00    -0.626 NA
ATOM     19  C   UNL     1      45.346 130.508  15.827  1.00  0.00     0.089 C 
ATOM     20  C   UNL     1      44.147 131.321  15.443  1.00  0.00     0.059 C 
ATOM     21  O   UNL     1      43.758 131.473  14.256  1.00  0.00    -0.320 OA
ENDBRANCH  10  12
ENDBRANCH   1   5
BRANCH   2  22
ATOM     22  N   UNL     1      48.454 134.613  21.589  1.00  0.00    -0.396 NA
BRANCH  22  23
ATOM     23  C   UNL     1      49.534 135.337  22.196  1.00  0.00     0.034 A 
ATOM     24  C   UNL     1      50.248 134.731  23.241  1.00  0.00     0.132 A 
ATOM     25  C   UNL     1      49.940 136.605  21.729  1.00  0.00     0.132 A 
ATOM     26  C   UNL     1      51.319 135.397  23.844  1.00  0.00     0.079 A 
ATOM     27  C   UNL     1      51.014 137.265  22.337  1.00  0.00     0.079 A 
ATOM     28  C   UNL     1      51.699 136.665  23.397  1.00  0.00     0.129 A 
ATOM     29  F   UNL     1      49.893 133.499  23.682  1.00  0.00    -0.207 F 
ATOM     30  F   UNL     1      49.346 137.181  20.657  1.00  0.00    -0.207 F 
ATOM     31  F   UNL     1      52.740 137.307  23.981  1.00  0.00    -0.207 F 
ENDBRANCH  22  23
ENDBRANCH   2  22
TORSDOF 4
ENDMDL
MODEL 4
REMARK VINA RESULT:      -5.8      1.155      2.145
REMARK SMILES Cc1ccc(NC(=O)[N-]c2c(F)cc(F)cc2F)c(-c2ccc3c(c2)[N-]C(=O)C3)c1
REMARK SMILES IDX 6 1 7 2 8 3 5 5 2 6 3 7 30 8 4 9 19 10 1 11 20 12 21 13
REMARK SMILES IDX 25 14 22 15 24 16 23 17 26 18 29 19 27 20 28 21 9 22 10 23
REMARK SMILES IDX 11 24 17 25 13 26 16 27 14 28 12 29 18 30 15 31
REMARK H PARENT 6 4
ROOT
ATOM      1  N   UNL     1      46.580 132.910  21.811  1.00  0.00    -0.423 N 
ATOM      2  C   UNL     1      47.242 134.009  22.448  1.00  0.00     0.160 C 
ATOM      3  O   UNL     1      46.935 134.343  23.623  1.00  0.00    -0.298 OA
ATOM      4  H   UNL     1      47.040 132.476  20.979  1.00  0.00     0.029 HD
ENDROOT
BRANCH   1   5
ATOM      5  C   UNL     1      45.437 132.252  22.380  1.00  0.00    -0.033 A 
ATOM      6  C   UNL     1      43.188 131.052  23.576  1.00  0.00    -0.051 A 
ATOM      7  C   UNL     1      44.093 131.787  24.350  1.00  0.00     0.004 A 
ATOM      8  C   UNL     1      43.407 130.918  22.198  1.00  0.00     0.012 A 
ATOM      9  C   UNL     1      45.214 132.370  23.758  1.00  0.00     0.004 A 
ATOM     10  C   UNL     1      44.538 131.492  21.589  1.00  0.00    -0.015 A 
ATOM     11  C   UNL     1      41.961 130.460  24.205  1.00  0.00     0.044 C 
BRANCH  10  12
ATOM     12  C   UNL     1      44.781 131.239  20.148  1.00  0.00    -0.019 A 
ATOM     13  C   UNL     1      45.904 130.481  19.737  1.00  0.00     0.009 A 
ATOM     14  C   UNL     1      43.905 131.765  19.174  1.00  0.00    -0.007 A 
ATOM     15  C   UNL     1      46.142 130.233  18.375  1.00  0.00     0.003 A 
ATOM     16  C   UNL     1      44.162 131.502  17.829  1.00  0.00    -0.130 A 
ATOM     17  C   UNL     1      45.250 130.755  17.439  1.00  0.00    -0.057 A 
ATOM     18  N   UNL     1      43.369 131.932  16.736  1.00  0.00    -0.626 NA
ATOM     19  C   UNL     1      45.280 130.607  15.958  1.00  0.00     0.089 C 
ATOM     20  C   UNL     1      44.050 131.387  15.607  1.00  0.00     0.059 C 
ATOM     21  O   UNL     1      43.642 131.553  14.428  1.00  0.00    -0.320 OA
ENDBRANCH  10  12
ENDBRANCH   1   5
BRANCH   2  22
ATOM     22  N   UNL     1      48.309 134.675  21.762  1.00  0.00    -0.396 NA
BRANCH  22  23
ATOM     23  C   UNL     1      49.527 135.149  22.353  1.00  0.00     0.034 A 
ATOM     24  C   UNL     1      50.020 136.404  21.965  1.00  0.00     0.132 A 
ATOM     25  C   UNL     1      50.202 134.424  23.358  1.00  0.00     0.132 A 
ATOM     26  C   UNL     1      51.193 136.909  22.533  1.00  0.00     0.079 A 
ATOM     27  C   UNL     1      51.376 134.937  23.923  1.00  0.00     0.079 A 
ATOM     28  C   UNL     1      51.874 136.174  23.507  1.00  0.00     0.129 A 
ATOM     29  F   UNL     1      49.367 137.130  21.024  1.00  0.00    -0.207 F 
ATOM     30  F   UNL     1      49.706 133.258  23.836  1.00  0.00    -0.207 F 
ATOM     31  F   UNL     1      53.010 136.668  24.059  1.00  0.00    -0.207 F 
ENDBRANCH  22  23
ENDBRANCH   2  22
TORSDOF 4
ENDMDL
MODEL 5
REMARK VINA RESULT:      -5.4      0.962      1.071
REMARK SMILES Cc1ccc(NC(=O)[N-]c2c(F)cc(F)cc2F)c(-c2ccc3c(c2)[N-]C(=O)C3)c1
REMARK SMILES IDX 6 1 7 2 8 3 5 5 2 6 3 7 30 8 4 9 19 10 1 11 20 12 21 13
REMARK SMILES IDX 25 14 22 15 24 16 23 17 26 18 29 19 27 20 28 21 9 22 10 23
REMARK SMILES IDX 11 24 17 25 13 26 16 27 14 28 12 29 18 30 15 31
REMARK H PARENT 6 4
ROOT
ATOM      1  N   UNL     1      46.879 133.043  21.721  1.00  0.00    -0.423 N 
ATOM      2  C   UNL     1      47.690 134.120  22.206  1.00  0.00     0.160 C 
ATOM      3  O   UNL     1      47.495 134.595  23.357  1.00  0.00    -0.298 OA
ATOM      4  H   UNL     1      47.238 132.485  20.913  1.00  0.00     0.029 HD
ENDROOT
BRANCH   1   5
ATOM      5  C   UNL     1      45.716 132.568  22.415  1.00  0.00    -0.033 A 
ATOM      6  C   UNL     1      43.450 131.724  23.859  1.00  0.00    -0.051 A 
ATOM      7  C   UNL     1      44.555 132.265  24.528  1.00  0.00     0.004 A 
ATOM      8  C   UNL     1      43.478 131.607  22.462  1.00  0.00     0.012 A 
ATOM      9  C   UNL     1      45.681 132.670  23.812  1.00  0.00     0.004 A 
ATOM     10  C   UNL     1      44.611 132.003  21.729  1.00  0.00    -0.015 A 
ATOM     11  C   UNL     1      42.222 131.326  24.625  1.00  0.00     0.044 C 
BRANCH  10  12
ATOM     12  C   UNL     1      44.634 131.767  20.265  1.00  0.00    -0.019 A 
ATOM     13  C   UNL     1      43.610 132.294  19.442  1.00  0.00     0.009 A 
ATOM     14  C   UNL     1      45.668 131.002  19.681  1.00  0.00    -0.007 A 
ATOM     15  C   UNL     1      43.623 132.079  18.054  1.00  0.00     0.003 A 
ATOM     16  C   UNL     1      45.659 130.807  18.301  1.00  0.00    -0.130 A 
ATOM     17  C   UNL     1      44.665 131.332  17.507  1.00  0.00    -0.057 A 
ATOM     18  N   UNL     1      46.634 130.090  17.561  1.00  0.00    -0.626 NA
ATOM     19  C   UNL     1      44.903 130.996  16.077  1.00  0.00     0.089 C 
ATOM     20  C   UNL     1      46.171 130.208  16.217  1.00  0.00     0.059 C 
ATOM     21  O   UNL     1      46.783 129.694  15.245  1.00  0.00    -0.320 OA
ENDBRANCH  10  12
ENDBRANCH   1   5
BRANCH   2  22
ATOM     22  N   UNL     1      48.771 134.600  21.399  1.00  0.00    -0.396 NA
BRANCH  22  23
ATOM     23  C   UNL     1      49.427 135.869  21.533  1.00  0.00     0.034 A 
ATOM     24  C   UNL     1      50.457 135.999  22.476  1.00  0.00     0.132 A 
ATOM     25  C   UNL     1      49.113 136.965  20.701  1.00  0.00     0.132 A 
ATOM     26  C   UNL     1      51.133 137.213  22.623  1.00  0.00     0.079 A 
ATOM     27  C   UNL     1      49.795 138.178  20.853  1.00  0.00     0.079 A 
ATOM     28  C   UNL     1      50.799 138.304  21.816  1.00  0.00     0.129 A 
ATOM     29  F   UNL     1      50.795 134.947  23.264  1.00  0.00    -0.207 F 
ATOM     30  F   UNL     1      48.198 136.853  19.709  1.00  0.00    -0.207 F 
ATOM     31  F   UNL     1      51.458 139.481  21.958  1.00  0.00    -0.207 F 
ENDBRANCH  22  23
ENDBRANCH   2  22
TORSDOF 4
ENDMDL
MODEL 6
REMARK VINA RESULT:      -4.1      5.028      7.785
REMARK SMILES Cc1ccc(NC(=O)[N-]c2c(F)cc(F)cc2F)c(-c2ccc3c(c2)[N-]C(=O)C3)c1
REMARK SMILES IDX 6 1 7 2 8 3 5 5 2 6 3 7 30 8 4 9 19 10 1 11 20 12 21 13
REMARK SMILES IDX 25 14 22 15 24 16 23 17 26 18 29 19 27 20 28 21 9 22 10 23
REMARK SMILES IDX 11 24 17 25 13 26 16 27 14 28 12 29 18 30 15 31
REMARK H PARENT 6 4
ROOT
ATOM      1  N   UNL     1      43.804 129.275  22.452  1.00  0.00    -0.423 N 
ATOM      2  C   UNL     1      43.586 128.208  23.385  1.00  0.00     0.160 C 
ATOM      3  O   UNL     1      43.632 128.428  24.625  1.00  0.00    -0.298 OA
ATOM      4  H   UNL     1      43.478 129.140  21.469  1.00  0.00     0.029 HD
ENDROOT
BRANCH   1   5
ATOM      5  C   UNL     1      44.250 130.580  22.851  1.00  0.00    -0.033 A 
ATOM      6  C   UNL     1      45.149 133.096  23.742  1.00  0.00    -0.051 A 
ATOM      7  C   UNL     1      44.501 132.222  24.624  1.00  0.00     0.004 A 
ATOM      8  C   UNL     1      45.349 132.709  22.409  1.00  0.00     0.012 A 
ATOM      9  C   UNL     1      44.045 130.982  24.177  1.00  0.00     0.004 A 
ATOM     10  C   UNL     1      44.886 131.465  21.943  1.00  0.00    -0.015 A 
ATOM     11  C   UNL     1      45.675 134.412  24.232  1.00  0.00     0.044 C 
BRANCH  10  12
ATOM     12  C   UNL     1      45.031 131.141  20.503  1.00  0.00    -0.019 A 
ATOM     13  C   UNL     1      46.013 130.214  20.077  1.00  0.00     0.009 A 
ATOM     14  C   UNL     1      44.204 131.765  19.544  1.00  0.00    -0.007 A 
ATOM     15  C   UNL     1      46.157 129.898  18.716  1.00  0.00     0.003 A 
ATOM     16  C   UNL     1      44.366 131.432  18.201  1.00  0.00    -0.130 A 
ATOM     17  C   UNL     1      45.316 130.521  17.796  1.00  0.00    -0.057 A 
ATOM     18  N   UNL     1      43.602 131.946  17.123  1.00  0.00    -0.626 NA
ATOM     19  C   UNL     1      45.265 130.332  16.320  1.00  0.00     0.089 C 
ATOM     20  C   UNL     1      44.150 131.277  15.989  1.00  0.00     0.059 C 
ATOM     21  O   UNL     1      43.725 131.470  14.820  1.00  0.00    -0.320 OA
ENDBRANCH  10  12
ENDBRANCH   1   5
BRANCH   2  22
ATOM     22  N   UNL     1      43.243 126.908  22.891  1.00  0.00    -0.396 NA
BRANCH  22  23
ATOM     23  C   UNL     1      44.107 125.763  22.858  1.00  0.00     0.034 A 
ATOM     24  C   UNL     1      43.601 124.552  22.363  1.00  0.00     0.132 A 
ATOM     25  C   UNL     1      45.462 125.837  23.241  1.00  0.00     0.132 A 
ATOM     26  C   UNL     1      44.416 123.419  22.296  1.00  0.00     0.079 A 
ATOM     27  C   UNL     1      46.274 124.699  23.170  1.00  0.00     0.079 A 
ATOM     28  C   UNL     1      45.751 123.491  22.704  1.00  0.00     0.129 A 
ATOM     29  F   UNL     1      42.308 124.469  21.959  1.00  0.00    -0.207 F 
ATOM     30  F   UNL     1      46.020 127.010  23.627  1.00  0.00    -0.207 F 
ATOM     31  F   UNL     1      46.542 122.391  22.635  1.00  0.00    -0.207 F 
ENDBRANCH  22  23
ENDBRANCH   2  22
TORSDOF 4
ENDMDL
MODEL 7
REMARK VINA RESULT:      -4.0      3.740      7.557
REMARK SMILES Cc1ccc(NC(=O)[N-]c2c(F)cc(F)cc2F)c(-c2ccc3c(c2)[N-]C(=O)C3)c1
REMARK SMILES IDX 6 1 7 2 8 3 5 5 2 6 3 7 30 8 4 9 19 10 1 11 20 12 21 13
REMARK SMILES IDX 25 14 22 15 24 16 23 17 26 18 29 19 27 20 28 21 9 22 10 23
REMARK SMILES IDX 11 24 17 25 13 26 16 27 14 28 12 29 18 30 15 31
REMARK H PARENT 6 4
ROOT
ATOM      1  N   UNL     1      45.015 132.270  20.332  1.00  0.00    -0.423 N 
ATOM      2  C   UNL     1      45.364 131.099  19.582  1.00  0.00     0.160 C 
ATOM      3  O   UNL     1      46.308 130.357  19.963  1.00  0.00    -0.298 OA
ATOM      4  H   UNL     1      44.073 132.692  20.171  1.00  0.00     0.029 HD
ENDROOT
BRANCH   1   5
ATOM      5  C   UNL     1      45.804 132.758  21.428  1.00  0.00    -0.033 A 
ATOM      6  C   UNL     1      47.373 133.814  23.514  1.00  0.00    -0.051 A 
ATOM      7  C   UNL     1      47.694 134.088  22.179  1.00  0.00     0.004 A 
ATOM      8  C   UNL     1      46.262 133.011  23.807  1.00  0.00     0.012 A 
ATOM      9  C   UNL     1      46.922 133.553  21.146  1.00  0.00     0.004 A 
ATOM     10  C   UNL     1      45.482 132.457  22.776  1.00  0.00    -0.015 A 
ATOM     11  C   UNL     1      48.177 134.423  24.625  1.00  0.00     0.044 C 
BRANCH  10  12
ATOM     12  C   UNL     1      44.378 131.533  23.131  1.00  0.00    -0.019 A 
ATOM     13  C   UNL     1      43.072 132.034  23.350  1.00  0.00     0.009 A 
ATOM     14  C   UNL     1      44.622 130.149  23.270  1.00  0.00    -0.007 A 
ATOM     15  C   UNL     1      42.019 131.167  23.685  1.00  0.00     0.003 A 
ATOM     16  C   UNL     1      43.559 129.310  23.600  1.00  0.00    -0.130 A 
ATOM     17  C   UNL     1      42.290 129.804  23.801  1.00  0.00    -0.057 A 
ATOM     18  N   UNL     1      43.631 127.902  23.749  1.00  0.00    -0.626 NA
ATOM     19  C   UNL     1      41.342 128.702  24.118  1.00  0.00     0.089 C 
ATOM     20  C   UNL     1      42.288 127.540  24.062  1.00  0.00     0.059 C 
ATOM     21  O   UNL     1      41.941 126.348  24.269  1.00  0.00    -0.320 OA
ENDBRANCH  10  12
ENDBRANCH   1   5
BRANCH   2  22
ATOM     22  N   UNL     1      44.579 130.743  18.438  1.00  0.00    -0.396 NA
BRANCH  22  23
ATOM     23  C   UNL     1      44.998 130.825  17.068  1.00  0.00     0.034 A 
ATOM     24  C   UNL     1      44.213 131.558  16.166  1.00  0.00     0.132 A 
ATOM     25  C   UNL     1      46.207 130.251  16.620  1.00  0.00     0.132 A 
ATOM     26  C   UNL     1      44.598 131.678  14.828  1.00  0.00     0.079 A 
ATOM     27  C   UNL     1      46.587 130.375  15.279  1.00  0.00     0.079 A 
ATOM     28  C   UNL     1      45.782 131.082  14.383  1.00  0.00     0.129 A 
ATOM     29  F   UNL     1      43.064 132.145  16.585  1.00  0.00    -0.207 F 
ATOM     30  F   UNL     1      47.046 129.623  17.478  1.00  0.00    -0.207 F 
ATOM     31  F   UNL     1      46.156 131.203  13.085  1.00  0.00    -0.207 F 
ENDBRANCH  22  23
ENDBRANCH   2  22
TORSDOF 4
ENDMDL
MODEL 8
REMARK VINA RESULT:      -3.8      5.343      7.075
REMARK SMILES Cc1ccc(NC(=O)[N-]c2c(F)cc(F)cc2F)c(-c2ccc3c(c2)[N-]C(=O)C3)c1
REMARK SMILES IDX 6 1 7 2 8 3 5 5 2 6 3 7 30 8 4 9 19 10 1 11 20 12 21 13
REMARK SMILES IDX 25 14 22 15 24 16 23 17 26 18 29 19 27 20 28 21 9 22 10 23
REMARK SMILES IDX 11 24 17 25 13 26 16 27 14 28 12 29 18 30 15 31
REMARK H PARENT 6 4
ROOT
ATOM      1  N   UNL     1      45.036 129.638  20.836  1.00  0.00    -0.423 N 
ATOM      2  C   UNL     1      45.196 128.568  21.776  1.00  0.00     0.160 C 
ATOM      3  O   UNL     1      44.338 128.381  22.680  1.00  0.00    -0.298 OA
ATOM      4  H   UNL     1      45.581 129.594  19.946  1.00  0.00     0.029 HD
ENDROOT
BRANCH   1   5
ATOM      5  C   UNL     1      44.019 130.643  20.965  1.00  0.00    -0.033 A 
ATOM      6  C   UNL     1      42.062 132.635  21.330  1.00  0.00    -0.051 A 
ATOM      7  C   UNL     1      42.457 131.826  22.403  1.00  0.00     0.004 A 
ATOM      8  C   UNL     1      42.648 132.448  20.071  1.00  0.00     0.012 A 
ATOM      9  C   UNL     1      43.418 130.832  22.216  1.00  0.00     0.004 A 
ATOM     10  C   UNL     1      43.611 131.442  19.867  1.00  0.00    -0.015 A 
ATOM     11  C   UNL     1      41.059 133.732  21.540  1.00  0.00     0.044 C 
BRANCH  10  12
ATOM     12  C   UNL     1      44.130 131.216  18.496  1.00  0.00    -0.019 A 
ATOM     13  C   UNL     1      43.382 131.642  17.372  1.00  0.00     0.009 A 
ATOM     14  C   UNL     1      45.365 130.560  18.299  1.00  0.00    -0.007 A 
ATOM     15  C   UNL     1      43.865 131.435  16.069  1.00  0.00     0.003 A 
ATOM     16  C   UNL     1      45.823 130.371  16.997  1.00  0.00    -0.130 A 
ATOM     17  C   UNL     1      45.094 130.797  15.910  1.00  0.00    -0.057 A 
ATOM     18  N   UNL     1      47.048 129.758  16.632  1.00  0.00    -0.626 NA
ATOM     19  C   UNL     1      45.814 130.492  14.643  1.00  0.00     0.089 C 
ATOM     20  C   UNL     1      47.037 129.835  15.208  1.00  0.00     0.059 C 
ATOM     21  O   UNL     1      47.978 129.388  14.501  1.00  0.00    -0.320 OA
ENDBRANCH  10  12
ENDBRANCH   1   5
BRANCH   2  22
ATOM     22  N   UNL     1      46.302 127.669  21.630  1.00  0.00    -0.396 NA
BRANCH  22  23
ATOM     23  C   UNL     1      46.366 126.322  22.120  1.00  0.00     0.034 A 
ATOM     24  C   UNL     1      47.571 125.863  22.672  1.00  0.00     0.132 A 
ATOM     25  C   UNL     1      45.238 125.475  22.127  1.00  0.00     0.132 A 
ATOM     26  C   UNL     1      47.667 124.564  23.179  1.00  0.00     0.079 A 
ATOM     27  C   UNL     1      45.341 124.175  22.637  1.00  0.00     0.079 A 
ATOM     28  C   UNL     1      46.555 123.718  23.156  1.00  0.00     0.129 A 
ATOM     29  F   UNL     1      48.658 126.674  22.704  1.00  0.00    -0.207 F 
ATOM     30  F   UNL     1      44.029 125.911  21.700  1.00  0.00    -0.207 F 
ATOM     31  F   UNL     1      46.649 122.459  23.652  1.00  0.00    -0.207 F 
ENDBRANCH  22  23
ENDBRANCH   2  22
TORSDOF 4
ENDMDL
MODEL 9
REMARK VINA RESULT:      -3.6      4.895      7.537
REMARK SMILES Cc1ccc(NC(=O)[N-]c2c(F)cc(F)cc2F)c(-c2ccc3c(c2)[N-]C(=O)C3)c1
REMARK SMILES IDX 6 1 7 2 8 3 5 5 2 6 3 7 30 8 4 9 19 10 1 11 20 12 21 13
REMARK SMILES IDX 25 14 22 15 24 16 23 17 26 18 29 19 27 20 28 21 9 22 10 23
REMARK SMILES IDX 11 24 17 25 13 26 16 27 14 28 12 29 18 30 15 31
REMARK H PARENT 6 4
ROOT
ATOM      1  N   UNL     1      44.539 130.278  20.027  1.00  0.00    -0.423 N 
ATOM      2  C   UNL     1      45.861 130.731  19.708  1.00  0.00     0.160 C 
ATOM      3  O   UNL     1      46.522 131.404  20.543  1.00  0.00    -0.298 OA
ATOM      4  H   UNL     1      44.138 129.498  19.460  1.00  0.00     0.029 HD
ENDROOT
BRANCH   1   5
ATOM      5  C   UNL     1      43.835 130.697  21.207  1.00  0.00    -0.033 A 
ATOM      6  C   UNL     1      42.374 131.576  23.448  1.00  0.00    -0.051 A 
ATOM      7  C   UNL     1      42.466 132.378  22.304  1.00  0.00     0.004 A 
ATOM      8  C   UNL     1      43.014 130.329  23.470  1.00  0.00     0.012 A 
ATOM      9  C   UNL     1      43.200 131.946  21.200  1.00  0.00     0.004 A 
ATOM     10  C   UNL     1      43.766 129.886  22.367  1.00  0.00    -0.015 A 
ATOM     11  C   UNL     1      41.550 132.022  24.621  1.00  0.00     0.044 C 
BRANCH  10  12
ATOM     12  C   UNL     1      44.508 128.605  22.475  1.00  0.00    -0.019 A 
ATOM     13  C   UNL     1      45.655 128.378  21.677  1.00  0.00     0.009 A 
ATOM     14  C   UNL     1      44.067 127.598  23.360  1.00  0.00    -0.007 A 
ATOM     15  C   UNL     1      46.366 127.170  21.773  1.00  0.00     0.003 A 
ATOM     16  C   UNL     1      44.792 126.410  23.438  1.00  0.00    -0.130 A 
ATOM     17  C   UNL     1      45.913 126.201  22.667  1.00  0.00    -0.057 A 
ATOM     18  N   UNL     1      44.499 125.317  24.291  1.00  0.00    -0.626 NA
ATOM     19  C   UNL     1      46.508 124.868  22.957  1.00  0.00     0.089 C 
ATOM     20  C   UNL     1      45.540 124.387  23.996  1.00  0.00     0.059 C 
ATOM     21  O   UNL     1      45.628 123.269  24.566  1.00  0.00    -0.320 OA
ENDBRANCH  10  12
ENDBRANCH   1   5
BRANCH   2  22
ATOM     22  N   UNL     1      46.448 130.346  18.460  1.00  0.00    -0.396 NA
BRANCH  22  23
ATOM     23  C   UNL     1      45.858 130.514  17.162  1.00  0.00     0.034 A 
ATOM     24  C   UNL     1      44.730 131.338  17.036  1.00  0.00     0.132 A 
ATOM     25  C   UNL     1      46.418 129.932  16.005  1.00  0.00     0.132 A 
ATOM     26  C   UNL     1      44.138 131.542  15.787  1.00  0.00     0.079 A 
ATOM     27  C   UNL     1      45.821 130.141  14.757  1.00  0.00     0.079 A 
ATOM     28  C   UNL     1      44.680 130.940  14.648  1.00  0.00     0.129 A 
ATOM     29  F   UNL     1      44.196 131.933  18.133  1.00  0.00    -0.207 F 
ATOM     30  F   UNL     1      47.564 129.213  16.066  1.00  0.00    -0.207 F 
ATOM     31  F   UNL     1      44.106 131.142  13.436  1.00  0.00    -0.207 F 
ENDBRANCH  22  23
ENDBRANCH   2  22
TORSDOF 4
ENDMDL


