REMARK SMILES Cc1ccc(Nc2ccc3cc[nH]c3c2OC(=O)[N-]c2ccc(C#N)c(C#N)c2)cc1
REMARK SMILES IDX 16 1 15 2 7 3 8 4 9 5 14 6 10 7 13 8 11 9 12 10 6 12 5 14
REMARK SMILES IDX 2 15 3 16 31 17 4 18 30 19 1 20 17 21 18 22 19 23 20 24
REMARK SMILES IDX 21 25 29 26 22 27 26 28 23 29 27 30 28 31 24 32 25 33
REMARK H PARENT 13 11 6 13
ROOT
ATOM      1  O   UNL     1       0.694  -1.009   1.050  1.00  0.00    -0.435 OA
ENDROOT
BRANCH   1   2
ATOM      2  C   UNL     1       1.928  -1.583   0.725  1.00  0.00     0.176 A 
ATOM      3  C   UNL     1       3.046  -0.758   0.441  1.00  0.00     0.084 A 
ATOM      4  C   UNL     1       4.309  -1.347   0.189  1.00  0.00     0.031 A 
ATOM      5  C   UNL     1       4.459  -2.743   0.159  1.00  0.00     0.013 A 
ATOM      6  C   UNL     1       2.109  -2.972   0.666  1.00  0.00     0.091 A 
ATOM      7  C   UNL     1       3.332  -3.524   0.394  1.00  0.00     0.003 A 
ATOM      8  N   UNL     1       1.181  -3.934   0.815  1.00  0.00    -0.358 N 
ATOM      9  C   UNL     1       3.179  -4.893   0.385  1.00  0.00     0.028 A 
ATOM     10  C   UNL     1       1.831  -5.108   0.648  1.00  0.00     0.083 A 
ATOM     11  H   UNL     1       0.160  -3.814   0.995  1.00  0.00     0.166 HD
BRANCH   3  12
ATOM     12  N   UNL     1       2.939   0.675   0.482  1.00  0.00    -0.352 N 
ATOM     13  H   UNL     1       3.724   1.215   0.912  1.00  0.00     0.167 HD
BRANCH  12  14
ATOM     14  C   UNL     1       1.826   1.406  -0.058  1.00  0.00     0.038 A 
ATOM     15  C   UNL     1      -0.340   2.870  -1.100  1.00  0.00    -0.051 A 
ATOM     16  C   UNL     1       0.083   1.689  -1.729  1.00  0.00     0.005 A 
ATOM     17  C   UNL     1       0.345   3.329   0.034  1.00  0.00     0.005 A 
ATOM     18  C   UNL     1       1.153   0.958  -1.207  1.00  0.00     0.026 A 
ATOM     19  C   UNL     1       1.427   2.606   0.546  1.00  0.00     0.026 A 
ATOM     20  C   UNL     1      -1.480   3.669  -1.658  1.00  0.00     0.044 C 
ENDBRANCH  12  14
ENDBRANCH   3  12
ENDBRANCH   1   2
BRANCH   1  21
ATOM     21  C   UNL     1      -0.037  -1.322   2.200  1.00  0.00     0.238 C 
ATOM     22  O   UNL     1       0.460  -2.054   3.098  1.00  0.00    -0.273 OA
BRANCH  21  23
ATOM     23  N   UNL     1      -1.322  -0.733   2.414  1.00  0.00    -0.590 NA
BRANCH  23  24
ATOM     24  C   UNL     1      -2.116  -0.099   1.403  1.00  0.00    -0.130 A 
ATOM     25  C   UNL     1      -2.994   0.924   1.776  1.00  0.00    -0.014 A 
ATOM     26  C   UNL     1      -2.080  -0.522   0.063  1.00  0.00     0.005 A 
ATOM     27  C   UNL     1      -3.802   1.547   0.822  1.00  0.00     0.019 A 
ATOM     28  C   UNL     1      -2.895   0.091  -0.898  1.00  0.00     0.069 A 
ATOM     29  C   UNL     1      -3.760   1.137  -0.517  1.00  0.00     0.070 A 
BRANCH  28  30
ATOM     30  C   UNL     1      -2.835  -0.371  -2.265  1.00  0.00     0.100 C 
ATOM     31  N   UNL     1      -2.786  -0.742  -3.360  1.00  0.00    -0.192 NA
ENDBRANCH  28  30
BRANCH  29  32
ATOM     32  C   UNL     1      -4.612   1.796  -1.478  1.00  0.00     0.101 C 
ATOM     33  N   UNL     1      -5.295   2.325  -2.248  1.00  0.00    -0.192 NA
ENDBRANCH  29  32
ENDBRANCH  23  24
ENDBRANCH  21  23
ENDBRANCH   1  21
TORSDOF 8


