MODEL 1
REMARK VINA RESULT:      -9.1      0.000      0.000
REMARK SMILES CC(=O)c1ccc(-c2cc(N=C=O)c([O-])c([NH2+]c3ccc(C)c(F)c3)c2)c[nH+]1
REMARK SMILES IDX 9 1 10 2 14 3 15 4 16 5 26 6 8 7 11 8 12 9 13 10 7 11 6 12
REMARK SMILES IDX 27 13 5 14 28 15 4 16 2 18 3 19 1 20 17 21 18 24 19 25 25 26
REMARK SMILES IDX 20 27 23 28 21 29 24 30 22 31
REMARK H PARENT 28 17 17 22 17 23
ROOT
ATOM      1  C   UNL     1      43.538 131.988  18.849  1.00  0.00     0.038 A 
ATOM      2  C   UNL     1      42.848 132.237  20.040  1.00  0.00     0.075 A 
ATOM      3  C   UNL     1      43.350 131.708  21.255  1.00  0.00    -0.018 A 
ATOM      4  O   UNL     1      42.688 131.938  22.456  1.00  0.00    -0.867 OA
ATOM      5  C   UNL     1      44.532 130.937  21.255  1.00  0.00     0.129 A 
ATOM      6  C   UNL     1      45.205 130.707  20.044  1.00  0.00     0.076 A 
ATOM      7  C   UNL     1      44.718 131.228  18.836  1.00  0.00    -0.004 A 
ENDROOT
BRANCH   2   8
ATOM      8  N   UNL     1      41.652 133.034  19.959  1.00  0.00    -0.168 NA
BRANCH   8   9
ATOM      9  C   UNL     1      40.934 133.391  20.948  1.00  0.00     0.240 C 
ATOM     10  O   UNL     1      40.235 133.739  21.907  1.00  0.00    -0.211 OA
ENDBRANCH   8   9
ENDBRANCH   2   8
BRANCH   7  11
ATOM     11  C   UNL     1      45.444 130.984  17.563  1.00  0.00     0.046 A 
ATOM     12  C   UNL     1      45.412 131.927  16.526  1.00  0.00     0.022 A 
ATOM     13  C   UNL     1      46.178 129.805  17.367  1.00  0.00     0.315 A 
ATOM     14  C   UNL     1      46.097 131.688  15.335  1.00  0.00     0.084 A 
ATOM     15  N   UNL     1      46.842 129.587  16.199  1.00  0.00    -0.208 N 
ATOM     16  C   UNL     1      46.824 130.495  15.175  1.00  0.00     0.246 A 
ATOM     17  H   UNL     1      47.378 128.697  16.103  1.00  0.00     0.454 HD
BRANCH  16  18
ATOM     18  C   UNL     1      47.565 130.208  13.917  1.00  0.00     0.223 C 
ATOM     19  O   UNL     1      48.232 129.144  13.817  1.00  0.00    -0.288 OA
ATOM     20  C   UNL     1      47.545 131.151  12.752  1.00  0.00     0.100 C 
ENDBRANCH  16  18
ENDBRANCH   7  11
BRANCH   5  21
ATOM     21  N   UNL     1      45.080 130.418  22.487  1.00  0.00    -0.282 N 
ATOM     22  H   UNL     1      44.812 131.037  23.287  1.00  0.00     0.358 HD
ATOM     23  H   UNL     1      46.126 130.417  22.456  1.00  0.00     0.358 HD
BRANCH  21  24
ATOM     24  C   UNL     1      44.581 129.084  22.717  1.00  0.00     0.137 A 
ATOM     25  C   UNL     1      43.393 128.881  23.442  1.00  0.00     0.068 A 
ATOM     26  C   UNL     1      45.291 127.966  22.245  1.00  0.00     0.107 A 
ATOM     27  C   UNL     1      42.926 127.587  23.689  1.00  0.00     0.012 A 
ATOM     28  C   UNL     1      44.826 126.671  22.492  1.00  0.00     0.132 A 
ATOM     29  C   UNL     1      43.645 126.473  23.226  1.00  0.00    -0.015 A 
ATOM     30  F   UNL     1      45.526 125.611  22.017  1.00  0.00    -0.206 F 
ATOM     31  C   UNL     1      43.131 125.084  23.471  1.00  0.00     0.047 C 
ENDBRANCH  21  24
ENDBRANCH   5  21
TORSDOF 6
ENDMDL
MODEL 2
REMARK VINA RESULT:      -8.8      1.005      1.403
REMARK SMILES CC(=O)c1ccc(-c2cc(N=C=O)c([O-])c([NH2+]c3ccc(C)c(F)c3)c2)c[nH+]1
REMARK SMILES IDX 9 1 10 2 14 3 15 4 16 5 26 6 8 7 11 8 12 9 13 10 7 11 6 12
REMARK SMILES IDX 27 13 5 14 28 15 4 16 2 18 3 19 1 20 17 21 18 24 19 25 25 26
REMARK SMILES IDX 20 27 23 28 21 29 24 30 22 31
REMARK H PARENT 28 17 17 22 17 23
ROOT
ATOM      1  C   UNL     1      43.508 131.992  18.824  1.00  0.00     0.038 A 
ATOM      2  C   UNL     1      42.831 132.208  20.031  1.00  0.00     0.075 A 
ATOM      3  C   UNL     1      43.366 131.672  21.229  1.00  0.00    -0.018 A 
ATOM      4  O   UNL     1      42.718 131.870  22.444  1.00  0.00    -0.867 OA
ATOM      5  C   UNL     1      44.565 130.929  21.198  1.00  0.00     0.129 A 
ATOM      6  C   UNL     1      45.222 130.732  19.973  1.00  0.00     0.076 A 
ATOM      7  C   UNL     1      44.704 131.259  18.781  1.00  0.00    -0.004 A 
ENDROOT
BRANCH   2   8
ATOM      8  N   UNL     1      41.617 132.978  19.980  1.00  0.00    -0.168 NA
BRANCH   8   9
ATOM      9  C   UNL     1      40.935 133.348  20.990  1.00  0.00     0.240 C 
ATOM     10  O   UNL     1      40.274 133.707  21.972  1.00  0.00    -0.211 OA
ENDBRANCH   8   9
ENDBRANCH   2   8
BRANCH   7  11
ATOM     11  C   UNL     1      45.414 131.050  17.494  1.00  0.00     0.046 A 
ATOM     12  C   UNL     1      45.280 131.968  16.442  1.00  0.00     0.022 A 
ATOM     13  C   UNL     1      46.235 129.931  17.297  1.00  0.00     0.315 A 
ATOM     14  C   UNL     1      45.950 131.763  15.237  1.00  0.00     0.084 A 
ATOM     15  N   UNL     1      46.884 129.745  16.115  1.00  0.00    -0.208 N 
ATOM     16  C   UNL     1      46.767 130.628  15.077  1.00  0.00     0.246 A 
ATOM     17  H   UNL     1      47.487 128.898  16.019  1.00  0.00     0.454 HD
BRANCH  16  18
ATOM     18  C   UNL     1      47.495 130.379  13.804  1.00  0.00     0.223 C 
ATOM     19  O   UNL     1      47.298 131.137  12.816  1.00  0.00    -0.288 OA
ATOM     20  C   UNL     1      48.466 129.247  13.653  1.00  0.00     0.100 C 
ENDBRANCH  16  18
ENDBRANCH   7  11
BRANCH   5  21
ATOM     21  N   UNL     1      45.145 130.405  22.413  1.00  0.00    -0.282 N 
ATOM     22  H   UNL     1      44.842 130.982  23.233  1.00  0.00     0.358 HD
ATOM     23  H   UNL     1      46.188 130.466  22.383  1.00  0.00     0.358 HD
BRANCH  21  24
ATOM     24  C   UNL     1      44.726 129.037  22.601  1.00  0.00     0.137 A 
ATOM     25  C   UNL     1      45.431 127.984  21.992  1.00  0.00     0.068 A 
ATOM     26  C   UNL     1      43.587 128.740  23.370  1.00  0.00     0.107 A 
ATOM     27  C   UNL     1      45.006 126.662  22.151  1.00  0.00     0.012 A 
ATOM     28  C   UNL     1      43.160 127.417  23.529  1.00  0.00     0.132 A 
ATOM     29  C   UNL     1      43.862 126.370  22.910  1.00  0.00    -0.015 A 
ATOM     30  F   UNL     1      42.064 127.159  24.284  1.00  0.00    -0.206 F 
ATOM     31  C   UNL     1      43.420 124.948  23.100  1.00  0.00     0.047 C 
ENDBRANCH  21  24
ENDBRANCH   5  21
TORSDOF 6
ENDMDL
MODEL 3
REMARK VINA RESULT:      -7.3      1.010      1.540
REMARK SMILES CC(=O)c1ccc(-c2cc(N=C=O)c([O-])c([NH2+]c3ccc(C)c(F)c3)c2)c[nH+]1
REMARK SMILES IDX 9 1 10 2 14 3 15 4 16 5 26 6 8 7 11 8 12 9 13 10 7 11 6 12
REMARK SMILES IDX 27 13 5 14 28 15 4 16 2 18 3 19 1 20 17 21 18 24 19 25 25 26
REMARK SMILES IDX 20 27 23 28 21 29 24 30 22 31
REMARK H PARENT 28 17 17 22 17 23
ROOT
ATOM      1  C   UNL     1      43.511 131.713  18.683  1.00  0.00     0.038 A 
ATOM      2  C   UNL     1      42.806 131.914  19.875  1.00  0.00     0.075 A 
ATOM      3  C   UNL     1      43.359 131.449  21.093  1.00  0.00    -0.018 A 
ATOM      4  O   UNL     1      42.683 131.634  22.295  1.00  0.00    -0.867 OA
ATOM      5  C   UNL     1      44.606 130.788  21.098  1.00  0.00     0.129 A 
ATOM      6  C   UNL     1      45.292 130.604  19.886  1.00  0.00     0.076 A 
ATOM      7  C   UNL     1      44.755 131.062  18.674  1.00  0.00    -0.004 A 
ENDROOT
BRANCH   2   8
ATOM      8  N   UNL     1      41.542 132.598  19.789  1.00  0.00    -0.168 NA
BRANCH   8   9
ATOM      9  C   UNL     1      40.977 133.227  20.741  1.00  0.00     0.240 C 
ATOM     10  O   UNL     1      40.428 133.836  21.667  1.00  0.00    -0.211 OA
ENDBRANCH   8   9
ENDBRANCH   2   8
BRANCH   7  11
ATOM     11  C   UNL     1      45.495 130.868  17.401  1.00  0.00     0.046 A 
ATOM     12  C   UNL     1      45.991 129.606  17.044  1.00  0.00     0.022 A 
ATOM     13  C   UNL     1      45.717 131.941  16.525  1.00  0.00     0.315 A 
ATOM     14  C   UNL     1      46.685 129.435  15.848  1.00  0.00     0.084 A 
ATOM     15  N   UNL     1      46.396 131.757  15.360  1.00  0.00    -0.208 N 
ATOM     16  C   UNL     1      46.888 130.534  14.994  1.00  0.00     0.246 A 
ATOM     17  H   UNL     1      46.531 132.586  14.740  1.00  0.00     0.454 HD
BRANCH  16  18
ATOM     18  C   UNL     1      47.624 130.385  13.710  1.00  0.00     0.223 C 
ATOM     19  O   UNL     1      48.438 129.432  13.566  1.00  0.00    -0.288 OA
ATOM     20  C   UNL     1      47.433 131.338  12.568  1.00  0.00     0.100 C 
ENDBRANCH  16  18
ENDBRANCH   7  11
BRANCH   5  21
ATOM     21  N   UNL     1      45.203 130.338  22.333  1.00  0.00    -0.282 N 
ATOM     22  H   UNL     1      44.839 130.904  23.135  1.00  0.00     0.358 HD
ATOM     23  H   UNL     1      46.239 130.484  22.320  1.00  0.00     0.358 HD
BRANCH  21  24
ATOM     24  C   UNL     1      44.894 128.944  22.543  1.00  0.00     0.137 A 
ATOM     25  C   UNL     1      45.520 127.950  21.770  1.00  0.00     0.068 A 
ATOM     26  C   UNL     1      43.939 128.562  23.501  1.00  0.00     0.107 A 
ATOM     27  C   UNL     1      45.197 126.602  21.953  1.00  0.00     0.012 A 
ATOM     28  C   UNL     1      43.615 127.214  23.686  1.00  0.00     0.132 A 
ATOM     29  C   UNL     1      44.235 126.226  22.904  1.00  0.00    -0.015 A 
ATOM     30  F   UNL     1      42.697 126.874  24.625  1.00  0.00    -0.206 F 
ATOM     31  C   UNL     1      43.906 124.777  23.118  1.00  0.00     0.047 C 
ENDBRANCH  21  24
ENDBRANCH   5  21
TORSDOF 6
ENDMDL
MODEL 4
REMARK VINA RESULT:      -6.4      1.246      1.446
REMARK SMILES CC(=O)c1ccc(-c2cc(N=C=O)c([O-])c([NH2+]c3ccc(C)c(F)c3)c2)c[nH+]1
REMARK SMILES IDX 9 1 10 2 14 3 15 4 16 5 26 6 8 7 11 8 12 9 13 10 7 11 6 12
REMARK SMILES IDX 27 13 5 14 28 15 4 16 2 18 3 19 1 20 17 21 18 24 19 25 25 26
REMARK SMILES IDX 20 27 23 28 21 29 24 30 22 31
REMARK H PARENT 28 17 17 22 17 23
ROOT
ATOM      1  C   UNL     1      44.006 131.553  20.021  1.00  0.00     0.038 A 
ATOM      2  C   UNL     1      43.533 131.572  21.338  1.00  0.00     0.075 A 
ATOM      3  C   UNL     1      44.059 130.648  22.275  1.00  0.00    -0.018 A 
ATOM      4  O   UNL     1      43.611 130.642  23.592  1.00  0.00    -0.867 OA
ATOM      5  C   UNL     1      45.045 129.721  21.877  1.00  0.00     0.129 A 
ATOM      6  C   UNL     1      45.502 129.728  20.549  1.00  0.00     0.076 A 
ATOM      7  C   UNL     1      44.990 130.639  19.614  1.00  0.00    -0.004 A 
ENDROOT
BRANCH   2   8
ATOM      8  N   UNL     1      42.529 132.549  21.667  1.00  0.00    -0.168 NA
BRANCH   8   9
ATOM      9  C   UNL     1      41.649 133.002  20.867  1.00  0.00     0.240 C 
ATOM     10  O   UNL     1      40.795 133.444  20.088  1.00  0.00    -0.211 OA
ENDBRANCH   8   9
ENDBRANCH   2   8
BRANCH   7  11
ATOM     11  C   UNL     1      45.489 130.641  18.215  1.00  0.00     0.046 A 
ATOM     12  C   UNL     1      45.166 131.688  17.339  1.00  0.00     0.022 A 
ATOM     13  C   UNL     1      46.293 129.597  17.734  1.00  0.00     0.315 A 
ATOM     14  C   UNL     1      45.638 131.680  16.027  1.00  0.00     0.084 A 
ATOM     15  N   UNL     1      46.747 129.605  16.451  1.00  0.00    -0.208 N 
ATOM     16  C   UNL     1      46.444 130.617  15.581  1.00  0.00     0.246 A 
ATOM     17  H   UNL     1      47.346 128.808  16.143  1.00  0.00     0.454 HD
BRANCH  16  18
ATOM     18  C   UNL     1      46.964 130.577  14.188  1.00  0.00     0.223 C 
ATOM     19  O   UNL     1      46.475 131.350  13.320  1.00  0.00    -0.288 OA
ATOM     20  C   UNL     1      48.060 129.642  13.775  1.00  0.00     0.100 C 
ENDBRANCH  16  18
ENDBRANCH   7  11
BRANCH   5  21
ATOM     21  N   UNL     1      45.619 128.794  22.826  1.00  0.00    -0.282 N 
ATOM     22  H   UNL     1      45.622 129.217  23.783  1.00  0.00     0.358 HD
ATOM     23  H   UNL     1      46.619 128.595  22.591  1.00  0.00     0.358 HD
BRANCH  21  24
ATOM     24  C   UNL     1      44.851 127.573  22.838  1.00  0.00     0.137 A 
ATOM     25  C   UNL     1      43.552 127.552  23.375  1.00  0.00     0.068 A 
ATOM     26  C   UNL     1      45.403 126.379  22.340  1.00  0.00     0.107 A 
ATOM     27  C   UNL     1      42.820 126.361  23.413  1.00  0.00     0.012 A 
ATOM     28  C   UNL     1      44.672 125.187  22.378  1.00  0.00     0.132 A 
ATOM     29  C   UNL     1      43.378 125.169  22.925  1.00  0.00    -0.015 A 
ATOM     30  F   UNL     1      45.225 124.053  21.882  1.00  0.00    -0.206 F 
ATOM     31  C   UNL     1      42.584 123.895  22.944  1.00  0.00     0.047 C 
ENDBRANCH  21  24
ENDBRANCH   5  21
TORSDOF 6
ENDMDL
MODEL 5
REMARK VINA RESULT:      -6.2      4.727      7.654
REMARK SMILES CC(=O)c1ccc(-c2cc(N=C=O)c([O-])c([NH2+]c3ccc(C)c(F)c3)c2)c[nH+]1
REMARK SMILES IDX 9 1 10 2 14 3 15 4 16 5 26 6 8 7 11 8 12 9 13 10 7 11 6 12
REMARK SMILES IDX 27 13 5 14 28 15 4 16 2 18 3 19 1 20 17 21 18 24 19 25 25 26
REMARK SMILES IDX 20 27 23 28 21 29 24 30 22 31
REMARK H PARENT 28 17 17 22 17 23
ROOT
ATOM      1  C   UNL     1      45.086 124.810  22.684  1.00  0.00     0.038 A 
ATOM      2  C   UNL     1      43.752 125.163  22.919  1.00  0.00     0.075 A 
ATOM      3  C   UNL     1      43.460 126.434  23.471  1.00  0.00    -0.018 A 
ATOM      4  O   UNL     1      42.144 126.815  23.715  1.00  0.00    -0.867 OA
ATOM      5  C   UNL     1      44.506 127.328  23.783  1.00  0.00     0.129 A 
ATOM      6  C   UNL     1      45.835 126.946  23.534  1.00  0.00     0.076 A 
ATOM      7  C   UNL     1      46.136 125.691  22.985  1.00  0.00    -0.004 A 
ENDROOT
BRANCH   2   8
ATOM      8  N   UNL     1      42.741 124.199  22.572  1.00  0.00    -0.168 NA
BRANCH   8   9
ATOM      9  C   UNL     1      42.869 123.274  21.706  1.00  0.00     0.240 C 
ATOM     10  O   UNL     1      42.992 122.377  20.863  1.00  0.00    -0.211 OA
ENDBRANCH   8   9
ENDBRANCH   2   8
BRANCH   7  11
ATOM     11  C   UNL     1      47.545 125.304  22.719  1.00  0.00     0.046 A 
ATOM     12  C   UNL     1      48.568 125.660  23.609  1.00  0.00     0.022 A 
ATOM     13  C   UNL     1      47.887 124.574  21.571  1.00  0.00     0.315 A 
ATOM     14  C   UNL     1      49.887 125.293  23.349  1.00  0.00     0.084 A 
ATOM     15  N   UNL     1      49.181 124.223  21.332  1.00  0.00    -0.208 N 
ATOM     16  C   UNL     1      50.193 124.560  22.188  1.00  0.00     0.246 A 
ATOM     17  H   UNL     1      49.384 123.676  20.467  1.00  0.00     0.454 HD
BRANCH  16  18
ATOM     18  C   UNL     1      51.591 124.153  21.882  1.00  0.00     0.223 C 
ATOM     19  O   UNL     1      52.151 123.273  22.590  1.00  0.00    -0.288 OA
ATOM     20  C   UNL     1      52.364 124.757  20.749  1.00  0.00     0.100 C 
ENDBRANCH  16  18
ENDBRANCH   7  11
BRANCH   5  21
ATOM     21  N   UNL     1      44.227 128.642  24.314  1.00  0.00    -0.282 N 
ATOM     22  H   UNL     1      45.018 128.958  24.923  1.00  0.00     0.358 HD
ATOM     23  H   UNL     1      43.378 128.622  24.925  1.00  0.00     0.358 HD
BRANCH  21  24
ATOM     24  C   UNL     1      44.046 129.576  23.230  1.00  0.00     0.137 A 
ATOM     25  C   UNL     1      42.946 130.452  23.218  1.00  0.00     0.068 A 
ATOM     26  C   UNL     1      44.950 129.603  22.154  1.00  0.00     0.107 A 
ATOM     27  C   UNL     1      42.755 131.336  22.152  1.00  0.00     0.012 A 
ATOM     28  C   UNL     1      44.761 130.487  21.087  1.00  0.00     0.132 A 
ATOM     29  C   UNL     1      43.655 131.352  21.074  1.00  0.00    -0.015 A 
ATOM     30  F   UNL     1      45.655 130.498  20.066  1.00  0.00    -0.206 F 
ATOM     31  C   UNL     1      43.464 132.317  19.941  1.00  0.00     0.047 C 
ENDBRANCH  21  24
ENDBRANCH   5  21
TORSDOF 6
ENDMDL


