REMARK SMILES NNc1ccc2cc3ccccc3cc2c1
REMARK SMILES IDX 1 1 2 4 3 6 4 7 16 8 5 9 15 10 6 11 14 12 7 13 13 14 8 15
REMARK SMILES IDX 12 16 9 17 11 18 10 19
REMARK H PARENT 1 2 1 3 2 5
ROOT
ATOM      1  N   UNL     1       1.098  -4.615   0.783  1.00  0.00    -0.250 NA
ATOM      2  H   UNL     1       2.080  -4.730   0.445  1.00  0.00     0.143 HD
ATOM      3  H   UNL     1       0.951  -5.316   1.544  1.00  0.00     0.143 HD
ENDROOT
BRANCH   1   4
ATOM      4  N   UNL     1       1.008  -3.344   1.369  1.00  0.00    -0.324 N 
ATOM      5  H   UNL     1       1.652  -3.104   2.158  1.00  0.00     0.181 HD
BRANCH   4   6
ATOM      6  C   UNL     1       0.057  -2.372   0.910  1.00  0.00     0.049 A 
ATOM      7  C   UNL     1      -0.823  -2.662  -0.148  1.00  0.00     0.028 A 
ATOM      8  C   UNL     1       0.001  -1.112   1.525  1.00  0.00     0.035 A 
ATOM      9  C   UNL     1      -1.744  -1.707  -0.585  1.00  0.00     0.011 A 
ATOM     10  C   UNL     1      -0.922  -0.147   1.092  1.00  0.00    -0.016 A 
ATOM     11  C   UNL     1      -1.803  -0.447   0.027  1.00  0.00    -0.018 A 
ATOM     12  C   UNL     1      -0.976   1.113   1.709  1.00  0.00     0.017 A 
ATOM     13  C   UNL     1      -2.726   0.514  -0.409  1.00  0.00     0.017 A 
ATOM     14  C   UNL     1      -1.899   2.075   1.273  1.00  0.00    -0.018 A 
ATOM     15  C   UNL     1      -2.781   1.773   0.207  1.00  0.00    -0.018 A 
ATOM     16  C   UNL     1      -1.957   3.337   1.887  1.00  0.00     0.009 A 
ATOM     17  C   UNL     1      -3.703   2.740  -0.225  1.00  0.00     0.009 A 
ATOM     18  C   UNL     1      -2.881   4.289   1.446  1.00  0.00     0.001 A 
ATOM     19  C   UNL     1      -3.750   3.992   0.394  1.00  0.00     0.001 A 
ENDBRANCH   4   6
ENDBRANCH   1   4
TORSDOF 2


