REMARK SMILES CCCOCOc1ccc(-c2ccc(C(C)=O)c3n[nH]cc23)cc1
REMARK SMILES IDX 5 1 4 2 3 3 2 4 1 5 6 6 7 7 8 8 24 9 9 10 23 11 10 12 11 13
REMARK SMILES IDX 12 14 22 15 13 16 21 17 18 18 14 19 20 20 19 21 15 23 16 24
REMARK SMILES IDX 17 25
REMARK H PARENT 20 22
ROOT
ATOM      1  C   UNL     1       1.671   3.610   1.337  1.00  0.00     0.395 C 
ENDROOT
BRANCH   1   2
ATOM      2  O   UNL     1       0.840   3.728   0.202  1.00  0.00    -0.345 OA
BRANCH   2   3
ATOM      3  C   UNL     1      -0.113   4.748   0.416  1.00  0.00     0.164 C 
BRANCH   3   4
ATOM      4  C   UNL     1      -1.055   4.826  -0.786  1.00  0.00     0.025 C 
ATOM      5  C   UNL     1      -1.876   3.547  -0.947  1.00  0.00     0.006 C 
ENDBRANCH   3   4
ENDBRANCH   2   3
ENDBRANCH   1   2
BRANCH   1   6
ATOM      6  O   UNL     1       2.565   2.516   1.153  1.00  0.00    -0.468 OA
BRANCH   6   7
ATOM      7  C   UNL     1       2.171   1.173   1.040  1.00  0.00     0.122 A 
ATOM      8  C   UNL     1       0.827   0.766   1.148  1.00  0.00     0.047 A 
ATOM      9  C   UNL     1       3.158   0.208   0.814  1.00  0.00     0.047 A 
ATOM     10  C   UNL     1       0.486  -0.583   1.019  1.00  0.00     0.012 A 
ATOM     11  C   UNL     1       2.818  -1.142   0.686  1.00  0.00     0.012 A 
ATOM     12  C   UNL     1       1.477  -1.548   0.777  1.00  0.00    -0.017 A 
BRANCH  12  13
ATOM     13  C   UNL     1       1.120  -2.980   0.648  1.00  0.00    -0.007 A 
ATOM     14  C   UNL     1       1.825  -3.967   1.367  1.00  0.00     0.010 A 
ATOM     15  C   UNL     1       0.085  -3.422  -0.185  1.00  0.00     0.028 A 
ATOM     16  C   UNL     1       1.482  -5.331   1.252  1.00  0.00     0.015 A 
ATOM     17  C   UNL     1      -0.749  -2.755  -1.057  1.00  0.00     0.114 A 
ATOM     18  C   UNL     1      -0.251  -4.749  -0.302  1.00  0.00     0.103 A 
ATOM     19  C   UNL     1       0.425  -5.755   0.411  1.00  0.00     0.045 A 
ATOM     20  N   UNL     1      -1.542  -3.675  -1.645  1.00  0.00    -0.284 N 
ATOM     21  N   UNL     1      -1.248  -4.889  -1.197  1.00  0.00    -0.175 NA
ATOM     22  H   UNL     1      -2.278  -3.478  -2.359  1.00  0.00     0.189 HD
BRANCH  19  23
ATOM     23  C   UNL     1       0.088  -7.202   0.309  1.00  0.00     0.162 C 
ATOM     24  C   UNL     1      -1.129  -7.698  -0.412  1.00  0.00     0.093 C 
ATOM     25  O   UNL     1       0.850  -8.054   0.842  1.00  0.00    -0.294 OA
ENDBRANCH  19  23
ENDBRANCH  12  13
ENDBRANCH   6   7
ENDBRANCH   1   6
TORSDOF 7


