REMARK SMILES COCNC(=O)[N-]c1c(N)cc(C)cc1-n1nc2ccccc2n1
REMARK SMILES IDX 4 1 5 2 6 3 3 5 2 6 1 7 7 8 8 9 9 10 15 11 11 12 14 13 12 14
REMARK SMILES IDX 13 15 10 16 16 19 17 20 24 21 18 22 23 23 19 24 22 25 20 26
REMARK SMILES IDX 21 27
REMARK H PARENT 4 4 10 17 10 18
ROOT
ATOM      1  N   UNL     1      -2.017  -1.250  -1.639  1.00  0.00    -0.427 N 
ATOM      2  C   UNL     1      -1.089  -0.263  -1.178  1.00  0.00     0.158 C 
ATOM      3  O   UNL     1       0.125  -0.562  -1.004  1.00  0.00    -0.299 OA
ATOM      4  H   UNL     1      -3.012  -0.972  -1.794  1.00  0.00     0.026 HD
ENDROOT
BRANCH   1   5
ATOM      5  C   UNL     1      -1.637  -2.646  -1.820  1.00  0.00     0.165 C 
BRANCH   5   6
ATOM      6  O   UNL     1      -0.697  -2.741  -2.869  1.00  0.00    -0.385 OA
ATOM      7  C   UNL     1      -0.292  -4.084  -3.013  1.00  0.00     0.194 C 
ENDBRANCH   5   6
ENDBRANCH   1   5
BRANCH   2   8
ATOM      8  N   UNL     1      -1.547   1.069  -0.921  1.00  0.00    -0.397 NA
BRANCH   8   9
ATOM      9  C   UNL     1      -0.772   2.077  -0.256  1.00  0.00     0.013 A 
ATOM     10  C   UNL     1      -0.634   3.344  -0.861  1.00  0.00     0.037 A 
ATOM     11  C   UNL     1      -0.129   1.818   0.981  1.00  0.00     0.091 A 
ATOM     12  C   UNL     1       0.182   4.315  -0.267  1.00  0.00     0.029 A 
ATOM     13  C   UNL     1       0.701   2.799   1.545  1.00  0.00     0.034 A 
ATOM     14  C   UNL     1       0.849   4.050   0.934  1.00  0.00    -0.047 A 
ATOM     15  C   UNL     1       1.759   5.081   1.536  1.00  0.00     0.044 C 
BRANCH  10  16
ATOM     16  N   UNL     1      -1.293   3.644  -2.098  1.00  0.00    -0.398 N 
ATOM     17  H   UNL     1      -1.907   2.948  -2.575  1.00  0.00     0.156 HD
ATOM     18  H   UNL     1      -1.177   4.578  -2.550  1.00  0.00     0.156 HD
ENDBRANCH  10  16
BRANCH  11  19
ATOM     19  N   UNL     1      -0.348   0.593   1.700  1.00  0.00    -0.150 N 
ATOM     20  N   UNL     1       0.595  -0.007   2.427  1.00  0.00    -0.148 NA
ATOM     21  N   UNL     1      -1.520  -0.040   1.746  1.00  0.00    -0.148 NA
ATOM     22  C   UNL     1      -0.009  -1.088   2.944  1.00  0.00     0.113 A 
ATOM     23  C   UNL     1      -1.302  -1.108   2.527  1.00  0.00     0.113 A 
ATOM     24  C   UNL     1       0.520  -2.073   3.772  1.00  0.00     0.032 A 
ATOM     25  C   UNL     1      -2.187  -2.116   2.896  1.00  0.00     0.032 A 
ATOM     26  C   UNL     1      -0.344  -3.114   4.170  1.00  0.00     0.002 A 
ATOM     27  C   UNL     1      -1.691  -3.135   3.733  1.00  0.00     0.002 A 
ENDBRANCH  11  19
ENDBRANCH   8   9
ENDBRANCH   2   8
TORSDOF 6


