REMARK SMILES Cn1cc2ccc(Nc3cccc(N)c3[O-])cc2n1
REMARK SMILES IDX 9 1 10 2 11 3 12 4 13 5 15 6 16 7 8 8 7 10 2 11 3 12 19 13
REMARK SMILES IDX 4 14 18 15 5 16 17 17 6 18 1 19 14 20
REMARK H PARENT 8 9 14 21 14 22
ROOT
ATOM      1  C   UNL     1      -2.259  -0.705  -0.961  1.00  0.00     0.032 A 
ATOM      2  C   UNL     1      -3.501  -0.112  -1.227  1.00  0.00     0.025 A 
ATOM      3  C   UNL     1      -4.417   0.102  -0.196  1.00  0.00     0.004 A 
ATOM      4  C   UNL     1      -4.108  -0.289   1.109  1.00  0.00     0.025 A 
ATOM      5  C   UNL     1      -2.882  -0.909   1.390  1.00  0.00     0.025 A 
ATOM      6  C   UNL     1      -1.960  -1.131   0.350  1.00  0.00    -0.061 A 
ATOM      7  O   UNL     1      -0.764  -1.791   0.613  1.00  0.00    -0.870 OA
ENDROOT
BRANCH   1   8
ATOM      8  N   UNL     1      -1.341  -0.920  -2.045  1.00  0.00    -0.356 N 
ATOM      9  H   UNL     1      -1.732  -1.260  -2.952  1.00  0.00     0.166 HD
BRANCH   8  10
ATOM     10  C   UNL     1       0.060  -0.597  -1.991  1.00  0.00     0.041 A 
ATOM     11  N   UNL     1       3.866   1.443  -0.714  1.00  0.00    -0.275 N 
ATOM     12  C   UNL     1       4.013   0.548  -1.720  1.00  0.00     0.117 A 
ATOM     13  N   UNL     1       2.594   1.522  -0.336  1.00  0.00    -0.173 NA
ATOM     14  C   UNL     1       2.768   0.023  -1.973  1.00  0.00     0.020 A 
ATOM     15  C   UNL     1       1.920   0.645  -1.100  1.00  0.00     0.094 A 
ATOM     16  C   UNL     1       2.324  -0.916  -2.896  1.00  0.00     0.014 A 
ATOM     17  C   UNL     1       0.556   0.370  -1.081  1.00  0.00     0.057 A 
ATOM     18  C   UNL     1       0.950  -1.223  -2.903  1.00  0.00     0.027 A 
ATOM     19  C   UNL     1       4.924   2.284  -0.172  1.00  0.00     0.173 C 
ENDBRANCH   8  10
ENDBRANCH   1   8
BRANCH   5  20
ATOM     20  N   UNL     1      -2.587  -1.321   2.729  1.00  0.00    -0.399 N 
ATOM     21  H   UNL     1      -3.275  -1.162   3.499  1.00  0.00     0.156 HD
ATOM     22  H   UNL     1      -1.683  -1.784   2.969  1.00  0.00     0.156 HD
ENDBRANCH   5  20
TORSDOF 3


