REMARK SMILES Cc1ccc(-c2ccc(C#N)cc2)c2c[nH]nc12
REMARK SMILES IDX 6 1 7 2 8 3 9 4 12 5 13 6 5 7 2 8 3 9 18 10 4 11 17 12 14 13
REMARK SMILES IDX 16 14 15 15 1 16 10 18 11 19
REMARK H PARENT 16 17
ROOT
ATOM      1  C   UNL     1      -0.538  -1.161   0.282  1.00  0.00    -0.018 A 
ATOM      2  C   UNL     1      -0.127  -2.427   0.732  1.00  0.00     0.010 A 
ATOM      3  C   UNL     1      -1.061  -3.452   0.913  1.00  0.00     0.020 A 
ATOM      4  C   UNL     1      -2.417  -3.220   0.653  1.00  0.00     0.052 A 
ATOM      5  C   UNL     1      -2.836  -1.958   0.215  1.00  0.00     0.020 A 
ATOM      6  C   UNL     1      -1.902  -0.933   0.033  1.00  0.00     0.010 A 
ENDROOT
BRANCH   1   7
ATOM      7  C   UNL     1       0.454  -0.075   0.101  1.00  0.00    -0.007 A 
ATOM      8  C   UNL     1       2.356   2.032  -0.238  1.00  0.00    -0.023 A 
ATOM      9  C   UNL     1       2.353   1.244   0.932  1.00  0.00     0.006 A 
ATOM     10  C   UNL     1       1.413   1.721  -1.222  1.00  0.00     0.096 A 
ATOM     11  C   UNL     1       1.412   0.205   1.101  1.00  0.00     0.010 A 
ATOM     12  N   UNL     1       1.267   2.294  -2.430  1.00  0.00    -0.175 NA
ATOM     13  C   UNL     1       0.498   0.714  -1.057  1.00  0.00     0.028 A 
ATOM     14  N   UNL     1       0.271   1.658  -3.035  1.00  0.00    -0.284 N 
ATOM     15  C   UNL     1      -0.220   0.686  -2.235  1.00  0.00     0.114 A 
ATOM     16  C   UNL     1       3.380   3.107  -0.449  1.00  0.00     0.047 C 
ATOM     17  H   UNL     1      -0.066   1.881  -3.997  1.00  0.00     0.189 HD
ENDBRANCH   1   7
BRANCH   4  18
ATOM     18  C   UNL     1      -3.378  -4.274   0.841  1.00  0.00     0.099 C 
ATOM     19  N   UNL     1      -4.152  -5.122   0.991  1.00  0.00    -0.192 NA
ENDBRANCH   4  18
TORSDOF 2


