REMARK SMILES Cn1n[nH+]c2cc([N-]C(=O)c3cc(F)cn3/C(S)=N/[C@H]3CCCO3)ccc21
REMARK SMILES IDX 16 1 15 2 13 3 14 4 12 5 11 6 17 7 18 8 19 10 20 11 24 12
REMARK SMILES IDX 21 13 23 14 22 15 9 16 10 17 8 18 7 19 25 20 6 21 26 22 5 23
REMARK SMILES IDX 27 24 4 25 2 26 3 27 1 29
REMARK H PARENT 18 9 4 28
ROOT
ATOM      1  N   UNL     1      -2.670  -0.788   2.420  1.00  0.00    -0.292 N 
ATOM      2  C   UNL     1      -3.361  -0.722   3.577  1.00  0.00     0.133 A 
ATOM      3  C   UNL     1      -2.488  -0.765   4.640  1.00  0.00     0.142 A 
ATOM      4  F   UNL     1      -2.822  -0.711   5.952  1.00  0.00    -0.205 F 
ATOM      5  C   UNL     1      -1.212  -0.863   4.131  1.00  0.00     0.069 A 
ATOM      6  C   UNL     1      -1.355  -0.885   2.754  1.00  0.00     0.076 A 
ENDROOT
BRANCH   1   7
ATOM      7  C   UNL     1      -3.251  -0.655   1.111  1.00  0.00     0.167 C 
BRANCH   7   8
ATOM      8  S   UNL     1      -4.916  -1.281   0.820  1.00  0.00    -0.105 SA
ATOM      9  H   UNL     1      -5.500  -0.060   1.204  1.00  0.00     0.111 HD
ENDBRANCH   7   8
BRANCH   7  10
ATOM     10  N   UNL     1      -2.582  -0.052   0.170  1.00  0.00    -0.230 NA
BRANCH  10  11
ATOM     11  C   UNL     1      -3.040   0.183  -1.199  1.00  0.00     0.237 C 
ATOM     12  O   UNL     1      -1.929   0.515  -2.003  1.00  0.00    -0.356 OA
ATOM     13  C   UNL     1      -4.050   1.322  -1.249  1.00  0.00     0.059 C 
ATOM     14  C   UNL     1      -2.226   1.714  -2.680  1.00  0.00     0.163 C 
ATOM     15  C   UNL     1      -3.696   2.030  -2.518  1.00  0.00     0.033 C 
ENDBRANCH  10  11
ENDBRANCH   7  10
ENDBRANCH   1   7
BRANCH   6  16
ATOM     16  C   UNL     1      -0.233  -1.070   1.815  1.00  0.00     0.103 C 
ATOM     17  O   UNL     1      -0.423  -1.633   0.704  1.00  0.00    -0.313 OA
BRANCH  16  18
ATOM     18  N   UNL     1       1.090  -0.688   2.214  1.00  0.00    -0.621 NA
BRANCH  18  19
ATOM     19  C   UNL     1       2.213  -0.507   1.341  1.00  0.00    -0.129 A 
ATOM     20  C   UNL     1       3.519  -0.603   1.887  1.00  0.00    -0.011 A 
ATOM     21  C   UNL     1       2.046  -0.176  -0.029  1.00  0.00     0.042 A 
ATOM     22  C   UNL     1       4.658  -0.408   1.081  1.00  0.00     0.057 A 
ATOM     23  C   UNL     1       3.196   0.006  -0.789  1.00  0.00     0.194 A 
ATOM     24  C   UNL     1       4.444  -0.108  -0.262  1.00  0.00     0.197 A 
ATOM     25  N   UNL     1       3.318   0.335  -2.086  1.00  0.00    -0.143 N 
ATOM     26  N   UNL     1       5.323   0.146  -1.247  1.00  0.00    -0.133 N 
ATOM     27  N   UNL     1       4.621   0.418  -2.344  1.00  0.00     0.088 NA
ATOM     28  H   UNL     1       2.555   0.507  -2.777  1.00  0.00     0.342 HD
ATOM     29  C   UNL     1       6.777   0.180  -1.159  1.00  0.00     0.327 C 
ENDBRANCH  18  19
ENDBRANCH  16  18
ENDBRANCH   6  16
TORSDOF 7


