REMARK SMILES Cc1cc(N)c(N[C@H]2CC[C@@H](C)N(c3cnc(CC#N)n3C)[C@@H]2F)cc1F
REMARK SMILES IDX 8 1 9 2 10 3 11 4 12 5 13 6 23 7 24 8 7 9 6 11 2 12 3 13
REMARK SMILES IDX 26 14 4 15 25 16 1 17 27 18 5 19 14 22 15 23 21 24 16 25
REMARK SMILES IDX 17 26 22 27 18 28 19 29 20 30
REMARK H PARENT 7 10 5 20 5 21
ROOT
ATOM      1  C   UNL     1       0.633  -1.107   1.140  1.00  0.00     0.134 C 
ATOM      2  C   UNL     1       1.834  -0.366   1.753  1.00  0.00     0.032 C 
ATOM      3  C   UNL     1       1.997   1.024   1.134  1.00  0.00     0.027 C 
ATOM      4  C   UNL     1       0.717   1.863   1.306  1.00  0.00     0.083 C 
ATOM      5  C   UNL     1       0.884   3.201   0.564  1.00  0.00     0.031 C 
ATOM      6  N   UNL     1      -0.462   1.104   0.837  1.00  0.00    -0.322 N 
ATOM      7  C   UNL     1      -0.648  -0.271   1.321  1.00  0.00     0.286 C 
ATOM      8  F   UNL     1      -0.999  -0.242   2.661  1.00  0.00    -0.221 F 
ENDROOT
BRANCH   1   9
ATOM      9  N   UNL     1       0.869  -1.401  -0.282  1.00  0.00    -0.376 N 
ATOM     10  H   UNL     1       0.221  -0.993  -0.993  1.00  0.00     0.161 HD
BRANCH   9  11
ATOM     11  C   UNL     1       1.960  -2.216  -0.752  1.00  0.00     0.061 A 
ATOM     12  C   UNL     1       4.032  -3.880  -1.703  1.00  0.00    -0.013 A 
ATOM     13  C   UNL     1       3.658  -2.736  -2.421  1.00  0.00     0.034 A 
ATOM     14  C   UNL     1       3.372  -4.187  -0.506  1.00  0.00     0.128 A 
ATOM     15  C   UNL     1       2.633  -1.897  -1.955  1.00  0.00     0.055 A 
ATOM     16  C   UNL     1       2.346  -3.365  -0.037  1.00  0.00     0.067 A 
ATOM     17  C   UNL     1       5.134  -4.769  -2.203  1.00  0.00     0.047 C 
ATOM     18  F   UNL     1       3.716  -5.292   0.204  1.00  0.00    -0.207 F 
BRANCH  15  19
ATOM     19  N   UNL     1       2.323  -0.708  -2.693  1.00  0.00    -0.397 N 
ATOM     20  H   UNL     1       2.789  -0.516  -3.608  1.00  0.00     0.156 HD
ATOM     21  H   UNL     1       1.694   0.033  -2.315  1.00  0.00     0.156 HD
ENDBRANCH  15  19
ENDBRANCH   9  11
ENDBRANCH   1   9
BRANCH   6  22
ATOM     22  C   UNL     1      -1.657   1.810   0.465  1.00  0.00     0.131 A 
ATOM     23  C   UNL     1      -2.619   2.276   1.330  1.00  0.00     0.158 A 
ATOM     24  N   UNL     1      -2.019   2.096  -0.797  1.00  0.00    -0.317 N 
ATOM     25  N   UNL     1      -3.602   2.860   0.614  1.00  0.00    -0.238 NA
ATOM     26  C   UNL     1      -3.202   2.740  -0.673  1.00  0.00     0.124 A 
ATOM     27  C   UNL     1      -1.317   1.747  -2.030  1.00  0.00     0.153 C 
BRANCH  26  28
ATOM     28  C   UNL     1      -4.038   3.207  -1.826  1.00  0.00     0.195 C 
BRANCH  28  29
ATOM     29  C   UNL     1      -4.811   2.087  -2.368  1.00  0.00     0.070 C 
ATOM     30  N   UNL     1      -5.421   1.202  -2.795  1.00  0.00    -0.198 NA
ENDBRANCH  28  29
ENDBRANCH  26  28
ENDBRANCH   6  22
TORSDOF 6


