REMARK SMILES C=Cc1ccc(N)c(-c2ccc3c(c2)[N-]C(=O)C3)c1
REMARK SMILES IDX 3 1 4 2 5 3 6 4 8 5 19 6 2 7 1 8 9 9 10 10 14 11 11 12 13 13
REMARK SMILES IDX 12 14 15 15 18 16 16 17 17 18 7 19
REMARK H PARENT 7 20 7 21
ROOT
ATOM      1  C   UNL     1      -1.338   3.565   0.226  1.00  0.00    -0.025 A 
ATOM      2  C   UNL     1      -0.399   4.080   1.137  1.00  0.00     0.010 A 
ATOM      3  C   UNL     1       0.680   3.300   1.556  1.00  0.00     0.027 A 
ATOM      4  C   UNL     1       0.844   1.990   1.087  1.00  0.00     0.039 A 
ATOM      5  C   UNL     1      -0.114   1.448   0.199  1.00  0.00     0.005 A 
ATOM      6  C   UNL     1      -1.190   2.245  -0.227  1.00  0.00     0.019 A 
ENDROOT
BRANCH   1   7
ATOM      7  C   UNL     1      -2.505   4.351  -0.250  1.00  0.00     0.000 C 
ATOM      8  C   UNL     1      -2.599   5.678  -0.168  1.00  0.00     0.009 C 
ENDBRANCH   1   7
BRANCH   5   9
ATOM      9  C   UNL     1      -0.033   0.050  -0.281  1.00  0.00    -0.018 A 
ATOM     10  C   UNL     1       0.008  -0.222  -1.670  1.00  0.00     0.009 A 
ATOM     11  C   UNL     1      -0.041  -1.019   0.639  1.00  0.00    -0.007 A 
ATOM     12  C   UNL     1       0.062  -1.545  -2.136  1.00  0.00     0.003 A 
ATOM     13  C   UNL     1       0.014  -2.323   0.149  1.00  0.00    -0.130 A 
ATOM     14  C   UNL     1       0.066  -2.581  -1.203  1.00  0.00    -0.057 A 
ATOM     15  N   UNL     1       0.018  -3.503   0.935  1.00  0.00    -0.626 NA
ATOM     16  C   UNL     1       0.112  -4.047  -1.455  1.00  0.00     0.089 C 
ATOM     17  C   UNL     1       0.078  -4.542  -0.041  1.00  0.00     0.059 C 
ATOM     18  O   UNL     1       0.099  -5.761   0.272  1.00  0.00    -0.320 OA
ENDBRANCH   5   9
BRANCH   4  19
ATOM     19  N   UNL     1       2.002   1.246   1.493  1.00  0.00    -0.398 N 
ATOM     20  H   UNL     1       2.255   0.334   1.055  1.00  0.00     0.156 HD
ATOM     21  H   UNL     1       2.666   1.642   2.194  1.00  0.00     0.156 HD
ENDBRANCH   4  19
TORSDOF 3


