REMARK SMILES CSc1ccc(/N=C(\S)Oc2ccc(-c3ccc(C)c4[nH]ncc34)cc2)cc1
REMARK SMILES IDX 8 1 9 2 7 4 6 5 5 6 27 7 4 8 28 9 3 10 2 11 1 12 10 13 11 14
REMARK SMILES IDX 12 15 26 16 13 17 25 18 14 19 15 20 16 21 24 22 17 23 20 24
REMARK SMILES IDX 23 25 18 26 21 27 22 28 19 29
REMARK H PARENT 9 3 21 30
ROOT
ATOM      1  C   UNL     1      -1.340  -3.016  -1.479  1.00  0.00     0.253 C 
ENDROOT
BRANCH   1   2
ATOM      2  S   UNL     1      -2.584  -4.137  -2.130  1.00  0.00    -0.084 SA
ATOM      3  H   UNL     1      -3.633  -3.263  -1.790  1.00  0.00     0.113 HD
ENDBRANCH   1   2
BRANCH   1   4
ATOM      4  N   UNL     1      -0.683  -2.191  -2.246  1.00  0.00    -0.208 NA
BRANCH   4   5
ATOM      5  C   UNL     1      -0.912  -1.952  -3.641  1.00  0.00     0.068 A 
ATOM      6  C   UNL     1      -2.192  -1.634  -4.129  1.00  0.00     0.029 A 
ATOM      7  C   UNL     1       0.181  -1.931  -4.516  1.00  0.00     0.029 A 
ATOM      8  C   UNL     1      -2.378  -1.356  -5.487  1.00  0.00     0.017 A 
ATOM      9  C   UNL     1      -0.006  -1.655  -5.874  1.00  0.00     0.017 A 
ATOM     10  C   UNL     1      -1.286  -1.368  -6.362  1.00  0.00     0.007 A 
BRANCH  10  11
ATOM     11  S   UNL     1      -1.526  -1.014  -8.104  1.00  0.00    -0.130 SA
ATOM     12  C   UNL     1      -1.268   0.776  -7.901  1.00  0.00     0.091 C 
ENDBRANCH  10  11
ENDBRANCH   4   5
ENDBRANCH   1   4
BRANCH   1  13
ATOM     13  O   UNL     1      -1.026  -3.120  -0.118  1.00  0.00    -0.434 OA
BRANCH  13  14
ATOM     14  C   UNL     1      -0.347  -2.151   0.636  1.00  0.00     0.130 A 
ATOM     15  C   UNL     1       0.427  -2.571   1.723  1.00  0.00     0.048 A 
ATOM     16  C   UNL     1      -0.453  -0.775   0.360  1.00  0.00     0.048 A 
ATOM     17  C   UNL     1       1.113  -1.641   2.509  1.00  0.00     0.012 A 
ATOM     18  C   UNL     1       0.231   0.157   1.146  1.00  0.00     0.012 A 
ATOM     19  C   UNL     1       1.017  -0.267   2.230  1.00  0.00    -0.017 A 
BRANCH  19  20
ATOM     20  C   UNL     1       1.753   0.715   3.059  1.00  0.00    -0.007 A 
ATOM     21  C   UNL     1       3.120   0.524   3.364  1.00  0.00     0.010 A 
ATOM     22  C   UNL     1       1.142   1.865   3.579  1.00  0.00     0.028 A 
ATOM     23  C   UNL     1       3.826   1.464   4.147  1.00  0.00     0.006 A 
ATOM     24  C   UNL     1       1.827   2.773   4.340  1.00  0.00     0.069 A 
ATOM     25  C   UNL     1      -0.156   2.337   3.536  1.00  0.00     0.144 A 
ATOM     26  C   UNL     1       3.182   2.616   4.647  1.00  0.00    -0.025 A 
ATOM     27  N   UNL     1       0.990   3.751   4.727  1.00  0.00    -0.278 N 
ATOM     28  N   UNL     1      -0.218   3.490   4.243  1.00  0.00    -0.183 NA
ATOM     29  C   UNL     1       3.913   3.615   5.494  1.00  0.00     0.046 C 
ATOM     30  H   UNL     1       1.221   4.580   5.319  1.00  0.00     0.190 HD
ENDBRANCH  19  20
ENDBRANCH  13  14
ENDBRANCH   1  13
TORSDOF 7


