REMARK SMILES O=C(CCc1c(F)cc2[nH+]cccc2c1F)c1ccccc1
REMARK SMILES IDX 3 1 2 2 1 3 17 4 18 5 22 6 19 7 21 8 20 9 4 10 5 11 6 12
REMARK SMILES IDX 15 13 8 14 14 15 9 16 13 17 10 18 12 19 11 20 7 21 16 22
REMARK H PARENT 10 23
ROOT
ATOM      1  C   UNL     1      -1.322  -0.138   2.003  1.00  0.00     0.086 C 
ENDROOT
BRANCH   1   2
ATOM      2  C   UNL     1      -1.697  -0.506   0.589  1.00  0.00     0.163 C 
ATOM      3  O   UNL     1      -1.276  -1.607   0.137  1.00  0.00    -0.294 OA
BRANCH   2   4
ATOM      4  C   UNL     1      -2.500   0.387  -0.294  1.00  0.00     0.017 A 
ATOM      5  C   UNL     1      -3.070   1.586   0.182  1.00  0.00     0.012 A 
ATOM      6  C   UNL     1      -2.698   0.038  -1.645  1.00  0.00     0.012 A 
ATOM      7  C   UNL     1      -3.812   2.408  -0.672  1.00  0.00     0.001 A 
ATOM      8  C   UNL     1      -3.441   0.864  -2.493  1.00  0.00     0.001 A 
ATOM      9  C   UNL     1      -3.998   2.048  -2.007  1.00  0.00     0.000 A 
ENDBRANCH   2   4
ENDBRANCH   1   2
BRANCH   1  10
ATOM     10  C   UNL     1      -0.199   0.910   2.048  1.00  0.00     0.050 C 
BRANCH  10  11
ATOM     11  C   UNL     1       1.086   0.383   1.450  1.00  0.00     0.025 A 
ATOM     12  C   UNL     1       1.421   0.673   0.115  1.00  0.00     0.135 A 
ATOM     13  C   UNL     1       1.933  -0.443   2.213  1.00  0.00     0.143 A 
ATOM     14  C   UNL     1       2.591   0.159  -0.449  1.00  0.00     0.119 A 
ATOM     15  C   UNL     1       3.111  -0.962   1.647  1.00  0.00     0.082 A 
ATOM     16  C   UNL     1       3.443  -0.657   0.307  1.00  0.00     0.216 A 
ATOM     17  C   UNL     1       3.975  -1.784   2.386  1.00  0.00     0.024 A 
ATOM     18  N   UNL     1       4.587  -1.161  -0.244  1.00  0.00    -0.211 N 
ATOM     19  C   UNL     1       5.135  -2.283   1.795  1.00  0.00     0.071 A 
ATOM     20  C   UNL     1       5.427  -1.959   0.470  1.00  0.00     0.306 A 
ATOM     21  F   UNL     1       0.613   1.453  -0.648  1.00  0.00    -0.206 F 
ATOM     22  F   UNL     1       1.607  -0.742   3.498  1.00  0.00    -0.206 F 
ATOM     23  H   UNL     1       4.835  -0.939  -1.235  1.00  0.00     0.453 HD
ENDBRANCH  10  11
ENDBRANCH   1  10
TORSDOF 4


