MODEL 1
REMARK VINA RESULT:     -10.7      0.000      0.000
REMARK SMILES Oc1c(-n2nc3ccccc3n2)cc2cnoc2c1Nc1ccc2cc[nH]c2c1
REMARK SMILES IDX 2 1 3 2 13 3 14 4 15 5 16 6 17 7 18 8 19 9 1 10 4 12 5 13
REMARK SMILES IDX 12 14 6 15 11 16 7 17 10 18 8 19 9 20 20 21 21 23 22 24
REMARK SMILES IDX 29 25 23 26 28 27 24 28 27 29 25 30 26 31
REMARK H PARENT 1 11 20 22 27 32
ROOT
ATOM      1  C   UNL     1      45.198 130.900  19.656  1.00  0.00     0.170 A 
ATOM      2  C   UNL     1      44.708 131.368  18.394  1.00  0.00     0.130 A 
ATOM      3  C   UNL     1      43.511 132.118  18.341  1.00  0.00     0.048 A 
ATOM      4  C   UNL     1      42.827 132.340  19.529  1.00  0.00     0.046 A 
ATOM      5  C   UNL     1      41.658 133.003  19.815  1.00  0.00     0.167 A 
ATOM      6  N   UNL     1      41.436 132.897  21.146  1.00  0.00    -0.087 NA
ATOM      7  O   UNL     1      42.417 132.201  21.659  1.00  0.00    -0.354 OA
ATOM      8  C   UNL     1      43.264 131.853  20.722  1.00  0.00     0.194 A 
ATOM      9  C   UNL     1      44.433 131.106  20.834  1.00  0.00     0.130 A 
ENDROOT
BRANCH   1  10
ATOM     10  O   UNL     1      46.450 130.293  19.770  1.00  0.00    -0.504 OA
ATOM     11  H   UNL     1      47.315 130.812  19.837  1.00  0.00     0.293 HD
ENDBRANCH   1  10
BRANCH   2  12
ATOM     12  N   UNL     1      45.392 131.071  17.166  1.00  0.00    -0.146 N 
ATOM     13  N   UNL     1      45.960 129.892  16.914  1.00  0.00    -0.148 NA
ATOM     14  N   UNL     1      45.606 131.967  16.204  1.00  0.00    -0.148 NA
ATOM     15  C   UNL     1      46.545 130.044  15.717  1.00  0.00     0.113 A 
ATOM     16  C   UNL     1      46.329 131.314  15.283  1.00  0.00     0.113 A 
ATOM     17  C   UNL     1      47.280 129.122  14.978  1.00  0.00     0.032 A 
ATOM     18  C   UNL     1      46.825 131.779  14.068  1.00  0.00     0.032 A 
ATOM     19  C   UNL     1      47.799 129.551  13.740  1.00  0.00     0.002 A 
ATOM     20  C   UNL     1      47.572 130.874  13.288  1.00  0.00     0.002 A 
ENDBRANCH   2  12
BRANCH   9  21
ATOM     21  N   UNL     1      44.870 130.642  22.122  1.00  0.00    -0.349 N 
ATOM     22  H   UNL     1      45.483 131.275  22.684  1.00  0.00     0.167 HD
BRANCH  21  23
ATOM     23  C   UNL     1      44.442 129.408  22.721  1.00  0.00     0.041 A 
ATOM     24  C   UNL     1      43.374 129.424  23.654  1.00  0.00     0.027 A 
ATOM     25  C   UNL     1      45.034 128.173  22.360  1.00  0.00     0.052 A 
ATOM     26  C   UNL     1      42.917 128.234  24.247  1.00  0.00     0.012 A 
ATOM     27  C   UNL     1      44.558 127.014  22.967  1.00  0.00     0.047 A 
ATOM     28  C   UNL     1      43.538 127.044  23.880  1.00  0.00    -0.001 A 
ATOM     29  N   UNL     1      44.983 125.755  22.771  1.00  0.00    -0.361 N 
ATOM     30  C   UNL     1      43.304 125.748  24.282  1.00  0.00     0.028 A 
ATOM     31  C   UNL     1      44.221 124.977  23.574  1.00  0.00     0.083 A 
ATOM     32  H   UNL     1      45.746 125.438  22.131  1.00  0.00     0.166 HD
ENDBRANCH  21  23
ENDBRANCH   9  21
TORSDOF 4
ENDMDL
MODEL 2
REMARK VINA RESULT:     -10.7      0.165      1.092
REMARK SMILES Oc1c(-n2nc3ccccc3n2)cc2cnoc2c1Nc1ccc2cc[nH]c2c1
REMARK SMILES IDX 2 1 3 2 13 3 14 4 15 5 16 6 17 7 18 8 19 9 1 10 4 12 5 13
REMARK SMILES IDX 12 14 6 15 11 16 7 17 10 18 8 19 9 20 20 21 21 23 22 24
REMARK SMILES IDX 29 25 23 26 28 27 24 28 27 29 25 30 26 31
REMARK H PARENT 1 11 20 22 27 32
ROOT
ATOM      1  C   UNL     1      45.213 130.884  19.801  1.00  0.00     0.170 A 
ATOM      2  C   UNL     1      44.774 131.393  18.536  1.00  0.00     0.130 A 
ATOM      3  C   UNL     1      43.588 132.158  18.462  1.00  0.00     0.048 A 
ATOM      4  C   UNL     1      42.864 132.353  19.630  1.00  0.00     0.046 A 
ATOM      5  C   UNL     1      41.692 133.021  19.893  1.00  0.00     0.167 A 
ATOM      6  N   UNL     1      41.420 132.880  21.212  1.00  0.00    -0.087 NA
ATOM      7  O   UNL     1      42.375 132.159  21.739  1.00  0.00    -0.354 OA
ATOM      8  C   UNL     1      43.251 131.828  20.823  1.00  0.00     0.194 A 
ATOM      9  C   UNL     1      44.407 131.064  20.956  1.00  0.00     0.130 A 
ENDROOT
BRANCH   1  10
ATOM     10  O   UNL     1      46.454 130.258  19.943  1.00  0.00    -0.504 OA
ATOM     11  H   UNL     1      46.953 129.836  19.172  1.00  0.00     0.293 HD
ENDBRANCH   1  10
BRANCH   2  12
ATOM     12  N   UNL     1      45.499 131.123  17.326  1.00  0.00    -0.146 N 
ATOM     13  N   UNL     1      45.644 132.017  16.348  1.00  0.00    -0.148 NA
ATOM     14  N   UNL     1      46.013 129.932  17.021  1.00  0.00    -0.148 NA
ATOM     15  C   UNL     1      46.307 131.363  15.383  1.00  0.00     0.113 A 
ATOM     16  C   UNL     1      46.532 130.087  15.795  1.00  0.00     0.113 A 
ATOM     17  C   UNL     1      46.720 131.825  14.137  1.00  0.00     0.032 A 
ATOM     18  C   UNL     1      47.194 129.156  15.001  1.00  0.00     0.032 A 
ATOM     19  C   UNL     1      47.397 130.913  13.302  1.00  0.00     0.002 A 
ATOM     20  C   UNL     1      47.633 129.584  13.732  1.00  0.00     0.002 A 
ENDBRANCH   2  12
BRANCH   9  21
ATOM     21  N   UNL     1      44.792 130.558  22.245  1.00  0.00    -0.349 N 
ATOM     22  H   UNL     1      45.383 131.171  22.851  1.00  0.00     0.167 HD
BRANCH  21  23
ATOM     23  C   UNL     1      44.339 129.306  22.787  1.00  0.00     0.041 A 
ATOM     24  C   UNL     1      43.154 129.276  23.564  1.00  0.00     0.027 A 
ATOM     25  C   UNL     1      45.028 128.098  22.516  1.00  0.00     0.052 A 
ATOM     26  C   UNL     1      42.672 128.067  24.096  1.00  0.00     0.012 A 
ATOM     27  C   UNL     1      44.523 126.919  23.059  1.00  0.00     0.047 A 
ATOM     28  C   UNL     1      43.388 126.905  23.823  1.00  0.00    -0.001 A 
ATOM     29  N   UNL     1      45.025 125.680  22.930  1.00  0.00    -0.361 N 
ATOM     30  C   UNL     1      43.157 125.600  24.197  1.00  0.00     0.028 A 
ATOM     31  C   UNL     1      44.194 124.870  23.625  1.00  0.00     0.083 A 
ATOM     32  H   UNL     1      45.880 125.396  22.402  1.00  0.00     0.166 HD
ENDBRANCH  21  23
ENDBRANCH   9  21
TORSDOF 4
ENDMDL
MODEL 3
REMARK VINA RESULT:      -9.0      0.998      1.374
REMARK SMILES Oc1c(-n2nc3ccccc3n2)cc2cnoc2c1Nc1ccc2cc[nH]c2c1
REMARK SMILES IDX 2 1 3 2 13 3 14 4 15 5 16 6 17 7 18 8 19 9 1 10 4 12 5 13
REMARK SMILES IDX 12 14 6 15 11 16 7 17 10 18 8 19 9 20 20 21 21 23 22 24
REMARK SMILES IDX 29 25 23 26 28 27 24 28 27 29 25 30 26 31
REMARK H PARENT 1 11 20 22 27 32
ROOT
ATOM      1  C   UNL     1      45.002 130.599  20.021  1.00  0.00     0.170 A 
ATOM      2  C   UNL     1      44.517 131.228  18.830  1.00  0.00     0.130 A 
ATOM      3  C   UNL     1      43.414 132.111  18.903  1.00  0.00     0.048 A 
ATOM      4  C   UNL     1      42.813 132.302  20.139  1.00  0.00     0.046 A 
ATOM      5  C   UNL     1      41.743 133.065  20.541  1.00  0.00     0.167 A 
ATOM      6  N   UNL     1      41.568 132.868  21.869  1.00  0.00    -0.087 NA
ATOM      7  O   UNL     1      42.482 132.023  22.270  1.00  0.00    -0.354 OA
ATOM      8  C   UNL     1      43.240 131.666  21.263  1.00  0.00     0.194 A 
ATOM      9  C   UNL     1      44.318 130.784  21.251  1.00  0.00     0.130 A 
ENDROOT
BRANCH   1  10
ATOM     10  O   UNL     1      46.179 129.846  20.019  1.00  0.00    -0.504 OA
ATOM     11  H   UNL     1      46.759 129.727  19.199  1.00  0.00     0.293 HD
ENDBRANCH   1  10
BRANCH   2  12
ATOM     12  N   UNL     1      45.107 130.966  17.548  1.00  0.00    -0.146 N 
ATOM     13  N   UNL     1      46.160 130.166  17.379  1.00  0.00    -0.148 NA
ATOM     14  N   UNL     1      44.724 131.565  16.420  1.00  0.00    -0.148 NA
ATOM     15  C   UNL     1      46.443 130.245  16.070  1.00  0.00     0.113 A 
ATOM     16  C   UNL     1      45.565 131.101  15.485  1.00  0.00     0.113 A 
ATOM     17  C   UNL     1      47.452 129.610  15.353  1.00  0.00     0.032 A 
ATOM     18  C   UNL     1      45.611 131.399  14.126  1.00  0.00     0.032 A 
ATOM     19  C   UNL     1      47.532 129.881  13.972  1.00  0.00     0.002 A 
ATOM     20  C   UNL     1      46.616 130.773  13.362  1.00  0.00     0.002 A 
ENDBRANCH   2  12
BRANCH   9  21
ATOM     21  N   UNL     1      44.753 130.162  22.471  1.00  0.00    -0.349 N 
ATOM     22  H   UNL     1      45.273 130.752  23.160  1.00  0.00     0.167 HD
BRANCH  21  23
ATOM     23  C   UNL     1      44.437 128.810  22.843  1.00  0.00     0.041 A 
ATOM     24  C   UNL     1      45.449 127.820  22.780  1.00  0.00     0.027 A 
ATOM     25  C   UNL     1      43.148 128.462  23.317  1.00  0.00     0.052 A 
ATOM     26  C   UNL     1      45.181 126.490  23.152  1.00  0.00     0.012 A 
ATOM     27  C   UNL     1      42.916 127.136  23.676  1.00  0.00     0.047 A 
ATOM     28  C   UNL     1      43.897 126.185  23.594  1.00  0.00    -0.001 A 
ATOM     29  N   UNL     1      41.773 126.603  24.137  1.00  0.00    -0.361 N 
ATOM     30  C   UNL     1      43.354 124.994  24.022  1.00  0.00     0.028 A 
ATOM     31  C   UNL     1      42.035 125.293  24.349  1.00  0.00     0.083 A 
ATOM     32  H   UNL     1      40.867 127.095  24.301  1.00  0.00     0.166 HD
ENDBRANCH  21  23
ENDBRANCH   9  21
TORSDOF 4
ENDMDL
MODEL 4
REMARK VINA RESULT:      -8.3      1.395      2.160
REMARK SMILES Oc1c(-n2nc3ccccc3n2)cc2cnoc2c1Nc1ccc2cc[nH]c2c1
REMARK SMILES IDX 2 1 3 2 13 3 14 4 15 5 16 6 17 7 18 8 19 9 1 10 4 12 5 13
REMARK SMILES IDX 12 14 6 15 11 16 7 17 10 18 8 19 9 20 20 21 21 23 22 24
REMARK SMILES IDX 29 25 23 26 28 27 24 28 27 29 25 30 26 31
REMARK H PARENT 1 11 20 22 27 32
ROOT
ATOM      1  C   UNL     1      45.000 130.253  20.663  1.00  0.00     0.170 A 
ATOM      2  C   UNL     1      44.466 131.095  19.636  1.00  0.00     0.130 A 
ATOM      3  C   UNL     1      43.412 131.988  19.940  1.00  0.00     0.048 A 
ATOM      4  C   UNL     1      42.904 131.983  21.231  1.00  0.00     0.046 A 
ATOM      5  C   UNL     1      41.900 132.700  21.835  1.00  0.00     0.167 A 
ATOM      6  N   UNL     1      41.805 132.282  23.119  1.00  0.00    -0.087 NA
ATOM      7  O   UNL     1      42.704 131.350  23.301  1.00  0.00    -0.354 OA
ATOM      8  C   UNL     1      43.376 131.148  22.196  1.00  0.00     0.194 A 
ATOM      9  C   UNL     1      44.409 130.246  21.954  1.00  0.00     0.130 A 
ENDROOT
BRANCH   1  10
ATOM     10  O   UNL     1      46.138 129.473  20.445  1.00  0.00    -0.504 OA
ATOM     11  H   UNL     1      47.019 129.853  20.125  1.00  0.00     0.293 HD
ENDBRANCH   1  10
BRANCH   2  12
ATOM     12  N   UNL     1      44.956 131.039  18.288  1.00  0.00    -0.146 N 
ATOM     13  N   UNL     1      44.405 131.717  17.281  1.00  0.00    -0.148 NA
ATOM     14  N   UNL     1      45.944 130.236  17.893  1.00  0.00    -0.148 NA
ATOM     15  C   UNL     1      45.098 131.342  16.196  1.00  0.00     0.113 A 
ATOM     16  C   UNL     1      46.039 130.435  16.571  1.00  0.00     0.113 A 
ATOM     17  C   UNL     1      44.940 131.745  14.874  1.00  0.00     0.032 A 
ATOM     18  C   UNL     1      46.911 129.850  15.658  1.00  0.00     0.032 A 
ATOM     19  C   UNL     1      45.806 131.178  13.917  1.00  0.00     0.002 A 
ATOM     20  C   UNL     1      46.787 130.234  14.308  1.00  0.00     0.002 A 
ENDBRANCH   2  12
BRANCH   9  21
ATOM     21  N   UNL     1      44.896 129.408  23.015  1.00  0.00    -0.349 N 
ATOM     22  H   UNL     1      45.490 129.851  23.752  1.00  0.00     0.167 HD
BRANCH  21  23
ATOM     23  C   UNL     1      44.541 128.024  23.175  1.00  0.00     0.041 A 
ATOM     24  C   UNL     1      45.407 127.023  22.665  1.00  0.00     0.027 A 
ATOM     25  C   UNL     1      43.370 127.643  23.875  1.00  0.00     0.052 A 
ATOM     26  C   UNL     1      45.101 125.659  22.818  1.00  0.00     0.012 A 
ATOM     27  C   UNL     1      43.097 126.284  24.007  1.00  0.00     0.047 A 
ATOM     28  C   UNL     1      43.931 125.327  23.495  1.00  0.00    -0.001 A 
ATOM     29  N   UNL     1      42.046 125.718  24.623  1.00  0.00    -0.361 N 
ATOM     30  C   UNL     1      43.387 124.099  23.797  1.00  0.00     0.028 A 
ATOM     31  C   UNL     1      42.217 124.382  24.496  1.00  0.00     0.083 A 
ATOM     32  H   UNL     1      41.256 126.206  25.102  1.00  0.00     0.166 HD
ENDBRANCH  21  23
ENDBRANCH   9  21
TORSDOF 4
ENDMDL
MODEL 5
REMARK VINA RESULT:      -7.9      1.097      1.282
REMARK SMILES Oc1c(-n2nc3ccccc3n2)cc2cnoc2c1Nc1ccc2cc[nH]c2c1
REMARK SMILES IDX 2 1 3 2 13 3 14 4 15 5 16 6 17 7 18 8 19 9 1 10 4 12 5 13
REMARK SMILES IDX 12 14 6 15 11 16 7 17 10 18 8 19 9 20 20 21 21 23 22 24
REMARK SMILES IDX 29 25 23 26 28 27 24 28 27 29 25 30 26 31
REMARK H PARENT 1 11 20 22 27 32
ROOT
ATOM      1  C   UNL     1      45.432 131.318  18.694  1.00  0.00     0.170 A 
ATOM      2  C   UNL     1      44.898 131.322  17.365  1.00  0.00     0.130 A 
ATOM      3  C   UNL     1      43.551 131.697  17.153  1.00  0.00     0.048 A 
ATOM      4  C   UNL     1      42.779 132.013  18.262  1.00  0.00     0.046 A 
ATOM      5  C   UNL     1      41.467 132.396  18.398  1.00  0.00     0.167 A 
ATOM      6  N   UNL     1      41.218 132.562  19.718  1.00  0.00    -0.087 NA
ATOM      7  O   UNL     1      42.320 132.292  20.368  1.00  0.00    -0.354 OA
ATOM      8  C   UNL     1      43.270 131.961  19.529  1.00  0.00     0.194 A 
ATOM      9  C   UNL     1      44.586 131.595  19.800  1.00  0.00     0.130 A 
ENDROOT
BRANCH   1  10
ATOM     10  O   UNL     1      46.792 131.106  18.931  1.00  0.00    -0.504 OA
ATOM     11  H   UNL     1      47.501 131.804  18.754  1.00  0.00     0.293 HD
ENDBRANCH   1  10
BRANCH   2  12
ATOM     12  N   UNL     1      45.691 130.926  16.236  1.00  0.00    -0.146 N 
ATOM     13  N   UNL     1      46.555 129.911  16.270  1.00  0.00    -0.148 NA
ATOM     14  N   UNL     1      45.713 131.587  15.079  1.00  0.00    -0.148 NA
ATOM     15  C   UNL     1      47.137 129.916  15.062  1.00  0.00     0.113 A 
ATOM     16  C   UNL     1      46.621 130.942  14.333  1.00  0.00     0.113 A 
ATOM     17  C   UNL     1      48.118 129.068  14.559  1.00  0.00     0.032 A 
ATOM     18  C   UNL     1      47.037 131.212  13.033  1.00  0.00     0.032 A 
ATOM     19  C   UNL     1      48.566 129.305  13.244  1.00  0.00     0.002 A 
ATOM     20  C   UNL     1      48.028 130.373  12.485  1.00  0.00     0.002 A 
ENDBRANCH   2  12
BRANCH   9  21
ATOM     21  N   UNL     1      45.067 131.589  21.154  1.00  0.00    -0.349 N 
ATOM     22  H   UNL     1      45.562 132.443  21.499  1.00  0.00     0.167 HD
BRANCH  21  23
ATOM     23  C   UNL     1      44.830 130.522  22.087  1.00  0.00     0.041 A 
ATOM     24  C   UNL     1      44.215 130.813  23.331  1.00  0.00     0.027 A 
ATOM     25  C   UNL     1      45.153 129.180  21.766  1.00  0.00     0.052 A 
ATOM     26  C   UNL     1      43.951 129.792  24.262  1.00  0.00     0.012 A 
ATOM     27  C   UNL     1      44.880 128.195  22.711  1.00  0.00     0.047 A 
ATOM     28  C   UNL     1      44.302 128.491  23.916  1.00  0.00    -0.001 A 
ATOM     29  N   UNL     1      45.113 126.876  22.606  1.00  0.00    -0.361 N 
ATOM     30  C   UNL     1      44.162 127.309  24.609  1.00  0.00     0.028 A 
ATOM     31  C   UNL     1      44.678 126.330  23.765  1.00  0.00     0.083 A 
ATOM     32  H   UNL     1      45.543 126.372  21.799  1.00  0.00     0.166 HD
ENDBRANCH  21  23
ENDBRANCH   9  21
TORSDOF 4
ENDMDL


