MODEL 1
REMARK VINA RESULT:      -5.9      0.000      0.000
REMARK SMILES Cc1ccc(CCC(OC(=O)[N-]C(=O)C(Cl)(Cl)Cl)=C2CCC2)c(C)c1
REMARK SMILES IDX 9 1 8 2 7 3 6 4 5 5 2 6 3 7 25 8 4 9 23 10 1 11 24 12 19 13
REMARK SMILES IDX 20 14 22 15 21 16 10 17 11 18 12 19 13 20 14 21 15 22 16 23
REMARK SMILES IDX 17 24 18 25
REMARK H PARENT
ROOT
ATOM      1  O   UNL     1      45.286 131.876  19.983  1.00  0.00    -0.443 OA
ENDROOT
BRANCH   1   2
ATOM      2  C   UNL     1      44.364 131.709  21.025  1.00  0.00     0.105 C 
BRANCH   2   3
ATOM      3  C   UNL     1      44.735 130.790  22.154  1.00  0.00     0.080 C 
BRANCH   3   4
ATOM      4  C   UNL     1      43.502 130.150  22.813  1.00  0.00     0.044 C 
BRANCH   4   5
ATOM      5  C   UNL     1      43.714 128.685  23.136  1.00  0.00    -0.045 A 
ATOM      6  C   UNL     1      44.228 125.972  23.716  1.00  0.00    -0.051 A 
ATOM      7  C   UNL     1      45.163 126.732  23.005  1.00  0.00     0.004 A 
ATOM      8  C   UNL     1      43.045 126.577  24.163  1.00  0.00     0.007 A 
ATOM      9  C   UNL     1      44.905 128.070  22.712  1.00  0.00     0.004 A 
ATOM     10  C   UNL     1      42.776 127.928  23.884  1.00  0.00    -0.048 A 
ATOM     11  C   UNL     1      44.523 124.542  24.063  1.00  0.00     0.044 C 
ATOM     12  C   UNL     1      41.466 128.517  24.342  1.00  0.00     0.044 C 
ENDBRANCH   4   5
ENDBRANCH   3   4
ENDBRANCH   2   3
BRANCH   2  13
ATOM     13  C   UNL     1      43.145 132.258  20.979  1.00  0.00    -0.032 C 
ATOM     14  C   UNL     1      42.005 132.499  21.952  1.00  0.00     0.035 C 
ATOM     15  C   UNL     1      42.207 132.850  19.941  1.00  0.00     0.035 C 
ATOM     16  C   UNL     1      41.095 133.068  20.914  1.00  0.00     0.009 C 
ENDBRANCH   2  13
ENDBRANCH   1   2
BRANCH   1  17
ATOM     17  C   UNL     1      45.665 130.873  19.083  1.00  0.00     0.240 C 
ATOM     18  O   UNL     1      45.786 129.681  19.467  1.00  0.00    -0.273 OA
BRANCH  17  19
ATOM     19  N   UNL     1      45.869 131.182  17.702  1.00  0.00    -0.556 NA
BRANCH  19  20
ATOM     20  C   UNL     1      44.824 131.351  16.736  1.00  0.00     0.111 C 
ATOM     21  O   UNL     1      43.690 131.772  17.093  1.00  0.00    -0.315 OA
BRANCH  20  22
ATOM     22  C   UNL     1      45.050 130.932  15.310  1.00  0.00     0.232 C 
ATOM     23  Cl  UNL     1      45.140 129.155  15.179  1.00  0.00    -0.077 Cl
ATOM     24  Cl  UNL     1      46.574 131.610  14.676  1.00  0.00    -0.077 Cl
ATOM     25  Cl  UNL     1      43.701 131.517  14.310  1.00  0.00    -0.077 Cl
ENDBRANCH  20  22
ENDBRANCH  19  20
ENDBRANCH  17  19
ENDBRANCH   1  17
TORSDOF 9
ENDMDL
MODEL 2
REMARK VINA RESULT:      -5.5      3.957      6.206
REMARK SMILES Cc1ccc(CCC(OC(=O)[N-]C(=O)C(Cl)(Cl)Cl)=C2CCC2)c(C)c1
REMARK SMILES IDX 9 1 8 2 7 3 6 4 5 5 2 6 3 7 25 8 4 9 23 10 1 11 24 12 19 13
REMARK SMILES IDX 20 14 22 15 21 16 10 17 11 18 12 19 13 20 14 21 15 22 16 23
REMARK SMILES IDX 17 24 18 25
REMARK H PARENT
ROOT
ATOM      1  O   UNL     1      45.489 131.713  19.454  1.00  0.00    -0.443 OA
ENDROOT
BRANCH   1   2
ATOM      2  C   UNL     1      45.603 131.809  20.847  1.00  0.00     0.105 C 
BRANCH   2   3
ATOM      3  C   UNL     1      46.900 132.313  21.415  1.00  0.00     0.080 C 
BRANCH   3   4
ATOM      4  C   UNL     1      46.901 133.841  21.594  1.00  0.00     0.044 C 
BRANCH   4   5
ATOM      5  C   UNL     1      48.203 134.353  22.177  1.00  0.00    -0.045 A 
ATOM      6  C   UNL     1      50.647 135.195  23.306  1.00  0.00    -0.051 A 
ATOM      7  C   UNL     1      50.041 134.010  23.737  1.00  0.00     0.004 A 
ATOM      8  C   UNL     1      50.045 135.947  22.288  1.00  0.00     0.007 A 
ATOM      9  C   UNL     1      48.829 133.598  23.184  1.00  0.00     0.004 A 
ATOM     10  C   UNL     1      48.828 135.539  21.714  1.00  0.00    -0.048 A 
ATOM     11  C   UNL     1      51.970 135.617  23.876  1.00  0.00     0.044 C 
ATOM     12  C   UNL     1      48.195 136.410  20.660  1.00  0.00     0.044 C 
ENDBRANCH   4   5
ENDBRANCH   3   4
ENDBRANCH   2   3
BRANCH   2  13
ATOM     13  C   UNL     1      44.639 131.368  21.664  1.00  0.00    -0.032 C 
ATOM     14  C   UNL     1      43.488 131.977  22.443  1.00  0.00     0.035 C 
ATOM     15  C   UNL     1      44.221 130.065  22.324  1.00  0.00     0.035 C 
ATOM     16  C   UNL     1      43.100 130.688  23.089  1.00  0.00     0.009 C 
ENDBRANCH   2  13
ENDBRANCH   1   2
BRANCH   1  17
ATOM     17  C   UNL     1      44.286 131.784  18.744  1.00  0.00     0.240 C 
ATOM     18  O   UNL     1      43.212 132.076  19.333  1.00  0.00    -0.273 OA
BRANCH  17  19
ATOM     19  N   UNL     1      44.267 131.578  17.329  1.00  0.00    -0.556 NA
BRANCH  19  20
ATOM     20  C   UNL     1      45.080 130.629  16.628  1.00  0.00     0.111 C 
ATOM     21  O   UNL     1      45.558 129.632  17.233  1.00  0.00    -0.315 OA
BRANCH  20  22
ATOM     22  C   UNL     1      45.447 130.877  15.191  1.00  0.00     0.232 C 
ATOM     23  Cl  UNL     1      43.985 131.122  14.198  1.00  0.00    -0.077 Cl
ATOM     24  Cl  UNL     1      46.351 129.496  14.512  1.00  0.00    -0.077 Cl
ATOM     25  Cl  UNL     1      46.463 132.334  15.092  1.00  0.00    -0.077 Cl
ENDBRANCH  20  22
ENDBRANCH  19  20
ENDBRANCH  17  19
ENDBRANCH   1  17
TORSDOF 9
ENDMDL
MODEL 3
REMARK VINA RESULT:      -5.1      4.171      7.457
REMARK SMILES Cc1ccc(CCC(OC(=O)[N-]C(=O)C(Cl)(Cl)Cl)=C2CCC2)c(C)c1
REMARK SMILES IDX 9 1 8 2 7 3 6 4 5 5 2 6 3 7 25 8 4 9 23 10 1 11 24 12 19 13
REMARK SMILES IDX 20 14 22 15 21 16 10 17 11 18 12 19 13 20 14 21 15 22 16 23
REMARK SMILES IDX 17 24 18 25
REMARK H PARENT
ROOT
ATOM      1  O   UNL     1      45.719 129.121  21.641  1.00  0.00    -0.443 OA
ENDROOT
BRANCH   1   2
ATOM      2  C   UNL     1      45.183 130.360  21.266  1.00  0.00     0.105 C 
BRANCH   2   3
ATOM      3  C   UNL     1      45.802 131.071  20.096  1.00  0.00     0.080 C 
BRANCH   3   4
ATOM      4  C   UNL     1      46.062 130.124  18.912  1.00  0.00     0.044 C 
BRANCH   4   5
ATOM      5  C   UNL     1      45.333 130.557  17.656  1.00  0.00    -0.045 A 
ATOM      6  C   UNL     1      43.915 131.443  15.383  1.00  0.00    -0.051 A 
ATOM      7  C   UNL     1      43.447 131.739  16.669  1.00  0.00     0.004 A 
ATOM      8  C   UNL     1      45.110 130.727  15.234  1.00  0.00     0.007 A 
ATOM      9  C   UNL     1      44.143 131.294  17.791  1.00  0.00     0.004 A 
ATOM     10  C   UNL     1      45.830 130.280  16.356  1.00  0.00    -0.048 A 
ATOM     11  C   UNL     1      43.184 131.954  14.177  1.00  0.00     0.044 C 
ATOM     12  C   UNL     1      47.081 129.469  16.140  1.00  0.00     0.044 C 
ENDBRANCH   4   5
ENDBRANCH   3   4
ENDBRANCH   2   3
BRANCH   2  13
ATOM     13  C   UNL     1      44.221 130.956  21.982  1.00  0.00    -0.032 C 
ATOM     14  C   UNL     1      42.784 131.387  21.757  1.00  0.00     0.035 C 
ATOM     15  C   UNL     1      44.061 131.600  23.349  1.00  0.00     0.035 C 
ATOM     16  C   UNL     1      42.650 132.023  23.101  1.00  0.00     0.009 C 
ENDBRANCH   2  13
ENDBRANCH   1   2
BRANCH   1  17
ATOM     17  C   UNL     1      44.998 128.091  22.254  1.00  0.00     0.240 C 
ATOM     18  O   UNL     1      43.986 128.349  22.958  1.00  0.00    -0.273 OA
BRANCH  17  19
ATOM     19  N   UNL     1      45.370 126.726  22.049  1.00  0.00    -0.556 NA
BRANCH  19  20
ATOM     20  C   UNL     1      46.248 125.978  22.899  1.00  0.00     0.111 C 
ATOM     21  O   UNL     1      46.826 126.541  23.868  1.00  0.00    -0.315 OA
BRANCH  20  22
ATOM     22  C   UNL     1      46.558 124.543  22.576  1.00  0.00     0.232 C 
ATOM     23  Cl  UNL     1      47.199 123.695  24.008  1.00  0.00    -0.077 Cl
ATOM     24  Cl  UNL     1      47.774 124.426  21.275  1.00  0.00    -0.077 Cl
ATOM     25  Cl  UNL     1      45.068 123.731  22.044  1.00  0.00    -0.077 Cl
ENDBRANCH  20  22
ENDBRANCH  19  20
ENDBRANCH  17  19
ENDBRANCH   1  17
TORSDOF 9
ENDMDL
MODEL 4
REMARK VINA RESULT:      -5.0      3.932      7.750
REMARK SMILES Cc1ccc(CCC(OC(=O)[N-]C(=O)C(Cl)(Cl)Cl)=C2CCC2)c(C)c1
REMARK SMILES IDX 9 1 8 2 7 3 6 4 5 5 2 6 3 7 25 8 4 9 23 10 1 11 24 12 19 13
REMARK SMILES IDX 20 14 22 15 21 16 10 17 11 18 12 19 13 20 14 21 15 22 16 23
REMARK SMILES IDX 17 24 18 25
REMARK H PARENT
ROOT
ATOM      1  O   UNL     1      42.453 131.458  18.157  1.00  0.00    -0.443 OA
ENDROOT
BRANCH   1   2
ATOM      2  C   UNL     1      43.805 131.625  17.829  1.00  0.00     0.105 C 
BRANCH   2   3
ATOM      3  C   UNL     1      44.175 131.677  16.373  1.00  0.00     0.080 C 
BRANCH   3   4
ATOM      4  C   UNL     1      45.588 132.244  16.153  1.00  0.00     0.044 C 
BRANCH   4   5
ATOM      5  C   UNL     1      46.417 131.382  15.223  1.00  0.00    -0.045 A 
ATOM      6  C   UNL     1      48.011 129.877  13.446  1.00  0.00    -0.051 A 
ATOM      7  C   UNL     1      47.800 131.243  13.223  1.00  0.00     0.004 A 
ATOM      8  C   UNL     1      47.447 129.269  14.576  1.00  0.00     0.007 A 
ATOM      9  C   UNL     1      47.006 131.984  14.097  1.00  0.00     0.004 A 
ATOM     10  C   UNL     1      46.653 130.005  15.472  1.00  0.00    -0.048 A 
ATOM     11  C   UNL     1      48.896 129.089  12.526  1.00  0.00     0.044 C 
ATOM     12  C   UNL     1      46.027 129.292  16.643  1.00  0.00     0.044 C 
ENDBRANCH   4   5
ENDBRANCH   3   4
ENDBRANCH   2   3
BRANCH   2  13
ATOM     13  C   UNL     1      44.761 131.631  18.766  1.00  0.00    -0.032 C 
ATOM     14  C   UNL     1      45.673 130.610  19.419  1.00  0.00     0.035 C 
ATOM     15  C   UNL     1      45.387 132.617  19.738  1.00  0.00     0.035 C 
ATOM     16  C   UNL     1      46.269 131.592  20.372  1.00  0.00     0.009 C 
ENDBRANCH   2  13
ENDBRANCH   1   2
BRANCH   1  17
ATOM     17  C   UNL     1      41.902 131.696  19.421  1.00  0.00     0.240 C 
ATOM     18  O   UNL     1      40.959 132.518  19.563  1.00  0.00    -0.273 OA
BRANCH  17  19
ATOM     19  N   UNL     1      42.369 130.972  20.562  1.00  0.00    -0.556 NA
BRANCH  19  20
ATOM     20  C   UNL     1      42.582 131.537  21.861  1.00  0.00     0.111 C 
ATOM     21  O   UNL     1      42.231 132.723  22.104  1.00  0.00    -0.315 OA
BRANCH  20  22
ATOM     22  C   UNL     1      43.315 130.746  22.908  1.00  0.00     0.232 C 
ATOM     23  Cl  UNL     1      42.169 129.943  24.014  1.00  0.00    -0.077 Cl
ATOM     24  Cl  UNL     1      44.375 131.800  23.883  1.00  0.00    -0.077 Cl
ATOM     25  Cl  UNL     1      44.313 129.507  22.111  1.00  0.00    -0.077 Cl
ENDBRANCH  20  22
ENDBRANCH  19  20
ENDBRANCH  17  19
ENDBRANCH   1  17
TORSDOF 9
ENDMDL
MODEL 5
REMARK VINA RESULT:      -5.0      3.911      6.231
REMARK SMILES Cc1ccc(CCC(OC(=O)[N-]C(=O)C(Cl)(Cl)Cl)=C2CCC2)c(C)c1
REMARK SMILES IDX 9 1 8 2 7 3 6 4 5 5 2 6 3 7 25 8 4 9 23 10 1 11 24 12 19 13
REMARK SMILES IDX 20 14 22 15 21 16 10 17 11 18 12 19 13 20 14 21 15 22 16 23
REMARK SMILES IDX 17 24 18 25
REMARK H PARENT
ROOT
ATOM      1  O   UNL     1      45.388 131.852  19.132  1.00  0.00    -0.443 OA
ENDROOT
BRANCH   1   2
ATOM      2  C   UNL     1      45.514 132.055  20.512  1.00  0.00     0.105 C 
BRANCH   2   3
ATOM      3  C   UNL     1      46.866 132.437  21.047  1.00  0.00     0.080 C 
BRANCH   3   4
ATOM      4  C   UNL     1      46.779 133.546  22.109  1.00  0.00     0.044 C 
BRANCH   4   5
ATOM      5  C   UNL     1      47.964 134.489  22.057  1.00  0.00    -0.045 A 
ATOM      6  C   UNL     1      50.104 136.320  21.894  1.00  0.00    -0.051 A 
ATOM      7  C   UNL     1      49.033 136.403  20.997  1.00  0.00     0.004 A 
ATOM      8  C   UNL     1      50.092 135.337  22.892  1.00  0.00     0.007 A 
ATOM      9  C   UNL     1      47.979 135.493  21.073  1.00  0.00     0.004 A 
ATOM     10  C   UNL     1      49.033 134.419  22.988  1.00  0.00    -0.048 A 
ATOM     11  C   UNL     1      51.218 137.323  21.834  1.00  0.00     0.044 C 
ATOM     12  C   UNL     1      49.093 133.348  24.047  1.00  0.00     0.044 C 
ENDBRANCH   4   5
ENDBRANCH   3   4
ENDBRANCH   2   3
BRANCH   2  13
ATOM     13  C   UNL     1      44.501 131.818  21.354  1.00  0.00    -0.032 C 
ATOM     14  C   UNL     1      44.323 131.160  22.710  1.00  0.00     0.035 C 
ATOM     15  C   UNL     1      42.991 131.985  21.385  1.00  0.00     0.035 C 
ATOM     16  C   UNL     1      42.840 131.325  22.716  1.00  0.00     0.009 C 
ENDBRANCH   2  13
ENDBRANCH   1   2
BRANCH   1  17
ATOM     17  C   UNL     1      45.425 130.603  18.502  1.00  0.00     0.240 C 
ATOM     18  O   UNL     1      45.820 129.583  19.125  1.00  0.00    -0.273 OA
BRANCH  17  19
ATOM     19  N   UNL     1      44.965 130.458  17.155  1.00  0.00    -0.556 NA
BRANCH  19  20
ATOM     20  C   UNL     1      45.815 130.339  16.007  1.00  0.00     0.111 C 
ATOM     21  O   UNL     1      46.746 129.489  15.991  1.00  0.00    -0.315 OA
BRANCH  20  22
ATOM     22  C   UNL     1      45.658 131.296  14.859  1.00  0.00     0.232 C 
ATOM     23  Cl  UNL     1      46.667 130.797  13.475  1.00  0.00    -0.077 Cl
ATOM     24  Cl  UNL     1      46.145 132.948  15.329  1.00  0.00    -0.077 Cl
ATOM     25  Cl  UNL     1      43.954 131.323  14.351  1.00  0.00    -0.077 Cl
ENDBRANCH  20  22
ENDBRANCH  19  20
ENDBRANCH  17  19
ENDBRANCH   1  17
TORSDOF 9
ENDMDL
MODEL 6
REMARK VINA RESULT:      -4.1      2.193      3.710
REMARK SMILES Cc1ccc(CCC(OC(=O)[N-]C(=O)C(Cl)(Cl)Cl)=C2CCC2)c(C)c1
REMARK SMILES IDX 9 1 8 2 7 3 6 4 5 5 2 6 3 7 25 8 4 9 23 10 1 11 24 12 19 13
REMARK SMILES IDX 20 14 22 15 21 16 10 17 11 18 12 19 13 20 14 21 15 22 16 23
REMARK SMILES IDX 17 24 18 25
REMARK H PARENT
ROOT
ATOM      1  O   UNL     1      46.239 130.303  17.205  1.00  0.00    -0.443 OA
ENDROOT
BRANCH   1   2
ATOM      2  C   UNL     1      45.483 130.629  18.338  1.00  0.00     0.105 C 
BRANCH   2   3
ATOM      3  C   UNL     1      45.943 130.101  19.668  1.00  0.00     0.080 C 
BRANCH   3   4
ATOM      4  C   UNL     1      45.697 131.103  20.808  1.00  0.00     0.044 C 
BRANCH   4   5
ATOM      5  C   UNL     1      44.671 130.603  21.805  1.00  0.00    -0.045 A 
ATOM      6  C   UNL     1      42.693 129.770  23.636  1.00  0.00    -0.051 A 
ATOM      7  C   UNL     1      42.736 131.099  23.198  1.00  0.00     0.004 A 
ATOM      8  C   UNL     1      43.624 128.849  23.136  1.00  0.00     0.007 A 
ATOM      9  C   UNL     1      43.718 131.512  22.299  1.00  0.00     0.004 A 
ATOM     10  C   UNL     1      44.614 129.248  22.222  1.00  0.00    -0.048 A 
ATOM     11  C   UNL     1      41.613 129.319  24.575  1.00  0.00     0.044 C 
ATOM     12  C   UNL     1      45.623 128.231  21.755  1.00  0.00     0.044 C 
ENDBRANCH   4   5
ENDBRANCH   3   4
ENDBRANCH   2   3
BRANCH   2  13
ATOM     13  C   UNL     1      44.327 131.298  18.245  1.00  0.00    -0.032 C 
ATOM     14  C   UNL     1      43.302 131.870  19.206  1.00  0.00     0.035 C 
ATOM     15  C   UNL     1      43.373 131.765  17.158  1.00  0.00     0.035 C 
ATOM     16  C   UNL     1      42.374 132.313  18.124  1.00  0.00     0.009 C 
ENDBRANCH   2  13
ENDBRANCH   1   2
BRANCH   1  17
ATOM     17  C   UNL     1      45.833 129.416  16.202  1.00  0.00     0.240 C 
ATOM     18  O   UNL     1      44.618 129.114  16.068  1.00  0.00    -0.273 OA
BRANCH  17  19
ATOM     19  N   UNL     1      46.787 128.880  15.281  1.00  0.00    -0.556 NA
BRANCH  19  20
ATOM     20  C   UNL     1      47.365 129.602  14.186  1.00  0.00     0.111 C 
ATOM     21  O   UNL     1      48.430 129.195  13.648  1.00  0.00    -0.315 OA
BRANCH  20  22
ATOM     22  C   UNL     1      46.754 130.902  13.744  1.00  0.00     0.232 C 
ATOM     23  Cl  UNL     1      46.852 132.123  15.041  1.00  0.00    -0.077 Cl
ATOM     24  Cl  UNL     1      45.035 130.690  13.315  1.00  0.00    -0.077 Cl
ATOM     25  Cl  UNL     1      47.632 131.503  12.318  1.00  0.00    -0.077 Cl
ENDBRANCH  20  22
ENDBRANCH  19  20
ENDBRANCH  17  19
ENDBRANCH   1  17
TORSDOF 9
ENDMDL
MODEL 7
REMARK VINA RESULT:      -3.9      4.077      7.336
REMARK SMILES Cc1ccc(CCC(OC(=O)[N-]C(=O)C(Cl)(Cl)Cl)=C2CCC2)c(C)c1
REMARK SMILES IDX 9 1 8 2 7 3 6 4 5 5 2 6 3 7 25 8 4 9 23 10 1 11 24 12 19 13
REMARK SMILES IDX 20 14 22 15 21 16 10 17 11 18 12 19 13 20 14 21 15 22 16 23
REMARK SMILES IDX 17 24 18 25
REMARK H PARENT
ROOT
ATOM      1  O   UNL     1      45.202 131.695  18.998  1.00  0.00    -0.443 OA
ENDROOT
BRANCH   1   2
ATOM      2  C   UNL     1      43.912 131.579  18.466  1.00  0.00     0.105 C 
BRANCH   2   3
ATOM      3  C   UNL     1      43.762 130.942  17.112  1.00  0.00     0.080 C 
BRANCH   3   4
ATOM      4  C   UNL     1      44.321 131.829  15.988  1.00  0.00     0.044 C 
BRANCH   4   5
ATOM      5  C   UNL     1      45.458 131.164  15.238  1.00  0.00    -0.045 A 
ATOM      6  C   UNL     1      47.630 130.032  13.837  1.00  0.00    -0.051 A 
ATOM      7  C   UNL     1      47.423 131.416  13.823  1.00  0.00     0.004 A 
ATOM      8  C   UNL     1      46.765 129.214  14.577  1.00  0.00     0.007 A 
ATOM      9  C   UNL     1      46.345 131.974  14.509  1.00  0.00     0.004 A 
ATOM     10  C   UNL     1      45.680 129.763  15.283  1.00  0.00    -0.048 A 
ATOM     11  C   UNL     1      48.811 129.438  13.129  1.00  0.00     0.044 C 
ATOM     12  C   UNL     1      44.749 128.835  16.020  1.00  0.00     0.044 C 
ENDBRANCH   4   5
ENDBRANCH   3   4
ENDBRANCH   2   3
BRANCH   2  13
ATOM     13  C   UNL     1      42.847 132.108  19.080  1.00  0.00    -0.032 C 
ATOM     14  C   UNL     1      41.494 132.658  18.667  1.00  0.00     0.035 C 
ATOM     15  C   UNL     1      42.442 132.530  20.482  1.00  0.00     0.035 C 
ATOM     16  C   UNL     1      41.119 133.074  20.051  1.00  0.00     0.009 C 
ENDBRANCH   2  13
ENDBRANCH   1   2
BRANCH   1  17
ATOM     17  C   UNL     1      45.785 130.785  19.887  1.00  0.00     0.240 C 
ATOM     18  O   UNL     1      46.548 129.877  19.464  1.00  0.00    -0.273 OA
BRANCH  17  19
ATOM     19  N   UNL     1      45.562 130.905  21.294  1.00  0.00    -0.556 NA
BRANCH  19  20
ATOM     20  C   UNL     1      44.454 130.335  22.001  1.00  0.00     0.111 C 
ATOM     21  O   UNL     1      43.671 129.536  21.418  1.00  0.00    -0.315 OA
BRANCH  20  22
ATOM     22  C   UNL     1      44.165 130.769  23.411  1.00  0.00     0.232 C 
ATOM     23  Cl  UNL     1      44.644 129.503  24.573  1.00  0.00    -0.077 Cl
ATOM     24  Cl  UNL     1      42.425 131.096  23.638  1.00  0.00    -0.077 Cl
ATOM     25  Cl  UNL     1      45.079 132.253  23.764  1.00  0.00    -0.077 Cl
ENDBRANCH  20  22
ENDBRANCH  19  20
ENDBRANCH  17  19
ENDBRANCH   1  17
TORSDOF 9
ENDMDL
MODEL 8
REMARK VINA RESULT:      -3.9      4.120      6.455
REMARK SMILES Cc1ccc(CCC(OC(=O)[N-]C(=O)C(Cl)(Cl)Cl)=C2CCC2)c(C)c1
REMARK SMILES IDX 9 1 8 2 7 3 6 4 5 5 2 6 3 7 25 8 4 9 23 10 1 11 24 12 19 13
REMARK SMILES IDX 20 14 22 15 21 16 10 17 11 18 12 19 13 20 14 21 15 22 16 23
REMARK SMILES IDX 17 24 18 25
REMARK H PARENT
ROOT
ATOM      1  O   UNL     1      45.608 131.941  19.642  1.00  0.00    -0.443 OA
ENDROOT
BRANCH   1   2
ATOM      2  C   UNL     1      45.341 132.423  20.930  1.00  0.00     0.105 C 
BRANCH   2   3
ATOM      3  C   UNL     1      46.177 133.562  21.444  1.00  0.00     0.080 C 
BRANCH   3   4
ATOM      4  C   UNL     1      47.604 133.118  21.805  1.00  0.00     0.044 C 
BRANCH   4   5
ATOM      5  C   UNL     1      48.556 134.290  21.940  1.00  0.00    -0.045 A 
ATOM      6  C   UNL     1      50.252 136.537  22.125  1.00  0.00    -0.051 A 
ATOM      7  C   UNL     1      49.274 136.469  21.126  1.00  0.00     0.004 A 
ATOM      8  C   UNL     1      50.364 135.491  23.052  1.00  0.00     0.007 A 
ATOM      9  C   UNL     1      48.442 135.355  21.030  1.00  0.00     0.004 A 
ATOM     10  C   UNL     1      49.524 134.366  22.975  1.00  0.00    -0.048 A 
ATOM     11  C   UNL     1      51.122 137.753  22.249  1.00  0.00     0.044 C 
ATOM     12  C   UNL     1      49.720 133.246  23.963  1.00  0.00     0.044 C 
ENDBRANCH   4   5
ENDBRANCH   3   4
ENDBRANCH   2   3
BRANCH   2  13
ATOM     13  C   UNL     1      44.447 131.832  21.731  1.00  0.00    -0.032 C 
ATOM     14  C   UNL     1      44.353 131.468  23.202  1.00  0.00     0.035 C 
ATOM     15  C   UNL     1      43.104 131.131  21.608  1.00  0.00     0.035 C 
ATOM     16  C   UNL     1      43.038 130.775  23.058  1.00  0.00     0.009 C 
ENDBRANCH   2  13
ENDBRANCH   1   2
BRANCH   1  17
ATOM     17  C   UNL     1      45.955 130.620  19.339  1.00  0.00     0.240 C 
ATOM     18  O   UNL     1      45.850 129.716  20.209  1.00  0.00    -0.273 OA
BRANCH  17  19
ATOM     19  N   UNL     1      46.387 130.269  18.022  1.00  0.00    -0.556 NA
BRANCH  19  20
ATOM     20  C   UNL     1      45.517 130.065  16.902  1.00  0.00     0.111 C 
ATOM     21  O   UNL     1      45.431 128.929  16.361  1.00  0.00    -0.315 OA
BRANCH  20  22
ATOM     22  C   UNL     1      44.780 131.233  16.306  1.00  0.00     0.232 C 
ATOM     23  Cl  UNL     1      45.892 132.594  16.001  1.00  0.00    -0.077 Cl
ATOM     24  Cl  UNL     1      43.494 131.806  17.402  1.00  0.00    -0.077 Cl
ATOM     25  Cl  UNL     1      44.043 130.733  14.766  1.00  0.00    -0.077 Cl
ENDBRANCH  20  22
ENDBRANCH  19  20
ENDBRANCH  17  19
ENDBRANCH   1  17
TORSDOF 9
ENDMDL
MODEL 9
REMARK VINA RESULT:      -3.7      3.888      6.211
REMARK SMILES Cc1ccc(CCC(OC(=O)[N-]C(=O)C(Cl)(Cl)Cl)=C2CCC2)c(C)c1
REMARK SMILES IDX 9 1 8 2 7 3 6 4 5 5 2 6 3 7 25 8 4 9 23 10 1 11 24 12 19 13
REMARK SMILES IDX 20 14 22 15 21 16 10 17 11 18 12 19 13 20 14 21 15 22 16 23
REMARK SMILES IDX 17 24 18 25
REMARK H PARENT
ROOT
ATOM      1  O   UNL     1      44.945 132.621  19.802  1.00  0.00    -0.443 OA
ENDROOT
BRANCH   1   2
ATOM      2  C   UNL     1      45.037 132.305  21.164  1.00  0.00     0.105 C 
BRANCH   2   3
ATOM      3  C   UNL     1      46.023 133.071  22.000  1.00  0.00     0.080 C 
BRANCH   3   4
ATOM      4  C   UNL     1      47.259 133.501  21.194  1.00  0.00     0.044 C 
BRANCH   4   5
ATOM      5  C   UNL     1      48.319 134.148  22.063  1.00  0.00    -0.045 A 
ATOM      6  C   UNL     1      50.305 135.247  23.739  1.00  0.00    -0.051 A 
ATOM      7  C   UNL     1      49.649 134.064  24.101  1.00  0.00     0.004 A 
ATOM      8  C   UNL     1      49.987 135.866  22.523  1.00  0.00     0.007 A 
ATOM      9  C   UNL     1      48.662 133.526  23.276  1.00  0.00     0.004 A 
ATOM     10  C   UNL     1      49.002 135.330  21.675  1.00  0.00    -0.048 A 
ATOM     11  C   UNL     1      51.392 135.804  24.610  1.00  0.00     0.044 C 
ATOM     12  C   UNL     1      48.661 136.063  20.404  1.00  0.00     0.044 C 
ENDBRANCH   4   5
ENDBRANCH   3   4
ENDBRANCH   2   3
BRANCH   2  13
ATOM     13  C   UNL     1      44.355 131.284  21.697  1.00  0.00    -0.032 C 
ATOM     14  C   UNL     1      42.899 130.873  21.820  1.00  0.00     0.035 C 
ATOM     15  C   UNL     1      44.637 130.047  22.532  1.00  0.00     0.035 C 
ATOM     16  C   UNL     1      43.197 129.668  22.649  1.00  0.00     0.009 C 
ENDBRANCH   2  13
ENDBRANCH   1   2
BRANCH   1  17
ATOM     17  C   UNL     1      44.397 131.785  18.823  1.00  0.00     0.240 C 
ATOM     18  O   UNL     1      43.149 131.688  18.690  1.00  0.00    -0.273 OA
BRANCH  17  19
ATOM     19  N   UNL     1      45.249 131.068  17.925  1.00  0.00    -0.556 NA
BRANCH  19  20
ATOM     20  C   UNL     1      45.595 131.500  16.603  1.00  0.00     0.111 C 
ATOM     21  O   UNL     1      45.765 132.725  16.358  1.00  0.00    -0.315 OA
BRANCH  20  22
ATOM     22  C   UNL     1      45.657 130.499  15.483  1.00  0.00     0.232 C 
ATOM     23  Cl  UNL     1      44.748 131.080  14.062  1.00  0.00    -0.077 Cl
ATOM     24  Cl  UNL     1      44.958 128.934  15.982  1.00  0.00    -0.077 Cl
ATOM     25  Cl  UNL     1      47.355 130.248  15.019  1.00  0.00    -0.077 Cl
ENDBRANCH  20  22
ENDBRANCH  19  20
ENDBRANCH  17  19
ENDBRANCH   1  17
TORSDOF 9
ENDMDL


