REMARK SMILES Cc1ccc(-c2ccc([NH2+]c3cc4cc5ccccc5cc4[nH]3)c(C=O)c2)cc1
REMARK SMILES IDX 6 1 7 2 8 3 9 4 24 5 27 6 5 7 2 8 3 9 29 10 4 11 28 12 1 13
REMARK SMILES IDX 25 14 26 15 10 16 11 19 12 20 23 21 13 22 22 23 14 24 21 25
REMARK SMILES IDX 15 26 20 27 16 28 19 29 17 30 18 31
REMARK H PARENT 10 17 10 18 23 32
ROOT
ATOM      1  C   UNL     1      -2.121  -0.171  -2.168  1.00  0.00    -0.017 A 
ATOM      2  C   UNL     1      -1.468   1.020  -2.505  1.00  0.00     0.015 A 
ATOM      3  C   UNL     1      -0.077   1.080  -2.533  1.00  0.00     0.069 A 
ATOM      4  C   UNL     1       0.709  -0.046  -2.224  1.00  0.00     0.146 A 
ATOM      5  C   UNL     1       0.054  -1.261  -1.859  1.00  0.00     0.076 A 
ATOM      6  C   UNL     1      -1.353  -1.302  -1.849  1.00  0.00     0.026 A 
ENDROOT
BRANCH   1   7
ATOM      7  C   UNL     1      -3.605  -0.236  -2.143  1.00  0.00    -0.018 A 
ATOM      8  C   UNL     1      -6.422  -0.366  -2.086  1.00  0.00    -0.051 A 
ATOM      9  C   UNL     1      -5.676  -1.418  -2.636  1.00  0.00     0.004 A 
ATOM     10  C   UNL     1      -5.756   0.762  -1.587  1.00  0.00     0.004 A 
ATOM     11  C   UNL     1      -4.280  -1.358  -2.659  1.00  0.00     0.009 A 
ATOM     12  C   UNL     1      -4.359   0.825  -1.610  1.00  0.00     0.009 A 
ATOM     13  C   UNL     1      -7.921  -0.415  -2.098  1.00  0.00     0.044 C 
ENDBRANCH   1   7
BRANCH   5  14
ATOM     14  C   UNL     1       0.756  -2.514  -1.483  1.00  0.00     0.266 C 
ATOM     15  O   UNL     1       1.993  -2.561  -1.263  1.00  0.00    -0.298 OA
ENDBRANCH   5  14
BRANCH   4  16
ATOM     16  N   UNL     1       2.149   0.082  -2.278  1.00  0.00    -0.266 N 
ATOM     17  H   UNL     1       2.423   0.892  -2.882  1.00  0.00     0.359 HD
ATOM     18  H   UNL     1       2.574  -0.763  -2.722  1.00  0.00     0.359 HD
BRANCH  16  19
ATOM     19  C   UNL     1       2.698   0.309  -0.967  1.00  0.00     0.208 A 
ATOM     20  C   UNL     1       2.270   1.292  -0.073  1.00  0.00     0.099 A 
ATOM     21  N   UNL     1       3.797  -0.331  -0.502  1.00  0.00    -0.310 N 
ATOM     22  C   UNL     1       3.144   1.204   0.988  1.00  0.00     0.006 A 
ATOM     23  C   UNL     1       4.052   0.218   0.698  1.00  0.00     0.051 A 
ATOM     24  C   UNL     1       3.203   1.938   2.170  1.00  0.00     0.019 A 
ATOM     25  C   UNL     1       5.088  -0.108   1.570  1.00  0.00     0.035 A 
ATOM     26  C   UNL     1       4.235   1.636   3.084  1.00  0.00    -0.018 A 
ATOM     27  C   UNL     1       5.183   0.607   2.783  1.00  0.00    -0.016 A 
ATOM     28  C   UNL     1       4.342   2.340   4.293  1.00  0.00     0.009 A 
ATOM     29  C   UNL     1       6.204   0.320   3.700  1.00  0.00     0.009 A 
ATOM     30  C   UNL     1       5.367   2.038   5.193  1.00  0.00     0.001 A 
ATOM     31  C   UNL     1       6.293   1.033   4.899  1.00  0.00     0.001 A 
ATOM     32  H   UNL     1       4.345  -1.079  -0.982  1.00  0.00     0.172 HD
ENDBRANCH  16  19
ENDBRANCH   4  16
TORSDOF 4


