REMARK SMILES Cc1ccc(Nc2cccc(N=[N+]=[N-])c2O)cc1F
REMARK SMILES IDX 15 1 11 2 10 3 9 4 8 5 7 6 16 7 12 9 13 10 14 11 6 12 5 14
REMARK SMILES IDX 4 15 17 16 3 17 18 18 2 19 19 20 1 21
REMARK H PARENT 16 8 6 13
ROOT
ATOM      1  C   UNL     1       1.336   0.650   1.346  1.00  0.00     0.148 A 
ATOM      2  C   UNL     1       1.708   1.039   2.650  1.00  0.00     0.081 A 
ATOM      3  C   UNL     1       1.685   0.088   3.687  1.00  0.00     0.014 A 
ATOM      4  C   UNL     1       1.305  -1.229   3.428  1.00  0.00     0.003 A 
ATOM      5  C   UNL     1       0.931  -1.610   2.140  1.00  0.00     0.030 A 
ATOM      6  C   UNL     1       0.918  -0.674   1.099  1.00  0.00     0.081 A 
ENDROOT
BRANCH   1   7
ATOM      7  O   UNL     1       1.396   1.560   0.287  1.00  0.00    -0.505 OA
ATOM      8  H   UNL     1       1.693   2.520   0.408  1.00  0.00     0.293 HD
ENDBRANCH   1   7
BRANCH   2   9
ATOM      9  N   UNL     1       2.114   2.395   2.894  1.00  0.00    -0.057 NA
BRANCH   9  10
ATOM     10  N   UNL     1       2.451   2.793   4.011  1.00  0.00     0.005 N 
ATOM     11  N   UNL     1       2.789   3.192   5.124  1.00  0.00    -0.003 NA
ENDBRANCH   9  10
ENDBRANCH   2   9
BRANCH   6  12
ATOM     12  N   UNL     1       0.534  -1.102  -0.218  1.00  0.00    -0.352 N 
ATOM     13  H   UNL     1       0.889  -2.027  -0.550  1.00  0.00     0.167 HD
BRANCH  12  14
ATOM     14  C   UNL     1      -0.387  -0.388  -1.062  1.00  0.00     0.041 A 
ATOM     15  C   UNL     1      -1.338   0.498  -0.526  1.00  0.00     0.026 A 
ATOM     16  C   UNL     1      -0.375  -0.621  -2.445  1.00  0.00     0.065 A 
ATOM     17  C   UNL     1      -2.235   1.165  -1.365  1.00  0.00     0.008 A 
ATOM     18  C   UNL     1      -1.272   0.045  -3.286  1.00  0.00     0.128 A 
ATOM     19  C   UNL     1      -2.199   0.955  -2.752  1.00  0.00    -0.015 A 
ATOM     20  F   UNL     1      -1.240  -0.201  -4.621  1.00  0.00    -0.207 F 
ATOM     21  C   UNL     1      -3.183   1.649  -3.649  1.00  0.00     0.047 C 
ENDBRANCH  12  14
ENDBRANCH   6  12
TORSDOF 5


