MODEL 1
REMARK VINA RESULT:      -9.5      0.000      0.000
REMARK SMILES CC(=O)Nc1cc(F)c(-c2ccc(C)cc2)cc1C=O
REMARK SMILES IDX 5 1 6 2 7 3 8 4 9 5 17 6 18 7 4 8 2 9 1 10 3 11 19 13 20 14
REMARK SMILES IDX 10 15 11 16 16 17 12 18 15 19 13 20 14 21
REMARK H PARENT 4 12
ROOT
ATOM      1  C   UNL     1      43.696 131.577  20.909  1.00  0.00     0.054 A 
ATOM      2  C   UNL     1      44.985 131.033  20.793  1.00  0.00     0.066 A 
ATOM      3  C   UNL     1      45.590 130.884  19.545  1.00  0.00     0.133 A 
ATOM      4  F   UNL     1      46.851 130.385  19.481  1.00  0.00    -0.206 F 
ATOM      5  C   UNL     1      44.907 131.263  18.377  1.00  0.00     0.018 A 
ATOM      6  C   UNL     1      43.618 131.810  18.488  1.00  0.00     0.025 A 
ATOM      7  C   UNL     1      43.005 131.979  19.740  1.00  0.00     0.039 A 
ENDROOT
BRANCH   1   8
ATOM      8  N   UNL     1      43.071 131.635  22.202  1.00  0.00    -0.326 N 
ATOM      9  C   UNL     1      42.930 130.489  23.055  1.00  0.00     0.221 C 
ATOM     10  C   UNL     1      42.155 130.598  24.326  1.00  0.00     0.114 C 
ATOM     11  O   UNL     1      43.510 129.406  22.772  1.00  0.00    -0.275 OA
ATOM     12  H   UNL     1      42.702 132.552  22.539  1.00  0.00     0.169 HD
ENDBRANCH   1   8
BRANCH   7  13
ATOM     13  C   UNL     1      41.665 132.610  19.772  1.00  0.00     0.262 C 
ATOM     14  O   UNL     1      41.296 133.342  20.728  1.00  0.00    -0.298 OA
ENDBRANCH   7  13
BRANCH   5  15
ATOM     15  C   UNL     1      45.531 131.099  17.042  1.00  0.00    -0.015 A 
ATOM     16  C   UNL     1      45.704 132.206  16.193  1.00  0.00     0.009 A 
ATOM     17  C   UNL     1      45.976 129.837  16.614  1.00  0.00     0.009 A 
ATOM     18  C   UNL     1      46.298 132.051  14.937  1.00  0.00     0.004 A 
ATOM     19  C   UNL     1      46.570 129.682  15.358  1.00  0.00     0.004 A 
ATOM     20  C   UNL     1      46.720 130.784  14.506  1.00  0.00    -0.051 A 
ATOM     21  C   UNL     1      47.394 130.625  13.174  1.00  0.00     0.044 C 
ENDBRANCH   5  15
TORSDOF 3
ENDMDL
MODEL 2
REMARK VINA RESULT:      -9.5      0.138      1.090
REMARK SMILES CC(=O)Nc1cc(F)c(-c2ccc(C)cc2)cc1C=O
REMARK SMILES IDX 5 1 6 2 7 3 8 4 9 5 17 6 18 7 4 8 2 9 1 10 3 11 19 13 20 14
REMARK SMILES IDX 10 15 11 16 16 17 12 18 15 19 13 20 14 21
REMARK H PARENT 4 12
ROOT
ATOM      1  C   UNL     1      43.603 131.501  20.815  1.00  0.00     0.054 A 
ATOM      2  C   UNL     1      44.879 130.921  20.725  1.00  0.00     0.066 A 
ATOM      3  C   UNL     1      45.526 130.800  19.495  1.00  0.00     0.133 A 
ATOM      4  F   UNL     1      46.772 130.264  19.458  1.00  0.00    -0.206 F 
ATOM      5  C   UNL     1      44.899 131.244  18.319  1.00  0.00     0.018 A 
ATOM      6  C   UNL     1      43.624 131.827  18.403  1.00  0.00     0.025 A 
ATOM      7  C   UNL     1      42.969 131.969  19.638  1.00  0.00     0.039 A 
ENDROOT
BRANCH   1   8
ATOM      8  N   UNL     1      42.932 131.530  22.086  1.00  0.00    -0.326 N 
ATOM      9  C   UNL     1      42.979 130.441  23.020  1.00  0.00     0.221 C 
ATOM     10  C   UNL     1      42.151 130.490  24.261  1.00  0.00     0.114 C 
ATOM     11  O   UNL     1      43.762 129.472  22.833  1.00  0.00    -0.275 OA
ATOM     12  H   UNL     1      42.385 132.381  22.343  1.00  0.00     0.169 HD
ENDBRANCH   1   8
BRANCH   7  13
ATOM     13  C   UNL     1      41.649 132.640  19.645  1.00  0.00     0.262 C 
ATOM     14  O   UNL     1      41.247 133.307  20.635  1.00  0.00    -0.298 OA
ENDBRANCH   7  13
BRANCH   5  15
ATOM     15  C   UNL     1      45.567 131.112  17.001  1.00  0.00    -0.015 A 
ATOM     16  C   UNL     1      46.114 129.881  16.597  1.00  0.00     0.009 A 
ATOM     17  C   UNL     1      45.644 132.211  16.128  1.00  0.00     0.009 A 
ATOM     18  C   UNL     1      46.737 129.757  15.352  1.00  0.00     0.004 A 
ATOM     19  C   UNL     1      46.267 132.086  14.883  1.00  0.00     0.004 A 
ATOM     20  C   UNL     1      46.831 130.863  14.494  1.00  0.00    -0.051 A 
ATOM     21  C   UNL     1      47.464 130.718  13.141  1.00  0.00     0.044 C 
ENDBRANCH   5  15
TORSDOF 3
ENDMDL
MODEL 3
REMARK VINA RESULT:      -8.1      1.773      2.384
REMARK SMILES CC(=O)Nc1cc(F)c(-c2ccc(C)cc2)cc1C=O
REMARK SMILES IDX 5 1 6 2 7 3 8 4 9 5 17 6 18 7 4 8 2 9 1 10 3 11 19 13 20 14
REMARK SMILES IDX 10 15 11 16 16 17 12 18 15 19 13 20 14 21
REMARK H PARENT 4 12
ROOT
ATOM      1  C   UNL     1      43.700 131.895  20.020  1.00  0.00     0.054 A 
ATOM      2  C   UNL     1      43.002 131.815  18.804  1.00  0.00     0.066 A 
ATOM      3  C   UNL     1      43.671 131.539  17.611  1.00  0.00     0.133 A 
ATOM      4  F   UNL     1      42.952 131.437  16.464  1.00  0.00    -0.206 F 
ATOM      5  C   UNL     1      45.063 131.351  17.606  1.00  0.00     0.018 A 
ATOM      6  C   UNL     1      45.766 131.428  18.820  1.00  0.00     0.025 A 
ATOM      7  C   UNL     1      45.102 131.691  20.030  1.00  0.00     0.039 A 
ENDROOT
BRANCH   1   8
ATOM      8  N   UNL     1      42.992 132.268  21.214  1.00  0.00    -0.326 N 
ATOM      9  C   UNL     1      42.730 131.350  22.286  1.00  0.00     0.221 C 
ATOM     10  C   UNL     1      41.876 131.773  23.436  1.00  0.00     0.114 C 
ATOM     11  O   UNL     1      43.266 130.210  22.298  1.00  0.00    -0.275 OA
ATOM     12  H   UNL     1      42.652 133.250  21.308  1.00  0.00     0.169 HD
ENDBRANCH   1   8
BRANCH   7  13
ATOM     13  C   UNL     1      45.910 131.704  21.271  1.00  0.00     0.262 C 
ATOM     14  O   UNL     1      46.650 132.677  21.573  1.00  0.00    -0.298 OA
ENDBRANCH   7  13
BRANCH   5  15
ATOM     15  C   UNL     1      45.790 131.069  16.345  1.00  0.00    -0.015 A 
ATOM     16  C   UNL     1      46.028 132.092  15.412  1.00  0.00     0.009 A 
ATOM     17  C   UNL     1      46.272 129.776  16.076  1.00  0.00     0.009 A 
ATOM     18  C   UNL     1      46.720 131.825  14.228  1.00  0.00     0.004 A 
ATOM     19  C   UNL     1      46.965 129.509  14.892  1.00  0.00     0.004 A 
ATOM     20  C   UNL     1      47.179 130.528  13.953  1.00  0.00    -0.051 A 
ATOM     21  C   UNL     1      47.957 130.251  12.700  1.00  0.00     0.044 C 
ENDBRANCH   5  15
TORSDOF 3
ENDMDL
MODEL 4
REMARK VINA RESULT:      -8.0      1.621      2.490
REMARK SMILES CC(=O)Nc1cc(F)c(-c2ccc(C)cc2)cc1C=O
REMARK SMILES IDX 5 1 6 2 7 3 8 4 9 5 17 6 18 7 4 8 2 9 1 10 3 11 19 13 20 14
REMARK SMILES IDX 10 15 11 16 16 17 12 18 15 19 13 20 14 21
REMARK H PARENT 4 12
ROOT
ATOM      1  C   UNL     1      43.463 131.203  20.578  1.00  0.00     0.054 A 
ATOM      2  C   UNL     1      42.878 131.757  19.428  1.00  0.00     0.066 A 
ATOM      3  C   UNL     1      43.530 131.705  18.196  1.00  0.00     0.133 A 
ATOM      4  F   UNL     1      42.913 132.223  17.104  1.00  0.00    -0.206 F 
ATOM      5  C   UNL     1      44.796 131.107  18.090  1.00  0.00     0.018 A 
ATOM      6  C   UNL     1      45.386 130.549  19.236  1.00  0.00     0.025 A 
ATOM      7  C   UNL     1      44.733 130.582  20.479  1.00  0.00     0.039 A 
ENDROOT
BRANCH   1   8
ATOM      8  N   UNL     1      42.802 131.352  21.845  1.00  0.00    -0.326 N 
ATOM      9  C   UNL     1      43.458 131.868  23.013  1.00  0.00     0.221 C 
ATOM     10  C   UNL     1      42.745 131.872  24.326  1.00  0.00     0.114 C 
ATOM     11  O   UNL     1      44.608 132.377  22.929  1.00  0.00    -0.275 OA
ATOM     12  H   UNL     1      41.798 131.074  21.922  1.00  0.00     0.169 HD
ENDBRANCH   1   8
BRANCH   7  13
ATOM     13  C   UNL     1      45.400 129.926  21.628  1.00  0.00     0.262 C 
ATOM     14  O   UNL     1      44.932 128.890  22.167  1.00  0.00    -0.298 OA
ENDBRANCH   7  13
BRANCH   5  15
ATOM     15  C   UNL     1      45.509 131.054  16.790  1.00  0.00    -0.015 A 
ATOM     16  C   UNL     1      45.711 132.223  16.037  1.00  0.00     0.009 A 
ATOM     17  C   UNL     1      46.012 129.835  16.304  1.00  0.00     0.009 A 
ATOM     18  C   UNL     1      46.389 132.172  14.816  1.00  0.00     0.004 A 
ATOM     19  C   UNL     1      46.690 129.783  15.082  1.00  0.00     0.004 A 
ATOM     20  C   UNL     1      46.869 130.948  14.324  1.00  0.00    -0.051 A 
ATOM     21  C   UNL     1      47.631 130.900  13.032  1.00  0.00     0.044 C 
ENDBRANCH   5  15
TORSDOF 3
ENDMDL
MODEL 5
REMARK VINA RESULT:      -7.8      1.637      2.769
REMARK SMILES CC(=O)Nc1cc(F)c(-c2ccc(C)cc2)cc1C=O
REMARK SMILES IDX 5 1 6 2 7 3 8 4 9 5 17 6 18 7 4 8 2 9 1 10 3 11 19 13 20 14
REMARK SMILES IDX 10 15 11 16 16 17 12 18 15 19 13 20 14 21
REMARK H PARENT 4 12
ROOT
ATOM      1  C   UNL     1      43.489 131.108  20.749  1.00  0.00     0.054 A 
ATOM      2  C   UNL     1      42.930 131.727  19.619  1.00  0.00     0.066 A 
ATOM      3  C   UNL     1      43.584 131.696  18.387  1.00  0.00     0.133 A 
ATOM      4  F   UNL     1      42.991 132.278  17.314  1.00  0.00    -0.206 F 
ATOM      5  C   UNL     1      44.827 131.054  18.262  1.00  0.00     0.018 A 
ATOM      6  C   UNL     1      45.390 130.432  19.388  1.00  0.00     0.025 A 
ATOM      7  C   UNL     1      44.734 130.443  20.630  1.00  0.00     0.039 A 
ENDROOT
BRANCH   1   8
ATOM      8  N   UNL     1      42.830 131.236  22.020  1.00  0.00    -0.326 N 
ATOM      9  C   UNL     1      43.458 131.817  23.172  1.00  0.00     0.221 C 
ATOM     10  C   UNL     1      42.758 131.797  24.491  1.00  0.00     0.114 C 
ATOM     11  O   UNL     1      44.570 132.402  23.067  1.00  0.00    -0.275 OA
ATOM     12  H   UNL     1      41.849 130.891  22.111  1.00  0.00     0.169 HD
ENDBRANCH   1   8
BRANCH   7  13
ATOM     13  C   UNL     1      45.372 129.720  21.754  1.00  0.00     0.262 C 
ATOM     14  O   UNL     1      45.383 128.463  21.816  1.00  0.00    -0.298 OA
ENDBRANCH   7  13
BRANCH   5  15
ATOM     15  C   UNL     1      45.542 131.022  16.963  1.00  0.00    -0.015 A 
ATOM     16  C   UNL     1      46.128 129.832  16.498  1.00  0.00     0.009 A 
ATOM     17  C   UNL     1      45.625 132.179  16.168  1.00  0.00     0.009 A 
ATOM     18  C   UNL     1      46.794 129.803  15.270  1.00  0.00     0.004 A 
ATOM     19  C   UNL     1      46.292 132.149  14.940  1.00  0.00     0.004 A 
ATOM     20  C   UNL     1      46.895 130.966  14.491  1.00  0.00    -0.051 A 
ATOM     21  C   UNL     1      47.576 130.923  13.155  1.00  0.00     0.044 C 
ENDBRANCH   5  15
TORSDOF 3
ENDMDL
MODEL 6
REMARK VINA RESULT:      -7.5      3.327      6.915
REMARK SMILES CC(=O)Nc1cc(F)c(-c2ccc(C)cc2)cc1C=O
REMARK SMILES IDX 5 1 6 2 7 3 8 4 9 5 17 6 18 7 4 8 2 9 1 10 3 11 19 13 20 14
REMARK SMILES IDX 10 15 11 16 16 17 12 18 15 19 13 20 14 21
REMARK H PARENT 4 12
ROOT
ATOM      1  C   UNL     1      45.593 130.490  16.157  1.00  0.00     0.054 A 
ATOM      2  C   UNL     1      46.222 130.028  17.325  1.00  0.00     0.066 A 
ATOM      3  C   UNL     1      45.695 130.316  18.584  1.00  0.00     0.133 A 
ATOM      4  F   UNL     1      46.316 129.820  19.684  1.00  0.00    -0.206 F 
ATOM      5  C   UNL     1      44.530 131.091  18.704  1.00  0.00     0.018 A 
ATOM      6  C   UNL     1      43.896 131.555  17.540  1.00  0.00     0.025 A 
ATOM      7  C   UNL     1      44.408 131.259  16.265  1.00  0.00     0.039 A 
ENDROOT
BRANCH   1   8
ATOM      8  N   UNL     1      46.212 130.248  14.883  1.00  0.00    -0.326 N 
ATOM      9  C   UNL     1      46.883 131.272  14.132  1.00  0.00     0.221 C 
ATOM     10  C   UNL     1      47.387 130.977  12.758  1.00  0.00     0.114 C 
ATOM     11  O   UNL     1      47.108 132.399  14.648  1.00  0.00    -0.275 OA
ATOM     12  H   UNL     1      46.172 129.285  14.482  1.00  0.00     0.169 HD
ENDBRANCH   1   8
BRANCH   7  13
ATOM     13  C   UNL     1      43.651 131.743  15.088  1.00  0.00     0.262 C 
ATOM     14  O   UNL     1      43.617 131.098  14.007  1.00  0.00    -0.298 OA
ENDBRANCH   7  13
BRANCH   5  15
ATOM     15  C   UNL     1      43.964 131.417  20.035  1.00  0.00    -0.015 A 
ATOM     16  C   UNL     1      42.726 132.073  20.145  1.00  0.00     0.009 A 
ATOM     17  C   UNL     1      44.649 131.055  21.208  1.00  0.00     0.009 A 
ATOM     18  C   UNL     1      42.191 132.372  21.401  1.00  0.00     0.004 A 
ATOM     19  C   UNL     1      44.114 131.355  22.464  1.00  0.00     0.004 A 
ATOM     20  C   UNL     1      42.890 132.029  22.568  1.00  0.00    -0.051 A 
ATOM     21  C   UNL     1      42.296 132.316  23.916  1.00  0.00     0.044 C 
ENDBRANCH   5  15
TORSDOF 3
ENDMDL
MODEL 7
REMARK VINA RESULT:      -7.4      1.627      2.916
REMARK SMILES CC(=O)Nc1cc(F)c(-c2ccc(C)cc2)cc1C=O
REMARK SMILES IDX 5 1 6 2 7 3 8 4 9 5 17 6 18 7 4 8 2 9 1 10 3 11 19 13 20 14
REMARK SMILES IDX 10 15 11 16 16 17 12 18 15 19 13 20 14 21
REMARK H PARENT 4 12
ROOT
ATOM      1  C   UNL     1      43.453 131.318  20.180  1.00  0.00     0.054 A 
ATOM      2  C   UNL     1      42.856 131.716  18.973  1.00  0.00     0.066 A 
ATOM      3  C   UNL     1      43.548 131.620  17.765  1.00  0.00     0.133 A 
ATOM      4  F   UNL     1      42.920 131.984  16.618  1.00  0.00    -0.206 F 
ATOM      5  C   UNL     1      44.866 131.136  17.741  1.00  0.00     0.018 A 
ATOM      6  C   UNL     1      45.468 130.734  18.945  1.00  0.00     0.025 A 
ATOM      7  C   UNL     1      44.776 130.812  20.165  1.00  0.00     0.039 A 
ENDROOT
BRANCH   1   8
ATOM      8  N   UNL     1      42.743 131.513  21.414  1.00  0.00    -0.326 N 
ATOM      9  C   UNL     1      41.818 132.591  21.622  1.00  0.00     0.221 C 
ATOM     10  C   UNL     1      41.217 132.806  22.972  1.00  0.00     0.114 C 
ATOM     11  O   UNL     1      41.459 133.321  20.659  1.00  0.00    -0.275 OA
ATOM     12  H   UNL     1      42.905 130.841  22.196  1.00  0.00     0.169 HD
ENDBRANCH   1   8
BRANCH   7  13
ATOM     13  C   UNL     1      45.465 130.321  21.381  1.00  0.00     0.262 C 
ATOM     14  O   UNL     1      44.881 129.601  22.232  1.00  0.00    -0.298 OA
ENDBRANCH   7  13
BRANCH   5  15
ATOM     15  C   UNL     1      45.620 131.038  16.467  1.00  0.00    -0.015 A 
ATOM     16  C   UNL     1      45.986 129.785  15.946  1.00  0.00     0.009 A 
ATOM     17  C   UNL     1      45.961 132.199  15.752  1.00  0.00     0.009 A 
ATOM     18  C   UNL     1      46.690 129.696  14.743  1.00  0.00     0.004 A 
ATOM     19  C   UNL     1      46.666 132.110  14.548  1.00  0.00     0.004 A 
ATOM     20  C   UNL     1      47.048 130.859  14.044  1.00  0.00    -0.051 A 
ATOM     21  C   UNL     1      47.770 130.760  12.732  1.00  0.00     0.044 C 
ENDBRANCH   5  15
TORSDOF 3
ENDMDL
MODEL 8
REMARK VINA RESULT:      -7.4      1.653      2.736
REMARK SMILES CC(=O)Nc1cc(F)c(-c2ccc(C)cc2)cc1C=O
REMARK SMILES IDX 5 1 6 2 7 3 8 4 9 5 17 6 18 7 4 8 2 9 1 10 3 11 19 13 20 14
REMARK SMILES IDX 10 15 11 16 16 17 12 18 15 19 13 20 14 21
REMARK H PARENT 4 12
ROOT
ATOM      1  C   UNL     1      43.411 131.331  20.150  1.00  0.00     0.054 A 
ATOM      2  C   UNL     1      42.826 131.714  18.933  1.00  0.00     0.066 A 
ATOM      3  C   UNL     1      43.532 131.612  17.734  1.00  0.00     0.133 A 
ATOM      4  F   UNL     1      42.916 131.961  16.577  1.00  0.00    -0.206 F 
ATOM      5  C   UNL     1      44.854 131.137  17.730  1.00  0.00     0.018 A 
ATOM      6  C   UNL     1      45.445 130.752  18.945  1.00  0.00     0.025 A 
ATOM      7  C   UNL     1      44.738 130.835  20.156  1.00  0.00     0.039 A 
ENDROOT
BRANCH   1   8
ATOM      8  N   UNL     1      42.685 131.532  21.374  1.00  0.00    -0.326 N 
ATOM      9  C   UNL     1      41.783 132.631  21.577  1.00  0.00     0.221 C 
ATOM     10  C   UNL     1      41.165 132.847  22.919  1.00  0.00     0.114 C 
ATOM     11  O   UNL     1      41.459 133.378  20.616  1.00  0.00    -0.275 OA
ATOM     12  H   UNL     1      42.817 130.848  22.152  1.00  0.00     0.169 HD
ENDBRANCH   1   8
BRANCH   7  13
ATOM     13  C   UNL     1      45.416 130.360  21.385  1.00  0.00     0.262 C 
ATOM     14  O   UNL     1      44.957 129.412  22.074  1.00  0.00    -0.298 OA
ENDBRANCH   7  13
BRANCH   5  15
ATOM     15  C   UNL     1      45.624 131.035  16.467  1.00  0.00    -0.015 A 
ATOM     16  C   UNL     1      45.893 132.180  15.698  1.00  0.00     0.009 A 
ATOM     17  C   UNL     1      46.114 129.791  16.032  1.00  0.00     0.009 A 
ATOM     18  C   UNL     1      46.625 132.081  14.511  1.00  0.00     0.004 A 
ATOM     19  C   UNL     1      46.846 129.693  14.845  1.00  0.00     0.004 A 
ATOM     20  C   UNL     1      47.092 130.834  14.069  1.00  0.00    -0.051 A 
ATOM     21  C   UNL     1      47.912 130.735  12.816  1.00  0.00     0.044 C 
ENDBRANCH   5  15
TORSDOF 3
ENDMDL
MODEL 9
REMARK VINA RESULT:      -7.4      3.335      6.961
REMARK SMILES CC(=O)Nc1cc(F)c(-c2ccc(C)cc2)cc1C=O
REMARK SMILES IDX 5 1 6 2 7 3 8 4 9 5 17 6 18 7 4 8 2 9 1 10 3 11 19 13 20 14
REMARK SMILES IDX 10 15 11 16 16 17 12 18 15 19 13 20 14 21
REMARK H PARENT 4 12
ROOT
ATOM      1  C   UNL     1      45.560 130.490  16.105  1.00  0.00     0.054 A 
ATOM      2  C   UNL     1      46.180 129.995  17.263  1.00  0.00     0.066 A 
ATOM      3  C   UNL     1      45.665 130.277  18.529  1.00  0.00     0.133 A 
ATOM      4  F   UNL     1      46.277 129.750  19.619  1.00  0.00    -0.206 F 
ATOM      5  C   UNL     1      44.520 131.079  18.664  1.00  0.00     0.018 A 
ATOM      6  C   UNL     1      43.894 131.576  17.509  1.00  0.00     0.025 A 
ATOM      7  C   UNL     1      44.395 131.286  16.229  1.00  0.00     0.039 A 
ENDROOT
BRANCH   1   8
ATOM      8  N   UNL     1      46.168 130.252  14.825  1.00  0.00    -0.326 N 
ATOM      9  C   UNL     1      46.875 131.265  14.094  1.00  0.00     0.221 C 
ATOM     10  C   UNL     1      47.367 130.980  12.713  1.00  0.00     0.114 C 
ATOM     11  O   UNL     1      47.139 132.374  14.631  1.00  0.00    -0.275 OA
ATOM     12  H   UNL     1      46.095 129.298  14.406  1.00  0.00     0.169 HD
ENDBRANCH   1   8
BRANCH   7  13
ATOM     13  C   UNL     1      43.646 131.806  15.061  1.00  0.00     0.262 C 
ATOM     14  O   UNL     1      43.526 131.143  13.998  1.00  0.00    -0.298 OA
ENDBRANCH   7  13
BRANCH   5  15
ATOM     15  C   UNL     1      43.966 131.400  20.002  1.00  0.00    -0.015 A 
ATOM     16  C   UNL     1      44.689 131.092  21.168  1.00  0.00     0.009 A 
ATOM     17  C   UNL     1      42.718 132.036  20.122  1.00  0.00     0.009 A 
ATOM     18  C   UNL     1      44.168 131.402  22.427  1.00  0.00     0.004 A 
ATOM     19  C   UNL     1      42.198 132.344  21.382  1.00  0.00     0.004 A 
ATOM     20  C   UNL     1      42.912 132.015  22.542  1.00  0.00    -0.051 A 
ATOM     21  C   UNL     1      42.371 132.383  23.893  1.00  0.00     0.044 C 
ENDBRANCH   5  15
TORSDOF 3
ENDMDL


