REMARK SMILES c1cc(-c2ccc3[nH]ccc3c2)cc([C@@H]2CO2)c1
REMARK SMILES IDX 4 1 5 2 6 3 7 4 8 5 9 6 10 7 11 8 12 9 3 11 1 12 2 13 18 14
REMARK SMILES IDX 14 15 13 16 15 17 16 18 17 19
REMARK H PARENT 8 10
ROOT
ATOM      1  C   UNL     1      -0.267   1.619   1.314  1.00  0.00    -0.018 A 
ATOM      2  C   UNL     1       0.796   2.470   1.721  1.00  0.00     0.011 A 
ATOM      3  C   UNL     1       0.554   3.581   2.549  1.00  0.00     0.027 A 
ATOM      4  C   UNL     1      -0.755   3.819   2.955  1.00  0.00     0.045 A 
ATOM      5  N   UNL     1      -1.200   4.816   3.736  1.00  0.00    -0.361 N 
ATOM      6  C   UNL     1      -2.536   4.631   3.846  1.00  0.00     0.083 A 
ATOM      7  C   UNL     1      -2.940   3.510   3.129  1.00  0.00     0.028 A 
ATOM      8  C   UNL     1      -1.786   3.006   2.569  1.00  0.00    -0.000 A 
ATOM      9  C   UNL     1      -1.585   1.898   1.751  1.00  0.00     0.019 A 
ATOM     10  H   UNL     1      -0.635   5.579   4.171  1.00  0.00     0.166 HD
ENDROOT
BRANCH   1  11
ATOM     11  C   UNL     1       0.000   0.449   0.439  1.00  0.00    -0.018 A 
ATOM     12  C   UNL     1      -0.408  -1.873  -0.166  1.00  0.00     0.001 A 
ATOM     13  C   UNL     1      -0.655  -0.775   0.663  1.00  0.00     0.009 A 
ATOM     14  C   UNL     1       0.497  -1.764  -1.223  1.00  0.00     0.006 A 
ATOM     15  C   UNL     1       1.172  -0.558  -1.452  1.00  0.00    -0.016 A 
ATOM     16  C   UNL     1       0.910   0.550  -0.630  1.00  0.00     0.015 A 
BRANCH  15  17
ATOM     17  C   UNL     1       2.115  -0.434  -2.612  1.00  0.00     0.174 C 
ATOM     18  C   UNL     1       3.337  -1.269  -2.551  1.00  0.00     0.198 C 
ATOM     19  O   UNL     1       3.359   0.099  -2.219  1.00  0.00    -0.368 OA
ENDBRANCH  15  17
ENDBRANCH   1  11
TORSDOF 2


