REMARK SMILES C=C[C@@H](C)/[NH+]=C(\S)Oc1c(N)cccc1[NH2+]c1ccc(C)c(F)c1
REMARK SMILES IDX 6 1 7 2 8 4 9 5 10 6 15 7 12 8 14 9 13 10 11 11 16 14 17 17
REMARK SMILES IDX 18 18 24 19 19 20 22 21 20 22 23 23 21 24 5 25 3 27 4 28
REMARK SMILES IDX 2 29 1 30
REMARK H PARENT 7 3 11 12 11 13 16 15 16 16 5 26
ROOT
ATOM      1  C   UNL     1       1.488   0.686  -1.094  1.00  0.00     0.402 C 
ENDROOT
BRANCH   1   2
ATOM      2  S   UNL     1       1.446   2.271  -1.941  1.00  0.00    -0.031 SA
ATOM      3  H   UNL     1       2.112   1.746  -3.064  1.00  0.00     0.118 HD
ENDBRANCH   1   2
BRANCH   1   4
ATOM      4  O   UNL     1       0.402  -0.176  -1.312  1.00  0.00    -0.392 OA
BRANCH   4   5
ATOM      5  C   UNL     1       0.211  -1.392  -0.646  1.00  0.00     0.218 A 
ATOM      6  C   UNL     1       0.489  -2.596  -1.321  1.00  0.00     0.081 A 
ATOM      7  C   UNL     1      -0.271  -1.420   0.685  1.00  0.00     0.180 A 
ATOM      8  C   UNL     1       0.302  -3.820  -0.665  1.00  0.00     0.030 A 
ATOM      9  C   UNL     1      -0.455  -2.663   1.318  1.00  0.00     0.072 A 
ATOM     10  C   UNL     1      -0.166  -3.852   0.648  1.00  0.00     0.009 A 
BRANCH   6  11
ATOM     11  N   UNL     1       0.972  -2.584  -2.670  1.00  0.00    -0.396 N 
ATOM     12  H   UNL     1       1.128  -1.689  -3.184  1.00  0.00     0.156 HD
ATOM     13  H   UNL     1       1.181  -3.477  -3.169  1.00  0.00     0.156 HD
ENDBRANCH   6  11
BRANCH   7  14
ATOM     14  N   UNL     1      -0.632  -0.204   1.378  1.00  0.00    -0.278 N 
ATOM     15  H   UNL     1       0.066   0.548   1.182  1.00  0.00     0.358 HD
ATOM     16  H   UNL     1      -0.611  -0.355   2.414  1.00  0.00     0.358 HD
BRANCH  14  17
ATOM     17  C   UNL     1      -1.957   0.210   0.987  1.00  0.00     0.137 A 
ATOM     18  C   UNL     1      -2.137   1.249   0.058  1.00  0.00     0.068 A 
ATOM     19  C   UNL     1      -3.088  -0.432   1.520  1.00  0.00     0.107 A 
ATOM     20  C   UNL     1      -3.422   1.634  -0.334  1.00  0.00     0.012 A 
ATOM     21  C   UNL     1      -4.374  -0.048   1.128  1.00  0.00     0.132 A 
ATOM     22  C   UNL     1      -4.549   0.981   0.188  1.00  0.00    -0.015 A 
ATOM     23  F   UNL     1      -5.449  -0.679   1.665  1.00  0.00    -0.206 F 
ATOM     24  C   UNL     1      -5.930   1.411  -0.214  1.00  0.00     0.047 C 
ENDBRANCH  14  17
ENDBRANCH   7  14
ENDBRANCH   4   5
ENDBRANCH   1   4
BRANCH   1  25
ATOM     25  N   UNL     1       2.485   0.346  -0.315  1.00  0.00    -0.198 N 
ATOM     26  H   UNL     1       2.474  -0.592   0.144  1.00  0.00     0.451 HD
BRANCH  25  27
ATOM     27  C   UNL     1       3.631   1.223  -0.026  1.00  0.00     0.282 C 
ATOM     28  C   UNL     1       4.782   0.410   0.577  1.00  0.00     0.092 C 
BRANCH  27  29
ATOM     29  C   UNL     1       3.214   2.313   0.933  1.00  0.00     0.039 C 
ATOM     30  C   UNL     1       3.939   3.425   1.087  1.00  0.00     0.011 C 
ENDBRANCH  27  29
ENDBRANCH  25  27
ENDBRANCH   1  25
TORSDOF 9


