REMARK SMILES Cc1ccc(N[C@@H]2CCC[C@H](N)[C@]2(O)F)cc1
REMARK SMILES IDX 7 1 8 2 9 3 10 4 11 5 13 6 15 7 6 8 5 10 2 11 3 12 17 13
REMARK SMILES IDX 4 14 16 15 1 16 14 17 12 19
REMARK H PARENT 6 9 14 18 12 20 12 21
ROOT
ATOM      1  C   UNL     1       0.153   0.171  -0.893  1.00  0.00     0.145 C 
ATOM      2  C   UNL     1      -1.076  -0.756  -0.838  1.00  0.00     0.031 C 
ATOM      3  C   UNL     1      -2.076  -0.407  -1.944  1.00  0.00     0.004 C 
ATOM      4  C   UNL     1      -1.419  -0.487  -3.326  1.00  0.00     0.025 C 
ATOM      5  C   UNL     1      -0.183   0.430  -3.414  1.00  0.00     0.118 C 
ATOM      6  C   UNL     1       0.832   0.088  -2.289  1.00  0.00     0.242 C 
ATOM      7  F   UNL     1       1.302  -1.201  -2.492  1.00  0.00    -0.208 F 
ENDROOT
BRANCH   1   8
ATOM      8  N   UNL     1       1.104  -0.190   0.169  1.00  0.00    -0.377 N 
ATOM      9  H   UNL     1       1.986  -0.680  -0.105  1.00  0.00     0.161 HD
BRANCH   8  10
ATOM     10  C   UNL     1       0.907   0.078   1.573  1.00  0.00     0.034 A 
ATOM     11  C   UNL     1       0.589   0.558   4.336  1.00  0.00    -0.051 A 
ATOM     12  C   UNL     1      -0.314   1.107   3.414  1.00  0.00     0.005 A 
ATOM     13  C   UNL     1       1.666  -0.208   3.869  1.00  0.00     0.005 A 
ATOM     14  C   UNL     1      -0.161   0.867   2.046  1.00  0.00     0.026 A 
ATOM     15  C   UNL     1       1.820  -0.449   2.501  1.00  0.00     0.026 A 
ATOM     16  C   UNL     1       0.446   0.849   5.800  1.00  0.00     0.044 C 
ENDBRANCH   8  10
ENDBRANCH   1   8
BRANCH   6  17
ATOM     17  O   UNL     1       1.933   0.963  -2.339  1.00  0.00    -0.359 OA
ATOM     18  H   UNL     1       1.594   1.887  -2.206  1.00  0.00     0.214 HD
ENDBRANCH   6  17
BRANCH   5  19
ATOM     19  N   UNL     1       0.448   0.281  -4.728  1.00  0.00    -0.323 NA
ATOM     20  H   UNL     1      -0.252   0.538  -5.462  1.00  0.00     0.119 HD
ATOM     21  H   UNL     1       1.216   0.986  -4.811  1.00  0.00     0.119 HD
ENDBRANCH   5  19
TORSDOF 4


