REMARK SMILES C=Cc1ccc(-c2c[nH+]c3ocnc3c2C)c(Cl)c1F
REMARK SMILES IDX 3 1 4 2 5 3 6 4 17 5 18 6 19 7 20 8 2 9 1 10 7 11 8 12 15 13
REMARK SMILES IDX 9 14 14 15 10 16 13 17 11 18 12 19 16 20
REMARK H PARENT 9 21
ROOT
ATOM      1  C   UNL     1      -3.661  -1.218  -0.060  1.00  0.00     0.011 A 
ATOM      2  C   UNL     1      -2.896  -1.644  -1.164  1.00  0.00     0.012 A 
ATOM      3  C   UNL     1      -1.551  -1.288  -1.274  1.00  0.00     0.011 A 
ATOM      4  C   UNL     1      -0.941  -0.504  -0.287  1.00  0.00     0.010 A 
ATOM      5  C   UNL     1      -1.687  -0.092   0.832  1.00  0.00     0.085 A 
ATOM      6  Cl  UNL     1      -0.943   0.852   2.121  1.00  0.00    -0.080 Cl
ATOM      7  C   UNL     1      -3.038  -0.451   0.943  1.00  0.00     0.149 A 
ATOM      8  F   UNL     1      -3.747  -0.041   2.027  1.00  0.00    -0.205 F 
ENDROOT
BRANCH   1   9
ATOM      9  C   UNL     1      -5.091  -1.586   0.094  1.00  0.00     0.003 C 
ATOM     10  C   UNL     1      -5.881  -1.945  -0.919  1.00  0.00     0.009 C 
ENDBRANCH   1   9
BRANCH   4  11
ATOM     11  C   UNL     1       0.481  -0.137  -0.437  1.00  0.00     0.053 A 
ATOM     12  C   UNL     1       1.477  -1.101  -0.130  1.00  0.00     0.318 A 
ATOM     13  C   UNL     1       0.871   1.155  -0.886  1.00  0.00    -0.001 A 
ATOM     14  N   UNL     1       2.804  -0.793  -0.238  1.00  0.00    -0.177 N 
ATOM     15  C   UNL     1       2.243   1.405  -0.959  1.00  0.00     0.182 A 
ATOM     16  C   UNL     1       3.153   0.451  -0.644  1.00  0.00     0.399 A 
ATOM     17  N   UNL     1       2.880   2.532  -1.324  1.00  0.00    -0.209 NA
ATOM     18  O   UNL     1       4.356   0.929  -0.796  1.00  0.00    -0.391 OA
ATOM     19  C   UNL     1       4.188   2.177  -1.203  1.00  0.00     0.316 A 
ATOM     20  C   UNL     1      -0.132   2.225  -1.226  1.00  0.00     0.048 C 
ATOM     21  H   UNL     1       3.535  -1.501  -0.005  1.00  0.00     0.457 HD
ENDBRANCH   4  11
TORSDOF 2


