MODEL 1
REMARK VINA RESULT:      -7.0      0.000      0.000
REMARK SMILES N#C[C@H]1c2ccccc2C[C@@H]1NC(=O)C1CCCC1
REMARK SMILES IDX 3 1 4 2 5 3 6 4 7 5 8 6 9 7 10 8 11 9 2 10 1 11 12 12 13 13
REMARK SMILES IDX 14 15 15 16 16 17 19 18 17 19 18 20
REMARK H PARENT 12 14
ROOT
ATOM      1  C   UNL     1      45.788 131.242  20.447  1.00  0.00     0.145 C 
ATOM      2  C   UNL     1      44.727 130.810  21.392  1.00  0.00    -0.025 A 
ATOM      3  C   UNL     1      44.896 130.068  22.565  1.00  0.00     0.005 A 
ATOM      4  C   UNL     1      43.765 129.765  23.342  1.00  0.00     0.000 A 
ATOM      5  C   UNL     1      42.491 130.200  22.935  1.00  0.00     0.000 A 
ATOM      6  C   UNL     1      42.343 130.938  21.751  1.00  0.00     0.004 A 
ATOM      7  C   UNL     1      43.480 131.225  20.991  1.00  0.00    -0.041 A 
ATOM      8  C   UNL     1      43.530 132.000  19.730  1.00  0.00     0.062 C 
ATOM      9  C   UNL     1      44.993 131.827  19.247  1.00  0.00     0.108 C 
ENDROOT
BRANCH   1  10
ATOM     10  C   UNL     1      46.633 132.269  21.078  1.00  0.00     0.073 C 
ATOM     11  N   UNL     1      47.299 133.076  21.573  1.00  0.00    -0.198 NA
ENDBRANCH   1  10
BRANCH   9  12
ATOM     12  N   UNL     1      45.063 130.905  18.106  1.00  0.00    -0.351 N 
ATOM     13  C   UNL     1      45.408 131.358  16.786  1.00  0.00     0.223 C 
ATOM     14  H   UNL     1      44.869 129.889  18.248  1.00  0.00     0.163 HD
ATOM     15  O   UNL     1      45.609 132.586  16.571  1.00  0.00    -0.275 OA
BRANCH  13  16
ATOM     16  C   UNL     1      45.524 130.380  15.644  1.00  0.00     0.078 C 
ATOM     17  C   UNL     1      46.908 129.723  15.594  1.00  0.00     0.013 C 
ATOM     18  C   UNL     1      45.297 131.046  14.280  1.00  0.00     0.013 C 
ATOM     19  C   UNL     1      47.304 129.697  14.128  1.00  0.00     0.001 C 
ATOM     20  C   UNL     1      46.591 130.878  13.497  1.00  0.00     0.001 C 
ENDBRANCH  13  16
ENDBRANCH   9  12
TORSDOF 3
ENDMDL
MODEL 2
REMARK VINA RESULT:      -5.8      4.123      6.185
REMARK SMILES N#C[C@H]1c2ccccc2C[C@@H]1NC(=O)C1CCCC1
REMARK SMILES IDX 3 1 4 2 5 3 6 4 7 5 8 6 9 7 10 8 11 9 2 10 1 11 12 12 13 13
REMARK SMILES IDX 14 15 15 16 16 17 19 18 17 19 18 20
REMARK H PARENT 12 14
ROOT
ATOM      1  C   UNL     1      45.147 126.889  22.925  1.00  0.00     0.145 C 
ATOM      2  C   UNL     1      43.962 125.995  22.892  1.00  0.00    -0.025 A 
ATOM      3  C   UNL     1      43.862 124.753  22.258  1.00  0.00     0.005 A 
ATOM      4  C   UNL     1      42.655 124.041  22.350  1.00  0.00     0.000 A 
ATOM      5  C   UNL     1      41.570 124.580  23.067  1.00  0.00     0.000 A 
ATOM      6  C   UNL     1      41.690 125.830  23.692  1.00  0.00     0.004 A 
ATOM      7  C   UNL     1      42.899 126.523  23.583  1.00  0.00    -0.041 A 
ATOM      8  C   UNL     1      43.223 127.838  24.182  1.00  0.00     0.062 C 
ATOM      9  C   UNL     1      44.604 128.193  23.575  1.00  0.00     0.108 C 
ENDROOT
BRANCH   1  10
ATOM     10  C   UNL     1      46.208 126.286  23.747  1.00  0.00     0.073 C 
ATOM     11  N   UNL     1      47.042 125.810  24.394  1.00  0.00    -0.198 NA
ENDBRANCH   1  10
BRANCH   9  12
ATOM     12  N   UNL     1      44.475 129.241  22.555  1.00  0.00    -0.351 N 
ATOM     13  C   UNL     1      44.303 130.624  22.909  1.00  0.00     0.223 C 
ATOM     14  H   UNL     1      44.519 128.990  21.542  1.00  0.00     0.163 HD
ATOM     15  O   UNL     1      44.207 130.959  24.122  1.00  0.00    -0.275 OA
BRANCH  13  16
ATOM     16  C   UNL     1      44.227 131.686  21.841  1.00  0.00     0.078 C 
ATOM     17  C   UNL     1      42.960 131.550  20.990  1.00  0.00     0.013 C 
ATOM     18  C   UNL     1      45.419 131.631  20.876  1.00  0.00     0.013 C 
ATOM     19  C   UNL     1      43.395 131.780  19.553  1.00  0.00     0.001 C 
ATOM     20  C   UNL     1      44.846 131.340  19.497  1.00  0.00     0.001 C 
ENDBRANCH  13  16
ENDBRANCH   9  12
TORSDOF 3
ENDMDL
MODEL 3
REMARK VINA RESULT:      -5.6      2.877      6.663
REMARK SMILES N#C[C@H]1c2ccccc2C[C@@H]1NC(=O)C1CCCC1
REMARK SMILES IDX 3 1 4 2 5 3 6 4 7 5 8 6 9 7 10 8 11 9 2 10 1 11 12 12 13 13
REMARK SMILES IDX 14 15 15 16 16 17 19 18 17 19 18 20
REMARK H PARENT 12 14
ROOT
ATOM      1  C   UNL     1      42.925 131.467  20.347  1.00  0.00     0.145 C 
ATOM      2  C   UNL     1      43.540 131.546  18.997  1.00  0.00    -0.025 A 
ATOM      3  C   UNL     1      42.889 131.414  17.766  1.00  0.00     0.005 A 
ATOM      4  C   UNL     1      43.641 131.533  16.587  1.00  0.00     0.000 A 
ATOM      5  C   UNL     1      45.026 131.775  16.653  1.00  0.00     0.000 A 
ATOM      6  C   UNL     1      45.660 131.899  17.898  1.00  0.00     0.004 A 
ATOM      7  C   UNL     1      44.893 131.772  19.060  1.00  0.00    -0.041 A 
ATOM      8  C   UNL     1      45.374 131.887  20.456  1.00  0.00     0.062 C 
ATOM      9  C   UNL     1      44.148 131.466  21.306  1.00  0.00     0.108 C 
ENDROOT
BRANCH   1  10
ATOM     10  C   UNL     1      42.068 132.641  20.577  1.00  0.00     0.073 C 
ATOM     11  N   UNL     1      41.396 133.566  20.759  1.00  0.00    -0.198 NA
ENDBRANCH   1  10
BRANCH   9  12
ATOM     12  N   UNL     1      44.337 130.125  21.871  1.00  0.00    -0.351 N 
ATOM     13  C   UNL     1      44.311 129.890  23.289  1.00  0.00     0.223 C 
ATOM     14  H   UNL     1      44.484 129.309  21.236  1.00  0.00     0.163 HD
ATOM     15  O   UNL     1      44.175 130.858  24.088  1.00  0.00    -0.275 OA
BRANCH  13  16
ATOM     16  C   UNL     1      44.454 128.493  23.840  1.00  0.00     0.078 C 
ATOM     17  C   UNL     1      44.961 127.511  22.778  1.00  0.00     0.013 C 
ATOM     18  C   UNL     1      43.125 127.933  24.366  1.00  0.00     0.013 C 
ATOM     19  C   UNL     1      44.139 126.246  22.953  1.00  0.00     0.001 C 
ATOM     20  C   UNL     1      42.811 126.705  23.525  1.00  0.00     0.001 C 
ENDBRANCH  13  16
ENDBRANCH   9  12
TORSDOF 3
ENDMDL
MODEL 4
REMARK VINA RESULT:      -5.3      0.966      1.052
REMARK SMILES N#C[C@H]1c2ccccc2C[C@@H]1NC(=O)C1CCCC1
REMARK SMILES IDX 3 1 4 2 5 3 6 4 7 5 8 6 9 7 10 8 11 9 2 10 1 11 12 12 13 13
REMARK SMILES IDX 14 15 15 16 16 17 19 18 17 19 18 20
REMARK H PARENT 12 14
ROOT
ATOM      1  C   UNL     1      45.513 131.404  20.443  1.00  0.00     0.145 C 
ATOM      2  C   UNL     1      44.649 130.698  21.425  1.00  0.00    -0.025 A 
ATOM      3  C   UNL     1      45.037 129.694  22.317  1.00  0.00     0.005 A 
ATOM      4  C   UNL     1      44.074 129.152  23.185  1.00  0.00     0.000 A 
ATOM      5  C   UNL     1      42.747 129.615  23.145  1.00  0.00     0.000 A 
ATOM      6  C   UNL     1      42.378 130.620  22.238  1.00  0.00     0.004 A 
ATOM      7  C   UNL     1      43.350 131.142  21.381  1.00  0.00    -0.041 A 
ATOM      8  C   UNL     1      43.161 132.211  20.373  1.00  0.00     0.062 C 
ATOM      9  C   UNL     1      44.505 132.234  19.600  1.00  0.00     0.108 C 
ENDROOT
BRANCH   1  10
ATOM     10  C   UNL     1      46.464 132.277  21.149  1.00  0.00     0.073 C 
ATOM     11  N   UNL     1      47.210 132.965  21.704  1.00  0.00    -0.198 NA
ENDBRANCH   1  10
BRANCH   9  12
ATOM     12  N   UNL     1      44.354 131.633  18.269  1.00  0.00    -0.351 N 
ATOM     13  C   UNL     1      45.336 130.732  17.730  1.00  0.00     0.223 C 
ATOM     14  H   UNL     1      43.510 131.849  17.694  1.00  0.00     0.163 HD
ATOM     15  O   UNL     1      46.387 130.479  18.381  1.00  0.00    -0.275 OA
BRANCH  13  16
ATOM     16  C   UNL     1      45.130 130.088  16.382  1.00  0.00     0.078 C 
ATOM     17  C   UNL     1      46.460 129.804  15.675  1.00  0.00     0.013 C 
ATOM     18  C   UNL     1      44.301 130.968  15.435  1.00  0.00     0.013 C 
ATOM     19  C   UNL     1      46.254 130.199  14.223  1.00  0.00     0.001 C 
ATOM     20  C   UNL     1      45.198 131.288  14.249  1.00  0.00     0.001 C 
ENDBRANCH  13  16
ENDBRANCH   9  12
TORSDOF 3
ENDMDL
MODEL 5
REMARK VINA RESULT:      -5.2      2.889      6.580
REMARK SMILES N#C[C@H]1c2ccccc2C[C@@H]1NC(=O)C1CCCC1
REMARK SMILES IDX 3 1 4 2 5 3 6 4 7 5 8 6 9 7 10 8 11 9 2 10 1 11 12 12 13 13
REMARK SMILES IDX 14 15 15 16 16 17 19 18 17 19 18 20
REMARK H PARENT 12 14
ROOT
ATOM      1  C   UNL     1      43.051 131.370  20.109  1.00  0.00     0.145 C 
ATOM      2  C   UNL     1      43.644 131.498  18.753  1.00  0.00    -0.025 A 
ATOM      3  C   UNL     1      42.967 131.453  17.530  1.00  0.00     0.005 A 
ATOM      4  C   UNL     1      43.702 131.608  16.344  1.00  0.00     0.000 A 
ATOM      5  C   UNL     1      45.095 131.800  16.396  1.00  0.00     0.000 A 
ATOM      6  C   UNL     1      45.756 131.838  17.633  1.00  0.00     0.004 A 
ATOM      7  C   UNL     1      45.005 131.676  18.801  1.00  0.00    -0.041 A 
ATOM      8  C   UNL     1      45.515 131.702  20.191  1.00  0.00     0.062 C 
ATOM      9  C   UNL     1      44.290 131.279  21.043  1.00  0.00     0.108 C 
ENDROOT
BRANCH   1  10
ATOM     10  C   UNL     1      42.239 132.558  20.415  1.00  0.00     0.073 C 
ATOM     11  N   UNL     1      41.602 133.494  20.658  1.00  0.00    -0.198 NA
ENDBRANCH   1  10
BRANCH   9  12
ATOM     12  N   UNL     1      44.443 129.904  21.534  1.00  0.00    -0.351 N 
ATOM     13  C   UNL     1      44.024 129.521  22.855  1.00  0.00     0.223 C 
ATOM     14  H   UNL     1      44.856 129.173  20.913  1.00  0.00     0.163 HD
ATOM     15  O   UNL     1      43.558 130.387  23.646  1.00  0.00    -0.275 OA
BRANCH  13  16
ATOM     16  C   UNL     1      44.144 128.089  23.315  1.00  0.00     0.078 C 
ATOM     17  C   UNL     1      44.933 127.975  24.624  1.00  0.00     0.013 C 
ATOM     18  C   UNL     1      44.860 127.204  22.285  1.00  0.00     0.013 C 
ATOM     19  C   UNL     1      45.853 126.778  24.454  1.00  0.00     0.001 C 
ATOM     20  C   UNL     1      46.118 126.683  22.963  1.00  0.00     0.001 C 
ENDBRANCH  13  16
ENDBRANCH   9  12
TORSDOF 3
ENDMDL
MODEL 6
REMARK VINA RESULT:      -4.9      1.860      2.628
REMARK SMILES N#C[C@H]1c2ccccc2C[C@@H]1NC(=O)C1CCCC1
REMARK SMILES IDX 3 1 4 2 5 3 6 4 7 5 8 6 9 7 10 8 11 9 2 10 1 11 12 12 13 13
REMARK SMILES IDX 14 15 15 16 16 17 19 18 17 19 18 20
REMARK H PARENT 12 14
ROOT
ATOM      1  C   UNL     1      44.626 129.934  21.005  1.00  0.00     0.145 C 
ATOM      2  C   UNL     1      43.942 130.512  22.190  1.00  0.00    -0.025 A 
ATOM      3  C   UNL     1      42.835 129.984  22.863  1.00  0.00     0.005 A 
ATOM      4  C   UNL     1      42.333 130.671  23.980  1.00  0.00     0.000 A 
ATOM      5  C   UNL     1      42.936 131.869  24.403  1.00  0.00     0.000 A 
ATOM      6  C   UNL     1      44.043 132.383  23.711  1.00  0.00     0.004 A 
ATOM      7  C   UNL     1      44.523 131.687  22.599  1.00  0.00    -0.041 A 
ATOM      8  C   UNL     1      45.682 132.058  21.754  1.00  0.00     0.062 C 
ATOM      9  C   UNL     1      45.622 131.048  20.579  1.00  0.00     0.108 C 
ENDROOT
BRANCH   1  10
ATOM     10  C   UNL     1      45.335 128.702  21.386  1.00  0.00     0.073 C 
ATOM     11  N   UNL     1      45.891 127.732  21.686  1.00  0.00    -0.198 NA
ENDBRANCH   1  10
BRANCH   9  12
ATOM     12  N   UNL     1      45.147 131.700  19.352  1.00  0.00    -0.351 N 
ATOM     13  C   UNL     1      45.435 131.163  18.050  1.00  0.00     0.223 C 
ATOM     14  H   UNL     1      44.573 132.570  19.415  1.00  0.00     0.163 HD
ATOM     15  O   UNL     1      46.158 130.135  17.935  1.00  0.00    -0.275 OA
BRANCH  13  16
ATOM     16  C   UNL     1      44.888 131.824  16.809  1.00  0.00     0.078 C 
ATOM     17  C   UNL     1      43.891 130.922  16.074  1.00  0.00     0.013 C 
ATOM     18  C   UNL     1      45.991 132.180  15.803  1.00  0.00     0.013 C 
ATOM     19  C   UNL     1      44.215 131.057  14.596  1.00  0.00     0.001 C 
ATOM     20  C   UNL     1      45.694 131.388  14.538  1.00  0.00     0.001 C 
ENDBRANCH  13  16
ENDBRANCH   9  12
TORSDOF 3
ENDMDL
MODEL 7
REMARK VINA RESULT:      -4.7      3.685      6.826
REMARK SMILES N#C[C@H]1c2ccccc2C[C@@H]1NC(=O)C1CCCC1
REMARK SMILES IDX 3 1 4 2 5 3 6 4 7 5 8 6 9 7 10 8 11 9 2 10 1 11 12 12 13 13
REMARK SMILES IDX 14 15 15 16 16 17 19 18 17 19 18 20
REMARK H PARENT 12 14
ROOT
ATOM      1  C   UNL     1      43.549 130.498  22.148  1.00  0.00     0.145 C 
ATOM      2  C   UNL     1      43.416 131.038  20.771  1.00  0.00    -0.025 A 
ATOM      3  C   UNL     1      42.253 131.527  20.167  1.00  0.00     0.005 A 
ATOM      4  C   UNL     1      42.328 132.013  18.851  1.00  0.00     0.000 A 
ATOM      5  C   UNL     1      43.553 132.000  18.161  1.00  0.00     0.000 A 
ATOM      6  C   UNL     1      44.707 131.500  18.784  1.00  0.00     0.004 A 
ATOM      7  C   UNL     1      44.610 131.017  20.091  1.00  0.00    -0.041 A 
ATOM      8  C   UNL     1      45.710 130.469  20.917  1.00  0.00     0.062 C 
ATOM      9  C   UNL     1      44.991 129.919  22.176  1.00  0.00     0.108 C 
ENDROOT
BRANCH   1  10
ATOM     10  C   UNL     1      43.391 131.582  23.130  1.00  0.00     0.073 C 
ATOM     11  N   UNL     1      43.265 132.437  23.901  1.00  0.00    -0.198 NA
ENDBRANCH   1  10
BRANCH   9  12
ATOM     12  N   UNL     1      44.940 128.452  22.151  1.00  0.00    -0.351 N 
ATOM     13  C   UNL     1      44.891 127.676  23.360  1.00  0.00     0.223 C 
ATOM     14  H   UNL     1      44.926 127.948  21.237  1.00  0.00     0.163 HD
ATOM     15  O   UNL     1      44.946 128.250  24.483  1.00  0.00    -0.275 OA
BRANCH  13  16
ATOM     16  C   UNL     1      44.785 126.172  23.304  1.00  0.00     0.078 C 
ATOM     17  C   UNL     1      43.834 125.709  22.195  1.00  0.00     0.013 C 
ATOM     18  C   UNL     1      44.263 125.574  24.618  1.00  0.00     0.013 C 
ATOM     19  C   UNL     1      43.010 124.583  22.796  1.00  0.00     0.001 C 
ATOM     20  C   UNL     1      42.953 124.876  24.283  1.00  0.00     0.001 C 
ENDBRANCH  13  16
ENDBRANCH   9  12
TORSDOF 3
ENDMDL
MODEL 8
REMARK VINA RESULT:      -4.6      3.780      6.813
REMARK SMILES N#C[C@H]1c2ccccc2C[C@@H]1NC(=O)C1CCCC1
REMARK SMILES IDX 3 1 4 2 5 3 6 4 7 5 8 6 9 7 10 8 11 9 2 10 1 11 12 12 13 13
REMARK SMILES IDX 14 15 15 16 16 17 19 18 17 19 18 20
REMARK H PARENT 12 14
ROOT
ATOM      1  C   UNL     1      43.638 130.542  22.200  1.00  0.00     0.145 C 
ATOM      2  C   UNL     1      43.468 131.120  20.842  1.00  0.00    -0.025 A 
ATOM      3  C   UNL     1      42.313 131.710  20.318  1.00  0.00     0.005 A 
ATOM      4  C   UNL     1      42.348 132.216  19.009  1.00  0.00     0.000 A 
ATOM      5  C   UNL     1      43.526 132.123  18.246  1.00  0.00     0.000 A 
ATOM      6  C   UNL     1      44.672 131.523  18.789  1.00  0.00     0.004 A 
ATOM      7  C   UNL     1      44.614 131.021  20.092  1.00  0.00    -0.041 A 
ATOM      8  C   UNL     1      45.715 130.373  20.842  1.00  0.00     0.062 C 
ATOM      9  C   UNL     1      45.030 129.854  22.132  1.00  0.00     0.108 C 
ENDROOT
BRANCH   1  10
ATOM     10  C   UNL     1      43.623 131.614  23.207  1.00  0.00     0.073 C 
ATOM     11  N   UNL     1      43.609 132.459  24.000  1.00  0.00    -0.198 NA
ENDBRANCH   1  10
BRANCH   9  12
ATOM     12  N   UNL     1      44.863 128.396  22.086  1.00  0.00    -0.351 N 
ATOM     13  C   UNL     1      44.882 127.594  23.279  1.00  0.00     0.223 C 
ATOM     14  H   UNL     1      44.714 127.918  21.169  1.00  0.00     0.163 HD
ATOM     15  O   UNL     1      45.099 128.132  24.400  1.00  0.00    -0.275 OA
BRANCH  13  16
ATOM     16  C   UNL     1      44.655 126.104  23.207  1.00  0.00     0.078 C 
ATOM     17  C   UNL     1      44.432 125.494  24.595  1.00  0.00     0.013 C 
ATOM     18  C   UNL     1      45.843 125.362  22.579  1.00  0.00     0.013 C 
ATOM     19  C   UNL     1      45.226 124.199  24.614  1.00  0.00     0.001 C 
ATOM     20  C   UNL     1      46.375 124.418  23.647  1.00  0.00     0.001 C 
ENDBRANCH  13  16
ENDBRANCH   9  12
TORSDOF 3
ENDMDL
MODEL 9
REMARK VINA RESULT:      -4.5      3.240      5.120
REMARK SMILES N#C[C@H]1c2ccccc2C[C@@H]1NC(=O)C1CCCC1
REMARK SMILES IDX 3 1 4 2 5 3 6 4 7 5 8 6 9 7 10 8 11 9 2 10 1 11 12 12 13 13
REMARK SMILES IDX 14 15 15 16 16 17 19 18 17 19 18 20
REMARK H PARENT 12 14
ROOT
ATOM      1  C   UNL     1      44.456 127.769  22.713  1.00  0.00     0.145 C 
ATOM      2  C   UNL     1      43.166 127.291  23.272  1.00  0.00    -0.025 A 
ATOM      3  C   UNL     1      42.604 126.019  23.123  1.00  0.00     0.005 A 
ATOM      4  C   UNL     1      41.373 125.747  23.742  1.00  0.00     0.000 A 
ATOM      5  C   UNL     1      40.723 126.744  24.492  1.00  0.00     0.000 A 
ATOM      6  C   UNL     1      41.302 128.016  24.625  1.00  0.00     0.004 A 
ATOM      7  C   UNL     1      42.525 128.266  23.997  1.00  0.00    -0.041 A 
ATOM      8  C   UNL     1      43.297 129.530  24.034  1.00  0.00     0.062 C 
ATOM      9  C   UNL     1      44.444 129.293  23.017  1.00  0.00     0.108 C 
ENDROOT
BRANCH   1  10
ATOM     10  C   UNL     1      45.576 127.099  23.392  1.00  0.00     0.073 C 
ATOM     11  N   UNL     1      46.456 126.571  23.928  1.00  0.00    -0.198 NA
ENDBRANCH   1  10
BRANCH   9  12
ATOM     12  N   UNL     1      44.211 130.047  21.779  1.00  0.00    -0.351 N 
ATOM     13  C   UNL     1      44.410 131.468  21.709  1.00  0.00     0.223 C 
ATOM     14  H   UNL     1      43.903 129.545  20.916  1.00  0.00     0.163 HD
ATOM     15  O   UNL     1      44.744 132.112  22.742  1.00  0.00    -0.275 OA
BRANCH  13  16
ATOM     16  C   UNL     1      44.215 132.209  20.409  1.00  0.00     0.078 C 
ATOM     17  C   UNL     1      42.895 131.828  19.729  1.00  0.00     0.013 C 
ATOM     18  C   UNL     1      45.334 131.921  19.400  1.00  0.00     0.013 C 
ATOM     19  C   UNL     1      43.214 131.678  18.252  1.00  0.00     0.001 C 
ATOM     20  C   UNL     1      44.674 131.266  18.196  1.00  0.00     0.001 C 
ENDBRANCH  13  16
ENDBRANCH   9  12
TORSDOF 3
ENDMDL


