REMARK SMILES Cc1ccc(-c2ccc(/N=C(\O)c3cccc(C)c3)c(C(=O)O[C@H](C)[C@H](C)[N+](=O)[O-])c2)cc1
REMARK SMILES IDX 21 1 22 2 20 3 9 4 8 5 7 6 31 7 6 8 10 9 11 10 12 11 13 13
REMARK SMILES IDX 14 14 19 15 15 16 17 17 16 18 18 19 5 20 4 21 32 22 3 23
REMARK SMILES IDX 33 24 2 25 1 26 23 27 24 28 25 29 26 30 27 31 28 32 29 33
REMARK SMILES IDX 30 34
REMARK H PARENT 12 12
ROOT
ATOM      1  C   UNL     1       0.766  -0.437   0.286  1.00  0.00     0.340 C 
ATOM      2  O   UNL     1       1.626  -0.201   1.179  1.00  0.00    -0.246 OA
ENDROOT
BRANCH   1   3
ATOM      3  C   UNL     1      -0.673  -0.515   0.630  1.00  0.00     0.086 A 
ATOM      4  C   UNL     1      -1.213   0.112   1.780  1.00  0.00     0.082 A 
ATOM      5  C   UNL     1      -2.561  -0.075   2.104  1.00  0.00     0.030 A 
ATOM      6  C   UNL     1      -3.392  -0.832   1.278  1.00  0.00     0.011 A 
ATOM      7  C   UNL     1      -1.525  -1.264  -0.201  1.00  0.00     0.026 A 
ATOM      8  C   UNL     1      -2.886  -1.427   0.112  1.00  0.00    -0.017 A 
BRANCH   4   9
ATOM      9  N   UNL     1      -0.416   0.938   2.640  1.00  0.00    -0.213 NA
BRANCH   9  10
ATOM     10  C   UNL     1       0.087   2.095   2.312  1.00  0.00     0.218 C 
BRANCH  10  11
ATOM     11  O   UNL     1      -0.170   2.669   1.062  1.00  0.00    -0.493 OA
ATOM     12  H   UNL     1      -0.783   2.249   0.376  1.00  0.00     0.295 HD
ENDBRANCH  10  11
BRANCH  10  13
ATOM     13  C   UNL     1       0.941   2.826   3.279  1.00  0.00     0.037 A 
ATOM     14  C   UNL     1       1.474   4.083   2.940  1.00  0.00     0.014 A 
ATOM     15  C   UNL     1       1.237   2.281   4.545  1.00  0.00     0.017 A 
ATOM     16  C   UNL     1       2.276   4.781   3.846  1.00  0.00     0.001 A 
ATOM     17  C   UNL     1       2.059   2.974   5.448  1.00  0.00    -0.050 A 
ATOM     18  C   UNL     1       2.564   4.234   5.097  1.00  0.00     0.003 A 
ATOM     19  C   UNL     1       2.337   2.401   6.807  1.00  0.00     0.044 C 
ENDBRANCH  10  13
ENDBRANCH   9  10
ENDBRANCH   4   9
BRANCH   8  20
ATOM     20  C   UNL     1      -3.771  -2.227  -0.773  1.00  0.00    -0.018 A 
ATOM     21  C   UNL     1      -3.667  -2.121  -2.172  1.00  0.00     0.009 A 
ATOM     22  C   UNL     1      -4.730  -3.100  -0.227  1.00  0.00     0.009 A 
ATOM     23  C   UNL     1      -4.499  -2.874  -3.005  1.00  0.00     0.004 A 
ATOM     24  C   UNL     1      -5.562  -3.852  -1.062  1.00  0.00     0.004 A 
ATOM     25  C   UNL     1      -5.441  -3.756  -2.455  1.00  0.00    -0.051 A 
ATOM     26  C   UNL     1      -6.360  -4.533  -3.350  1.00  0.00     0.044 C 
ENDBRANCH   8  20
ENDBRANCH   1   3
BRANCH   1  27
ATOM     27  O   UNL     1       1.169  -0.654  -1.038  1.00  0.00    -0.452 OA
BRANCH  27  28
ATOM     28  C   UNL     1       2.532  -0.731  -1.459  1.00  0.00     0.247 C 
ATOM     29  C   UNL     1       2.642  -0.157  -2.874  1.00  0.00     0.061 C 
BRANCH  28  30
ATOM     30  C   UNL     1       3.057  -2.188  -1.383  1.00  0.00     0.364 C 
ATOM     31  C   UNL     1       2.181  -3.183  -2.163  1.00  0.00     0.098 C 
BRANCH  30  32
ATOM     32  N   UNL     1       3.186  -2.610   0.014  1.00  0.00     0.026 N 
ATOM     33  O   UNL     1       4.206  -2.298   0.661  1.00  0.00    -0.264 OA
ATOM     34  O   UNL     1       2.129  -3.197   0.673  1.00  0.00    -0.264 OA
ENDBRANCH  30  32
ENDBRANCH  28  30
ENDBRANCH  27  28
ENDBRANCH   1  27
TORSDOF 10


