MODEL 1
REMARK VINA RESULT:      -3.1      0.000      0.000
REMARK SMILES C[N-]S(=O)(=O)c1ccc(/N=C(\O)N(N)c2ccccc2-c2nc3ccccc3[n-]2)cc1
REMARK SMILES IDX 10 1 11 2 12 3 13 5 15 6 16 7 20 8 17 9 19 10 18 11 21 12
REMARK SMILES IDX 22 13 29 14 23 15 28 16 24 17 27 18 25 19 26 20 14 21 9 24
REMARK SMILES IDX 8 25 30 26 7 27 31 28 6 29 3 30 4 31 5 32 2 33 1 34
REMARK H PARENT 12 4 14 22 14 23
ROOT
ATOM      1  N   UNL     1      44.571 131.017  20.729  1.00  0.00    -0.196 NA
ENDROOT
BRANCH   1   2
ATOM      2  C   UNL     1      45.079 130.386  21.751  1.00  0.00     0.309 C 
BRANCH   2   3
ATOM      3  O   UNL     1      46.066 129.408  21.590  1.00  0.00    -0.479 OA
ATOM      4  H   UNL     1      46.457 129.162  20.689  1.00  0.00     0.297 HD
ENDBRANCH   2   3
BRANCH   2   5
ATOM      5  N   UNL     1      44.633 130.709  23.083  1.00  0.00    -0.231 N 
BRANCH   5   6
ATOM      6  C   UNL     1      43.443 130.124  23.646  1.00  0.00     0.069 A 
ATOM      7  C   UNL     1      42.359 130.962  23.949  1.00  0.00     0.028 A 
ATOM      8  C   UNL     1      43.328 128.726  23.870  1.00  0.00    -0.001 A 
ATOM      9  C   UNL     1      41.162 130.431  24.429  1.00  0.00     0.002 A 
ATOM     10  C   UNL     1      42.107 128.206  24.335  1.00  0.00     0.010 A 
ATOM     11  C   UNL     1      41.033 129.053  24.614  1.00  0.00     0.001 A 
BRANCH   8  12
ATOM     12  C   UNL     1      44.457 127.796  23.647  1.00  0.00    -0.049 A 
ATOM     13  N   UNL     1      45.433 127.578  24.570  1.00  0.00    -0.435 NA
ATOM     14  N   UNL     1      44.621 127.109  22.485  1.00  0.00    -0.435 NA
ATOM     15  C   UNL     1      46.246 126.720  23.938  1.00  0.00    -0.038 A 
ATOM     16  C   UNL     1      45.764 126.442  22.697  1.00  0.00    -0.038 A 
ATOM     17  C   UNL     1      47.440 126.174  24.406  1.00  0.00     0.004 A 
ATOM     18  C   UNL     1      46.432 125.593  21.818  1.00  0.00     0.004 A 
ATOM     19  C   UNL     1      48.143 125.310  23.547  1.00  0.00     0.000 A 
ATOM     20  C   UNL     1      47.642 125.020  22.256  1.00  0.00     0.000 A 
ENDBRANCH   8  12
ENDBRANCH   5   6
BRANCH   5  21
ATOM     21  N   UNL     1      45.324 131.670  23.841  1.00  0.00    -0.239 NA
ATOM     22  H   UNL     1      45.161 131.460  24.852  1.00  0.00     0.144 HD
ATOM     23  H   UNL     1      44.902 132.605  23.634  1.00  0.00     0.144 HD
ENDBRANCH   5  21
ENDBRANCH   2   5
ENDBRANCH   1   2
BRANCH   1  24
ATOM     24  C   UNL     1      45.000 130.919  19.366  1.00  0.00     0.069 A 
ATOM     25  C   UNL     1      44.270 131.583  18.372  1.00  0.00     0.030 A 
ATOM     26  C   UNL     1      46.049 130.061  18.993  1.00  0.00     0.030 A 
ATOM     27  C   UNL     1      44.619 131.438  17.025  1.00  0.00     0.021 A 
ATOM     28  C   UNL     1      46.395 129.913  17.648  1.00  0.00     0.021 A 
ATOM     29  C   UNL     1      45.682 130.603  16.657  1.00  0.00     0.048 A 
BRANCH  29  30
ATOM     30  S   UNL     1      46.118 130.437  14.959  1.00  0.00     0.101 S 
ATOM     31  O   UNL     1      46.868 129.152  14.738  1.00  0.00    -0.244 OA
ATOM     32  O   UNL     1      44.864 130.405  14.132  1.00  0.00    -0.244 OA
BRANCH  30  33
ATOM     33  N   UNL     1      47.098 131.780  14.455  1.00  0.00    -0.547 NA
ATOM     34  C   UNL     1      47.823 131.433  13.238  1.00  0.00    -0.153 C 
ENDBRANCH  30  33
ENDBRANCH  29  30
ENDBRANCH   1  24
TORSDOF 9
ENDMDL
MODEL 2
REMARK VINA RESULT:      -2.8      1.788      2.264
REMARK SMILES C[N-]S(=O)(=O)c1ccc(/N=C(\O)N(N)c2ccccc2-c2nc3ccccc3[n-]2)cc1
REMARK SMILES IDX 10 1 11 2 12 3 13 5 15 6 16 7 20 8 17 9 19 10 18 11 21 12
REMARK SMILES IDX 22 13 29 14 23 15 28 16 24 17 27 18 25 19 26 20 14 21 9 24
REMARK SMILES IDX 8 25 30 26 7 27 31 28 6 29 3 30 4 31 5 32 2 33 1 34
REMARK H PARENT 12 4 14 22 14 23
ROOT
ATOM      1  N   UNL     1      43.662 130.956  18.795  1.00  0.00    -0.196 NA
ENDROOT
BRANCH   1   2
ATOM      2  C   UNL     1      43.847 131.584  19.922  1.00  0.00     0.309 C 
BRANCH   2   3
ATOM      3  O   UNL     1      43.664 132.966  20.028  1.00  0.00    -0.479 OA
ATOM      4  H   UNL     1      43.437 133.428  20.900  1.00  0.00     0.297 HD
ENDBRANCH   2   3
BRANCH   2   5
ATOM      5  N   UNL     1      44.231 130.842  21.098  1.00  0.00    -0.231 N 
BRANCH   5   6
ATOM      6  C   UNL     1      43.454 130.890  22.310  1.00  0.00     0.069 A 
ATOM      7  C   UNL     1      42.822 132.094  22.656  1.00  0.00     0.028 A 
ATOM      8  C   UNL     1      43.286 129.750  23.140  1.00  0.00    -0.001 A 
ATOM      9  C   UNL     1      42.002 132.169  23.783  1.00  0.00     0.002 A 
ATOM     10  C   UNL     1      42.441 129.838  24.261  1.00  0.00     0.010 A 
ATOM     11  C   UNL     1      41.805 131.039  24.579  1.00  0.00     0.001 A 
BRANCH   8  12
ATOM     12  C   UNL     1      43.986 128.473  22.877  1.00  0.00    -0.049 A 
ATOM     13  N   UNL     1      43.335 127.291  22.704  1.00  0.00    -0.435 NA
ATOM     14  N   UNL     1      45.342 128.381  22.818  1.00  0.00    -0.435 NA
ATOM     15  C   UNL     1      44.343 126.423  22.541  1.00  0.00    -0.038 A 
ATOM     16  C   UNL     1      45.537 127.071  22.609  1.00  0.00    -0.038 A 
ATOM     17  C   UNL     1      44.260 125.045  22.353  1.00  0.00     0.004 A 
ATOM     18  C   UNL     1      46.751 126.397  22.495  1.00  0.00     0.004 A 
ATOM     19  C   UNL     1      45.466 124.330  22.232  1.00  0.00     0.000 A 
ATOM     20  C   UNL     1      46.708 125.003  22.303  1.00  0.00     0.000 A 
ENDBRANCH   8  12
ENDBRANCH   5   6
BRANCH   5  21
ATOM     21  N   UNL     1      45.426 130.104  21.101  1.00  0.00    -0.239 NA
ATOM     22  H   UNL     1      46.213 130.766  20.912  1.00  0.00     0.144 HD
ATOM     23  H   UNL     1      45.383 129.421  20.310  1.00  0.00     0.144 HD
ENDBRANCH   5  21
ENDBRANCH   2   5
ENDBRANCH   1   2
BRANCH   1  24
ATOM     24  C   UNL     1      44.532 130.973  17.656  1.00  0.00     0.069 A 
ATOM     25  C   UNL     1      44.132 131.659  16.503  1.00  0.00     0.030 A 
ATOM     26  C   UNL     1      45.706 130.202  17.627  1.00  0.00     0.030 A 
ATOM     27  C   UNL     1      44.924 131.624  15.350  1.00  0.00     0.021 A 
ATOM     28  C   UNL     1      46.496 130.164  16.475  1.00  0.00     0.021 A 
ATOM     29  C   UNL     1      46.109 130.877  15.331  1.00  0.00     0.048 A 
BRANCH  29  30
ATOM     30  S   UNL     1      47.104 130.849  13.878  1.00  0.00     0.101 S 
ATOM     31  O   UNL     1      46.235 130.739  12.655  1.00  0.00    -0.244 OA
ATOM     32  O   UNL     1      47.883 132.131  13.795  1.00  0.00    -0.244 OA
BRANCH  30  33
ATOM     33  N   UNL     1      48.211 129.512  13.931  1.00  0.00    -0.547 NA
ATOM     34  C   UNL     1      48.813 129.318  12.618  1.00  0.00    -0.153 C 
ENDBRANCH  30  33
ENDBRANCH  29  30
ENDBRANCH   1  24
TORSDOF 9
ENDMDL
MODEL 3
REMARK VINA RESULT:      -1.3      5.800      8.119
REMARK SMILES C[N-]S(=O)(=O)c1ccc(/N=C(\O)N(N)c2ccccc2-c2nc3ccccc3[n-]2)cc1
REMARK SMILES IDX 10 1 11 2 12 3 13 5 15 6 16 7 20 8 17 9 19 10 18 11 21 12
REMARK SMILES IDX 22 13 29 14 23 15 28 16 24 17 27 18 25 19 26 20 14 21 9 24
REMARK SMILES IDX 8 25 30 26 7 27 31 28 6 29 3 30 4 31 5 32 2 33 1 34
REMARK H PARENT 12 4 14 22 14 23
ROOT
ATOM      1  N   UNL     1      47.384 134.734  21.069  1.00  0.00    -0.196 NA
ENDROOT
BRANCH   1   2
ATOM      2  C   UNL     1      47.105 133.473  21.249  1.00  0.00     0.309 C 
BRANCH   2   3
ATOM      3  O   UNL     1      48.077 132.561  21.670  1.00  0.00    -0.479 OA
ATOM      4  H   UNL     1      49.069 132.708  21.532  1.00  0.00     0.297 HD
ENDBRANCH   2   3
BRANCH   2   5
ATOM      5  N   UNL     1      45.759 133.002  21.028  1.00  0.00    -0.231 N 
BRANCH   5   6
ATOM      6  C   UNL     1      45.306 131.737  21.545  1.00  0.00     0.069 A 
ATOM      7  C   UNL     1      45.156 131.593  22.933  1.00  0.00     0.028 A 
ATOM      8  C   UNL     1      44.979 130.650  20.691  1.00  0.00    -0.001 A 
ATOM      9  C   UNL     1      44.653 130.409  23.475  1.00  0.00     0.002 A 
ATOM     10  C   UNL     1      44.455 129.472  21.253  1.00  0.00     0.010 A 
ATOM     11  C   UNL     1      44.295 129.353  22.635  1.00  0.00     0.001 A 
BRANCH   8  12
ATOM     12  C   UNL     1      45.188 130.707  19.228  1.00  0.00    -0.049 A 
ATOM     13  N   UNL     1      46.095 129.930  18.576  1.00  0.00    -0.435 NA
ATOM     14  N   UNL     1      44.506 131.566  18.424  1.00  0.00    -0.435 NA
ATOM     15  C   UNL     1      45.973 130.341  17.306  1.00  0.00    -0.038 A 
ATOM     16  C   UNL     1      45.028 131.315  17.216  1.00  0.00    -0.038 A 
ATOM     17  C   UNL     1      46.692 129.904  16.195  1.00  0.00     0.004 A 
ATOM     18  C   UNL     1      44.720 131.934  16.007  1.00  0.00     0.004 A 
ATOM     19  C   UNL     1      46.407 130.506  14.956  1.00  0.00     0.000 A 
ATOM     20  C   UNL     1      45.424 131.518  14.861  1.00  0.00     0.000 A 
ENDBRANCH   8  12
ENDBRANCH   5   6
BRANCH   5  21
ATOM     21  N   UNL     1      44.876 133.752  20.232  1.00  0.00    -0.239 NA
ATOM     22  H   UNL     1      45.373 133.999  19.346  1.00  0.00     0.144 HD
ATOM     23  H   UNL     1      44.663 134.641  20.742  1.00  0.00     0.144 HD
ENDBRANCH   5  21
ENDBRANCH   2   5
ENDBRANCH   1   2
BRANCH   1  24
ATOM     24  C   UNL     1      48.558 135.421  21.520  1.00  0.00     0.069 A 
ATOM     25  C   UNL     1      49.130 135.061  22.746  1.00  0.00     0.030 A 
ATOM     26  C   UNL     1      49.062 136.534  20.825  1.00  0.00     0.030 A 
ATOM     27  C   UNL     1      50.228 135.768  23.248  1.00  0.00     0.021 A 
ATOM     28  C   UNL     1      50.156 137.242  21.327  1.00  0.00     0.021 A 
ATOM     29  C   UNL     1      50.745 136.861  22.541  1.00  0.00     0.048 A 
BRANCH  29  30
ATOM     30  S   UNL     1      52.135 137.737  23.177  1.00  0.00     0.101 S 
ATOM     31  O   UNL     1      52.452 138.917  22.299  1.00  0.00    -0.244 OA
ATOM     32  O   UNL     1      51.806 138.243  24.553  1.00  0.00    -0.244 OA
BRANCH  30  33
ATOM     33  N   UNL     1      53.516 136.689  23.270  1.00  0.00    -0.547 NA
ATOM     34  C   UNL     1      53.588 136.084  24.594  1.00  0.00    -0.153 C 
ENDBRANCH  30  33
ENDBRANCH  29  30
ENDBRANCH   1  24
TORSDOF 9
ENDMDL
MODEL 4
REMARK VINA RESULT:      -1.1      5.254      7.915
REMARK SMILES C[N-]S(=O)(=O)c1ccc(/N=C(\O)N(N)c2ccccc2-c2nc3ccccc3[n-]2)cc1
REMARK SMILES IDX 10 1 11 2 12 3 13 5 15 6 16 7 20 8 17 9 19 10 18 11 21 12
REMARK SMILES IDX 22 13 29 14 23 15 28 16 24 17 27 18 25 19 26 20 14 21 9 24
REMARK SMILES IDX 8 25 30 26 7 27 31 28 6 29 3 30 4 31 5 32 2 33 1 34
REMARK H PARENT 12 4 14 22 14 23
ROOT
ATOM      1  N   UNL     1      47.056 133.063  22.312  1.00  0.00    -0.196 NA
ENDROOT
BRANCH   1   2
ATOM      2  C   UNL     1      46.696 132.605  21.145  1.00  0.00     0.309 C 
BRANCH   2   3
ATOM      3  O   UNL     1      47.233 133.117  19.960  1.00  0.00    -0.479 OA
ATOM      4  H   UNL     1      47.848 132.585  19.358  1.00  0.00     0.297 HD
ENDBRANCH   2   3
BRANCH   2   5
ATOM      5  N   UNL     1      45.736 131.532  21.066  1.00  0.00    -0.231 N 
BRANCH   5   6
ATOM      6  C   UNL     1      44.324 131.767  21.221  1.00  0.00     0.069 A 
ATOM      7  C   UNL     1      43.796 131.862  22.519  1.00  0.00     0.028 A 
ATOM      8  C   UNL     1      43.463 131.937  20.104  1.00  0.00    -0.001 A 
ATOM      9  C   UNL     1      42.447 132.159  22.717  1.00  0.00     0.002 A 
ATOM     10  C   UNL     1      42.111 132.256  20.324  1.00  0.00     0.010 A 
ATOM     11  C   UNL     1      41.608 132.365  21.622  1.00  0.00     0.001 A 
BRANCH   8  12
ATOM     12  C   UNL     1      43.937 131.772  18.712  1.00  0.00    -0.049 A 
ATOM     13  N   UNL     1      45.173 132.161  18.297  1.00  0.00    -0.435 NA
ATOM     14  N   UNL     1      43.157 131.244  17.731  1.00  0.00    -0.435 NA
ATOM     15  C   UNL     1      45.149 131.867  16.990  1.00  0.00    -0.038 A 
ATOM     16  C   UNL     1      43.949 131.323  16.653  1.00  0.00    -0.038 A 
ATOM     17  C   UNL     1      46.152 132.085  16.048  1.00  0.00     0.004 A 
ATOM     18  C   UNL     1      43.650 130.948  15.345  1.00  0.00     0.004 A 
ATOM     19  C   UNL     1      45.887 131.717  14.716  1.00  0.00     0.000 A 
ATOM     20  C   UNL     1      44.640 131.150  14.365  1.00  0.00     0.000 A 
ENDBRANCH   8  12
ENDBRANCH   5   6
BRANCH   5  21
ATOM     21  N   UNL     1      46.176 130.207  20.904  1.00  0.00    -0.239 NA
ATOM     22  H   UNL     1      46.881 130.196  20.130  1.00  0.00     0.144 HD
ATOM     23  H   UNL     1      45.356 129.632  20.601  1.00  0.00     0.144 HD
ENDBRANCH   5  21
ENDBRANCH   2   5
ENDBRANCH   1   2
BRANCH   1  24
ATOM     24  C   UNL     1      48.124 133.982  22.575  1.00  0.00     0.069 A 
ATOM     25  C   UNL     1      48.482 134.911  21.591  1.00  0.00     0.030 A 
ATOM     26  C   UNL     1      48.906 133.875  23.738  1.00  0.00     0.030 A 
ATOM     27  C   UNL     1      49.573 135.765  21.789  1.00  0.00     0.021 A 
ATOM     28  C   UNL     1      49.997 134.724  23.936  1.00  0.00     0.021 A 
ATOM     29  C   UNL     1      50.334 135.675  22.961  1.00  0.00     0.048 A 
BRANCH  29  30
ATOM     30  S   UNL     1      51.699 136.762  23.205  1.00  0.00     0.101 S 
ATOM     31  O   UNL     1      52.188 136.672  24.625  1.00  0.00    -0.244 OA
ATOM     32  O   UNL     1      52.818 136.356  22.289  1.00  0.00    -0.244 OA
BRANCH  30  33
ATOM     33  N   UNL     1      51.236 138.398  22.849  1.00  0.00    -0.547 NA
ATOM     34  C   UNL     1      50.757 138.487  21.475  1.00  0.00    -0.153 C 
ENDBRANCH  30  33
ENDBRANCH  29  30
ENDBRANCH   1  24
TORSDOF 9
ENDMDL
MODEL 5
REMARK VINA RESULT:      -1.0      2.751      4.411
REMARK SMILES C[N-]S(=O)(=O)c1ccc(/N=C(\O)N(N)c2ccccc2-c2nc3ccccc3[n-]2)cc1
REMARK SMILES IDX 10 1 11 2 12 3 13 5 15 6 16 7 20 8 17 9 19 10 18 11 21 12
REMARK SMILES IDX 22 13 29 14 23 15 28 16 24 17 27 18 25 19 26 20 14 21 9 24
REMARK SMILES IDX 8 25 30 26 7 27 31 28 6 29 3 30 4 31 5 32 2 33 1 34
REMARK H PARENT 12 4 14 22 14 23
ROOT
ATOM      1  N   UNL     1      43.996 131.665  20.001  1.00  0.00    -0.196 NA
ENDROOT
BRANCH   1   2
ATOM      2  C   UNL     1      42.743 131.667  20.363  1.00  0.00     0.309 C 
BRANCH   2   3
ATOM      3  O   UNL     1      41.709 131.641  19.422  1.00  0.00    -0.479 OA
ATOM      4  H   UNL     1      41.057 132.405  19.297  1.00  0.00     0.297 HD
ENDBRANCH   2   3
BRANCH   2   5
ATOM      5  N   UNL     1      42.406 131.678  21.765  1.00  0.00    -0.231 N 
BRANCH   5   6
ATOM      6  C   UNL     1      42.757 130.586  22.636  1.00  0.00     0.069 A 
ATOM      7  C   UNL     1      41.857 129.517  22.770  1.00  0.00     0.028 A 
ATOM      8  C   UNL     1      43.995 130.548  23.332  1.00  0.00    -0.001 A 
ATOM      9  C   UNL     1      42.185 128.405  23.547  1.00  0.00     0.002 A 
ATOM     10  C   UNL     1      44.316 129.410  24.093  1.00  0.00     0.010 A 
ATOM     11  C   UNL     1      43.417 128.349  24.201  1.00  0.00     0.001 A 
BRANCH   8  12
ATOM     12  C   UNL     1      44.954 131.674  23.297  1.00  0.00    -0.049 A 
ATOM     13  N   UNL     1      45.696 131.985  22.199  1.00  0.00    -0.435 NA
ATOM     14  N   UNL     1      45.188 132.469  24.375  1.00  0.00    -0.435 NA
ATOM     15  C   UNL     1      46.434 133.018  22.627  1.00  0.00    -0.038 A 
ATOM     16  C   UNL     1      46.132 133.306  23.922  1.00  0.00    -0.038 A 
ATOM     17  C   UNL     1      47.405 133.724  21.920  1.00  0.00     0.004 A 
ATOM     18  C   UNL     1      46.775 134.325  24.621  1.00  0.00     0.004 A 
ATOM     19  C   UNL     1      48.075 134.762  22.592  1.00  0.00     0.000 A 
ATOM     20  C   UNL     1      47.762 135.063  23.939  1.00  0.00     0.000 A 
ENDBRANCH   8  12
ENDBRANCH   5   6
BRANCH   5  21
ATOM     21  N   UNL     1      41.656 132.741  22.298  1.00  0.00    -0.239 NA
ATOM     22  H   UNL     1      41.214 133.253  21.500  1.00  0.00     0.144 HD
ATOM     23  H   UNL     1      42.321 133.395  22.773  1.00  0.00     0.144 HD
ENDBRANCH   5  21
ENDBRANCH   2   5
ENDBRANCH   1   2
BRANCH   1  24
ATOM     24  C   UNL     1      44.502 131.431  18.681  1.00  0.00     0.069 A 
ATOM     25  C   UNL     1      43.677 131.686  17.579  1.00  0.00     0.030 A 
ATOM     26  C   UNL     1      45.753 130.822  18.479  1.00  0.00     0.030 A 
ATOM     27  C   UNL     1      44.117 131.391  16.284  1.00  0.00     0.021 A 
ATOM     28  C   UNL     1      46.191 130.523  17.187  1.00  0.00     0.021 A 
ATOM     29  C   UNL     1      45.375 130.808  16.082  1.00  0.00     0.048 A 
BRANCH  29  30
ATOM     30  S   UNL     1      45.923 130.450  14.447  1.00  0.00     0.101 S 
ATOM     31  O   UNL     1      46.356 129.013  14.346  1.00  0.00    -0.244 OA
ATOM     32  O   UNL     1      44.785 130.672  13.491  1.00  0.00    -0.244 OA
BRANCH  30  33
ATOM     33  N   UNL     1      47.243 131.491  14.013  1.00  0.00    -0.547 NA
ATOM     34  C   UNL     1      48.128 130.804  13.080  1.00  0.00    -0.153 C 
ENDBRANCH  30  33
ENDBRANCH  29  30
ENDBRANCH   1  24
TORSDOF 9
ENDMDL
MODEL 6
REMARK VINA RESULT:      -0.8      4.946      7.808
REMARK SMILES C[N-]S(=O)(=O)c1ccc(/N=C(\O)N(N)c2ccccc2-c2nc3ccccc3[n-]2)cc1
REMARK SMILES IDX 10 1 11 2 12 3 13 5 15 6 16 7 20 8 17 9 19 10 18 11 21 12
REMARK SMILES IDX 22 13 29 14 23 15 28 16 24 17 27 18 25 19 26 20 14 21 9 24
REMARK SMILES IDX 8 25 30 26 7 27 31 28 6 29 3 30 4 31 5 32 2 33 1 34
REMARK H PARENT 12 4 14 22 14 23
ROOT
ATOM      1  N   UNL     1      45.880 132.808  22.208  1.00  0.00    -0.196 NA
ENDROOT
BRANCH   1   2
ATOM      2  C   UNL     1      45.745 131.924  21.258  1.00  0.00     0.309 C 
BRANCH   2   3
ATOM      3  O   UNL     1      46.009 130.569  21.478  1.00  0.00    -0.479 OA
ATOM      4  H   UNL     1      46.785 130.081  21.049  1.00  0.00     0.297 HD
ENDBRANCH   2   3
BRANCH   2   5
ATOM      5  N   UNL     1      45.294 132.342  19.954  1.00  0.00    -0.231 N 
BRANCH   5   6
ATOM      6  C   UNL     1      43.916 132.222  19.555  1.00  0.00     0.069 A 
ATOM      7  C   UNL     1      42.916 132.524  20.492  1.00  0.00     0.028 A 
ATOM      8  C   UNL     1      43.545 131.839  18.238  1.00  0.00    -0.001 A 
ATOM      9  C   UNL     1      41.568 132.490  20.130  1.00  0.00     0.002 A 
ATOM     10  C   UNL     1      42.183 131.829  17.886  1.00  0.00     0.010 A 
ATOM     11  C   UNL     1      41.203 132.151  18.827  1.00  0.00     0.001 A 
BRANCH   8  12
ATOM     12  C   UNL     1      44.543 131.431  17.225  1.00  0.00    -0.049 A 
ATOM     13  N   UNL     1      45.000 132.267  16.254  1.00  0.00    -0.435 NA
ATOM     14  N   UNL     1      45.060 130.174  17.172  1.00  0.00    -0.435 NA
ATOM     15  C   UNL     1      45.833 131.481  15.559  1.00  0.00    -0.038 A 
ATOM     16  C   UNL     1      45.868 130.235  16.104  1.00  0.00    -0.038 A 
ATOM     17  C   UNL     1      46.566 131.810  14.420  1.00  0.00     0.004 A 
ATOM     18  C   UNL     1      46.640 129.212  15.559  1.00  0.00     0.004 A 
ATOM     19  C   UNL     1      47.359 130.802  13.841  1.00  0.00     0.000 A 
ATOM     20  C   UNL     1      47.396 129.506  14.408  1.00  0.00     0.000 A 
ENDBRANCH   8  12
ENDBRANCH   5   6
BRANCH   5  21
ATOM     21  N   UNL     1      46.222 132.816  19.010  1.00  0.00    -0.239 NA
ATOM     22  H   UNL     1      46.162 132.203  18.165  1.00  0.00     0.144 HD
ATOM     23  H   UNL     1      47.178 132.708  19.420  1.00  0.00     0.144 HD
ENDBRANCH   5  21
ENDBRANCH   2   5
ENDBRANCH   1   2
BRANCH   1  24
ATOM     24  C   UNL     1      47.044 133.598  22.478  1.00  0.00     0.069 A 
ATOM     25  C   UNL     1      47.629 134.329  21.437  1.00  0.00     0.030 A 
ATOM     26  C   UNL     1      47.688 133.543  23.726  1.00  0.00     0.030 A 
ATOM     27  C   UNL     1      48.811 135.045  21.653  1.00  0.00     0.021 A 
ATOM     28  C   UNL     1      48.870 134.254  23.942  1.00  0.00     0.021 A 
ATOM     29  C   UNL     1      49.437 135.010  22.906  1.00  0.00     0.048 A 
BRANCH  29  30
ATOM     30  S   UNL     1      50.920 135.923  23.170  1.00  0.00     0.101 S 
ATOM     31  O   UNL     1      50.989 136.402  24.594  1.00  0.00    -0.244 OA
ATOM     32  O   UNL     1      52.098 135.028  22.912  1.00  0.00    -0.244 OA
BRANCH  30  33
ATOM     33  N   UNL     1      50.991 137.282  22.092  1.00  0.00    -0.547 NA
ATOM     34  C   UNL     1      49.960 137.154  21.068  1.00  0.00    -0.153 C 
ENDBRANCH  30  33
ENDBRANCH  29  30
ENDBRANCH   1  24
TORSDOF 9
ENDMDL
MODEL 7
REMARK VINA RESULT:      -0.8      4.951      7.530
REMARK SMILES C[N-]S(=O)(=O)c1ccc(/N=C(\O)N(N)c2ccccc2-c2nc3ccccc3[n-]2)cc1
REMARK SMILES IDX 10 1 11 2 12 3 13 5 15 6 16 7 20 8 17 9 19 10 18 11 21 12
REMARK SMILES IDX 22 13 29 14 23 15 28 16 24 17 27 18 25 19 26 20 14 21 9 24
REMARK SMILES IDX 8 25 30 26 7 27 31 28 6 29 3 30 4 31 5 32 2 33 1 34
REMARK H PARENT 12 4 14 22 14 23
ROOT
ATOM      1  N   UNL     1      46.155 133.447  22.381  1.00  0.00    -0.196 NA
ENDROOT
BRANCH   1   2
ATOM      2  C   UNL     1      45.635 133.073  21.245  1.00  0.00     0.309 C 
BRANCH   2   3
ATOM      3  O   UNL     1      46.095 133.583  20.026  1.00  0.00    -0.479 OA
ATOM      4  H   UNL     1      46.052 133.063  19.159  1.00  0.00     0.297 HD
ENDBRANCH   2   3
BRANCH   2   5
ATOM      5  N   UNL     1      44.573 132.098  21.233  1.00  0.00    -0.231 N 
BRANCH   5   6
ATOM      6  C   UNL     1      44.815 130.711  21.537  1.00  0.00     0.069 A 
ATOM      7  C   UNL     1      44.630 130.270  22.857  1.00  0.00     0.028 A 
ATOM      8  C   UNL     1      45.203 129.779  20.538  1.00  0.00    -0.001 A 
ATOM      9  C   UNL     1      44.785 128.922  23.184  1.00  0.00     0.002 A 
ATOM     10  C   UNL     1      45.335 128.422  20.883  1.00  0.00     0.010 A 
ATOM     11  C   UNL     1      45.128 127.999  22.196  1.00  0.00     0.001 A 
BRANCH   8  12
ATOM     12  C   UNL     1      45.491 130.190  19.146  1.00  0.00    -0.049 A 
ATOM     13  N   UNL     1      45.015 131.341  18.598  1.00  0.00    -0.435 NA
ATOM     14  N   UNL     1      46.233 129.430  18.298  1.00  0.00    -0.435 NA
ATOM     15  C   UNL     1      45.479 131.280  17.342  1.00  0.00    -0.038 A 
ATOM     16  C   UNL     1      46.203 130.143  17.163  1.00  0.00    -0.038 A 
ATOM     17  C   UNL     1      45.269 132.193  16.310  1.00  0.00     0.004 A 
ATOM     18  C   UNL     1      46.780 129.821  15.937  1.00  0.00     0.004 A 
ATOM     19  C   UNL     1      45.837 131.902  15.056  1.00  0.00     0.000 A 
ATOM     20  C   UNL     1      46.591 130.719  14.870  1.00  0.00     0.000 A 
ENDBRANCH   8  12
ENDBRANCH   5   6
BRANCH   5  21
ATOM     21  N   UNL     1      43.275 132.479  20.850  1.00  0.00    -0.239 NA
ATOM     22  H   UNL     1      42.639 131.665  21.019  1.00  0.00     0.144 HD
ATOM     23  H   UNL     1      43.289 132.669  19.821  1.00  0.00     0.144 HD
ENDBRANCH   5  21
ENDBRANCH   2   5
ENDBRANCH   1   2
BRANCH   1  24
ATOM     24  C   UNL     1      47.415 134.104  22.567  1.00  0.00     0.069 A 
ATOM     25  C   UNL     1      47.794 135.115  21.677  1.00  0.00     0.030 A 
ATOM     26  C   UNL     1      48.330 133.660  23.537  1.00  0.00     0.030 A 
ATOM     27  C   UNL     1      49.052 135.717  21.788  1.00  0.00     0.021 A 
ATOM     28  C   UNL     1      49.588 134.258  23.646  1.00  0.00     0.021 A 
ATOM     29  C   UNL     1      49.954 135.292  22.771  1.00  0.00     0.048 A 
BRANCH  29  30
ATOM     30  S   UNL     1      51.531 136.065  22.908  1.00  0.00     0.101 S 
ATOM     31  O   UNL     1      52.576 135.051  23.285  1.00  0.00    -0.244 OA
ATOM     32  O   UNL     1      51.901 136.659  21.579  1.00  0.00    -0.244 OA
BRANCH  30  33
ATOM     33  N   UNL     1      51.482 137.325  24.102  1.00  0.00    -0.547 NA
ATOM     34  C   UNL     1      51.721 138.616  23.467  1.00  0.00    -0.153 C 
ENDBRANCH  30  33
ENDBRANCH  29  30
ENDBRANCH   1  24
TORSDOF 9
ENDMDL
MODEL 8
REMARK VINA RESULT:      -0.6      5.348      8.075
REMARK SMILES C[N-]S(=O)(=O)c1ccc(/N=C(\O)N(N)c2ccccc2-c2nc3ccccc3[n-]2)cc1
REMARK SMILES IDX 10 1 11 2 12 3 13 5 15 6 16 7 20 8 17 9 19 10 18 11 21 12
REMARK SMILES IDX 22 13 29 14 23 15 28 16 24 17 27 18 25 19 26 20 14 21 9 24
REMARK SMILES IDX 8 25 30 26 7 27 31 28 6 29 3 30 4 31 5 32 2 33 1 34
REMARK H PARENT 12 4 14 22 14 23
ROOT
ATOM      1  N   UNL     1      47.371 132.963  22.553  1.00  0.00    -0.196 NA
ENDROOT
BRANCH   1   2
ATOM      2  C   UNL     1      46.421 133.197  21.691  1.00  0.00     0.309 C 
BRANCH   2   3
ATOM      3  O   UNL     1      46.031 134.501  21.369  1.00  0.00    -0.479 OA
ATOM      4  H   UNL     1      45.182 134.713  20.861  1.00  0.00     0.297 HD
ENDBRANCH   2   3
BRANCH   2   5
ATOM      5  N   UNL     1      45.764 132.093  21.036  1.00  0.00    -0.231 N 
BRANCH   5   6
ATOM      6  C   UNL     1      44.337 132.067  20.847  1.00  0.00     0.069 A 
ATOM      7  C   UNL     1      43.507 132.248  21.965  1.00  0.00     0.028 A 
ATOM      8  C   UNL     1      43.751 131.896  19.564  1.00  0.00    -0.001 A 
ATOM      9  C   UNL     1      42.120 132.300  21.820  1.00  0.00     0.002 A 
ATOM     10  C   UNL     1      42.353 131.972  19.435  1.00  0.00     0.010 A 
ATOM     11  C   UNL     1      41.545 132.171  20.555  1.00  0.00     0.001 A 
BRANCH   8  12
ATOM     12  C   UNL     1      44.563 131.623  18.358  1.00  0.00    -0.049 A 
ATOM     13  N   UNL     1      45.101 130.403  18.085  1.00  0.00    -0.435 NA
ATOM     14  N   UNL     1      44.859 132.584  17.442  1.00  0.00    -0.435 NA
ATOM     15  C   UNL     1      45.772 130.628  16.947  1.00  0.00    -0.038 A 
ATOM     16  C   UNL     1      45.629 131.925  16.565  1.00  0.00    -0.038 A 
ATOM     17  C   UNL     1      46.547 129.725  16.222  1.00  0.00     0.004 A 
ATOM     18  C   UNL     1      46.247 132.431  15.423  1.00  0.00     0.004 A 
ATOM     19  C   UNL     1      47.187 130.199  15.061  1.00  0.00     0.000 A 
ATOM     20  C   UNL     1      47.038 131.548  14.663  1.00  0.00     0.000 A 
ENDBRANCH   8  12
ENDBRANCH   5   6
BRANCH   5  21
ATOM     21  N   UNL     1      46.511 130.975  20.627  1.00  0.00    -0.239 NA
ATOM     22  H   UNL     1      46.248 130.171  21.242  1.00  0.00     0.144 HD
ATOM     23  H   UNL     1      47.523 131.189  20.790  1.00  0.00     0.144 HD
ENDBRANCH   5  21
ENDBRANCH   2   5
ENDBRANCH   1   2
BRANCH   1  24
ATOM     24  C   UNL     1      48.595 133.695  22.695  1.00  0.00     0.069 A 
ATOM     25  C   UNL     1      49.505 133.315  23.688  1.00  0.00     0.030 A 
ATOM     26  C   UNL     1      48.833 134.864  21.952  1.00  0.00     0.030 A 
ATOM     27  C   UNL     1      50.669 134.061  23.901  1.00  0.00     0.021 A 
ATOM     28  C   UNL     1      49.993 135.611  22.167  1.00  0.00     0.021 A 
ATOM     29  C   UNL     1      50.918 135.212  23.143  1.00  0.00     0.048 A 
BRANCH  29  30
ATOM     30  S   UNL     1      52.393 136.138  23.412  1.00  0.00     0.101 S 
ATOM     31  O   UNL     1      52.886 136.718  22.115  1.00  0.00    -0.244 OA
ATOM     32  O   UNL     1      52.095 137.267  24.356  1.00  0.00    -0.244 OA
BRANCH  30  33
ATOM     33  N   UNL     1      53.621 135.125  24.105  1.00  0.00    -0.547 NA
ATOM     34  C   UNL     1      53.026 133.882  24.581  1.00  0.00    -0.153 C 
ENDBRANCH  30  33
ENDBRANCH  29  30
ENDBRANCH   1  24
TORSDOF 9
ENDMDL
MODEL 9
REMARK VINA RESULT:      -0.4      1.576      2.163
REMARK SMILES C[N-]S(=O)(=O)c1ccc(/N=C(\O)N(N)c2ccccc2-c2nc3ccccc3[n-]2)cc1
REMARK SMILES IDX 10 1 11 2 12 3 13 5 15 6 16 7 20 8 17 9 19 10 18 11 21 12
REMARK SMILES IDX 22 13 29 14 23 15 28 16 24 17 27 18 25 19 26 20 14 21 9 24
REMARK SMILES IDX 8 25 30 26 7 27 31 28 6 29 3 30 4 31 5 32 2 33 1 34
REMARK H PARENT 12 4 14 22 14 23
ROOT
ATOM      1  N   UNL     1      43.804 130.270  21.407  1.00  0.00    -0.196 NA
ENDROOT
BRANCH   1   2
ATOM      2  C   UNL     1      44.453 130.637  22.478  1.00  0.00     0.309 C 
BRANCH   2   3
ATOM      3  O   UNL     1      45.260 131.779  22.488  1.00  0.00    -0.479 OA
ATOM      4  H   UNL     1      46.183 131.798  22.905  1.00  0.00     0.297 HD
ENDBRANCH   2   3
BRANCH   2   5
ATOM      5  N   UNL     1      44.326 129.865  23.689  1.00  0.00    -0.231 N 
BRANCH   5   6
ATOM      6  C   UNL     1      43.101 129.189  24.030  1.00  0.00     0.069 A 
ATOM      7  C   UNL     1      41.972 129.961  24.344  1.00  0.00     0.028 A 
ATOM      8  C   UNL     1      42.998 127.772  24.025  1.00  0.00    -0.001 A 
ATOM      9  C   UNL     1      40.745 129.350  24.611  1.00  0.00     0.002 A 
ATOM     10  C   UNL     1      41.750 127.176  24.277  1.00  0.00     0.010 A 
ATOM     11  C   UNL     1      40.633 127.960  24.569  1.00  0.00     0.001 A 
BRANCH   8  12
ATOM     12  C   UNL     1      44.166 126.898  23.780  1.00  0.00    -0.049 A 
ATOM     13  N   UNL     1      44.245 126.041  22.726  1.00  0.00    -0.435 NA
ATOM     14  N   UNL     1      45.242 126.864  24.611  1.00  0.00    -0.435 NA
ATOM     15  C   UNL     1      45.426 125.440  22.925  1.00  0.00    -0.038 A 
ATOM     16  C   UNL     1      46.019 125.929  24.047  1.00  0.00    -0.038 A 
ATOM     17  C   UNL     1      46.013 124.436  22.158  1.00  0.00     0.004 A 
ATOM     18  C   UNL     1      47.250 125.457  24.498  1.00  0.00     0.004 A 
ATOM     19  C   UNL     1      47.257 123.934  22.581  1.00  0.00     0.000 A 
ATOM     20  C   UNL     1      47.874 124.442  23.747  1.00  0.00     0.000 A 
ENDBRANCH   8  12
ENDBRANCH   5   6
BRANCH   5  21
ATOM     21  N   UNL     1      45.391 129.817  24.605  1.00  0.00    -0.239 NA
ATOM     22  H   UNL     1      45.691 128.818  24.695  1.00  0.00     0.144 HD
ATOM     23  H   UNL     1      45.027 130.129  25.535  1.00  0.00     0.144 HD
ENDBRANCH   5  21
ENDBRANCH   2   5
ENDBRANCH   1   2
BRANCH   1  24
ATOM     24  C   UNL     1      44.145 130.587  20.052  1.00  0.00     0.069 A 
ATOM     25  C   UNL     1      45.444 131.020  19.759  1.00  0.00     0.030 A 
ATOM     26  C   UNL     1      43.168 130.605  19.042  1.00  0.00     0.030 A 
ATOM     27  C   UNL     1      45.780 131.413  18.460  1.00  0.00     0.021 A 
ATOM     28  C   UNL     1      43.503 131.000  17.745  1.00  0.00     0.021 A 
ATOM     29  C   UNL     1      44.812 131.405  17.447  1.00  0.00     0.048 A 
BRANCH  29  30
ATOM     30  S   UNL     1      45.251 131.891  15.812  1.00  0.00     0.101 S 
ATOM     31  O   UNL     1      46.069 133.153  15.846  1.00  0.00    -0.244 OA
ATOM     32  O   UNL     1      46.077 130.805  15.184  1.00  0.00    -0.244 OA
BRANCH  30  33
ATOM     33  N   UNL     1      43.823 132.146  14.856  1.00  0.00    -0.547 NA
ATOM     34  C   UNL     1      43.824 131.237  13.716  1.00  0.00    -0.153 C 
ENDBRANCH  30  33
ENDBRANCH  29  30
ENDBRANCH   1  24
TORSDOF 9
ENDMDL


