REMARK SMILES C=Cc1ccc(-c2ccc(Nc3ccc(O)cc3F)c3ccoc23)[nH+]c1
REMARK SMILES IDX 7 1 8 2 9 3 10 4 20 5 21 6 22 7 23 8 24 9 6 10 3 11 4 12
REMARK SMILES IDX 26 13 5 14 25 15 2 17 1 18 11 19 12 21 13 22 18 23 14 24
REMARK SMILES IDX 17 25 15 26 19 27 16 28
REMARK H PARENT 25 16 11 20 16 29
ROOT
ATOM      1  C   UNL     1      -0.487  -1.697   1.408  1.00  0.00     0.089 A 
ATOM      2  C   UNL     1      -1.265  -0.549   1.135  1.00  0.00     0.021 A 
ATOM      3  C   UNL     1      -0.675   0.611   0.590  1.00  0.00     0.028 A 
ATOM      4  C   UNL     1       0.705   0.646   0.290  1.00  0.00     0.050 A 
ATOM      5  C   UNL     1       1.451  -0.499   0.582  1.00  0.00     0.045 A 
ATOM      6  C   UNL     1       2.789  -0.777   0.402  1.00  0.00     0.053 A 
ATOM      7  C   UNL     1       2.941  -2.085   0.845  1.00  0.00     0.196 A 
ATOM      8  O   UNL     1       1.784  -2.566   1.260  1.00  0.00    -0.463 OA
ATOM      9  C   UNL     1       0.880  -1.627   1.112  1.00  0.00     0.149 A 
ENDROOT
BRANCH   1  10
ATOM     10  C   UNL     1      -1.095  -2.921   1.986  1.00  0.00     0.214 A 
ATOM     11  C   UNL     1      -2.218  -5.240   3.075  1.00  0.00     0.038 A 
ATOM     12  C   UNL     1      -2.898  -4.529   2.079  1.00  0.00     0.021 A 
ATOM     13  C   UNL     1      -0.978  -4.743   3.518  1.00  0.00     0.314 A 
ATOM     14  C   UNL     1      -2.341  -3.374   1.531  1.00  0.00     0.081 A 
ATOM     15  N   UNL     1      -0.451  -3.614   2.971  1.00  0.00    -0.210 N 
ATOM     16  H   UNL     1       0.460  -3.266   3.347  1.00  0.00     0.453 HD
BRANCH  11  17
ATOM     17  C   UNL     1      -2.848  -6.460   3.638  1.00  0.00     0.006 C 
ATOM     18  C   UNL     1      -2.196  -7.381   4.350  1.00  0.00     0.009 C 
ENDBRANCH  11  17
ENDBRANCH   1  10
BRANCH   4  19
ATOM     19  N   UNL     1       1.337   1.824  -0.240  1.00  0.00    -0.353 N 
ATOM     20  H   UNL     1       2.330   2.012   0.025  1.00  0.00     0.167 HD
BRANCH  19  21
ATOM     21  C   UNL     1       0.658   2.815  -1.028  1.00  0.00     0.075 A 
ATOM     22  C   UNL     1       0.940   4.173  -0.816  1.00  0.00     0.033 A 
ATOM     23  C   UNL     1      -0.241   2.450  -2.050  1.00  0.00     0.150 A 
ATOM     24  C   UNL     1       0.304   5.155  -1.581  1.00  0.00     0.048 A 
ATOM     25  C   UNL     1      -0.874   3.437  -2.813  1.00  0.00     0.087 A 
ATOM     26  C   UNL     1      -0.606   4.792  -2.578  1.00  0.00     0.118 A 
ATOM     27  F   UNL     1      -0.475   1.144  -2.335  1.00  0.00    -0.205 F 
BRANCH  26  28
ATOM     28  O   UNL     1      -1.233   5.782  -3.331  1.00  0.00    -0.508 OA
ATOM     29  H   UNL     1      -1.896   5.550  -4.061  1.00  0.00     0.293 HD
ENDBRANCH  26  28
ENDBRANCH  19  21
ENDBRANCH   4  19
TORSDOF 5


