REMARK SMILES C=C[C@@H]1C[NH2+][C@@H](c2ccc3ncnn3c2)N(C(=O)c2cccc(C)c2)C1
REMARK SMILES IDX 3 1 4 2 5 3 6 4 16 5 26 6 2 9 1 10 17 11 18 12 19 13 20 14
REMARK SMILES IDX 25 15 21 16 23 17 22 18 24 19 7 20 8 21 15 22 9 23 14 24
REMARK SMILES IDX 10 25 13 26 11 27 12 28
REMARK H PARENT 5 7 5 8
ROOT
ATOM      1  C   UNL     1       1.707   1.598  -2.760  1.00  0.00     0.086 C 
ATOM      2  C   UNL     1       1.871   3.076  -2.372  1.00  0.00     0.272 C 
ATOM      3  N   UNL     1       1.178   3.354  -1.107  1.00  0.00    -0.322 N 
ATOM      4  C   UNL     1       1.727   2.551   0.004  1.00  0.00     0.320 C 
ATOM      5  N   UNL     1       1.724   1.112  -0.340  1.00  0.00    -0.284 N 
ATOM      6  C   UNL     1       2.276   0.718  -1.642  1.00  0.00     0.139 C 
ATOM      7  H   UNL     1       0.156   3.159  -1.232  1.00  0.00     0.348 HD
ATOM      8  H   UNL     1       1.292   4.371  -0.885  1.00  0.00     0.348 HD
ENDROOT
BRANCH   1   9
ATOM      9  C   UNL     1       2.397   1.310  -4.073  1.00  0.00    -0.024 C 
ATOM     10  C   UNL     1       2.190   0.166  -4.732  1.00  0.00     0.004 C 
ENDBRANCH   1   9
BRANCH   5  11
ATOM     11  C   UNL     1       1.760   0.118   0.702  1.00  0.00     0.258 C 
ATOM     12  O   UNL     1       2.529   0.284   1.688  1.00  0.00    -0.269 OA
BRANCH  11  13
ATOM     13  C   UNL     1       0.903  -1.089   0.629  1.00  0.00     0.040 A 
ATOM     14  C   UNL     1       1.163  -2.196   1.455  1.00  0.00     0.014 A 
ATOM     15  C   UNL     1      -0.192  -1.138  -0.254  1.00  0.00     0.017 A 
ATOM     16  C   UNL     1       0.356  -3.335   1.385  1.00  0.00     0.001 A 
ATOM     17  C   UNL     1      -1.012  -2.275  -0.314  1.00  0.00    -0.050 A 
ATOM     18  C   UNL     1      -0.724  -3.378   0.502  1.00  0.00     0.003 A 
ATOM     19  C   UNL     1      -2.159  -2.317  -1.281  1.00  0.00     0.044 C 
ENDBRANCH  11  13
ENDBRANCH   5  11
BRANCH   4  20
ATOM     20  C   UNL     1       0.926   2.828   1.266  1.00  0.00     0.050 A 
ATOM     21  C   UNL     1       1.511   3.532   2.347  1.00  0.00     0.017 A 
ATOM     22  C   UNL     1      -0.417   2.409   1.379  1.00  0.00     0.127 A 
ATOM     23  C   UNL     1       0.772   3.796   3.512  1.00  0.00     0.050 A 
ATOM     24  N   UNL     1      -1.083   2.690   2.525  1.00  0.00    -0.221 N 
ATOM     25  C   UNL     1      -0.543   3.346   3.555  1.00  0.00     0.155 A 
ATOM     26  N   UNL     1      -2.329   2.382   2.822  1.00  0.00    -0.155 NA
ATOM     27  N   UNL     1      -1.414   3.495   4.569  1.00  0.00    -0.215 NA
ATOM     28  C   UNL     1      -2.517   2.879   4.067  1.00  0.00     0.247 A 
ENDBRANCH   4  20
TORSDOF 4


