MODEL 1
REMARK VINA RESULT:      -4.6      0.000      0.000
REMARK SMILES C=C[C@@H](Oc1nc[nH+]c(C)c1C)c1cc2[nH]ccc2cc1-c1c[nH+]c2c(c1)C(=O)NC2
REMARK SMILES IDX 3 1 2 2 1 3 4 4 5 5 6 6 11 7 7 8 9 9 8 10 12 11 10 12 13 14
REMARK SMILES IDX 14 15 21 16 15 17 20 18 16 19 19 20 17 21 18 22 22 24 23 25
REMARK SMILES IDX 27 26 24 27 26 28 25 29 28 30 31 31 30 32 29 34
REMARK H PARENT 8 13 16 23 24 33 30 35
ROOT
ATOM      1  C   UNL     1      45.130 130.081  21.068  1.00  0.00     0.231 C 
ENDROOT
BRANCH   1   2
ATOM      2  C   UNL     1      46.441 130.788  20.855  1.00  0.00     0.014 C 
ATOM      3  C   UNL     1      46.572 132.103  21.050  1.00  0.00     0.008 C 
ENDBRANCH   1   2
BRANCH   1   4
ATOM      4  O   UNL     1      45.105 129.526  22.383  1.00  0.00    -0.447 OA
BRANCH   4   5
ATOM      5  C   UNL     1      44.346 128.408  22.749  1.00  0.00     0.335 A 
ATOM      6  N   UNL     1      43.136 128.571  23.348  1.00  0.00    -0.010 NA
ATOM      7  C   UNL     1      44.841 127.113  22.514  1.00  0.00     0.080 A 
ATOM      8  C   UNL     1      42.389 127.507  23.728  1.00  0.00     0.453 A 
ATOM      9  C   UNL     1      44.044 126.016  22.916  1.00  0.00     0.108 A 
ATOM     10  N   UNL     1      42.840 126.245  23.515  1.00  0.00    -0.247 N 
ATOM     11  C   UNL     1      46.169 126.903  21.826  1.00  0.00     0.057 C 
ATOM     12  C   UNL     1      44.500 124.599  22.693  1.00  0.00     0.093 C 
ATOM     13  H   UNL     1      42.238 125.445  23.818  1.00  0.00     0.311 HD
ENDBRANCH   4   5
ENDBRANCH   1   4
BRANCH   1  14
ATOM     14  C   UNL     1      43.963 131.031  20.824  1.00  0.00     0.007 A 
ATOM     15  C   UNL     1      43.205 131.437  21.950  1.00  0.00     0.035 A 
ATOM     16  C   UNL     1      43.595 131.518  19.523  1.00  0.00    -0.004 A 
ATOM     17  C   UNL     1      42.138 132.308  21.761  1.00  0.00     0.046 A 
ATOM     18  C   UNL     1      42.504 132.405  19.384  1.00  0.00     0.019 A 
ATOM     19  N   UNL     1      41.322 132.812  22.700  1.00  0.00    -0.361 N 
ATOM     20  C   UNL     1      41.802 132.773  20.523  1.00  0.00    -0.000 A 
ATOM     21  C   UNL     1      40.453 133.612  22.043  1.00  0.00     0.083 A 
ATOM     22  C   UNL     1      40.721 133.613  20.677  1.00  0.00     0.028 A 
ATOM     23  H   UNL     1      41.354 132.634  23.729  1.00  0.00     0.166 HD
BRANCH  16  24
ATOM     24  C   UNL     1      44.358 131.187  18.305  1.00  0.00     0.047 A 
ATOM     25  C   UNL     1      45.620 130.553  18.382  1.00  0.00     0.315 A 
ATOM     26  C   UNL     1      43.813 131.483  17.041  1.00  0.00     0.035 A 
ATOM     27  N   UNL     1      46.325 130.268  17.246  1.00  0.00    -0.212 N 
ATOM     28  C   UNL     1      44.566 131.164  15.920  1.00  0.00     0.109 A 
ATOM     29  C   UNL     1      45.800 130.575  16.033  1.00  0.00     0.211 A 
ATOM     30  C   UNL     1      44.322 131.371  14.516  1.00  0.00     0.258 C 
ATOM     31  C   UNL     1      46.432 130.361  14.688  1.00  0.00     0.225 C 
ATOM     32  N   UNL     1      45.430 130.894  13.762  1.00  0.00    -0.342 N 
ATOM     33  H   UNL     1      47.263 129.816  17.312  1.00  0.00     0.453 HD
ATOM     34  O   UNL     1      43.300 131.904  14.014  1.00  0.00    -0.269 OA
ATOM     35  H   UNL     1      45.514 130.923  12.722  1.00  0.00     0.164 HD
ENDBRANCH  16  24
ENDBRANCH   1  14
TORSDOF 5
ENDMDL
MODEL 2
REMARK VINA RESULT:      -3.9      2.195      7.321
REMARK SMILES C=C[C@@H](Oc1nc[nH+]c(C)c1C)c1cc2[nH]ccc2cc1-c1c[nH+]c2c(c1)C(=O)NC2
REMARK SMILES IDX 3 1 2 2 1 3 4 4 5 5 6 6 11 7 7 8 9 9 8 10 12 11 10 12 13 14
REMARK SMILES IDX 14 15 21 16 15 17 20 18 16 19 19 20 17 21 18 22 22 24 23 25
REMARK SMILES IDX 27 26 24 27 26 28 25 29 28 30 31 31 30 32 29 34
REMARK H PARENT 8 13 16 23 24 33 30 35
ROOT
ATOM      1  C   UNL     1      44.341 131.126  19.962  1.00  0.00     0.231 C 
ENDROOT
BRANCH   1   2
ATOM      2  C   UNL     1      43.180 131.958  19.489  1.00  0.00     0.014 C 
ATOM      3  C   UNL     1      42.373 132.593  20.345  1.00  0.00     0.008 C 
ENDBRANCH   1   2
BRANCH   1   4
ATOM      4  O   UNL     1      45.180 130.817  18.849  1.00  0.00    -0.447 OA
BRANCH   4   5
ATOM      5  C   UNL     1      44.831 131.050  17.514  1.00  0.00     0.335 A 
ATOM      6  N   UNL     1      43.663 131.678  17.214  1.00  0.00    -0.010 NA
ATOM      7  C   UNL     1      45.679 130.620  16.478  1.00  0.00     0.080 A 
ATOM      8  C   UNL     1      43.291 131.901  15.930  1.00  0.00     0.453 A 
ATOM      9  C   UNL     1      45.274 130.864  15.145  1.00  0.00     0.108 A 
ATOM     10  N   UNL     1      44.089 131.497  14.909  1.00  0.00    -0.247 N 
ATOM     11  C   UNL     1      46.995 129.944  16.783  1.00  0.00     0.057 C 
ATOM     12  C   UNL     1      46.129 130.440  13.981  1.00  0.00     0.093 C 
ATOM     13  H   UNL     1      43.775 131.686  13.930  1.00  0.00     0.311 HD
ENDBRANCH   4   5
ENDBRANCH   1   4
BRANCH   1  14
ATOM     14  C   UNL     1      45.101 131.847  21.070  1.00  0.00     0.007 A 
ATOM     15  C   UNL     1      46.088 132.785  20.681  1.00  0.00     0.035 A 
ATOM     16  C   UNL     1      44.873 131.612  22.470  1.00  0.00    -0.004 A 
ATOM     17  C   UNL     1      46.794 133.463  21.669  1.00  0.00     0.046 A 
ATOM     18  C   UNL     1      45.614 132.330  23.435  1.00  0.00     0.019 A 
ATOM     19  N   UNL     1      47.747 134.392  21.497  1.00  0.00    -0.361 N 
ATOM     20  C   UNL     1      46.564 133.241  22.995  1.00  0.00    -0.000 A 
ATOM     21  C   UNL     1      48.127 134.767  22.739  1.00  0.00     0.083 A 
ATOM     22  C   UNL     1      47.409 134.067  23.705  1.00  0.00     0.028 A 
ATOM     23  H   UNL     1      48.115 134.762  20.591  1.00  0.00     0.166 HD
BRANCH  16  24
ATOM     24  C   UNL     1      43.832 130.691  22.963  1.00  0.00     0.047 A 
ATOM     25  C   UNL     1      42.586 131.175  23.423  1.00  0.00     0.315 A 
ATOM     26  C   UNL     1      44.071 129.303  22.955  1.00  0.00     0.035 A 
ATOM     27  N   UNL     1      41.636 130.312  23.894  1.00  0.00    -0.212 N 
ATOM     28  C   UNL     1      43.070 128.471  23.435  1.00  0.00     0.109 A 
ATOM     29  C   UNL     1      41.883 128.978  23.901  1.00  0.00     0.211 A 
ATOM     30  C   UNL     1      43.015 127.042  23.601  1.00  0.00     0.258 C 
ATOM     31  C   UNL     1      40.978 127.888  24.398  1.00  0.00     0.225 C 
ATOM     32  N   UNL     1      41.768 126.674  24.176  1.00  0.00    -0.342 N 
ATOM     33  H   UNL     1      40.725 130.678  24.248  1.00  0.00     0.453 HD
ATOM     34  O   UNL     1      43.927 126.228  23.305  1.00  0.00    -0.269 OA
ATOM     35  H   UNL     1      41.467 125.700  24.404  1.00  0.00     0.164 HD
ENDBRANCH  16  24
ENDBRANCH   1  14
TORSDOF 5
ENDMDL
MODEL 3
REMARK VINA RESULT:      -3.5      1.988      6.971
REMARK SMILES C=C[C@@H](Oc1nc[nH+]c(C)c1C)c1cc2[nH]ccc2cc1-c1c[nH+]c2c(c1)C(=O)NC2
REMARK SMILES IDX 3 1 2 2 1 3 4 4 5 5 6 6 11 7 7 8 9 9 8 10 12 11 10 12 13 14
REMARK SMILES IDX 14 15 21 16 15 17 20 18 16 19 19 20 17 21 18 22 22 24 23 25
REMARK SMILES IDX 27 26 24 27 26 28 25 29 28 30 31 31 30 32 29 34
REMARK H PARENT 8 13 16 23 24 33 30 35
ROOT
ATOM      1  C   UNL     1      45.501 130.500  20.231  1.00  0.00     0.231 C 
ENDROOT
BRANCH   1   2
ATOM      2  C   UNL     1      46.616 131.420  20.647  1.00  0.00     0.014 C 
ATOM      3  C   UNL     1      46.377 132.574  21.278  1.00  0.00     0.008 C 
ENDBRANCH   1   2
BRANCH   1   4
ATOM      4  O   UNL     1      45.737 130.053  18.895  1.00  0.00    -0.447 OA
BRANCH   4   5
ATOM      5  C   UNL     1      45.142 130.619  17.761  1.00  0.00     0.335 A 
ATOM      6  N   UNL     1      43.987 131.326  17.878  1.00  0.00    -0.010 NA
ATOM      7  C   UNL     1      45.729 130.444  16.495  1.00  0.00     0.080 A 
ATOM      8  C   UNL     1      43.381 131.870  16.795  1.00  0.00     0.453 A 
ATOM      9  C   UNL     1      45.082 131.021  15.379  1.00  0.00     0.108 A 
ATOM     10  N   UNL     1      43.923 131.717  15.561  1.00  0.00    -0.247 N 
ATOM     11  C   UNL     1      47.027 129.686  16.340  1.00  0.00     0.057 C 
ATOM     12  C   UNL     1      45.650 130.884  13.992  1.00  0.00     0.093 C 
ATOM     13  H   UNL     1      43.431 132.151  14.746  1.00  0.00     0.311 HD
ENDBRANCH   4   5
ENDBRANCH   1   4
BRANCH   1  14
ATOM     14  C   UNL     1      45.370 129.338  21.209  1.00  0.00     0.007 A 
ATOM     15  C   UNL     1      46.308 128.283  21.098  1.00  0.00     0.035 A 
ATOM     16  C   UNL     1      44.347 129.260  22.216  1.00  0.00    -0.004 A 
ATOM     17  C   UNL     1      46.219 127.212  21.980  1.00  0.00     0.046 A 
ATOM     18  C   UNL     1      44.302 128.152  23.091  1.00  0.00     0.019 A 
ATOM     19  N   UNL     1      47.020 126.136  22.040  1.00  0.00    -0.361 N 
ATOM     20  C   UNL     1      45.250 127.151  22.939  1.00  0.00    -0.000 A 
ATOM     21  C   UNL     1      46.550 125.381  23.057  1.00  0.00     0.083 A 
ATOM     22  C   UNL     1      45.441 125.983  23.646  1.00  0.00     0.028 A 
ATOM     23  H   UNL     1      47.845 125.927  21.434  1.00  0.00     0.166 HD
BRANCH  16  24
ATOM     24  C   UNL     1      43.362 130.336  22.433  1.00  0.00     0.047 A 
ATOM     25  C   UNL     1      42.818 130.580  23.715  1.00  0.00     0.315 A 
ATOM     26  C   UNL     1      42.973 131.152  21.354  1.00  0.00     0.035 A 
ATOM     27  N   UNL     1      41.892 131.569  23.901  1.00  0.00    -0.212 N 
ATOM     28  C   UNL     1      42.037 132.147  21.598  1.00  0.00     0.109 A 
ATOM     29  C   UNL     1      41.508 132.337  22.850  1.00  0.00     0.211 A 
ATOM     30  C   UNL     1      41.409 133.101  20.723  1.00  0.00     0.258 C 
ATOM     31  C   UNL     1      40.495 133.445  22.855  1.00  0.00     0.225 C 
ATOM     32  N   UNL     1      40.482 133.889  21.459  1.00  0.00    -0.342 N 
ATOM     33  H   UNL     1      41.482 131.732  24.846  1.00  0.00     0.453 HD
ATOM     34  O   UNL     1      41.621 133.225  19.489  1.00  0.00    -0.269 OA
ATOM     35  H   UNL     1      39.890 134.655  21.068  1.00  0.00     0.164 HD
ENDBRANCH  16  24
ENDBRANCH   1  14
TORSDOF 5
ENDMDL
MODEL 4
REMARK VINA RESULT:      -3.0      2.292      7.306
REMARK SMILES C=C[C@@H](Oc1nc[nH+]c(C)c1C)c1cc2[nH]ccc2cc1-c1c[nH+]c2c(c1)C(=O)NC2
REMARK SMILES IDX 3 1 2 2 1 3 4 4 5 5 6 6 11 7 7 8 9 9 8 10 12 11 10 12 13 14
REMARK SMILES IDX 14 15 21 16 15 17 20 18 16 19 19 20 17 21 18 22 22 24 23 25
REMARK SMILES IDX 27 26 24 27 26 28 25 29 28 30 31 31 30 32 29 34
REMARK H PARENT 8 13 16 23 24 33 30 35
ROOT
ATOM      1  C   UNL     1      44.642 131.810  19.758  1.00  0.00     0.231 C 
ENDROOT
BRANCH   1   2
ATOM      2  C   UNL     1      43.226 132.316  19.817  1.00  0.00     0.014 C 
ATOM      3  C   UNL     1      42.254 131.775  19.076  1.00  0.00     0.008 C 
ENDBRANCH   1   2
BRANCH   1   4
ATOM      4  O   UNL     1      45.198 132.123  18.481  1.00  0.00    -0.447 OA
BRANCH   4   5
ATOM      5  C   UNL     1      45.493 131.171  17.497  1.00  0.00     0.335 A 
ATOM      6  N   UNL     1      45.516 129.849  17.814  1.00  0.00    -0.010 NA
ATOM      7  C   UNL     1      45.780 131.580  16.183  1.00  0.00     0.080 A 
ATOM      8  C   UNL     1      45.815 128.907  16.887  1.00  0.00     0.453 A 
ATOM      9  C   UNL     1      46.087 130.582  15.231  1.00  0.00     0.108 A 
ATOM     10  N   UNL     1      46.098 129.271  15.611  1.00  0.00    -0.247 N 
ATOM     11  C   UNL     1      45.734 133.040  15.798  1.00  0.00     0.057 C 
ATOM     12  C   UNL     1      46.400 130.938  13.802  1.00  0.00     0.093 C 
ATOM     13  H   UNL     1      46.322 128.521  14.918  1.00  0.00     0.311 HD
ENDBRANCH   4   5
ENDBRANCH   1   4
BRANCH   1  14
ATOM     14  C   UNL     1      45.467 132.390  20.901  1.00  0.00     0.007 A 
ATOM     15  C   UNL     1      46.492 133.309  20.565  1.00  0.00     0.035 A 
ATOM     16  C   UNL     1      45.264 132.044  22.281  1.00  0.00    -0.004 A 
ATOM     17  C   UNL     1      47.258 133.860  21.586  1.00  0.00     0.046 A 
ATOM     18  C   UNL     1      46.067 132.636  23.282  1.00  0.00     0.019 A 
ATOM     19  N   UNL     1      48.254 134.753  21.466  1.00  0.00    -0.361 N 
ATOM     20  C   UNL     1      47.052 133.534  22.894  1.00  0.00    -0.000 A 
ATOM     21  C   UNL     1      48.685 134.996  22.724  1.00  0.00     0.083 A 
ATOM     22  C   UNL     1      47.957 134.250  23.647  1.00  0.00     0.028 A 
ATOM     23  H   UNL     1      48.616 135.182  20.586  1.00  0.00     0.166 HD
BRANCH  16  24
ATOM     24  C   UNL     1      44.190 131.136  22.724  1.00  0.00     0.047 A 
ATOM     25  C   UNL     1      42.925 131.634  23.111  1.00  0.00     0.315 A 
ATOM     26  C   UNL     1      44.416 129.746  22.739  1.00  0.00     0.035 A 
ATOM     27  N   UNL     1      41.943 130.783  23.536  1.00  0.00    -0.212 N 
ATOM     28  C   UNL     1      43.383 128.926  23.170  1.00  0.00     0.109 A 
ATOM     29  C   UNL     1      42.177 129.447  23.566  1.00  0.00     0.211 A 
ATOM     30  C   UNL     1      43.307 127.500  23.344  1.00  0.00     0.258 C 
ATOM     31  C   UNL     1      41.237 128.369  24.021  1.00  0.00     0.225 C 
ATOM     32  N   UNL     1      42.027 127.147  23.852  1.00  0.00    -0.342 N 
ATOM     33  H   UNL     1      41.017 131.160  23.837  1.00  0.00     0.453 HD
ATOM     34  O   UNL     1      44.226 126.675  23.104  1.00  0.00    -0.269 OA
ATOM     35  H   UNL     1      41.706 126.177  24.071  1.00  0.00     0.164 HD
ENDBRANCH  16  24
ENDBRANCH   1  14
TORSDOF 5
ENDMDL
MODEL 5
REMARK VINA RESULT:      -1.8      3.801      7.571
REMARK SMILES C=C[C@@H](Oc1nc[nH+]c(C)c1C)c1cc2[nH]ccc2cc1-c1c[nH+]c2c(c1)C(=O)NC2
REMARK SMILES IDX 3 1 2 2 1 3 4 4 5 5 6 6 11 7 7 8 9 9 8 10 12 11 10 12 13 14
REMARK SMILES IDX 14 15 21 16 15 17 20 18 16 19 19 20 17 21 18 22 22 24 23 25
REMARK SMILES IDX 27 26 24 27 26 28 25 29 28 30 31 31 30 32 29 34
REMARK H PARENT 8 13 16 23 24 33 30 35
ROOT
ATOM      1  C   UNL     1      47.670 125.983  22.885  1.00  0.00     0.231 C 
ENDROOT
BRANCH   1   2
ATOM      2  C   UNL     1      48.552 125.311  23.902  1.00  0.00     0.014 C 
ATOM      3  C   UNL     1      48.524 123.989  24.094  1.00  0.00     0.008 C 
ENDBRANCH   1   2
BRANCH   1   4
ATOM      4  O   UNL     1      48.231 125.798  21.584  1.00  0.00    -0.447 OA
BRANCH   4   5
ATOM      5  C   UNL     1      49.001 124.690  21.211  1.00  0.00     0.335 A 
ATOM      6  N   UNL     1      48.395 123.518  20.883  1.00  0.00    -0.010 NA
ATOM      7  C   UNL     1      50.404 124.782  21.189  1.00  0.00     0.080 A 
ATOM      8  C   UNL     1      49.116 122.425  20.535  1.00  0.00     0.453 A 
ATOM      9  C   UNL     1      51.137 123.631  20.821  1.00  0.00     0.108 A 
ATOM     10  N   UNL     1      50.471 122.482  20.506  1.00  0.00    -0.247 N 
ATOM     11  C   UNL     1      51.102 126.079  21.522  1.00  0.00     0.057 C 
ATOM     12  C   UNL     1      52.642 123.650  20.768  1.00  0.00     0.093 C 
ATOM     13  H   UNL     1      50.998 121.622  20.231  1.00  0.00     0.311 HD
ENDBRANCH   4   5
ENDBRANCH   1   4
BRANCH   1  14
ATOM     14  C   UNL     1      46.245 125.449  22.975  1.00  0.00     0.007 A 
ATOM     15  C   UNL     1      46.069 124.139  23.483  1.00  0.00     0.035 A 
ATOM     16  C   UNL     1      45.090 126.200  22.563  1.00  0.00    -0.004 A 
ATOM     17  C   UNL     1      44.780 123.627  23.583  1.00  0.00     0.046 A 
ATOM     18  C   UNL     1      43.801 125.636  22.689  1.00  0.00     0.019 A 
ATOM     19  N   UNL     1      44.416 122.423  24.052  1.00  0.00    -0.361 N 
ATOM     20  C   UNL     1      43.689 124.350  23.199  1.00  0.00    -0.000 A 
ATOM     21  C   UNL     1      43.068 122.384  23.963  1.00  0.00     0.083 A 
ATOM     22  C   UNL     1      42.575 123.573  23.433  1.00  0.00     0.028 A 
ATOM     23  H   UNL     1      45.041 121.672  24.421  1.00  0.00     0.166 HD
BRANCH  16  24
ATOM     24  C   UNL     1      45.177 127.587  22.069  1.00  0.00     0.047 A 
ATOM     25  C   UNL     1      46.155 127.965  21.120  1.00  0.00     0.315 A 
ATOM     26  C   UNL     1      44.258 128.548  22.530  1.00  0.00     0.035 A 
ATOM     27  N   UNL     1      46.237 129.258  20.683  1.00  0.00    -0.212 N 
ATOM     28  C   UNL     1      44.379 129.844  22.048  1.00  0.00     0.109 A 
ATOM     29  C   UNL     1      45.358 130.182  21.149  1.00  0.00     0.211 A 
ATOM     30  C   UNL     1      43.644 131.045  22.346  1.00  0.00     0.258 C 
ATOM     31  C   UNL     1      45.308 131.643  20.805  1.00  0.00     0.225 C 
ATOM     32  N   UNL     1      44.186 132.133  21.609  1.00  0.00    -0.342 N 
ATOM     33  H   UNL     1      46.971 129.533  19.996  1.00  0.00     0.453 HD
ATOM     34  O   UNL     1      42.677 131.142  23.145  1.00  0.00    -0.269 OA
ATOM     35  H   UNL     1      43.842 133.119  21.639  1.00  0.00     0.164 HD
ENDBRANCH  16  24
ENDBRANCH   1  14
TORSDOF 5
ENDMDL


