MODEL 1
REMARK VINA RESULT:     -10.1      0.000      0.000
REMARK SMILES c1cc2cc(-c3nc4c(c[nH+]3)CCCC4)ccc2[nH]1
REMARK SMILES IDX 6 1 7 2 8 3 9 4 10 5 11 6 12 7 13 8 14 9 15 10 5 12 1 13
REMARK SMILES IDX 2 14 19 15 3 16 18 17 4 18 17 19 16 20
REMARK H PARENT 11 11 19 21
ROOT
ATOM      1  C   UNL     1      44.478 131.476  17.056  1.00  0.00     0.328 A 
ATOM      2  N   UNL     1      45.620 130.752  16.907  1.00  0.00    -0.045 NA
ATOM      3  C   UNL     1      46.200 130.567  15.692  1.00  0.00     0.159 A 
ATOM      4  C   UNL     1      45.625 131.165  14.555  1.00  0.00     0.038 A 
ATOM      5  C   UNL     1      44.440 131.886  14.722  1.00  0.00     0.205 A 
ATOM      6  N   UNL     1      43.890 132.031  15.957  1.00  0.00    -0.243 N 
ATOM      7  C   UNL     1      46.184 130.946  13.170  1.00  0.00     0.044 C 
ATOM      8  C   UNL     1      47.641 130.472  13.194  1.00  0.00     0.006 C 
ATOM      9  C   UNL     1      47.817 129.330  14.198  1.00  0.00     0.009 C 
ATOM     10  C   UNL     1      47.501 129.811  15.617  1.00  0.00     0.085 C 
ATOM     11  H   UNL     1      42.989 132.553  16.035  1.00  0.00     0.312 HD
ENDROOT
BRANCH   1  12
ATOM     12  C   UNL     1      43.891 131.636  18.410  1.00  0.00     0.069 A 
ATOM     13  C   UNL     1      43.450 131.581  22.931  1.00  0.00     0.083 A 
ATOM     14  C   UNL     1      44.502 131.249  22.083  1.00  0.00     0.028 A 
ATOM     15  N   UNL     1      42.374 131.995  22.223  1.00  0.00    -0.361 N 
ATOM     16  C   UNL     1      44.025 131.480  20.811  1.00  0.00     0.000 A 
ATOM     17  C   UNL     1      42.738 131.929  20.932  1.00  0.00     0.045 A 
ATOM     18  C   UNL     1      44.636 131.316  19.571  1.00  0.00     0.027 A 
ATOM     19  C   UNL     1      41.967 132.244  19.818  1.00  0.00     0.027 A 
ATOM     20  C   UNL     1      42.551 132.091  18.548  1.00  0.00     0.019 A 
ATOM     21  H   UNL     1      41.452 132.300  22.606  1.00  0.00     0.166 HD
ENDBRANCH   1  12
TORSDOF 1
ENDMDL
MODEL 2
REMARK VINA RESULT:      -9.7      0.864      1.616
REMARK SMILES c1cc2cc(-c3nc4c(c[nH+]3)CCCC4)ccc2[nH]1
REMARK SMILES IDX 6 1 7 2 8 3 9 4 10 5 11 6 12 7 13 8 14 9 15 10 5 12 1 13
REMARK SMILES IDX 2 14 19 15 3 16 18 17 4 18 17 19 16 20
REMARK H PARENT 11 11 19 21
ROOT
ATOM      1  C   UNL     1      45.161 131.188  17.428  1.00  0.00     0.328 A 
ATOM      2  N   UNL     1      46.214 130.447  16.988  1.00  0.00    -0.045 NA
ATOM      3  C   UNL     1      46.573 130.418  15.677  1.00  0.00     0.159 A 
ATOM      4  C   UNL     1      45.861 131.200  14.749  1.00  0.00     0.038 A 
ATOM      5  C   UNL     1      44.768 131.937  15.214  1.00  0.00     0.205 A 
ATOM      6  N   UNL     1      44.438 131.921  16.533  1.00  0.00    -0.243 N 
ATOM      7  C   UNL     1      46.170 131.165  13.272  1.00  0.00     0.044 C 
ATOM      8  C   UNL     1      47.578 130.633  12.981  1.00  0.00     0.006 C 
ATOM      9  C   UNL     1      47.841 129.350  13.772  1.00  0.00     0.009 C 
ATOM     10  C   UNL     1      47.792 129.629  15.278  1.00  0.00     0.085 C 
ATOM     11  H   UNL     1      43.598 132.462  16.835  1.00  0.00     0.312 HD
ENDROOT
BRANCH   1  12
ATOM     12  C   UNL     1      44.814 131.171  18.871  1.00  0.00     0.069 A 
ATOM     13  C   UNL     1      42.588 131.921  22.760  1.00  0.00     0.083 A 
ATOM     14  C   UNL     1      42.317 132.262  21.439  1.00  0.00     0.028 A 
ATOM     15  N   UNL     1      43.749 131.233  22.850  1.00  0.00    -0.361 N 
ATOM     16  C   UNL     1      43.370 131.749  20.712  1.00  0.00     0.000 A 
ATOM     17  C   UNL     1      44.215 131.135  21.594  1.00  0.00     0.045 A 
ATOM     18  C   UNL     1      43.634 131.793  19.345  1.00  0.00     0.027 A 
ATOM     19  C   UNL     1      45.391 130.522  21.173  1.00  0.00     0.027 A 
ATOM     20  C   UNL     1      45.691 130.545  19.800  1.00  0.00     0.019 A 
ATOM     21  H   UNL     1      44.190 130.859  23.720  1.00  0.00     0.166 HD
ENDBRANCH   1  12
TORSDOF 1
ENDMDL
MODEL 3
REMARK VINA RESULT:      -9.7      1.630      7.176
REMARK SMILES c1cc2cc(-c3nc4c(c[nH+]3)CCCC4)ccc2[nH]1
REMARK SMILES IDX 6 1 7 2 8 3 9 4 10 5 11 6 12 7 13 8 14 9 15 10 5 12 1 13
REMARK SMILES IDX 2 14 19 15 3 16 18 17 4 18 17 19 16 20
REMARK H PARENT 11 11 19 21
ROOT
ATOM      1  C   UNL     1      45.413 130.908  18.529  1.00  0.00     0.328 A 
ATOM      2  N   UNL     1      44.322 131.609  18.942  1.00  0.00    -0.045 NA
ATOM      3  C   UNL     1      43.897 131.580  20.232  1.00  0.00     0.159 A 
ATOM      4  C   UNL     1      44.618 130.830  21.180  1.00  0.00     0.038 A 
ATOM      5  C   UNL     1      45.721 130.097  20.735  1.00  0.00     0.205 A 
ATOM      6  N   UNL     1      46.099 130.147  19.430  1.00  0.00    -0.243 N 
ATOM      7  C   UNL     1      44.162 130.707  22.614  1.00  0.00     0.044 C 
ATOM      8  C   UNL     1      43.199 131.828  23.021  1.00  0.00     0.006 C 
ATOM      9  C   UNL     1      42.108 132.009  21.963  1.00  0.00     0.009 C 
ATOM     10  C   UNL     1      42.724 132.438  20.628  1.00  0.00     0.085 C 
ATOM     11  H   UNL     1      46.911 129.563  19.132  1.00  0.00     0.312 HD
ENDROOT
BRANCH   1  12
ATOM     12  C   UNL     1      45.823 130.976  17.104  1.00  0.00     0.069 A 
ATOM     13  C   UNL     1      47.744 129.885  13.134  1.00  0.00     0.083 A 
ATOM     14  C   UNL     1      47.706 129.246  14.369  1.00  0.00     0.028 A 
ATOM     15  N   UNL     1      47.062 131.053  13.177  1.00  0.00    -0.361 N 
ATOM     16  C   UNL     1      46.963 130.075  15.181  1.00  0.00     0.000 A 
ATOM     17  C   UNL     1      46.590 131.156  14.430  1.00  0.00     0.045 A 
ATOM     18  C   UNL     1      46.603 129.948  16.520  1.00  0.00     0.027 A 
ATOM     19  C   UNL     1      45.834 132.194  14.966  1.00  0.00     0.027 A 
ATOM     20  C   UNL     1      45.451 132.100  16.316  1.00  0.00     0.019 A 
ATOM     21  H   UNL     1      46.934 131.732  12.394  1.00  0.00     0.166 HD
ENDBRANCH   1  12
TORSDOF 1
ENDMDL
MODEL 4
REMARK VINA RESULT:      -9.6      1.365      6.839
REMARK SMILES c1cc2cc(-c3nc4c(c[nH+]3)CCCC4)ccc2[nH]1
REMARK SMILES IDX 6 1 7 2 8 3 9 4 10 5 11 6 12 7 13 8 14 9 15 10 5 12 1 13
REMARK SMILES IDX 2 14 19 15 3 16 18 17 4 18 17 19 16 20
REMARK H PARENT 11 11 19 21
ROOT
ATOM      1  C   UNL     1      44.174 131.467  17.831  1.00  0.00     0.328 A 
ATOM      2  N   UNL     1      44.820 131.162  18.989  1.00  0.00    -0.045 NA
ATOM      3  C   UNL     1      44.251 131.371  20.205  1.00  0.00     0.159 A 
ATOM      4  C   UNL     1      42.943 131.887  20.275  1.00  0.00     0.038 A 
ATOM      5  C   UNL     1      42.303 132.216  19.078  1.00  0.00     0.205 A 
ATOM      6  N   UNL     1      42.920 132.003  17.886  1.00  0.00    -0.243 N 
ATOM      7  C   UNL     1      42.279 132.200  21.594  1.00  0.00     0.044 C 
ATOM      8  C   UNL     1      42.928 131.457  22.768  1.00  0.00     0.006 C 
ATOM      9  C   UNL     1      44.451 131.593  22.713  1.00  0.00     0.009 C 
ATOM     10  C   UNL     1      45.001 130.943  21.439  1.00  0.00     0.085 C 
ATOM     11  H   UNL     1      42.419 132.289  17.015  1.00  0.00     0.312 HD
ENDROOT
BRANCH   1  12
ATOM     12  C   UNL     1      44.853 131.221  16.534  1.00  0.00     0.069 A 
ATOM     13  C   UNL     1      47.932 129.831  13.497  1.00  0.00     0.083 A 
ATOM     14  C   UNL     1      47.850 129.706  14.880  1.00  0.00     0.028 A 
ATOM     15  N   UNL     1      46.863 130.503  13.011  1.00  0.00    -0.361 N 
ATOM     16  C   UNL     1      46.674 130.334  15.229  1.00  0.00     0.000 A 
ATOM     17  C   UNL     1      46.105 130.804  14.078  1.00  0.00     0.045 A 
ATOM     18  C   UNL     1      46.084 130.524  16.476  1.00  0.00     0.027 A 
ATOM     19  C   UNL     1      44.902 131.504  14.090  1.00  0.00     0.027 A 
ATOM     20  C   UNL     1      44.276 131.715  15.331  1.00  0.00     0.019 A 
ATOM     21  H   UNL     1      46.674 130.740  12.012  1.00  0.00     0.166 HD
ENDBRANCH   1  12
TORSDOF 1
ENDMDL
MODEL 5
REMARK VINA RESULT:      -9.1      1.524      6.982
REMARK SMILES c1cc2cc(-c3nc4c(c[nH+]3)CCCC4)ccc2[nH]1
REMARK SMILES IDX 6 1 7 2 8 3 9 4 10 5 11 6 12 7 13 8 14 9 15 10 5 12 1 13
REMARK SMILES IDX 2 14 19 15 3 16 18 17 4 18 17 19 16 20
REMARK H PARENT 11 11 19 21
ROOT
ATOM      1  C   UNL     1      44.376 131.228  17.962  1.00  0.00     0.328 A 
ATOM      2  N   UNL     1      44.878 131.008  19.208  1.00  0.00    -0.045 NA
ATOM      3  C   UNL     1      44.204 131.377  20.329  1.00  0.00     0.159 A 
ATOM      4  C   UNL     1      42.936 131.975  20.206  1.00  0.00     0.038 A 
ATOM      5  C   UNL     1      42.446 132.215  18.920  1.00  0.00     0.205 A 
ATOM      6  N   UNL     1      43.164 131.842  17.829  1.00  0.00    -0.243 N 
ATOM      7  C   UNL     1      42.165 132.464  21.409  1.00  0.00     0.044 C 
ATOM      8  C   UNL     1      42.636 131.810  22.713  1.00  0.00     0.006 C 
ATOM      9  C   UNL     1      44.163 131.848  22.810  1.00  0.00     0.009 C 
ATOM     10  C   UNL     1      44.792 131.036  21.673  1.00  0.00     0.085 C 
ATOM     11  H   UNL     1      42.776 132.065  16.885  1.00  0.00     0.312 HD
ENDROOT
BRANCH   1  12
ATOM     12  C   UNL     1      45.164 130.808  16.777  1.00  0.00     0.069 A 
ATOM     13  C   UNL     1      47.762 131.018  13.056  1.00  0.00     0.083 A 
ATOM     14  C   UNL     1      47.277 131.993  13.923  1.00  0.00     0.028 A 
ATOM     15  N   UNL     1      47.354 129.787  13.441  1.00  0.00    -0.361 N 
ATOM     16  C   UNL     1      46.547 131.304  14.867  1.00  0.00     0.000 A 
ATOM     17  C   UNL     1      46.614 129.975  14.546  1.00  0.00     0.045 A 
ATOM     18  C   UNL     1      45.832 131.761  15.970  1.00  0.00     0.027 A 
ATOM     19  C   UNL     1      45.964 129.007  15.305  1.00  0.00     0.027 A 
ATOM     20  C   UNL     1      45.232 129.431  16.427  1.00  0.00     0.019 A 
ATOM     21  H   UNL     1      47.569 128.880  12.970  1.00  0.00     0.166 HD
ENDBRANCH   1  12
TORSDOF 1
ENDMDL
MODEL 6
REMARK VINA RESULT:      -9.0      0.918      1.045
REMARK SMILES c1cc2cc(-c3nc4c(c[nH+]3)CCCC4)ccc2[nH]1
REMARK SMILES IDX 6 1 7 2 8 3 9 4 10 5 11 6 12 7 13 8 14 9 15 10 5 12 1 13
REMARK SMILES IDX 2 14 19 15 3 16 18 17 4 18 17 19 16 20
REMARK H PARENT 11 11 19 21
ROOT
ATOM      1  C   UNL     1      44.112 131.456  17.950  1.00  0.00     0.328 A 
ATOM      2  N   UNL     1      45.282 130.837  17.639  1.00  0.00    -0.045 NA
ATOM      3  C   UNL     1      45.693 130.683  16.352  1.00  0.00     0.159 A 
ATOM      4  C   UNL     1      44.905 131.204  15.309  1.00  0.00     0.038 A 
ATOM      5  C   UNL     1      43.694 131.817  15.645  1.00  0.00     0.205 A 
ATOM      6  N   UNL     1      43.320 131.933  16.946  1.00  0.00    -0.243 N 
ATOM      7  C   UNL     1      45.273 131.012  13.858  1.00  0.00     0.044 C 
ATOM      8  C   UNL     1      46.757 130.674  13.670  1.00  0.00     0.006 C 
ATOM      9  C   UNL     1      47.184 129.572  14.642  1.00  0.00     0.009 C 
ATOM     10  C   UNL     1      47.034 130.049  16.091  1.00  0.00     0.085 C 
ATOM     11  H   UNL     1      42.395 132.371  17.153  1.00  0.00     0.312 HD
ENDROOT
BRANCH   1  12
ATOM     12  C   UNL     1      43.716 131.587  19.374  1.00  0.00     0.069 A 
ATOM     13  C   UNL     1      43.653 131.017  23.881  1.00  0.00     0.083 A 
ATOM     14  C   UNL     1      44.477 130.514  22.880  1.00  0.00     0.028 A 
ATOM     15  N   UNL     1      42.703 131.828  23.360  1.00  0.00    -0.361 N 
ATOM     16  C   UNL     1      43.992 131.055  21.709  1.00  0.00     0.000 A 
ATOM     17  C   UNL     1      42.921 131.842  22.035  1.00  0.00     0.045 A 
ATOM     18  C   UNL     1      44.419 130.898  20.393  1.00  0.00     0.027 A 
ATOM     19  C   UNL     1      42.196 132.527  21.065  1.00  0.00     0.027 A 
ATOM     20  C   UNL     1      42.598 132.393  19.725  1.00  0.00     0.019 A 
ATOM     21  H   UNL     1      41.955 132.333  23.884  1.00  0.00     0.166 HD
ENDBRANCH   1  12
TORSDOF 1
ENDMDL
MODEL 7
REMARK VINA RESULT:      -7.5      1.689      7.216
REMARK SMILES c1cc2cc(-c3nc4c(c[nH+]3)CCCC4)ccc2[nH]1
REMARK SMILES IDX 6 1 7 2 8 3 9 4 10 5 11 6 12 7 13 8 14 9 15 10 5 12 1 13
REMARK SMILES IDX 2 14 19 15 3 16 18 17 4 18 17 19 16 20
REMARK H PARENT 11 11 19 21
ROOT
ATOM      1  C   UNL     1      43.958 131.374  19.689  1.00  0.00     0.328 A 
ATOM      2  N   UNL     1      44.432 130.660  20.746  1.00  0.00    -0.045 NA
ATOM      3  C   UNL     1      43.948 130.833  22.004  1.00  0.00     0.159 A 
ATOM      4  C   UNL     1      42.905 131.752  22.221  1.00  0.00     0.038 A 
ATOM      5  C   UNL     1      42.446 132.494  21.129  1.00  0.00     0.205 A 
ATOM      6  N   UNL     1      42.972 132.295  19.892  1.00  0.00    -0.243 N 
ATOM      7  C   UNL     1      42.367 132.036  23.603  1.00  0.00     0.044 C 
ATOM      8  C   UNL     1      42.688 130.916  24.598  1.00  0.00     0.006 C 
ATOM      9  C   UNL     1      44.162 130.518  24.500  1.00  0.00     0.009 C 
ATOM     10  C   UNL     1      44.474 129.956  23.110  1.00  0.00     0.085 C 
ATOM     11  H   UNL     1      42.622 132.889  19.108  1.00  0.00     0.312 HD
ENDROOT
BRANCH   1  12
ATOM     12  C   UNL     1      44.534 131.143  18.340  1.00  0.00     0.069 A 
ATOM     13  C   UNL     1      45.025 131.156  13.824  1.00  0.00     0.083 A 
ATOM     14  C   UNL     1      44.046 131.673  14.666  1.00  0.00     0.028 A 
ATOM     15  N   UNL     1      45.996 130.541  14.537  1.00  0.00    -0.361 N 
ATOM     16  C   UNL     1      44.460 131.349  15.940  1.00  0.00     0.000 A 
ATOM     17  C   UNL     1      45.640 130.666  15.825  1.00  0.00     0.045 A 
ATOM     18  C   UNL     1      43.873 131.605  17.176  1.00  0.00     0.027 A 
ATOM     19  C   UNL     1      46.317 130.184  16.942  1.00  0.00     0.027 A 
ATOM     20  C   UNL     1      45.754 130.424  18.208  1.00  0.00     0.019 A 
ATOM     21  H   UNL     1      46.845 130.065  14.158  1.00  0.00     0.166 HD
ENDBRANCH   1  12
TORSDOF 1
ENDMDL
MODEL 8
REMARK VINA RESULT:      -7.5      1.098      2.147
REMARK SMILES c1cc2cc(-c3nc4c(c[nH+]3)CCCC4)ccc2[nH]1
REMARK SMILES IDX 6 1 7 2 8 3 9 4 10 5 11 6 12 7 13 8 14 9 15 10 5 12 1 13
REMARK SMILES IDX 2 14 19 15 3 16 18 17 4 18 17 19 16 20
REMARK H PARENT 11 11 19 21
ROOT
ATOM      1  C   UNL     1      44.854 131.011  18.572  1.00  0.00     0.328 A 
ATOM      2  N   UNL     1      44.467 131.486  17.357  1.00  0.00    -0.045 NA
ATOM      3  C   UNL     1      45.142 131.180  16.218  1.00  0.00     0.159 A 
ATOM      4  C   UNL     1      46.255 130.322  16.285  1.00  0.00     0.038 A 
ATOM      5  C   UNL     1      46.653 129.861  17.542  1.00  0.00     0.205 A 
ATOM      6  N   UNL     1      45.955 130.208  18.656  1.00  0.00    -0.243 N 
ATOM      7  C   UNL     1      47.083 129.994  15.066  1.00  0.00     0.044 C 
ATOM      8  C   UNL     1      46.328 130.250  13.757  1.00  0.00     0.006 C 
ATOM      9  C   UNL     1      45.657 131.625  13.786  1.00  0.00     0.009 C 
ATOM     10  C   UNL     1      44.611 131.688  14.903  1.00  0.00     0.085 C 
ATOM     11  H   UNL     1      46.301 129.866  19.579  1.00  0.00     0.312 HD
ENDROOT
BRANCH   1  12
ATOM     12  C   UNL     1      44.080 131.388  19.780  1.00  0.00     0.069 A 
ATOM     13  C   UNL     1      42.815 131.747  24.129  1.00  0.00     0.083 A 
ATOM     14  C   UNL     1      43.903 131.138  23.512  1.00  0.00     0.028 A 
ATOM     15  N   UNL     1      42.008 132.331  23.213  1.00  0.00    -0.361 N 
ATOM     16  C   UNL     1      43.732 131.376  22.165  1.00  0.00     0.000 A 
ATOM     17  C   UNL     1      42.579 132.098  22.020  1.00  0.00     0.045 A 
ATOM     18  C   UNL     1      44.508 130.999  21.072  1.00  0.00     0.027 A 
ATOM     19  C   UNL     1      42.115 132.491  20.769  1.00  0.00     0.027 A 
ATOM     20  C   UNL     1      42.873 132.129  19.642  1.00  0.00     0.019 A 
ATOM     21  H   UNL     1      41.123 132.853  23.401  1.00  0.00     0.166 HD
ENDBRANCH   1  12
TORSDOF 1
ENDMDL
MODEL 9
REMARK VINA RESULT:      -7.3      0.961      1.757
REMARK SMILES c1cc2cc(-c3nc4c(c[nH+]3)CCCC4)ccc2[nH]1
REMARK SMILES IDX 6 1 7 2 8 3 9 4 10 5 11 6 12 7 13 8 14 9 15 10 5 12 1 13
REMARK SMILES IDX 2 14 19 15 3 16 18 17 4 18 17 19 16 20
REMARK H PARENT 11 11 19 21
ROOT
ATOM      1  C   UNL     1      45.265 130.748  17.507  1.00  0.00     0.328 A 
ATOM      2  N   UNL     1      45.525 131.591  16.472  1.00  0.00    -0.045 NA
ATOM      3  C   UNL     1      46.306 131.221  15.423  1.00  0.00     0.159 A 
ATOM      4  C   UNL     1      46.837 129.919  15.384  1.00  0.00     0.038 A 
ATOM      5  C   UNL     1      46.580 129.073  16.466  1.00  0.00     0.205 A 
ATOM      6  N   UNL     1      45.805 129.494  17.500  1.00  0.00    -0.243 N 
ATOM      7  C   UNL     1      47.762 129.468  14.279  1.00  0.00     0.044 C 
ATOM      8  C   UNL     1      47.644 130.339  13.023  1.00  0.00     0.006 C 
ATOM      9  C   UNL     1      47.686 131.823  13.395  1.00  0.00     0.009 C 
ATOM     10  C   UNL     1      46.491 132.187  14.282  1.00  0.00     0.085 C 
ATOM     11  H   UNL     1      45.660 128.842  18.302  1.00  0.00     0.312 HD
ENDROOT
BRANCH   1  12
ATOM     12  C   UNL     1      44.410 131.214  18.627  1.00  0.00     0.069 A 
ATOM     13  C   UNL     1      42.897 131.974  22.843  1.00  0.00     0.083 A 
ATOM     14  C   UNL     1      44.041 131.355  22.350  1.00  0.00     0.028 A 
ATOM     15  N   UNL     1      42.118 132.419  21.830  1.00  0.00    -0.361 N 
ATOM     16  C   UNL     1      43.934 131.440  20.979  1.00  0.00     0.000 A 
ATOM     17  C   UNL     1      42.762 132.087  20.700  1.00  0.00     0.045 A 
ATOM     18  C   UNL     1      44.784 130.985  19.974  1.00  0.00     0.027 A 
ATOM     19  C   UNL     1      42.351 132.323  19.391  1.00  0.00     0.027 A 
ATOM     20  C   UNL     1      43.184 131.878  18.349  1.00  0.00     0.019 A 
ATOM     21  H   UNL     1      41.203 132.915  21.915  1.00  0.00     0.166 HD
ENDBRANCH   1  12
TORSDOF 1
ENDMDL


