REMARK SMILES O=C([N-]c1cc(F)c(F)cc1[NH2+]c1ccc(F)cc1)[C@H]1C[C@H](O)C[NH2+]1
REMARK SMILES IDX 3 1 2 2 1 3 20 4 21 5 25 6 22 7 24 8 23 11 4 13 5 14 11 15
REMARK SMILES IDX 6 16 10 17 8 18 7 19 9 20 12 21 13 24 14 25 19 26 15 27
REMARK SMILES IDX 18 28 16 29 17 30
REMARK H PARENT 25 9 25 10 23 12 12 22 12 23
ROOT
ATOM      1  N   UNL     1       0.456  -0.829   1.076  1.00  0.00    -0.617 NA
ENDROOT
BRANCH   1   2
ATOM      2  C   UNL     1       0.470  -0.489   2.468  1.00  0.00     0.113 C 
ATOM      3  O   UNL     1       0.277  -1.369   3.348  1.00  0.00    -0.314 OA
BRANCH   2   4
ATOM      4  C   UNL     1       0.801   0.921   2.887  1.00  0.00     0.234 C 
ATOM      5  C   UNL     1       2.243   1.302   2.550  1.00  0.00     0.109 C 
ATOM      6  N   UNL     1      -0.070   1.905   2.234  1.00  0.00    -0.337 N 
ATOM      7  C   UNL     1       2.173   2.745   2.057  1.00  0.00     0.175 C 
ATOM      8  C   UNL     1       0.706   3.142   2.182  1.00  0.00     0.293 C 
ATOM      9  H   UNL     1      -0.949   2.046   2.784  1.00  0.00     0.346 HD
ATOM     10  H   UNL     1      -0.310   1.618   1.255  1.00  0.00     0.346 HD
BRANCH   7  11
ATOM     11  O   UNL     1       2.977   3.591   2.837  1.00  0.00    -0.387 OA
ATOM     12  H   UNL     1       3.916   3.409   2.571  1.00  0.00     0.211 HD
ENDBRANCH   7  11
ENDBRANCH   2   4
ENDBRANCH   1   2
BRANCH   1  13
ATOM     13  C   UNL     1      -0.104  -1.998   0.459  1.00  0.00    -0.068 A 
ATOM     14  C   UNL     1      -1.092  -2.768   1.103  1.00  0.00     0.032 A 
ATOM     15  C   UNL     1       0.290  -2.334  -0.858  1.00  0.00     0.123 A 
ATOM     16  C   UNL     1      -1.651  -3.878   0.466  1.00  0.00     0.158 A 
ATOM     17  C   UNL     1      -0.290  -3.452  -1.486  1.00  0.00     0.109 A 
ATOM     18  C   UNL     1      -1.248  -4.222  -0.825  1.00  0.00     0.164 A 
ATOM     19  F   UNL     1      -2.600  -4.612   1.098  1.00  0.00    -0.204 F 
ATOM     20  F   UNL     1      -1.796  -5.296  -1.445  1.00  0.00    -0.204 F 
BRANCH  15  21
ATOM     21  N   UNL     1       1.262  -1.533  -1.569  1.00  0.00    -0.283 N 
ATOM     22  H   UNL     1       2.084  -1.357  -0.946  1.00  0.00     0.358 HD
ATOM     23  H   UNL     1       1.627  -2.045  -2.406  1.00  0.00     0.358 HD
BRANCH  21  24
ATOM     24  C   UNL     1       0.667  -0.294  -2.009  1.00  0.00     0.134 A 
ATOM     25  C   UNL     1      -0.308  -0.292  -3.023  1.00  0.00     0.071 A 
ATOM     26  C   UNL     1       1.054   0.931  -1.433  1.00  0.00     0.071 A 
ATOM     27  C   UNL     1      -0.900   0.907  -3.433  1.00  0.00     0.045 A 
ATOM     28  C   UNL     1       0.462   2.127  -1.846  1.00  0.00     0.045 A 
ATOM     29  C   UNL     1      -0.518   2.115  -2.843  1.00  0.00     0.123 A 
ATOM     30  F   UNL     1      -1.095   3.276  -3.239  1.00  0.00    -0.207 F 
ENDBRANCH  21  24
ENDBRANCH  15  21
ENDBRANCH   1  13
TORSDOF 6


