REMARK SMILES C=Cc1cc(-c2ccc3c(c2)[C@@H](N)CC3)c(F)cc1N
REMARK SMILES IDX 6 1 7 2 8 3 9 4 10 5 11 6 12 7 14 8 15 9 5 10 3 11 4 12
REMARK SMILES IDX 19 13 18 14 16 15 17 16 2 17 1 18 20 19 13 22
REMARK H PARENT 20 20 20 21 13 23 13 24
ROOT
ATOM      1  C   UNL     1      -0.195   0.373   0.753  1.00  0.00    -0.015 A 
ATOM      2  C   UNL     1      -0.768   0.797   1.974  1.00  0.00     0.009 A 
ATOM      3  C   UNL     1      -2.161   0.820   2.138  1.00  0.00     0.005 A 
ATOM      4  C   UNL     1      -2.970   0.415   1.076  1.00  0.00    -0.043 A 
ATOM      5  C   UNL     1      -2.426  -0.012  -0.108  1.00  0.00    -0.027 A 
ATOM      6  C   UNL     1      -1.042  -0.038  -0.298  1.00  0.00     0.014 A 
ATOM      7  C   UNL     1      -3.468  -0.404  -1.093  1.00  0.00     0.081 C 
ATOM      8  C   UNL     1      -4.793  -0.025  -0.388  1.00  0.00     0.028 C 
ATOM      9  C   UNL     1      -4.449   0.372   1.060  1.00  0.00     0.038 C 
ENDROOT
BRANCH   1  10
ATOM     10  C   UNL     1       1.278   0.343   0.582  1.00  0.00     0.018 A 
ATOM     11  C   UNL     1       3.294  -0.850  -0.136  1.00  0.00    -0.002 A 
ATOM     12  C   UNL     1       1.897  -0.793   0.035  1.00  0.00     0.022 A 
ATOM     13  C   UNL     1       4.079   0.265   0.244  1.00  0.00     0.042 A 
ATOM     14  C   UNL     1       3.453   1.401   0.776  1.00  0.00     0.066 A 
ATOM     15  C   UNL     1       2.069   1.444   0.947  1.00  0.00     0.133 A 
ATOM     16  F   UNL     1       1.502   2.576   1.436  1.00  0.00    -0.206 F 
BRANCH  11  17
ATOM     17  C   UNL     1       3.915  -2.042  -0.766  1.00  0.00     0.002 C 
ATOM     18  C   UNL     1       3.474  -3.283  -0.558  1.00  0.00     0.009 C 
ENDBRANCH  11  17
BRANCH  13  19
ATOM     19  N   UNL     1       5.510   0.256   0.133  1.00  0.00    -0.398 N 
ATOM     20  H   UNL     1       6.063   1.113   0.360  1.00  0.00     0.156 HD
ATOM     21  H   UNL     1       6.047  -0.606  -0.101  1.00  0.00     0.156 HD
ENDBRANCH  13  19
ENDBRANCH   1  10
BRANCH   7  22
ATOM     22  N   UNL     1      -3.408  -1.843  -1.350  1.00  0.00    -0.324 NA
ATOM     23  H   UNL     1      -2.504  -2.053  -1.833  1.00  0.00     0.119 HD
ATOM     24  H   UNL     1      -4.160  -2.079  -2.039  1.00  0.00     0.119 HD
ENDBRANCH   7  22
TORSDOF 4


