MODEL 1
REMARK VINA RESULT:      -4.7      0.000      0.000
REMARK SMILES Cc1cc(N)c(OC(=O)/C=C(\[NH3+])C(N)=O)c(-n2nc3ccccc3n2)c1
REMARK SMILES IDX 8 1 9 2 10 3 11 4 13 5 14 6 15 7 12 10 7 14 6 15 4 16 16 17
REMARK SMILES IDX 3 18 26 19 2 20 1 21 5 22 17 25 18 26 25 27 19 28 24 29
REMARK SMILES IDX 20 30 23 31 21 32 22 33
REMARK H PARENT 14 8 14 9 12 11 12 12 12 13 5 23 5 24
ROOT
ATOM      1  C   UNL     1      44.885 128.112  22.865  1.00  0.00     0.342 C 
ATOM      2  O   UNL     1      45.517 127.826  21.811  1.00  0.00    -0.246 OA
ENDROOT
BRANCH   1   3
ATOM      3  C   UNL     1      44.225 129.421  23.029  1.00  0.00     0.167 C 
BRANCH   3   4
ATOM      4  C   UNL     1      44.322 130.456  22.164  1.00  0.00     0.200 C 
BRANCH   4   5
ATOM      5  C   UNL     1      43.157 131.363  21.989  1.00  0.00     0.302 C 
ATOM      6  N   UNL     1      42.481 131.457  20.733  1.00  0.00    -0.361 N 
ATOM      7  O   UNL     1      42.743 132.055  22.958  1.00  0.00    -0.263 OA
ATOM      8  H   UNL     1      41.696 132.134  20.612  1.00  0.00     0.160 HD
ATOM      9  H   UNL     1      42.703 130.809  19.945  1.00  0.00     0.160 HD
ENDBRANCH   4   5
BRANCH   4  10
ATOM     10  N   UNL     1      45.522 130.687  21.401  1.00  0.00    -0.320 N 
ATOM     11  H   UNL     1      46.356 130.585  22.022  1.00  0.00     0.350 HD
ATOM     12  H   UNL     1      45.595 130.006  20.612  1.00  0.00     0.350 HD
ATOM     13  H   UNL     1      45.502 131.637  20.964  1.00  0.00     0.350 HD
ENDBRANCH   4  10
ENDBRANCH   3   4
ENDBRANCH   1   3
BRANCH   1  14
ATOM     14  O   UNL     1      44.759 127.166  23.890  1.00  0.00    -0.419 OA
BRANCH  14  15
ATOM     15  C   UNL     1      44.051 125.965  23.749  1.00  0.00     0.181 A 
ATOM     16  C   UNL     1      42.686 125.936  24.091  1.00  0.00     0.078 A 
ATOM     17  C   UNL     1      44.678 124.789  23.266  1.00  0.00     0.131 A 
ATOM     18  C   UNL     1      41.942 124.764  23.897  1.00  0.00     0.033 A 
ATOM     19  C   UNL     1      43.911 123.634  23.059  1.00  0.00     0.037 A 
ATOM     20  C   UNL     1      42.549 123.611  23.384  1.00  0.00    -0.047 A 
ATOM     21  C   UNL     1      41.733 122.376  23.136  1.00  0.00     0.044 C 
BRANCH  16  22
ATOM     22  N   UNL     1      42.039 127.104  24.606  1.00  0.00    -0.396 N 
ATOM     23  H   UNL     1      40.998 127.146  24.686  1.00  0.00     0.156 HD
ATOM     24  H   UNL     1      42.585 127.939  24.917  1.00  0.00     0.156 HD
ENDBRANCH  16  22
BRANCH  17  25
ATOM     25  N   UNL     1      46.094 124.744  23.023  1.00  0.00    -0.146 N 
ATOM     26  N   UNL     1      47.005 125.198  23.883  1.00  0.00    -0.148 NA
ATOM     27  N   UNL     1      46.632 124.232  21.917  1.00  0.00    -0.148 NA
ATOM     28  C   UNL     1      48.183 124.977  23.282  1.00  0.00     0.113 A 
ATOM     29  C   UNL     1      47.955 124.385  22.078  1.00  0.00     0.113 A 
ATOM     30  C   UNL     1      49.464 125.289  23.725  1.00  0.00     0.032 A 
ATOM     31  C   UNL     1      48.987 124.046  21.211  1.00  0.00     0.032 A 
ATOM     32  C   UNL     1      50.539 124.962  22.875  1.00  0.00     0.002 A 
ATOM     33  C   UNL     1      50.302 124.341  21.624  1.00  0.00     0.002 A 
ENDBRANCH  17  25
ENDBRANCH  14  15
ENDBRANCH   1  14
TORSDOF 8
ENDMDL
MODEL 2
REMARK VINA RESULT:      -3.7      6.430      7.959
REMARK SMILES Cc1cc(N)c(OC(=O)/C=C(\[NH3+])C(N)=O)c(-n2nc3ccccc3n2)c1
REMARK SMILES IDX 8 1 9 2 10 3 11 4 13 5 14 6 15 7 12 10 7 14 6 15 4 16 16 17
REMARK SMILES IDX 3 18 26 19 2 20 1 21 5 22 17 25 18 26 25 27 19 28 24 29
REMARK SMILES IDX 20 30 23 31 21 32 22 33
REMARK H PARENT 14 8 14 9 12 11 12 12 12 13 5 23 5 24
ROOT
ATOM      1  C   UNL     1      47.211 132.151  21.032  1.00  0.00     0.342 C 
ATOM      2  O   UNL     1      48.366 131.839  20.630  1.00  0.00    -0.246 OA
ENDROOT
BRANCH   1   3
ATOM      3  C   UNL     1      46.930 133.488  21.586  1.00  0.00     0.167 C 
BRANCH   3   4
ATOM      4  C   UNL     1      47.777 134.205  22.359  1.00  0.00     0.200 C 
BRANCH   4   5
ATOM      5  C   UNL     1      48.457 135.393  21.778  1.00  0.00     0.302 C 
ATOM      6  N   UNL     1      49.741 135.807  22.248  1.00  0.00    -0.361 N 
ATOM      7  O   UNL     1      47.907 136.045  20.849  1.00  0.00    -0.263 OA
ATOM      8  H   UNL     1      50.183 136.671  21.864  1.00  0.00     0.160 HD
ATOM      9  H   UNL     1      50.290 135.225  22.918  1.00  0.00     0.160 HD
ENDBRANCH   4   5
BRANCH   4  10
ATOM     10  N   UNL     1      48.044 133.833  23.725  1.00  0.00    -0.320 N 
ATOM     11  H   UNL     1      48.916 134.306  24.052  1.00  0.00     0.350 HD
ATOM     12  H   UNL     1      47.249 134.108  24.345  1.00  0.00     0.350 HD
ATOM     13  H   UNL     1      48.134 132.795  23.812  1.00  0.00     0.350 HD
ENDBRANCH   4  10
ENDBRANCH   3   4
ENDBRANCH   1   3
BRANCH   1  14
ATOM     14  O   UNL     1      46.155 131.238  20.916  1.00  0.00    -0.419 OA
BRANCH  14  15
ATOM     15  C   UNL     1      44.810 131.622  20.826  1.00  0.00     0.181 A 
ATOM     16  C   UNL     1      44.076 131.814  22.011  1.00  0.00     0.078 A 
ATOM     17  C   UNL     1      44.182 131.825  19.572  1.00  0.00     0.131 A 
ATOM     18  C   UNL     1      42.750 132.260  21.947  1.00  0.00     0.033 A 
ATOM     19  C   UNL     1      42.860 132.293  19.530  1.00  0.00     0.037 A 
ATOM     20  C   UNL     1      42.136 132.499  20.711  1.00  0.00    -0.047 A 
ATOM     21  C   UNL     1      40.731 133.023  20.655  1.00  0.00     0.044 C 
BRANCH  16  22
ATOM     22  N   UNL     1      44.683 131.588  23.289  1.00  0.00    -0.396 N 
ATOM     23  H   UNL     1      44.157 131.105  24.051  1.00  0.00     0.156 HD
ATOM     24  H   UNL     1      45.661 131.894  23.490  1.00  0.00     0.156 HD
ENDBRANCH  16  22
BRANCH  17  25
ATOM     25  N   UNL     1      44.858 131.523  18.340  1.00  0.00    -0.146 N 
ATOM     26  N   UNL     1      45.495 130.375  18.110  1.00  0.00    -0.148 NA
ATOM     27  N   UNL     1      44.903 132.359  17.304  1.00  0.00    -0.148 NA
ATOM     28  C   UNL     1      45.982 130.497  16.868  1.00  0.00     0.113 A 
ATOM     29  C   UNL     1      45.620 131.711  16.374  1.00  0.00     0.113 A 
ATOM     30  C   UNL     1      46.758 129.600  16.141  1.00  0.00     0.032 A 
ATOM     31  C   UNL     1      45.996 132.137  15.104  1.00  0.00     0.032 A 
ATOM     32  C   UNL     1      47.160 129.993  14.849  1.00  0.00     0.002 A 
ATOM     33  C   UNL     1      46.779 131.256  14.332  1.00  0.00     0.002 A 
ENDBRANCH  17  25
ENDBRANCH  14  15
ENDBRANCH   1  14
TORSDOF 8
ENDMDL
MODEL 3
REMARK VINA RESULT:      -3.6      3.714      5.905
REMARK SMILES Cc1cc(N)c(OC(=O)/C=C(\[NH3+])C(N)=O)c(-n2nc3ccccc3n2)c1
REMARK SMILES IDX 8 1 9 2 10 3 11 4 13 5 14 6 15 7 12 10 7 14 6 15 4 16 16 17
REMARK SMILES IDX 3 18 26 19 2 20 1 21 5 22 17 25 18 26 25 27 19 28 24 29
REMARK SMILES IDX 20 30 23 31 21 32 22 33
REMARK H PARENT 14 8 14 9 12 11 12 12 12 13 5 23 5 24
ROOT
ATOM      1  C   UNL     1      45.226 130.244  18.660  1.00  0.00     0.342 C 
ATOM      2  O   UNL     1      44.076 130.719  18.455  1.00  0.00    -0.246 OA
ENDROOT
BRANCH   1   3
ATOM      3  C   UNL     1      46.229 130.177  17.581  1.00  0.00     0.167 C 
BRANCH   3   4
ATOM      4  C   UNL     1      45.956 129.960  16.275  1.00  0.00     0.200 C 
BRANCH   4   5
ATOM      5  C   UNL     1      46.147 131.068  15.303  1.00  0.00     0.302 C 
ATOM      6  N   UNL     1      45.127 132.048  15.096  1.00  0.00    -0.361 N 
ATOM      7  O   UNL     1      47.224 131.162  14.654  1.00  0.00    -0.263 OA
ATOM      8  H   UNL     1      45.256 132.792  14.375  1.00  0.00     0.160 HD
ATOM      9  H   UNL     1      44.279 132.087  15.702  1.00  0.00     0.160 HD
ENDBRANCH   4   5
BRANCH   4  10
ATOM     10  N   UNL     1      45.470 128.685  15.811  1.00  0.00    -0.320 N 
ATOM     11  H   UNL     1      44.432 128.643  15.928  1.00  0.00     0.350 HD
ATOM     12  H   UNL     1      45.710 128.542  14.804  1.00  0.00     0.350 HD
ATOM     13  H   UNL     1      45.930 127.905  16.333  1.00  0.00     0.350 HD
ENDBRANCH   4  10
ENDBRANCH   3   4
ENDBRANCH   1   3
BRANCH   1  14
ATOM     14  O   UNL     1      45.589 129.806  19.940  1.00  0.00    -0.419 OA
BRANCH  14  15
ATOM     15  C   UNL     1      45.034 130.324  21.118  1.00  0.00     0.181 A 
ATOM     16  C   UNL     1      44.800 131.708  21.209  1.00  0.00     0.078 A 
ATOM     17  C   UNL     1      44.701 129.483  22.210  1.00  0.00     0.131 A 
ATOM     18  C   UNL     1      44.185 132.239  22.352  1.00  0.00     0.033 A 
ATOM     19  C   UNL     1      44.067 130.031  23.334  1.00  0.00     0.037 A 
ATOM     20  C   UNL     1      43.820 131.407  23.417  1.00  0.00    -0.047 A 
ATOM     21  C   UNL     1      43.119 131.978  24.615  1.00  0.00     0.044 C 
BRANCH  16  22
ATOM     22  N   UNL     1      45.153 132.580  20.130  1.00  0.00    -0.396 N 
ATOM     23  H   UNL     1      45.913 132.321  19.461  1.00  0.00     0.156 HD
ATOM     24  H   UNL     1      44.662 133.490  19.980  1.00  0.00     0.156 HD
ENDBRANCH  16  22
BRANCH  17  25
ATOM     25  N   UNL     1      45.036 128.085  22.205  1.00  0.00    -0.146 N 
ATOM     26  N   UNL     1      46.267 127.622  21.988  1.00  0.00    -0.148 NA
ATOM     27  N   UNL     1      44.148 127.118  22.429  1.00  0.00    -0.148 NA
ATOM     28  C   UNL     1      46.148 126.289  22.063  1.00  0.00     0.113 A 
ATOM     29  C   UNL     1      44.851 125.980  22.333  1.00  0.00     0.113 A 
ATOM     30  C   UNL     1      47.123 125.313  21.883  1.00  0.00     0.032 A 
ATOM     31  C   UNL     1      44.412 124.666  22.453  1.00  0.00     0.032 A 
ATOM     32  C   UNL     1      46.718 123.968  21.996  1.00  0.00     0.002 A 
ATOM     33  C   UNL     1      45.369 123.646  22.282  1.00  0.00     0.002 A 
ENDBRANCH  17  25
ENDBRANCH  14  15
ENDBRANCH   1  14
TORSDOF 8
ENDMDL
MODEL 4
REMARK VINA RESULT:      -3.4      3.652      7.554
REMARK SMILES Cc1cc(N)c(OC(=O)/C=C(\[NH3+])C(N)=O)c(-n2nc3ccccc3n2)c1
REMARK SMILES IDX 8 1 9 2 10 3 11 4 13 5 14 6 15 7 12 10 7 14 6 15 4 16 16 17
REMARK SMILES IDX 3 18 26 19 2 20 1 21 5 22 17 25 18 26 25 27 19 28 24 29
REMARK SMILES IDX 20 30 23 31 21 32 22 33
REMARK H PARENT 14 8 14 9 12 11 12 12 12 13 5 23 5 24
ROOT
ATOM      1  C   UNL     1      45.588 129.055  21.337  1.00  0.00     0.342 C 
ATOM      2  O   UNL     1      45.919 128.333  20.357  1.00  0.00    -0.246 OA
ENDROOT
BRANCH   1   3
ATOM      3  C   UNL     1      45.302 128.465  22.658  1.00  0.00     0.167 C 
BRANCH   3   4
ATOM      4  C   UNL     1      44.418 127.468  22.892  1.00  0.00     0.200 C 
BRANCH   4   5
ATOM      5  C   UNL     1      44.759 126.086  22.463  1.00  0.00     0.302 C 
ATOM      6  N   UNL     1      46.044 125.526  22.743  1.00  0.00    -0.361 N 
ATOM      7  O   UNL     1      43.906 125.384  21.854  1.00  0.00    -0.263 OA
ATOM      8  H   UNL     1      46.285 124.573  22.393  1.00  0.00     0.160 HD
ATOM      9  H   UNL     1      46.730 126.017  23.357  1.00  0.00     0.160 HD
ENDBRANCH   4   5
BRANCH   4  10
ATOM     10  N   UNL     1      43.152 127.721  23.531  1.00  0.00    -0.320 N 
ATOM     11  H   UNL     1      42.772 128.638  23.203  1.00  0.00     0.350 HD
ATOM     12  H   UNL     1      42.467 126.965  23.306  1.00  0.00     0.350 HD
ATOM     13  H   UNL     1      43.258 127.718  24.571  1.00  0.00     0.350 HD
ENDBRANCH   4  10
ENDBRANCH   3   4
ENDBRANCH   1   3
BRANCH   1  14
ATOM     14  O   UNL     1      45.529 130.447  21.199  1.00  0.00    -0.419 OA
BRANCH  14  15
ATOM     15  C   UNL     1      44.330 131.174  21.206  1.00  0.00     0.181 A 
ATOM     16  C   UNL     1      43.681 131.403  22.433  1.00  0.00     0.078 A 
ATOM     17  C   UNL     1      43.767 131.683  20.009  1.00  0.00     0.131 A 
ATOM     18  C   UNL     1      42.516 132.182  22.472  1.00  0.00     0.033 A 
ATOM     19  C   UNL     1      42.614 132.477  20.073  1.00  0.00     0.037 A 
ATOM     20  C   UNL     1      41.977 132.719  21.296  1.00  0.00    -0.047 A 
ATOM     21  C   UNL     1      40.757 133.590  21.355  1.00  0.00     0.044 C 
BRANCH  16  22
ATOM     22  N   UNL     1      44.217 130.876  23.651  1.00  0.00    -0.396 N 
ATOM     23  H   UNL     1      44.736 131.491  24.317  1.00  0.00     0.156 HD
ATOM     24  H   UNL     1      44.101 129.870  23.908  1.00  0.00     0.156 HD
ENDBRANCH  16  22
BRANCH  17  25
ATOM     25  N   UNL     1      44.332 131.367  18.725  1.00  0.00    -0.146 N 
ATOM     26  N   UNL     1      43.797 131.755  17.568  1.00  0.00    -0.148 NA
ATOM     27  N   UNL     1      45.453 130.664  18.570  1.00  0.00    -0.148 NA
ATOM     28  C   UNL     1      44.614 131.257  16.630  1.00  0.00     0.113 A 
ATOM     29  C   UNL     1      45.628 130.589  17.243  1.00  0.00     0.113 A 
ATOM     30  C   UNL     1      44.507 131.337  15.245  1.00  0.00     0.032 A 
ATOM     31  C   UNL     1      46.632 129.945  16.527  1.00  0.00     0.032 A 
ATOM     32  C   UNL     1      45.505 130.697  14.482  1.00  0.00     0.002 A 
ATOM     33  C   UNL     1      46.563 130.006  15.121  1.00  0.00     0.002 A 
ENDBRANCH  17  25
ENDBRANCH  14  15
ENDBRANCH   1  14
TORSDOF 8
ENDMDL
MODEL 5
REMARK VINA RESULT:      -2.9      3.731      6.028
REMARK SMILES Cc1cc(N)c(OC(=O)/C=C(\[NH3+])C(N)=O)c(-n2nc3ccccc3n2)c1
REMARK SMILES IDX 8 1 9 2 10 3 11 4 13 5 14 6 15 7 12 10 7 14 6 15 4 16 16 17
REMARK SMILES IDX 3 18 26 19 2 20 1 21 5 22 17 25 18 26 25 27 19 28 24 29
REMARK SMILES IDX 20 30 23 31 21 32 22 33
REMARK H PARENT 14 8 14 9 12 11 12 12 12 13 5 23 5 24
ROOT
ATOM      1  C   UNL     1      45.082 130.319  18.704  1.00  0.00     0.342 C 
ATOM      2  O   UNL     1      43.896 130.661  18.443  1.00  0.00    -0.246 OA
ENDROOT
BRANCH   1   3
ATOM      3  C   UNL     1      46.144 130.403  17.685  1.00  0.00     0.167 C 
BRANCH   3   4
ATOM      4  C   UNL     1      46.012 130.034  16.390  1.00  0.00     0.200 C 
BRANCH   4   5
ATOM      5  C   UNL     1      46.428 130.982  15.323  1.00  0.00     0.302 C 
ATOM      6  N   UNL     1      46.856 130.508  14.045  1.00  0.00    -0.361 N 
ATOM      7  O   UNL     1      46.396 132.225  15.533  1.00  0.00    -0.263 OA
ATOM      8  H   UNL     1      47.192 131.183  13.323  1.00  0.00     0.160 HD
ATOM      9  H   UNL     1      46.773 129.501  13.782  1.00  0.00     0.160 HD
ENDBRANCH   4   5
BRANCH   4  10
ATOM     10  N   UNL     1      45.464 128.752  16.026  1.00  0.00    -0.320 N 
ATOM     11  H   UNL     1      46.242 128.072  15.870  1.00  0.00     0.350 HD
ATOM     12  H   UNL     1      44.836 128.391  16.780  1.00  0.00     0.350 HD
ATOM     13  H   UNL     1      44.871 128.836  15.169  1.00  0.00     0.350 HD
ENDBRANCH   4  10
ENDBRANCH   3   4
ENDBRANCH   1   3
BRANCH   1  14
ATOM     14  O   UNL     1      45.424 129.891  19.994  1.00  0.00    -0.419 OA
BRANCH  14  15
ATOM     15  C   UNL     1      44.909 130.472  21.161  1.00  0.00     0.181 A 
ATOM     16  C   UNL     1      44.716 131.866  21.199  1.00  0.00     0.078 A 
ATOM     17  C   UNL     1      44.577 129.687  22.293  1.00  0.00     0.131 A 
ATOM     18  C   UNL     1      44.143 132.461  22.331  1.00  0.00     0.033 A 
ATOM     19  C   UNL     1      43.984 130.300  23.407  1.00  0.00     0.037 A 
ATOM     20  C   UNL     1      43.778 131.684  23.437  1.00  0.00    -0.047 A 
ATOM     21  C   UNL     1      43.121 132.324  24.625  1.00  0.00     0.044 C 
BRANCH  16  22
ATOM     22  N   UNL     1      45.070 132.682  20.077  1.00  0.00    -0.396 N 
ATOM     23  H   UNL     1      46.071 132.893  19.865  1.00  0.00     0.156 HD
ATOM     24  H   UNL     1      44.343 133.082  19.442  1.00  0.00     0.156 HD
ENDBRANCH  16  22
BRANCH  17  25
ATOM     25  N   UNL     1      44.873 128.282  22.339  1.00  0.00    -0.146 N 
ATOM     26  N   UNL     1      44.023 127.363  22.797  1.00  0.00    -0.148 NA
ATOM     27  N   UNL     1      46.024 127.760  21.917  1.00  0.00    -0.148 NA
ATOM     28  C   UNL     1      44.677 126.200  22.673  1.00  0.00     0.113 A 
ATOM     29  C   UNL     1      45.902 126.442  22.134  1.00  0.00     0.113 A 
ATOM     30  C   UNL     1      44.263 124.921  23.032  1.00  0.00     0.032 A 
ATOM     31  C   UNL     1      46.823 125.428  21.900  1.00  0.00     0.032 A 
ATOM     32  C   UNL     1      45.168 123.864  22.811  1.00  0.00     0.002 A 
ATOM     33  C   UNL     1      46.442 124.116  22.245  1.00  0.00     0.002 A 
ENDBRANCH  17  25
ENDBRANCH  14  15
ENDBRANCH   1  14
TORSDOF 8
ENDMDL
MODEL 6
REMARK VINA RESULT:      -2.7      2.290      6.433
REMARK SMILES Cc1cc(N)c(OC(=O)/C=C(\[NH3+])C(N)=O)c(-n2nc3ccccc3n2)c1
REMARK SMILES IDX 8 1 9 2 10 3 11 4 13 5 14 6 15 7 12 10 7 14 6 15 4 16 16 17
REMARK SMILES IDX 3 18 26 19 2 20 1 21 5 22 17 25 18 26 25 27 19 28 24 29
REMARK SMILES IDX 20 30 23 31 21 32 22 33
REMARK H PARENT 14 8 14 9 12 11 12 12 12 13 5 23 5 24
ROOT
ATOM      1  C   UNL     1      46.789 125.542  22.903  1.00  0.00     0.342 C 
ATOM      2  O   UNL     1      46.739 125.902  24.112  1.00  0.00    -0.246 OA
ENDROOT
BRANCH   1   3
ATOM      3  C   UNL     1      48.060 125.127  22.281  1.00  0.00     0.167 C 
BRANCH   3   4
ATOM      4  C   UNL     1      48.309 123.905  21.758  1.00  0.00     0.200 C 
BRANCH   4   5
ATOM      5  C   UNL     1      49.702 123.385  21.769  1.00  0.00     0.302 C 
ATOM      6  N   UNL     1      50.582 123.619  20.668  1.00  0.00    -0.361 N 
ATOM      7  O   UNL     1      50.127 122.735  22.763  1.00  0.00    -0.263 OA
ATOM      8  H   UNL     1      51.541 123.206  20.669  1.00  0.00     0.160 HD
ATOM      9  H   UNL     1      50.319 124.260  19.888  1.00  0.00     0.160 HD
ENDBRANCH   4   5
BRANCH   4  10
ATOM     10  N   UNL     1      47.258 123.107  21.180  1.00  0.00    -0.320 N 
ATOM     11  H   UNL     1      47.668 122.246  20.753  1.00  0.00     0.350 HD
ATOM     12  H   UNL     1      46.559 122.833  21.907  1.00  0.00     0.350 HD
ATOM     13  H   UNL     1      46.732 123.657  20.464  1.00  0.00     0.350 HD
ENDBRANCH   4  10
ENDBRANCH   3   4
ENDBRANCH   1   3
BRANCH   1  14
ATOM     14  O   UNL     1      45.619 125.489  22.136  1.00  0.00    -0.419 OA
BRANCH  14  15
ATOM     15  C   UNL     1      44.412 124.953  22.605  1.00  0.00     0.181 A 
ATOM     16  C   UNL     1      44.213 123.561  22.536  1.00  0.00     0.078 A 
ATOM     17  C   UNL     1      43.398 125.780  23.150  1.00  0.00     0.131 A 
ATOM     18  C   UNL     1      43.043 122.996  23.059  1.00  0.00     0.033 A 
ATOM     19  C   UNL     1      42.244 125.192  23.687  1.00  0.00     0.037 A 
ATOM     20  C   UNL     1      42.054 123.806  23.632  1.00  0.00    -0.047 A 
ATOM     21  C   UNL     1      40.826 123.186  24.232  1.00  0.00     0.044 C 
BRANCH  16  22
ATOM     22  N   UNL     1      45.213 122.709  21.965  1.00  0.00    -0.396 N 
ATOM     23  H   UNL     1      45.928 123.092  21.307  1.00  0.00     0.156 HD
ATOM     24  H   UNL     1      45.256 121.691  22.193  1.00  0.00     0.156 HD
ENDBRANCH  16  22
BRANCH  17  25
ATOM     25  N   UNL     1      43.510 127.212  23.126  1.00  0.00    -0.146 N 
ATOM     26  N   UNL     1      42.713 128.027  23.817  1.00  0.00    -0.148 NA
ATOM     27  N   UNL     1      44.431 127.864  22.417  1.00  0.00    -0.148 NA
ATOM     28  C   UNL     1      43.142 129.260  23.517  1.00  0.00     0.113 A 
ATOM     29  C   UNL     1      44.194 129.161  22.660  1.00  0.00     0.113 A 
ATOM     30  C   UNL     1      42.643 130.487  23.941  1.00  0.00     0.032 A 
ATOM     31  C   UNL     1      44.846 130.280  22.153  1.00  0.00     0.032 A 
ATOM     32  C   UNL     1      43.275 131.647  23.450  1.00  0.00     0.002 A 
ATOM     33  C   UNL     1      44.373 131.544  22.561  1.00  0.00     0.002 A 
ENDBRANCH  17  25
ENDBRANCH  14  15
ENDBRANCH   1  14
TORSDOF 8
ENDMDL
MODEL 7
REMARK VINA RESULT:      -2.7      3.649      7.650
REMARK SMILES Cc1cc(N)c(OC(=O)/C=C(\[NH3+])C(N)=O)c(-n2nc3ccccc3n2)c1
REMARK SMILES IDX 8 1 9 2 10 3 11 4 13 5 14 6 15 7 12 10 7 14 6 15 4 16 16 17
REMARK SMILES IDX 3 18 26 19 2 20 1 21 5 22 17 25 18 26 25 27 19 28 24 29
REMARK SMILES IDX 20 30 23 31 21 32 22 33
REMARK H PARENT 14 8 14 9 12 11 12 12 12 13 5 23 5 24
ROOT
ATOM      1  C   UNL     1      45.149 128.935  22.171  1.00  0.00     0.342 C 
ATOM      2  O   UNL     1      44.974 129.142  23.404  1.00  0.00    -0.246 OA
ENDROOT
BRANCH   1   3
ATOM      3  C   UNL     1      45.446 127.585  21.657  1.00  0.00     0.167 C 
BRANCH   3   4
ATOM      4  C   UNL     1      45.138 126.427  22.285  1.00  0.00     0.200 C 
BRANCH   4   5
ATOM      5  C   UNL     1      46.197 125.399  22.463  1.00  0.00     0.302 C 
ATOM      6  N   UNL     1      46.154 124.483  23.559  1.00  0.00    -0.361 N 
ATOM      7  O   UNL     1      47.145 125.317  21.635  1.00  0.00    -0.263 OA
ATOM      8  H   UNL     1      46.930 123.798  23.698  1.00  0.00     0.160 HD
ATOM      9  H   UNL     1      45.324 124.426  24.189  1.00  0.00     0.160 HD
ENDBRANCH   4   5
BRANCH   4  10
ATOM     10  N   UNL     1      43.806 126.167  22.770  1.00  0.00    -0.320 N 
ATOM     11  H   UNL     1      43.256 125.675  22.030  1.00  0.00     0.350 HD
ATOM     12  H   UNL     1      43.836 125.574  23.630  1.00  0.00     0.350 HD
ATOM     13  H   UNL     1      43.336 127.058  23.047  1.00  0.00     0.350 HD
ENDBRANCH   4  10
ENDBRANCH   3   4
ENDBRANCH   1   3
BRANCH   1  14
ATOM     14  O   UNL     1      45.022 129.987  21.256  1.00  0.00    -0.419 OA
BRANCH  14  15
ATOM     15  C   UNL     1      43.931 130.868  21.239  1.00  0.00     0.181 A 
ATOM     16  C   UNL     1      43.203 131.071  22.426  1.00  0.00     0.078 A 
ATOM     17  C   UNL     1      43.555 131.556  20.059  1.00  0.00     0.131 A 
ATOM     18  C   UNL     1      42.150 131.996  22.450  1.00  0.00     0.033 A 
ATOM     19  C   UNL     1      42.513 132.493  20.109  1.00  0.00     0.037 A 
ATOM     20  C   UNL     1      41.799 132.706  21.295  1.00  0.00    -0.047 A 
ATOM     21  C   UNL     1      40.701 133.729  21.343  1.00  0.00     0.044 C 
BRANCH  16  22
ATOM     22  N   UNL     1      43.549 130.366  23.623  1.00  0.00    -0.396 N 
ATOM     23  H   UNL     1      43.209 130.698  24.554  1.00  0.00     0.156 HD
ATOM     24  H   UNL     1      44.141 129.506  23.599  1.00  0.00     0.156 HD
ENDBRANCH  16  22
BRANCH  17  25
ATOM     25  N   UNL     1      44.194 131.284  18.800  1.00  0.00    -0.146 N 
ATOM     26  N   UNL     1      43.698 131.665  17.623  1.00  0.00    -0.148 NA
ATOM     27  N   UNL     1      45.351 130.633  18.691  1.00  0.00    -0.148 NA
ATOM     28  C   UNL     1      44.580 131.217  16.720  1.00  0.00     0.113 A 
ATOM     29  C   UNL     1      45.593 130.586  17.373  1.00  0.00     0.113 A 
ATOM     30  C   UNL     1      44.537 131.313  15.332  1.00  0.00     0.032 A 
ATOM     31  C   UNL     1      46.657 129.997  16.698  1.00  0.00     0.032 A 
ATOM     32  C   UNL     1      45.597 130.728  14.611  1.00  0.00     0.002 A 
ATOM     33  C   UNL     1      46.654 130.075  15.291  1.00  0.00     0.002 A 
ENDBRANCH  17  25
ENDBRANCH  14  15
ENDBRANCH   1  14
TORSDOF 8
ENDMDL
MODEL 8
REMARK VINA RESULT:      -2.4      2.403      6.428
REMARK SMILES Cc1cc(N)c(OC(=O)/C=C(\[NH3+])C(N)=O)c(-n2nc3ccccc3n2)c1
REMARK SMILES IDX 8 1 9 2 10 3 11 4 13 5 14 6 15 7 12 10 7 14 6 15 4 16 16 17
REMARK SMILES IDX 3 18 26 19 2 20 1 21 5 22 17 25 18 26 25 27 19 28 24 29
REMARK SMILES IDX 20 30 23 31 21 32 22 33
REMARK H PARENT 14 8 14 9 12 11 12 12 12 13 5 23 5 24
ROOT
ATOM      1  C   UNL     1      48.070 125.325  23.590  1.00  0.00     0.342 C 
ATOM      2  O   UNL     1      49.132 125.327  24.272  1.00  0.00    -0.246 OA
ENDROOT
BRANCH   1   3
ATOM      3  C   UNL     1      48.007 124.662  22.274  1.00  0.00     0.167 C 
BRANCH   3   4
ATOM      4  C   UNL     1      49.072 124.190  21.588  1.00  0.00     0.200 C 
BRANCH   4   5
ATOM      5  C   UNL     1      50.320 123.863  22.327  1.00  0.00     0.302 C 
ATOM      6  N   UNL     1      50.358 122.786  23.265  1.00  0.00    -0.361 N 
ATOM      7  O   UNL     1      51.370 124.532  22.123  1.00  0.00    -0.263 OA
ATOM      8  H   UNL     1      51.228 122.600  23.811  1.00  0.00     0.160 HD
ATOM      9  H   UNL     1      49.557 122.125  23.367  1.00  0.00     0.160 HD
ENDBRANCH   4   5
BRANCH   4  10
ATOM     10  N   UNL     1      49.026 124.013  20.159  1.00  0.00    -0.320 N 
ATOM     11  H   UNL     1      48.466 124.783  19.729  1.00  0.00     0.350 HD
ATOM     12  H   UNL     1      49.990 124.020  19.754  1.00  0.00     0.350 HD
ATOM     13  H   UNL     1      48.617 123.082  19.917  1.00  0.00     0.350 HD
ENDBRANCH   4  10
ENDBRANCH   3   4
ENDBRANCH   1   3
BRANCH   1  14
ATOM     14  O   UNL     1      46.907 125.920  24.097  1.00  0.00    -0.419 OA
BRANCH  14  15
ATOM     15  C   UNL     1      45.671 125.263  24.166  1.00  0.00     0.181 A 
ATOM     16  C   UNL     1      45.652 123.869  24.358  1.00  0.00     0.078 A 
ATOM     17  C   UNL     1      44.450 125.972  24.053  1.00  0.00     0.131 A 
ATOM     18  C   UNL     1      44.428 123.200  24.496  1.00  0.00     0.033 A 
ATOM     19  C   UNL     1      43.237 125.287  24.216  1.00  0.00     0.037 A 
ATOM     20  C   UNL     1      43.219 123.903  24.423  1.00  0.00    -0.047 A 
ATOM     21  C   UNL     1      41.916 123.184  24.620  1.00  0.00     0.044 C 
BRANCH  16  22
ATOM     22  N   UNL     1      46.874 123.128  24.448  1.00  0.00    -0.396 N 
ATOM     23  H   UNL     1      47.207 122.758  25.366  1.00  0.00     0.156 HD
ATOM     24  H   UNL     1      47.458 122.934  23.604  1.00  0.00     0.156 HD
ENDBRANCH  16  22
BRANCH  17  25
ATOM     25  N   UNL     1      44.427 127.374  23.735  1.00  0.00    -0.146 N 
ATOM     26  N   UNL     1      44.096 128.324  24.608  1.00  0.00    -0.148 NA
ATOM     27  N   UNL     1      44.746 127.858  22.535  1.00  0.00    -0.148 NA
ATOM     28  C   UNL     1      44.196 129.470  23.921  1.00  0.00     0.113 A 
ATOM     29  C   UNL     1      44.594 129.185  22.651  1.00  0.00     0.113 A 
ATOM     30  C   UNL     1      43.931 130.769  24.342  1.00  0.00     0.032 A 
ATOM     31  C   UNL     1      44.770 130.174  21.690  1.00  0.00     0.032 A 
ATOM     32  C   UNL     1      44.098 131.801  23.398  1.00  0.00     0.002 A 
ATOM     33  C   UNL     1      44.517 131.505  22.077  1.00  0.00     0.002 A 
ENDBRANCH  17  25
ENDBRANCH  14  15
ENDBRANCH   1  14
TORSDOF 8
ENDMDL
MODEL 9
REMARK VINA RESULT:      -2.3      3.153      5.627
REMARK SMILES Cc1cc(N)c(OC(=O)/C=C(\[NH3+])C(N)=O)c(-n2nc3ccccc3n2)c1
REMARK SMILES IDX 8 1 9 2 10 3 11 4 13 5 14 6 15 7 12 10 7 14 6 15 4 16 16 17
REMARK SMILES IDX 3 18 26 19 2 20 1 21 5 22 17 25 18 26 25 27 19 28 24 29
REMARK SMILES IDX 20 30 23 31 21 32 22 33
REMARK H PARENT 14 8 14 9 12 11 12 12 12 13 5 23 5 24
ROOT
ATOM      1  C   UNL     1      45.651 130.387  18.956  1.00  0.00     0.342 C 
ATOM      2  O   UNL     1      46.288 129.872  17.996  1.00  0.00    -0.246 OA
ENDROOT
BRANCH   1   3
ATOM      3  C   UNL     1      44.747 131.533  18.746  1.00  0.00     0.167 C 
BRANCH   3   4
ATOM      4  C   UNL     1      43.922 131.691  17.686  1.00  0.00     0.200 C 
BRANCH   4   5
ATOM      5  C   UNL     1      44.493 131.655  16.314  1.00  0.00     0.302 C 
ATOM      6  N   UNL     1      45.746 132.277  16.024  1.00  0.00    -0.361 N 
ATOM      7  O   UNL     1      43.877 131.061  15.388  1.00  0.00    -0.263 OA
ATOM      8  H   UNL     1      46.110 132.286  15.045  1.00  0.00     0.160 HD
ATOM      9  H   UNL     1      46.351 132.663  16.782  1.00  0.00     0.160 HD
ENDBRANCH   4   5
BRANCH   4  10
ATOM     10  N   UNL     1      42.508 131.907  17.861  1.00  0.00    -0.320 N 
ATOM     11  H   UNL     1      42.356 132.698  18.527  1.00  0.00     0.350 HD
ATOM     12  H   UNL     1      42.053 132.133  16.948  1.00  0.00     0.350 HD
ATOM     13  H   UNL     1      42.044 131.038  18.210  1.00  0.00     0.350 HD
ENDBRANCH   4  10
ENDBRANCH   3   4
ENDBRANCH   1   3
BRANCH   1  14
ATOM     14  O   UNL     1      45.759 129.846  20.243  1.00  0.00    -0.419 OA
BRANCH  14  15
ATOM     15  C   UNL     1      45.078 130.358  21.355  1.00  0.00     0.181 A 
ATOM     16  C   UNL     1      44.896 131.750  21.459  1.00  0.00     0.078 A 
ATOM     17  C   UNL     1      44.567 129.507  22.366  1.00  0.00     0.131 A 
ATOM     18  C   UNL     1      44.162 132.280  22.528  1.00  0.00     0.033 A 
ATOM     19  C   UNL     1      43.816 130.056  23.416  1.00  0.00     0.037 A 
ATOM     20  C   UNL     1      43.622 131.440  23.510  1.00  0.00    -0.047 A 
ATOM     21  C   UNL     1      42.797 132.013  24.625  1.00  0.00     0.044 C 
BRANCH  16  22
ATOM     22  N   UNL     1      45.427 132.631  20.463  1.00  0.00    -0.396 N 
ATOM     23  H   UNL     1      46.351 133.098  20.601  1.00  0.00     0.156 HD
ATOM     24  H   UNL     1      44.910 132.827  19.577  1.00  0.00     0.156 HD
ENDBRANCH  16  22
BRANCH  17  25
ATOM     25  N   UNL     1      44.837 128.095  22.360  1.00  0.00    -0.146 N 
ATOM     26  N   UNL     1      46.025 127.572  22.060  1.00  0.00    -0.148 NA
ATOM     27  N   UNL     1      43.925 127.173  22.667  1.00  0.00    -0.148 NA
ATOM     28  C   UNL     1      45.852 126.247  22.166  1.00  0.00     0.113 A 
ATOM     29  C   UNL     1      44.567 126.002  22.538  1.00  0.00     0.113 A 
ATOM     30  C   UNL     1      46.765 125.225  21.930  1.00  0.00     0.032 A 
ATOM     31  C   UNL     1      44.078 124.712  22.713  1.00  0.00     0.032 A 
ATOM     32  C   UNL     1      46.310 123.901  22.096  1.00  0.00     0.002 A 
ATOM     33  C   UNL     1      44.972 123.647  22.488  1.00  0.00     0.002 A 
ENDBRANCH  17  25
ENDBRANCH  14  15
ENDBRANCH   1  14
TORSDOF 8
ENDMDL


