REMARK SMILES C=Cc1cc(-c2ccc(C(C)=O)c3n[n-]cc23)ccc1O
REMARK SMILES IDX 6 1 7 2 8 3 9 4 13 5 14 6 15 7 16 8 17 9 5 10 3 11 4 12
REMARK SMILES IDX 20 13 19 14 18 15 2 16 1 17 21 18 10 20 11 21 12 22
REMARK H PARENT 21 19
ROOT
ATOM      1  C   UNL     1      -1.036   0.254   0.414  1.00  0.00    -0.011 A 
ATOM      2  C   UNL     1      -1.430   1.440  -0.242  1.00  0.00     0.010 A 
ATOM      3  C   UNL     1      -2.743   1.941  -0.109  1.00  0.00     0.014 A 
ATOM      4  C   UNL     1      -3.702   1.275   0.693  1.00  0.00     0.042 A 
ATOM      5  C   UNL     1      -3.275   0.104   1.339  1.00  0.00     0.058 A 
ATOM      6  N   UNL     1      -3.977  -0.684   2.175  1.00  0.00    -0.367 NA
ATOM      7  N   UNL     1      -3.171  -1.660   2.579  1.00  0.00    -0.581 NA
ATOM      8  C   UNL     1      -1.957  -1.500   2.008  1.00  0.00    -0.113 A 
ATOM      9  C   UNL     1      -2.002  -0.381   1.204  1.00  0.00    -0.014 A 
ENDROOT
BRANCH   1  10
ATOM     10  C   UNL     1       0.339  -0.274   0.263  1.00  0.00    -0.017 A 
ATOM     11  C   UNL     1       2.760   0.093   0.267  1.00  0.00     0.016 A 
ATOM     12  C   UNL     1       1.445   0.578   0.421  1.00  0.00     0.020 A 
ATOM     13  C   UNL     1       2.954  -1.270  -0.032  1.00  0.00     0.122 A 
ATOM     14  C   UNL     1       1.850  -2.116  -0.198  1.00  0.00     0.047 A 
ATOM     15  C   UNL     1       0.553  -1.622  -0.059  1.00  0.00     0.012 A 
BRANCH  11  16
ATOM     16  C   UNL     1       3.941   0.976   0.451  1.00  0.00     0.004 C 
ATOM     17  C   UNL     1       3.910   2.299   0.290  1.00  0.00     0.009 C 
ENDBRANCH  11  16
BRANCH  13  18
ATOM     18  O   UNL     1       4.244  -1.782  -0.177  1.00  0.00    -0.507 OA
ATOM     19  H   UNL     1       4.408  -2.758  -0.395  1.00  0.00     0.293 HD
ENDBRANCH  13  18
ENDBRANCH   1  10
BRANCH   4  20
ATOM     20  C   UNL     1      -5.089   1.794   0.847  1.00  0.00     0.161 C 
ATOM     21  C   UNL     1      -5.535   3.059   0.177  1.00  0.00     0.093 C 
ATOM     22  O   UNL     1      -5.923   1.166   1.553  1.00  0.00    -0.294 OA
ENDBRANCH   4  20
TORSDOF 4


