REMARK SMILES O=Cc1cc(F)c(F)cc1Nc1cc2ccccc2[n-]1
REMARK SMILES IDX 3 1 4 2 5 3 6 4 7 5 8 6 9 7 10 8 2 9 1 10 11 11 12 13 13 14
REMARK SMILES IDX 20 15 14 16 19 17 15 18 18 19 16 20 17 21
REMARK H PARENT 11 12
ROOT
ATOM      1  C   UNL     1       2.372   0.709  -0.822  1.00  0.00     0.020 A 
ATOM      2  C   UNL     1       2.976   1.885  -1.299  1.00  0.00     0.054 A 
ATOM      3  C   UNL     1       3.531   2.811  -0.413  1.00  0.00     0.159 A 
ATOM      4  F   UNL     1       4.119   3.936  -0.891  1.00  0.00    -0.204 F 
ATOM      5  C   UNL     1       3.493   2.574   0.962  1.00  0.00     0.159 A 
ATOM      6  F   UNL     1       4.040   3.468   1.822  1.00  0.00    -0.204 F 
ATOM      7  C   UNL     1       2.883   1.418   1.454  1.00  0.00     0.046 A 
ATOM      8  C   UNL     1       2.300   0.492   0.578  1.00  0.00    -0.030 A 
ENDROOT
BRANCH   1   9
ATOM      9  C   UNL     1       1.873  -0.267  -1.817  1.00  0.00     0.260 C 
ATOM     10  O   UNL     1       1.576  -1.448  -1.497  1.00  0.00    -0.298 OA
ENDBRANCH   1   9
BRANCH   8  11
ATOM     11  N   UNL     1       1.634  -0.649   1.136  1.00  0.00    -0.456 N 
ATOM     12  H   UNL     1       2.171  -1.265   1.786  1.00  0.00     0.026 HD
BRANCH  11  13
ATOM     13  C   UNL     1       0.212  -0.819   1.069  1.00  0.00    -0.060 A 
ATOM     14  C   UNL     1      -0.678   0.067   0.465  1.00  0.00     0.007 A 
ATOM     15  N   UNL     1      -0.418  -1.886   1.619  1.00  0.00    -0.436 NA
ATOM     16  C   UNL     1      -1.911  -0.504   0.658  1.00  0.00    -0.023 A 
ATOM     17  C   UNL     1      -1.719  -1.671   1.352  1.00  0.00    -0.034 A 
ATOM     18  C   UNL     1      -3.179  -0.074   0.273  1.00  0.00     0.008 A 
ATOM     19  C   UNL     1      -2.789  -2.490   1.708  1.00  0.00     0.004 A 
ATOM     20  C   UNL     1      -4.278  -0.882   0.619  1.00  0.00     0.001 A 
ATOM     21  C   UNL     1      -4.084  -2.085   1.334  1.00  0.00     0.000 A 
ENDBRANCH  11  13
ENDBRANCH   8  11
TORSDOF 3


