MODEL 1
REMARK VINA RESULT:      -5.2      0.000      0.000
REMARK SMILES C/C=C(\C)C(=O)N1CC[C@H](C)[C@H](F)[C@@H]1c1ccc(C(C)=O)cc1
REMARK SMILES IDX 7 1 8 2 9 3 10 4 11 5 12 6 13 7 14 8 5 9 6 10 3 11 4 12 2 13
REMARK SMILES IDX 1 14 15 15 16 16 23 17 17 18 22 19 18 20 19 21 21 22 20 23
REMARK H PARENT
ROOT
ATOM      1  N   UNL     1      44.455 129.664  22.710  1.00  0.00    -0.329 N 
ATOM      2  C   UNL     1      44.163 129.533  24.146  1.00  0.00     0.121 C 
ATOM      3  C   UNL     1      43.063 130.503  24.584  1.00  0.00     0.028 C 
ATOM      4  C   UNL     1      43.404 131.938  24.155  1.00  0.00     0.024 C 
ATOM      5  C   UNL     1      42.320 132.918  24.625  1.00  0.00     0.011 C 
ATOM      6  C   UNL     1      43.585 131.998  22.629  1.00  0.00     0.196 C 
ATOM      7  F   UNL     1      42.384 131.696  22.003  1.00  0.00    -0.245 F 
ATOM      8  C   UNL     1      44.692 131.022  22.171  1.00  0.00     0.150 C 
ENDROOT
BRANCH   1   9
ATOM      9  C   UNL     1      45.065 128.520  22.078  1.00  0.00     0.249 C 
ATOM     10  O   UNL     1      45.918 128.702  21.167  1.00  0.00    -0.269 OA
BRANCH   9  11
ATOM     11  C   UNL     1      44.696 127.136  22.477  1.00  0.00     0.010 C 
ATOM     12  C   UNL     1      43.405 126.905  23.225  1.00  0.00     0.050 C 
BRANCH  11  13
ATOM     13  C   UNL     1      45.561 126.124  22.264  1.00  0.00    -0.021 C 
ATOM     14  C   UNL     1      45.734 124.970  23.208  1.00  0.00     0.036 C 
ENDBRANCH  11  13
ENDBRANCH   9  11
ENDBRANCH   1   9
BRANCH   8  15
ATOM     15  C   UNL     1      44.796 131.039  20.652  1.00  0.00    -0.022 A 
ATOM     16  C   UNL     1      43.743 131.520  19.854  1.00  0.00     0.007 A 
ATOM     17  C   UNL     1      45.977 130.608  20.028  1.00  0.00     0.007 A 
ATOM     18  C   UNL     1      43.864 131.558  18.463  1.00  0.00     0.012 A 
ATOM     19  C   UNL     1      46.095 130.637  18.633  1.00  0.00     0.012 A 
ATOM     20  C   UNL     1      45.043 131.114  17.833  1.00  0.00     0.017 A 
BRANCH  20  21
ATOM     21  C   UNL     1      45.189 131.149  16.353  1.00  0.00     0.159 C 
ATOM     22  O   UNL     1      46.299 130.864  15.827  1.00  0.00    -0.295 OA
ATOM     23  C   UNL     1      44.045 131.512  15.452  1.00  0.00     0.093 C 
ENDBRANCH  20  21
ENDBRANCH   8  15
TORSDOF 5
ENDMDL
MODEL 2
REMARK VINA RESULT:      -4.9      1.828      2.610
REMARK SMILES C/C=C(\C)C(=O)N1CC[C@H](C)[C@H](F)[C@@H]1c1ccc(C(C)=O)cc1
REMARK SMILES IDX 7 1 8 2 9 3 10 4 11 5 12 6 13 7 14 8 5 9 6 10 3 11 4 12 2 13
REMARK SMILES IDX 1 14 15 15 16 16 23 17 17 18 22 19 18 20 19 21 21 22 20 23
REMARK H PARENT
ROOT
ATOM      1  N   UNL     1      44.354 131.026  20.918  1.00  0.00    -0.329 N 
ATOM      2  C   UNL     1      43.664 131.333  22.181  1.00  0.00     0.121 C 
ATOM      3  C   UNL     1      42.228 131.801  21.934  1.00  0.00     0.028 C 
ATOM      4  C   UNL     1      42.202 132.958  20.923  1.00  0.00     0.024 C 
ATOM      5  C   UNL     1      40.767 133.454  20.701  1.00  0.00     0.011 C 
ATOM      6  C   UNL     1      42.848 132.511  19.600  1.00  0.00     0.196 C 
ATOM      7  F   UNL     1      42.090 131.499  19.029  1.00  0.00    -0.245 F 
ATOM      8  C   UNL     1      44.298 132.033  19.835  1.00  0.00     0.150 C 
ENDROOT
BRANCH   1   9
ATOM      9  C   UNL     1      45.478 130.127  21.009  1.00  0.00     0.249 C 
ATOM     10  O   UNL     1      46.574 130.453  20.476  1.00  0.00    -0.269 OA
BRANCH   9  11
ATOM     11  C   UNL     1      45.359 128.821  21.711  1.00  0.00     0.010 C 
ATOM     12  C   UNL     1      44.501 128.726  22.949  1.00  0.00     0.050 C 
BRANCH  11  13
ATOM     13  C   UNL     1      46.098 127.770  21.301  1.00  0.00    -0.021 C 
ATOM     14  C   UNL     1      46.211 126.487  22.070  1.00  0.00     0.036 C 
ENDBRANCH  11  13
ENDBRANCH   9  11
ENDBRANCH   1   9
BRANCH   8  15
ATOM     15  C   UNL     1      44.888 131.520  18.527  1.00  0.00    -0.022 A 
ATOM     16  C   UNL     1      44.871 132.305  17.362  1.00  0.00     0.007 A 
ATOM     17  C   UNL     1      45.499 130.257  18.485  1.00  0.00     0.007 A 
ATOM     18  C   UNL     1      45.442 131.834  16.178  1.00  0.00     0.012 A 
ATOM     19  C   UNL     1      46.064 129.781  17.297  1.00  0.00     0.012 A 
ATOM     20  C   UNL     1      46.045 130.563  16.129  1.00  0.00     0.017 A 
BRANCH  20  21
ATOM     21  C   UNL     1      46.659 130.046  14.876  1.00  0.00     0.159 C 
ATOM     22  O   UNL     1      46.754 128.801  14.693  1.00  0.00    -0.295 OA
ATOM     23  C   UNL     1      47.174 130.965  13.807  1.00  0.00     0.093 C 
ENDBRANCH  20  21
ENDBRANCH   8  15
TORSDOF 5
ENDMDL
MODEL 3
REMARK VINA RESULT:      -4.9      1.689      2.511
REMARK SMILES C/C=C(\C)C(=O)N1CC[C@H](C)[C@H](F)[C@@H]1c1ccc(C(C)=O)cc1
REMARK SMILES IDX 7 1 8 2 9 3 10 4 11 5 12 6 13 7 14 8 5 9 6 10 3 11 4 12 2 13
REMARK SMILES IDX 1 14 15 15 16 16 23 17 17 18 22 19 18 20 19 21 21 22 20 23
REMARK H PARENT
ROOT
ATOM      1  N   UNL     1      44.128 131.009  21.188  1.00  0.00    -0.329 N 
ATOM      2  C   UNL     1      43.511 131.337  22.483  1.00  0.00     0.121 C 
ATOM      3  C   UNL     1      42.079 131.845  22.308  1.00  0.00     0.028 C 
ATOM      4  C   UNL     1      42.034 133.001  21.297  1.00  0.00     0.024 C 
ATOM      5  C   UNL     1      40.605 133.538  21.147  1.00  0.00     0.011 C 
ATOM      6  C   UNL     1      42.599 132.535  19.944  1.00  0.00     0.196 C 
ATOM      7  F   UNL     1      41.785 131.544  19.415  1.00  0.00    -0.245 F 
ATOM      8  C   UNL     1      44.046 132.016  20.106  1.00  0.00     0.150 C 
ENDROOT
BRANCH   1   9
ATOM      9  C   UNL     1      45.229 130.078  21.224  1.00  0.00     0.249 C 
ATOM     10  O   UNL     1      46.311 130.381  20.651  1.00  0.00    -0.269 OA
BRANCH   9  11
ATOM     11  C   UNL     1      45.101 128.768  21.915  1.00  0.00     0.010 C 
ATOM     12  C   UNL     1      44.248 128.669  23.157  1.00  0.00     0.050 C 
BRANCH  11  13
ATOM     13  C   UNL     1      45.829 127.714  21.493  1.00  0.00    -0.021 C 
ATOM     14  C   UNL     1      45.909 126.412  22.236  1.00  0.00     0.036 C 
ENDBRANCH  11  13
ENDBRANCH   9  11
ENDBRANCH   1   9
BRANCH   8  15
ATOM     15  C   UNL     1      44.553 131.484  18.772  1.00  0.00    -0.022 A 
ATOM     16  C   UNL     1      45.710 130.689  18.696  1.00  0.00     0.007 A 
ATOM     17  C   UNL     1      43.837 131.753  17.595  1.00  0.00     0.007 A 
ATOM     18  C   UNL     1      46.146 130.183  17.470  1.00  0.00     0.012 A 
ATOM     19  C   UNL     1      44.279 131.253  16.365  1.00  0.00     0.012 A 
ATOM     20  C   UNL     1      45.437 130.461  16.286  1.00  0.00     0.017 A 
BRANCH  20  21
ATOM     21  C   UNL     1      45.887 129.928  14.971  1.00  0.00     0.159 C 
ATOM     22  O   UNL     1      46.012 128.683  14.810  1.00  0.00    -0.295 OA
ATOM     23  C   UNL     1      46.200 130.832  13.815  1.00  0.00     0.093 C 
ENDBRANCH  20  21
ENDBRANCH   8  15
TORSDOF 5
ENDMDL
MODEL 4
REMARK VINA RESULT:      -4.8      0.690      1.192
REMARK SMILES C/C=C(\C)C(=O)N1CC[C@H](C)[C@H](F)[C@@H]1c1ccc(C(C)=O)cc1
REMARK SMILES IDX 7 1 8 2 9 3 10 4 11 5 12 6 13 7 14 8 5 9 6 10 3 11 4 12 2 13
REMARK SMILES IDX 1 14 15 15 16 16 23 17 17 18 22 19 18 20 19 21 21 22 20 23
REMARK H PARENT
ROOT
ATOM      1  N   UNL     1      44.499 129.614  22.692  1.00  0.00    -0.329 N 
ATOM      2  C   UNL     1      44.233 129.495  24.135  1.00  0.00     0.121 C 
ATOM      3  C   UNL     1      43.147 130.474  24.586  1.00  0.00     0.028 C 
ATOM      4  C   UNL     1      43.488 131.904  24.142  1.00  0.00     0.024 C 
ATOM      5  C   UNL     1      42.420 132.893  24.625  1.00  0.00     0.011 C 
ATOM      6  C   UNL     1      43.642 131.953  22.612  1.00  0.00     0.196 C 
ATOM      7  F   UNL     1      42.427 131.654  22.011  1.00  0.00    -0.245 F 
ATOM      8  C   UNL     1      44.735 130.967  22.140  1.00  0.00     0.150 C 
ENDROOT
BRANCH   1   9
ATOM      9  C   UNL     1      45.091 128.463  22.057  1.00  0.00     0.249 C 
ATOM     10  O   UNL     1      45.571 128.579  20.896  1.00  0.00    -0.269 OA
BRANCH   9  11
ATOM     11  C   UNL     1      45.134 127.146  22.744  1.00  0.00     0.010 C 
ATOM     12  C   UNL     1      46.335 126.252  22.549  1.00  0.00     0.050 C 
BRANCH  11  13
ATOM     13  C   UNL     1      44.063 126.719  23.444  1.00  0.00    -0.021 C 
ATOM     14  C   UNL     1      43.034 125.777  22.890  1.00  0.00     0.036 C 
ENDBRANCH  11  13
ENDBRANCH   9  11
ENDBRANCH   1   9
BRANCH   8  15
ATOM     15  C   UNL     1      44.811 130.974  20.619  1.00  0.00    -0.022 A 
ATOM     16  C   UNL     1      43.734 131.427  19.837  1.00  0.00     0.007 A 
ATOM     17  C   UNL     1      45.989 130.562  19.977  1.00  0.00     0.007 A 
ATOM     18  C   UNL     1      43.829 131.456  18.444  1.00  0.00     0.012 A 
ATOM     19  C   UNL     1      46.081 130.582  18.581  1.00  0.00     0.012 A 
ATOM     20  C   UNL     1      45.004 131.031  17.796  1.00  0.00     0.017 A 
BRANCH  20  21
ATOM     21  C   UNL     1      45.123 131.057  16.313  1.00  0.00     0.159 C 
ATOM     22  O   UNL     1      44.398 131.840  15.641  1.00  0.00    -0.295 OA
ATOM     23  C   UNL     1      46.090 130.175  15.580  1.00  0.00     0.093 C 
ENDBRANCH  20  21
ENDBRANCH   8  15
TORSDOF 5
ENDMDL
MODEL 5
REMARK VINA RESULT:      -4.6      4.034      6.140
REMARK SMILES C/C=C(\C)C(=O)N1CC[C@H](C)[C@H](F)[C@@H]1c1ccc(C(C)=O)cc1
REMARK SMILES IDX 7 1 8 2 9 3 10 4 11 5 12 6 13 7 14 8 5 9 6 10 3 11 4 12 2 13
REMARK SMILES IDX 1 14 15 15 16 16 23 17 17 18 22 19 18 20 19 21 21 22 20 23
REMARK H PARENT
ROOT
ATOM      1  N   UNL     1      44.441 125.016  23.182  1.00  0.00    -0.329 N 
ATOM      2  C   UNL     1      44.408 123.546  23.124  1.00  0.00     0.121 C 
ATOM      3  C   UNL     1      42.972 123.018  23.106  1.00  0.00     0.028 C 
ATOM      4  C   UNL     1      42.166 123.604  24.275  1.00  0.00     0.024 C 
ATOM      5  C   UNL     1      40.736 123.048  24.281  1.00  0.00     0.011 C 
ATOM      6  C   UNL     1      42.166 125.140  24.192  1.00  0.00     0.196 C 
ATOM      7  F   UNL     1      41.505 125.546  23.042  1.00  0.00    -0.245 F 
ATOM      8  C   UNL     1      43.611 125.688  24.207  1.00  0.00     0.150 C 
ENDROOT
BRANCH   1   9
ATOM      9  C   UNL     1      45.647 125.645  22.705  1.00  0.00     0.249 C 
ATOM     10  O   UNL     1      45.650 126.888  22.488  1.00  0.00    -0.269 OA
BRANCH   9  11
ATOM     11  C   UNL     1      46.879 124.851  22.456  1.00  0.00     0.010 C 
ATOM     12  C   UNL     1      46.778 123.556  21.687  1.00  0.00     0.050 C 
BRANCH  11  13
ATOM     13  C   UNL     1      48.048 125.236  23.008  1.00  0.00    -0.021 C 
ATOM     14  C   UNL     1      49.313 125.424  22.222  1.00  0.00     0.036 C 
ENDBRANCH  11  13
ENDBRANCH   9  11
ENDBRANCH   1   9
BRANCH   8  15
ATOM     15  C   UNL     1      43.588 127.202  24.041  1.00  0.00    -0.022 A 
ATOM     16  C   UNL     1      42.547 127.844  23.349  1.00  0.00     0.007 A 
ATOM     17  C   UNL     1      44.599 127.983  24.623  1.00  0.00     0.007 A 
ATOM     18  C   UNL     1      42.523 129.235  23.232  1.00  0.00     0.012 A 
ATOM     19  C   UNL     1      44.580 129.377  24.498  1.00  0.00     0.012 A 
ATOM     20  C   UNL     1      43.542 130.021  23.803  1.00  0.00     0.017 A 
BRANCH  20  21
ATOM     21  C   UNL     1      43.531 131.505  23.688  1.00  0.00     0.159 C 
ATOM     22  O   UNL     1      44.277 132.196  24.434  1.00  0.00    -0.295 OA
ATOM     23  C   UNL     1      42.654 132.217  22.700  1.00  0.00     0.093 C 
ENDBRANCH  20  21
ENDBRANCH   8  15
TORSDOF 5
ENDMDL
MODEL 6
REMARK VINA RESULT:      -4.5      2.546      4.307
REMARK SMILES C/C=C(\C)C(=O)N1CC[C@H](C)[C@H](F)[C@@H]1c1ccc(C(C)=O)cc1
REMARK SMILES IDX 7 1 8 2 9 3 10 4 11 5 12 6 13 7 14 8 5 9 6 10 3 11 4 12 2 13
REMARK SMILES IDX 1 14 15 15 16 16 23 17 17 18 22 19 18 20 19 21 21 22 20 23
REMARK H PARENT
ROOT
ATOM      1  N   UNL     1      45.123 132.186  22.563  1.00  0.00    -0.329 N 
ATOM      2  C   UNL     1      44.864 132.313  24.006  1.00  0.00     0.121 C 
ATOM      3  C   UNL     1      44.381 130.991  24.606  1.00  0.00     0.028 C 
ATOM      4  C   UNL     1      43.185 130.441  23.814  1.00  0.00     0.024 C 
ATOM      5  C   UNL     1      42.675 129.134  24.436  1.00  0.00     0.011 C 
ATOM      6  C   UNL     1      43.581 130.240  22.341  1.00  0.00     0.196 C 
ATOM      7  F   UNL     1      44.567 129.268  22.251  1.00  0.00    -0.245 F 
ATOM      8  C   UNL     1      44.073 131.568  21.722  1.00  0.00     0.150 C 
ENDROOT
BRANCH   1   9
ATOM      9  C   UNL     1      46.029 133.151  21.991  1.00  0.00     0.249 C 
ATOM     10  O   UNL     1      45.872 133.509  20.792  1.00  0.00    -0.269 OA
BRANCH   9  11
ATOM     11  C   UNL     1      47.148 133.718  22.789  1.00  0.00     0.010 C 
ATOM     12  C   UNL     1      46.887 134.171  24.205  1.00  0.00     0.050 C 
BRANCH  11  13
ATOM     13  C   UNL     1      48.349 133.919  22.211  1.00  0.00    -0.021 C 
ATOM     14  C   UNL     1      48.855 135.272  21.801  1.00  0.00     0.036 C 
ENDBRANCH  11  13
ENDBRANCH   9  11
ENDBRANCH   1   9
BRANCH   8  15
ATOM     15  C   UNL     1      44.536 131.326  20.291  1.00  0.00    -0.022 A 
ATOM     16  C   UNL     1      45.653 130.519  20.012  1.00  0.00     0.007 A 
ATOM     17  C   UNL     1      43.816 131.881  19.221  1.00  0.00     0.007 A 
ATOM     18  C   UNL     1      46.048 130.282  18.694  1.00  0.00     0.012 A 
ATOM     19  C   UNL     1      44.217 131.650  17.900  1.00  0.00     0.012 A 
ATOM     20  C   UNL     1      45.335 130.847  17.619  1.00  0.00     0.017 A 
BRANCH  20  21
ATOM     21  C   UNL     1      45.742 130.603  16.208  1.00  0.00     0.159 C 
ATOM     22  O   UNL     1      45.842 129.420  15.782  1.00  0.00    -0.295 OA
ATOM     23  C   UNL     1      46.037 131.729  15.262  1.00  0.00     0.093 C 
ENDBRANCH  20  21
ENDBRANCH   8  15
TORSDOF 5
ENDMDL
MODEL 7
REMARK VINA RESULT:      -4.4      1.841      2.813
REMARK SMILES C/C=C(\C)C(=O)N1CC[C@H](C)[C@H](F)[C@@H]1c1ccc(C(C)=O)cc1
REMARK SMILES IDX 7 1 8 2 9 3 10 4 11 5 12 6 13 7 14 8 5 9 6 10 3 11 4 12 2 13
REMARK SMILES IDX 1 14 15 15 16 16 23 17 17 18 22 19 18 20 19 21 21 22 20 23
REMARK H PARENT
ROOT
ATOM      1  N   UNL     1      44.370 130.981  20.971  1.00  0.00    -0.329 N 
ATOM      2  C   UNL     1      43.686 131.260  22.243  1.00  0.00     0.121 C 
ATOM      3  C   UNL     1      42.248 131.731  22.014  1.00  0.00     0.028 C 
ATOM      4  C   UNL     1      42.215 132.909  21.028  1.00  0.00     0.024 C 
ATOM      5  C   UNL     1      40.778 133.407  20.824  1.00  0.00     0.011 C 
ATOM      6  C   UNL     1      42.854 132.491  19.693  1.00  0.00     0.196 C 
ATOM      7  F   UNL     1      42.095 131.490  19.105  1.00  0.00    -0.245 F 
ATOM      8  C   UNL     1      44.307 132.010  19.909  1.00  0.00     0.150 C 
ENDROOT
BRANCH   1   9
ATOM      9  C   UNL     1      45.495 130.082  21.037  1.00  0.00     0.249 C 
ATOM     10  O   UNL     1      46.558 130.377  20.425  1.00  0.00    -0.269 OA
BRANCH   9  11
ATOM     11  C   UNL     1      45.417 128.811  21.806  1.00  0.00     0.010 C 
ATOM     12  C   UNL     1      46.086 127.575  21.256  1.00  0.00     0.050 C 
BRANCH  11  13
ATOM     13  C   UNL     1      44.664 128.749  22.923  1.00  0.00    -0.021 C 
ATOM     14  C   UNL     1      44.543 127.517  23.772  1.00  0.00     0.036 C 
ENDBRANCH  11  13
ENDBRANCH   9  11
ENDBRANCH   1   9
BRANCH   8  15
ATOM     15  C   UNL     1      44.890 131.525  18.588  1.00  0.00    -0.022 A 
ATOM     16  C   UNL     1      45.225 130.174  18.391  1.00  0.00     0.007 A 
ATOM     17  C   UNL     1      45.060 132.427  17.527  1.00  0.00     0.007 A 
ATOM     18  C   UNL     1      45.730 129.738  17.165  1.00  0.00     0.012 A 
ATOM     19  C   UNL     1      45.574 131.992  16.300  1.00  0.00     0.012 A 
ATOM     20  C   UNL     1      45.914 130.642  16.102  1.00  0.00     0.017 A 
BRANCH  20  21
ATOM     21  C   UNL     1      46.450 130.194  14.788  1.00  0.00     0.159 C 
ATOM     22  O   UNL     1      45.891 130.573  13.722  1.00  0.00    -0.295 OA
ATOM     23  C   UNL     1      47.649 129.298  14.685  1.00  0.00     0.093 C 
ENDBRANCH  20  21
ENDBRANCH   8  15
TORSDOF 5
ENDMDL
MODEL 8
REMARK VINA RESULT:      -4.4      2.422      3.020
REMARK SMILES C/C=C(\C)C(=O)N1CC[C@H](C)[C@H](F)[C@@H]1c1ccc(C(C)=O)cc1
REMARK SMILES IDX 7 1 8 2 9 3 10 4 11 5 12 6 13 7 14 8 5 9 6 10 3 11 4 12 2 13
REMARK SMILES IDX 1 14 15 15 16 16 23 17 17 18 22 19 18 20 19 21 21 22 20 23
REMARK H PARENT
ROOT
ATOM      1  N   UNL     1      44.805 132.000  22.477  1.00  0.00    -0.329 N 
ATOM      2  C   UNL     1      45.041 132.460  23.855  1.00  0.00     0.121 C 
ATOM      3  C   UNL     1      45.956 133.686  23.885  1.00  0.00     0.028 C 
ATOM      4  C   UNL     1      47.248 133.418  23.099  1.00  0.00     0.024 C 
ATOM      5  C   UNL     1      48.184 134.632  23.159  1.00  0.00     0.011 C 
ATOM      6  C   UNL     1      46.907 133.048  21.645  1.00  0.00     0.196 C 
ATOM      7  F   UNL     1      46.306 134.129  21.017  1.00  0.00    -0.245 F 
ATOM      8  C   UNL     1      45.982 131.812  21.598  1.00  0.00     0.150 C 
ENDROOT
BRANCH   1   9
ATOM      9  C   UNL     1      43.613 131.217  22.263  1.00  0.00     0.249 C 
ATOM     10  O   UNL     1      42.636 131.736  21.657  1.00  0.00    -0.269 OA
BRANCH   9  11
ATOM     11  C   UNL     1      43.517 129.817  22.754  1.00  0.00     0.010 C 
ATOM     12  C   UNL     1      42.295 129.392  23.532  1.00  0.00     0.050 C 
BRANCH  11  13
ATOM     13  C   UNL     1      44.559 128.978  22.595  1.00  0.00    -0.021 C 
ATOM     14  C   UNL     1      44.572 127.567  23.107  1.00  0.00     0.036 C 
ENDBRANCH  11  13
ENDBRANCH   9  11
ENDBRANCH   1   9
BRANCH   8  15
ATOM     15  C   UNL     1      45.592 131.516  20.156  1.00  0.00    -0.022 A 
ATOM     16  C   UNL     1      44.694 132.343  19.458  1.00  0.00     0.007 A 
ATOM     17  C   UNL     1      46.168 130.425  19.487  1.00  0.00     0.007 A 
ATOM     18  C   UNL     1      44.370 132.077  18.126  1.00  0.00     0.012 A 
ATOM     19  C   UNL     1      45.837 130.153  18.154  1.00  0.00     0.012 A 
ATOM     20  C   UNL     1      44.936 130.975  17.456  1.00  0.00     0.017 A 
BRANCH  20  21
ATOM     21  C   UNL     1      44.602 130.679  16.037  1.00  0.00     0.159 C 
ATOM     22  O   UNL     1      43.890 131.486  15.379  1.00  0.00    -0.295 OA
ATOM     23  C   UNL     1      45.093 129.438  15.350  1.00  0.00     0.093 C 
ENDBRANCH  20  21
ENDBRANCH   8  15
TORSDOF 5
ENDMDL
MODEL 9
REMARK VINA RESULT:      -4.3      3.554      5.940
REMARK SMILES C/C=C(\C)C(=O)N1CC[C@H](C)[C@H](F)[C@@H]1c1ccc(C(C)=O)cc1
REMARK SMILES IDX 7 1 8 2 9 3 10 4 11 5 12 6 13 7 14 8 5 9 6 10 3 11 4 12 2 13
REMARK SMILES IDX 1 14 15 15 16 16 23 17 17 18 22 19 18 20 19 21 21 22 20 23
REMARK H PARENT
ROOT
ATOM      1  N   UNL     1      45.267 124.909  23.512  1.00  0.00    -0.329 N 
ATOM      2  C   UNL     1      45.408 123.454  23.684  1.00  0.00     0.121 C 
ATOM      3  C   UNL     1      44.345 122.692  22.890  1.00  0.00     0.028 C 
ATOM      4  C   UNL     1      42.940 123.215  23.225  1.00  0.00     0.024 C 
ATOM      5  C   UNL     1      41.869 122.429  22.459  1.00  0.00     0.011 C 
ATOM      6  C   UNL     1      42.855 124.720  22.914  1.00  0.00     0.196 C 
ATOM      7  F   UNL     1      43.015 124.924  21.551  1.00  0.00    -0.245 F 
ATOM      8  C   UNL     1      43.925 125.503  23.707  1.00  0.00     0.150 C 
ENDROOT
BRANCH   1   9
ATOM      9  C   UNL     1      46.448 125.697  23.764  1.00  0.00     0.249 C 
ATOM     10  O   UNL     1      46.400 126.625  24.618  1.00  0.00    -0.269 OA
BRANCH   9  11
ATOM     11  C   UNL     1      47.713 125.439  23.027  1.00  0.00     0.010 C 
ATOM     12  C   UNL     1      49.008 125.996  23.568  1.00  0.00     0.050 C 
BRANCH  11  13
ATOM     13  C   UNL     1      47.678 124.808  21.836  1.00  0.00    -0.021 C 
ATOM     14  C   UNL     1      46.467 124.093  21.312  1.00  0.00     0.036 C 
ENDBRANCH  11  13
ENDBRANCH   9  11
ENDBRANCH   1   9
BRANCH   8  15
ATOM     15  C   UNL     1      43.876 126.976  23.320  1.00  0.00    -0.022 A 
ATOM     16  C   UNL     1      42.949 127.853  23.909  1.00  0.00     0.007 A 
ATOM     17  C   UNL     1      44.796 127.485  22.391  1.00  0.00     0.007 A 
ATOM     18  C   UNL     1      42.935 129.207  23.568  1.00  0.00     0.012 A 
ATOM     19  C   UNL     1      44.777 128.840  22.043  1.00  0.00     0.012 A 
ATOM     20  C   UNL     1      43.848 129.719  22.627  1.00  0.00     0.017 A 
BRANCH  20  21
ATOM     21  C   UNL     1      43.848 131.159  22.253  1.00  0.00     0.159 C 
ATOM     22  O   UNL     1      44.872 131.667  21.718  1.00  0.00    -0.295 OA
ATOM     23  C   UNL     1      42.656 132.040  22.489  1.00  0.00     0.093 C 
ENDBRANCH  20  21
ENDBRANCH   8  15
TORSDOF 5
ENDMDL


