REMARK SMILES [H]/N=c1\[nH]cccc1[NH2+]c1ccc(C(C)=O)c(F)c1
REMARK SMILES IDX 9 1 8 4 3 5 4 6 7 7 5 8 6 9 2 11 1 12 10 13 11 14 19 15
REMARK SMILES IDX 12 16 17 17 13 18 18 19 14 20 16 21 15 22
REMARK H PARENT 9 2 9 3 4 10
ROOT
ATOM      1  N   UNL     1      -0.578  -1.870  -0.360  1.00  0.00    -0.278 N 
ATOM      2  H   UNL     1      -1.040  -2.613   0.215  1.00  0.00     0.358 HD
ATOM      3  H   UNL     1      -0.159  -2.359  -1.186  1.00  0.00     0.358 HD
ENDROOT
BRANCH   1   4
ATOM      4  C   UNL     1      -1.549  -0.894  -0.803  1.00  0.00     0.177 A 
ATOM      5  C   UNL     1      -2.649  -0.521   0.005  1.00  0.00     0.185 A 
ATOM      6  N   UNL     1      -3.528   0.427  -0.439  1.00  0.00    -0.342 N 
ATOM      7  C   UNL     1      -1.391  -0.263  -2.048  1.00  0.00     0.074 A 
ATOM      8  C   UNL     1      -3.376   1.035  -1.646  1.00  0.00     0.084 A 
ATOM      9  C   UNL     1      -2.304   0.700  -2.471  1.00  0.00     0.024 A 
ATOM     10  H   UNL     1      -4.343   0.704   0.154  1.00  0.00     0.168 HD
BRANCH   5  11
ATOM     11  N   UNL     1      -2.827  -1.077   1.163  1.00  0.00    -0.279 NA
ATOM     12  H   UNL     1      -3.627  -0.827   1.785  1.00  0.00     0.190 HD
ENDBRANCH   5  11
ENDBRANCH   1   4
BRANCH   1  13
ATOM     13  C   UNL     1       0.464  -1.217   0.394  1.00  0.00     0.137 A 
ATOM     14  C   UNL     1       0.415  -1.178   1.796  1.00  0.00     0.069 A 
ATOM     15  C   UNL     1       1.533  -0.590  -0.266  1.00  0.00     0.108 A 
ATOM     16  C   UNL     1       1.412  -0.524   2.522  1.00  0.00     0.021 A 
ATOM     17  C   UNL     1       2.534   0.067   0.456  1.00  0.00     0.139 A 
ATOM     18  C   UNL     1       2.482   0.114   1.867  1.00  0.00     0.053 A 
ATOM     19  F   UNL     1       3.560   0.623  -0.236  1.00  0.00    -0.206 F 
BRANCH  18  20
ATOM     20  C   UNL     1       3.520   0.806   2.681  1.00  0.00     0.162 C 
ATOM     21  O   UNL     1       3.649   0.512   3.900  1.00  0.00    -0.294 OA
ATOM     22  C   UNL     1       4.434   1.846   2.105  1.00  0.00     0.093 C 
ENDBRANCH  18  20
ENDBRANCH   1  13
TORSDOF 4


