REMARK SMILES Cc1ccc(-c2ccc(C#N)cc2)c2c[n-]nc12
REMARK SMILES IDX 6 1 7 2 8 3 9 4 12 5 13 6 5 7 2 8 3 9 18 10 4 11 17 12 14 13
REMARK SMILES IDX 16 14 15 15 1 16 10 17 11 18
REMARK H PARENT
ROOT
ATOM      1  C   UNL     1       0.977   0.724  -1.222  1.00  0.00    -0.018 A 
ATOM      2  C   UNL     1       1.680   1.925  -1.026  1.00  0.00     0.010 A 
ATOM      3  C   UNL     1       1.448   3.024  -1.859  1.00  0.00     0.020 A 
ATOM      4  C   UNL     1       0.507   2.937  -2.892  1.00  0.00     0.052 A 
ATOM      5  C   UNL     1      -0.204   1.747  -3.087  1.00  0.00     0.020 A 
ATOM      6  C   UNL     1       0.026   0.648  -2.255  1.00  0.00     0.010 A 
ENDROOT
BRANCH   1   7
ATOM      7  C   UNL     1       1.217  -0.435  -0.331  1.00  0.00    -0.011 A 
ATOM      8  C   UNL     1       1.662  -2.673   1.389  1.00  0.00    -0.027 A 
ATOM      9  C   UNL     1       1.472  -1.381   1.923  1.00  0.00     0.006 A 
ATOM     10  C   UNL     1       1.647  -2.800  -0.003  1.00  0.00     0.050 A 
ATOM     11  C   UNL     1       1.250  -0.275   1.073  1.00  0.00     0.010 A 
ATOM     12  N   UNL     1       1.859  -3.910  -0.731  1.00  0.00    -0.367 NA
ATOM     13  C   UNL     1       1.430  -1.730  -0.826  1.00  0.00    -0.014 A 
ATOM     14  N   UNL     1       1.785  -3.564  -2.012  1.00  0.00    -0.581 NA
ATOM     15  C   UNL     1       1.529  -2.239  -2.102  1.00  0.00    -0.113 A 
ATOM     16  C   UNL     1       1.945  -3.847   2.278  1.00  0.00     0.046 C 
ENDBRANCH   1   7
BRANCH   4  17
ATOM     17  C   UNL     1       0.269   4.069  -3.749  1.00  0.00     0.099 C 
ATOM     18  N   UNL     1       0.077   4.979  -4.438  1.00  0.00    -0.192 NA
ENDBRANCH   4  17
TORSDOF 2


