MODEL 1
REMARK VINA RESULT:      -9.1      0.000      0.000
REMARK SMILES CC(=O)c1ccc(Nc2cccnc2N)cc1F
REMARK SMILES IDX 8 1 7 3 4 4 5 5 17 6 6 7 16 8 18 9 2 10 1 11 3 12 9 13 10 14
REMARK SMILES IDX 14 15 11 16 13 17 12 18 15 19
REMARK H PARENT 8 2 15 20 15 21
ROOT
ATOM      1  N   UNL     1      43.741 131.948  17.694  1.00  0.00    -0.352 N 
ATOM      2  H   UNL     1      42.817 132.321  17.378  1.00  0.00     0.167 HD
ENDROOT
BRANCH   1   3
ATOM      3  C   UNL     1      44.682 131.519  16.693  1.00  0.00     0.041 A 
ATOM      4  C   UNL     1      46.531 130.619  14.748  1.00  0.00     0.053 A 
ATOM      5  C   UNL     1      46.493 131.972  15.135  1.00  0.00     0.017 A 
ATOM      6  C   UNL     1      45.624 129.720  15.352  1.00  0.00     0.136 A 
ATOM      7  C   UNL     1      45.585 132.416  16.099  1.00  0.00     0.027 A 
ATOM      8  C   UNL     1      44.717 130.171  16.316  1.00  0.00     0.066 A 
ATOM      9  F   UNL     1      45.580 128.412  14.997  1.00  0.00    -0.206 F 
BRANCH   4  10
ATOM     10  C   UNL     1      47.518 130.187  13.720  1.00  0.00     0.162 C 
ATOM     11  C   UNL     1      47.814 130.999  12.495  1.00  0.00     0.093 C 
ATOM     12  O   UNL     1      48.141 129.102  13.877  1.00  0.00    -0.294 OA
ENDBRANCH   4  10
ENDBRANCH   1   3
BRANCH   1  13
ATOM     13  C   UNL     1      43.915 131.728  19.102  1.00  0.00     0.081 A 
ATOM     14  C   UNL     1      45.055 131.052  19.552  1.00  0.00     0.031 A 
ATOM     15  C   UNL     1      42.957 132.151  20.050  1.00  0.00     0.147 A 
ATOM     16  C   UNL     1      45.256 130.846  20.917  1.00  0.00     0.022 A 
ATOM     17  N   UNL     1      43.184 131.936  21.375  1.00  0.00    -0.238 NA
ATOM     18  C   UNL     1      44.304 131.309  21.824  1.00  0.00     0.113 A 
BRANCH  15  19
ATOM     19  N   UNL     1      41.728 132.765  19.650  1.00  0.00    -0.382 N 
ATOM     20  H   UNL     1      41.713 133.419  18.837  1.00  0.00     0.158 HD
ATOM     21  H   UNL     1      40.844 132.631  20.188  1.00  0.00     0.158 HD
ENDBRANCH  15  19
ENDBRANCH   1  13
TORSDOF 4
ENDMDL
MODEL 2
REMARK VINA RESULT:      -8.9      3.573      6.532
REMARK SMILES CC(=O)c1ccc(Nc2cccnc2N)cc1F
REMARK SMILES IDX 8 1 7 3 4 4 5 5 17 6 6 7 16 8 18 9 2 10 1 11 3 12 9 13 10 14
REMARK SMILES IDX 14 15 11 16 13 17 12 18 15 19
REMARK H PARENT 8 2 15 20 15 21
ROOT
ATOM      1  N   UNL     1      44.742 131.474  15.227  1.00  0.00    -0.352 N 
ATOM      2  H   UNL     1      44.160 132.057  14.584  1.00  0.00     0.167 HD
ENDROOT
BRANCH   1   3
ATOM      3  C   UNL     1      44.448 131.511  16.636  1.00  0.00     0.041 A 
ATOM      4  C   UNL     1      43.819 131.619  19.393  1.00  0.00     0.053 A 
ATOM      5  C   UNL     1      45.146 131.435  18.964  1.00  0.00     0.017 A 
ATOM      6  C   UNL     1      42.806 131.747  18.417  1.00  0.00     0.136 A 
ATOM      7  C   UNL     1      45.459 131.388  17.603  1.00  0.00     0.027 A 
ATOM      8  C   UNL     1      43.125 131.699  17.056  1.00  0.00     0.066 A 
ATOM      9  F   UNL     1      41.502 131.888  18.761  1.00  0.00    -0.206 F 
BRANCH   4  10
ATOM     10  C   UNL     1      43.530 131.668  20.854  1.00  0.00     0.162 C 
ATOM     11  C   UNL     1      44.392 130.981  21.869  1.00  0.00     0.093 C 
ATOM     12  O   UNL     1      42.528 132.314  21.265  1.00  0.00    -0.294 OA
ENDBRANCH   4  10
ENDBRANCH   1   3
BRANCH   1  13
ATOM     13  C   UNL     1      45.897 130.829  14.668  1.00  0.00     0.081 A 
ATOM     14  C   UNL     1      46.781 131.575  13.879  1.00  0.00     0.031 A 
ATOM     15  C   UNL     1      46.156 129.455  14.867  1.00  0.00     0.147 A 
ATOM     16  C   UNL     1      47.920 130.974  13.344  1.00  0.00     0.022 A 
ATOM     17  N   UNL     1      47.279 128.900  14.331  1.00  0.00    -0.238 NA
ATOM     18  C   UNL     1      48.160 129.623  13.591  1.00  0.00     0.113 A 
BRANCH  15  19
ATOM     19  N   UNL     1      45.245 128.616  15.584  1.00  0.00    -0.382 N 
ATOM     20  H   UNL     1      44.262 128.929  15.739  1.00  0.00     0.158 HD
ATOM     21  H   UNL     1      45.549 127.719  16.021  1.00  0.00     0.158 HD
ENDBRANCH  15  19
ENDBRANCH   1  13
TORSDOF 4
ENDMDL
MODEL 3
REMARK VINA RESULT:      -8.6      3.299      6.483
REMARK SMILES CC(=O)c1ccc(Nc2cccnc2N)cc1F
REMARK SMILES IDX 8 1 7 3 4 4 5 5 17 6 6 7 16 8 18 9 2 10 1 11 3 12 9 13 10 14
REMARK SMILES IDX 14 15 11 16 13 17 12 18 15 19
REMARK H PARENT 8 2 15 20 15 21
ROOT
ATOM      1  N   UNL     1      44.467 131.237  15.499  1.00  0.00    -0.352 N 
ATOM      2  H   UNL     1      43.704 131.619  14.895  1.00  0.00     0.167 HD
ENDROOT
BRANCH   1   3
ATOM      3  C   UNL     1      44.330 131.354  16.927  1.00  0.00     0.041 A 
ATOM      4  C   UNL     1      44.105 131.542  19.743  1.00  0.00     0.053 A 
ATOM      5  C   UNL     1      43.027 131.893  18.908  1.00  0.00     0.017 A 
ATOM      6  C   UNL     1      45.303 131.094  19.143  1.00  0.00     0.136 A 
ATOM      7  C   UNL     1      43.135 131.795  17.519  1.00  0.00     0.027 A 
ATOM      8  C   UNL     1      45.405 130.999  17.751  1.00  0.00     0.066 A 
ATOM      9  F   UNL     1      46.393 130.777  19.885  1.00  0.00    -0.206 F 
BRANCH   4  10
ATOM     10  C   UNL     1      43.945 131.657  21.219  1.00  0.00     0.162 C 
ATOM     11  C   UNL     1      42.607 131.814  21.875  1.00  0.00     0.093 C 
ATOM     12  O   UNL     1      44.967 131.616  21.957  1.00  0.00    -0.294 OA
ENDBRANCH   4  10
ENDBRANCH   1   3
BRANCH   1  13
ATOM     13  C   UNL     1      45.665 130.792  14.844  1.00  0.00     0.081 A 
ATOM     14  C   UNL     1      46.456 131.724  14.161  1.00  0.00     0.031 A 
ATOM     15  C   UNL     1      46.058 129.436  14.845  1.00  0.00     0.147 A 
ATOM     16  C   UNL     1      47.635 131.318  13.537  1.00  0.00     0.022 A 
ATOM     17  N   UNL     1      47.217 129.073  14.227  1.00  0.00    -0.238 NA
ATOM     18  C   UNL     1      48.008 129.976  13.589  1.00  0.00     0.113 A 
BRANCH  15  19
ATOM     19  N   UNL     1      45.248 128.421  15.445  1.00  0.00    -0.382 N 
ATOM     20  H   UNL     1      44.595 128.667  16.221  1.00  0.00     0.158 HD
ATOM     21  H   UNL     1      45.333 127.416  15.175  1.00  0.00     0.158 HD
ENDBRANCH  15  19
ENDBRANCH   1  13
TORSDOF 4
ENDMDL
MODEL 4
REMARK VINA RESULT:      -8.5      1.185      1.294
REMARK SMILES CC(=O)c1ccc(Nc2cccnc2N)cc1F
REMARK SMILES IDX 8 1 7 3 4 4 5 5 17 6 6 7 16 8 18 9 2 10 1 11 3 12 9 13 10 14
REMARK SMILES IDX 14 15 11 16 13 17 12 18 15 19
REMARK H PARENT 8 2 15 20 15 21
ROOT
ATOM      1  N   UNL     1      43.371 131.933  18.108  1.00  0.00    -0.352 N 
ATOM      2  H   UNL     1      42.441 132.291  17.791  1.00  0.00     0.167 HD
ENDROOT
BRANCH   1   3
ATOM      3  C   UNL     1      44.308 131.491  17.108  1.00  0.00     0.041 A 
ATOM      4  C   UNL     1      46.103 130.614  15.103  1.00  0.00     0.053 A 
ATOM      5  C   UNL     1      46.438 130.510  16.466  1.00  0.00     0.017 A 
ATOM      6  C   UNL     1      44.850 131.168  14.758  1.00  0.00     0.136 A 
ATOM      7  C   UNL     1      45.550 130.937  17.457  1.00  0.00     0.027 A 
ATOM      8  C   UNL     1      43.966 131.594  15.754  1.00  0.00     0.066 A 
ATOM      9  F   UNL     1      44.480 131.333  13.463  1.00  0.00    -0.206 F 
BRANCH   4  10
ATOM     10  C   UNL     1      47.077 130.142  14.080  1.00  0.00     0.162 C 
ATOM     11  C   UNL     1      47.572 131.022  12.972  1.00  0.00     0.093 C 
ATOM     12  O   UNL     1      47.514 128.960  14.140  1.00  0.00    -0.294 OA
ENDBRANCH   4  10
ENDBRANCH   1   3
BRANCH   1  13
ATOM     13  C   UNL     1      43.558 131.745  19.519  1.00  0.00     0.081 A 
ATOM     14  C   UNL     1      44.656 131.002  19.969  1.00  0.00     0.031 A 
ATOM     15  C   UNL     1      42.654 132.266  20.470  1.00  0.00     0.147 A 
ATOM     16  C   UNL     1      44.871 130.825  21.336  1.00  0.00     0.022 A 
ATOM     17  N   UNL     1      42.893 132.077  21.797  1.00  0.00    -0.238 NA
ATOM     18  C   UNL     1      43.974 131.384  22.245  1.00  0.00     0.113 A 
BRANCH  15  19
ATOM     19  N   UNL     1      41.464 132.955  20.073  1.00  0.00    -0.382 N 
ATOM     20  H   UNL     1      41.528 133.918  19.675  1.00  0.00     0.158 HD
ATOM     21  H   UNL     1      40.515 132.551  20.229  1.00  0.00     0.158 HD
ENDBRANCH  15  19
ENDBRANCH   1  13
TORSDOF 4
ENDMDL
MODEL 5
REMARK VINA RESULT:      -8.3      1.127      1.603
REMARK SMILES CC(=O)c1ccc(Nc2cccnc2N)cc1F
REMARK SMILES IDX 8 1 7 3 4 4 5 5 17 6 6 7 16 8 18 9 2 10 1 11 3 12 9 13 10 14
REMARK SMILES IDX 14 15 11 16 13 17 12 18 15 19
REMARK H PARENT 8 2 15 20 15 21
ROOT
ATOM      1  N   UNL     1      43.657 131.719  17.758  1.00  0.00    -0.352 N 
ATOM      2  H   UNL     1      42.703 132.006  17.440  1.00  0.00     0.167 HD
ENDROOT
BRANCH   1   3
ATOM      3  C   UNL     1      44.610 131.299  16.763  1.00  0.00     0.041 A 
ATOM      4  C   UNL     1      46.482 130.532  14.784  1.00  0.00     0.053 A 
ATOM      5  C   UNL     1      45.645 129.578  15.393  1.00  0.00     0.017 A 
ATOM      6  C   UNL     1      46.367 131.882  15.184  1.00  0.00     0.136 A 
ATOM      7  C   UNL     1      44.716 129.957  16.365  1.00  0.00     0.027 A 
ATOM      8  C   UNL     1      45.436 132.254  16.159  1.00  0.00     0.066 A 
ATOM      9  F   UNL     1      47.169 132.846  14.667  1.00  0.00    -0.206 F 
BRANCH   4  10
ATOM     10  C   UNL     1      47.454 130.086  13.748  1.00  0.00     0.162 C 
ATOM     11  C   UNL     1      47.759 130.898  12.525  1.00  0.00     0.093 C 
ATOM     12  O   UNL     1      48.055 128.987  13.896  1.00  0.00    -0.294 OA
ENDBRANCH   4  10
ENDBRANCH   1   3
BRANCH   1  13
ATOM     13  C   UNL     1      43.871 131.597  19.172  1.00  0.00     0.081 A 
ATOM     14  C   UNL     1      45.075 131.055  19.637  1.00  0.00     0.031 A 
ATOM     15  C   UNL     1      42.892 131.984  20.113  1.00  0.00     0.147 A 
ATOM     16  C   UNL     1      45.314 130.947  21.007  1.00  0.00     0.022 A 
ATOM     17  N   UNL     1      43.157 131.867  21.444  1.00  0.00    -0.238 NA
ATOM     18  C   UNL     1      44.336 131.372  21.905  1.00  0.00     0.113 A 
BRANCH  15  19
ATOM     19  N   UNL     1      41.606 132.459  19.704  1.00  0.00    -0.382 N 
ATOM     20  H   UNL     1      41.382 133.476  19.767  1.00  0.00     0.158 HD
ATOM     21  H   UNL     1      40.848 131.808  19.401  1.00  0.00     0.158 HD
ENDBRANCH  15  19
ENDBRANCH   1  13
TORSDOF 4
ENDMDL
MODEL 6
REMARK VINA RESULT:      -8.2      0.990      1.017
REMARK SMILES CC(=O)c1ccc(Nc2cccnc2N)cc1F
REMARK SMILES IDX 8 1 7 3 4 4 5 5 17 6 6 7 16 8 18 9 2 10 1 11 3 12 9 13 10 14
REMARK SMILES IDX 14 15 11 16 13 17 12 18 15 19
REMARK H PARENT 8 2 15 20 15 21
ROOT
ATOM      1  N   UNL     1      43.342 131.817  17.452  1.00  0.00    -0.352 N 
ATOM      2  H   UNL     1      42.387 132.046  17.095  1.00  0.00     0.167 HD
ENDROOT
BRANCH   1   3
ATOM      3  C   UNL     1      44.344 131.405  16.504  1.00  0.00     0.041 A 
ATOM      4  C   UNL     1      46.356 130.592  14.687  1.00  0.00     0.053 A 
ATOM      5  C   UNL     1      45.230 131.309  14.242  1.00  0.00     0.017 A 
ATOM      6  C   UNL     1      46.459 130.285  16.062  1.00  0.00     0.136 A 
ATOM      7  C   UNL     1      44.239 131.716  15.139  1.00  0.00     0.027 A 
ATOM      8  C   UNL     1      45.464 130.695  16.955  1.00  0.00     0.066 A 
ATOM      9  F   UNL     1      47.498 129.564  16.552  1.00  0.00    -0.206 F 
BRANCH   4  10
ATOM     10  C   UNL     1      47.391 130.182  13.697  1.00  0.00     0.162 C 
ATOM     11  C   UNL     1      47.821 131.067  12.567  1.00  0.00     0.093 C 
ATOM     12  O   UNL     1      47.937 129.050  13.807  1.00  0.00    -0.294 OA
ENDBRANCH   4  10
ENDBRANCH   1   3
BRANCH   1  13
ATOM     13  C   UNL     1      43.517 131.761  18.876  1.00  0.00     0.081 A 
ATOM     14  C   UNL     1      44.694 131.213  19.399  1.00  0.00     0.031 A 
ATOM     15  C   UNL     1      42.524 132.220  19.770  1.00  0.00     0.147 A 
ATOM     16  C   UNL     1      44.894 131.168  20.778  1.00  0.00     0.022 A 
ATOM     17  N   UNL     1      42.753 132.163  21.112  1.00  0.00    -0.238 NA
ATOM     18  C   UNL     1      43.906 131.662  21.628  1.00  0.00     0.113 A 
BRANCH  15  19
ATOM     19  N   UNL     1      41.262 132.706  19.304  1.00  0.00    -0.382 N 
ATOM     20  H   UNL     1      41.226 133.525  18.658  1.00  0.00     0.158 HD
ATOM     21  H   UNL     1      40.359 132.307  19.640  1.00  0.00     0.158 HD
ENDBRANCH  15  19
ENDBRANCH   1  13
TORSDOF 4
ENDMDL
MODEL 7
REMARK VINA RESULT:      -7.7      0.921      1.618
REMARK SMILES CC(=O)c1ccc(Nc2cccnc2N)cc1F
REMARK SMILES IDX 8 1 7 3 4 4 5 5 17 6 6 7 16 8 18 9 2 10 1 11 3 12 9 13 10 14
REMARK SMILES IDX 14 15 11 16 13 17 12 18 15 19
REMARK H PARENT 8 2 15 20 15 21
ROOT
ATOM      1  N   UNL     1      43.599 131.846  17.759  1.00  0.00    -0.352 N 
ATOM      2  H   UNL     1      42.653 132.152  17.437  1.00  0.00     0.167 HD
ENDROOT
BRANCH   1   3
ATOM      3  C   UNL     1      44.562 131.447  16.766  1.00  0.00     0.041 A 
ATOM      4  C   UNL     1      46.451 130.604  14.834  1.00  0.00     0.053 A 
ATOM      5  C   UNL     1      46.425 131.938  15.283  1.00  0.00     0.017 A 
ATOM      6  C   UNL     1      45.511 129.695  15.369  1.00  0.00     0.136 A 
ATOM      7  C   UNL     1      45.496 132.353  16.240  1.00  0.00     0.027 A 
ATOM      8  C   UNL     1      44.585 130.117  16.327  1.00  0.00     0.066 A 
ATOM      9  F   UNL     1      45.456 128.405  14.953  1.00  0.00    -0.206 F 
BRANCH   4  10
ATOM     10  C   UNL     1      47.460 130.202  13.815  1.00  0.00     0.162 C 
ATOM     11  C   UNL     1      47.807 131.066  12.640  1.00  0.00     0.093 C 
ATOM     12  O   UNL     1      48.057 129.098  13.937  1.00  0.00    -0.294 OA
ENDBRANCH   4  10
ENDBRANCH   1   3
BRANCH   1  13
ATOM     13  C   UNL     1      43.791 131.679  19.172  1.00  0.00     0.081 A 
ATOM     14  C   UNL     1      42.804 132.134  20.054  1.00  0.00     0.031 A 
ATOM     15  C   UNL     1      44.959 131.090  19.704  1.00  0.00     0.147 A 
ATOM     16  C   UNL     1      42.959 131.964  21.429  1.00  0.00     0.022 A 
ATOM     17  N   UNL     1      45.078 130.936  21.052  1.00  0.00    -0.238 NA
ATOM     18  C   UNL     1      44.111 131.346  21.915  1.00  0.00     0.113 A 
BRANCH  15  19
ATOM     19  N   UNL     1      46.044 130.687  18.864  1.00  0.00    -0.382 N 
ATOM     20  H   UNL     1      46.583 131.404  18.329  1.00  0.00     0.158 HD
ATOM     21  H   UNL     1      46.281 129.682  18.712  1.00  0.00     0.158 HD
ENDBRANCH  15  19
ENDBRANCH   1  13
TORSDOF 4
ENDMDL
MODEL 8
REMARK VINA RESULT:      -7.6      3.486      6.619
REMARK SMILES CC(=O)c1ccc(Nc2cccnc2N)cc1F
REMARK SMILES IDX 8 1 7 3 4 4 5 5 17 6 6 7 16 8 18 9 2 10 1 11 3 12 9 13 10 14
REMARK SMILES IDX 14 15 11 16 13 17 12 18 15 19
REMARK H PARENT 8 2 15 20 15 21
ROOT
ATOM      1  N   UNL     1      43.896 131.668  16.634  1.00  0.00    -0.352 N 
ATOM      2  H   UNL     1      43.276 132.330  16.114  1.00  0.00     0.167 HD
ENDROOT
BRANCH   1   3
ATOM      3  C   UNL     1      43.782 131.609  18.068  1.00  0.00     0.041 A 
ATOM      4  C   UNL     1      43.607 131.455  20.888  1.00  0.00     0.053 A 
ATOM      5  C   UNL     1      42.471 131.744  20.111  1.00  0.00     0.017 A 
ATOM      6  C   UNL     1      44.839 131.244  20.229  1.00  0.00     0.136 A 
ATOM      7  C   UNL     1      42.555 131.814  18.718  1.00  0.00     0.027 A 
ATOM      8  C   UNL     1      44.916 131.317  18.835  1.00  0.00     0.066 A 
ATOM      9  F   UNL     1      45.980 131.001  20.920  1.00  0.00    -0.206 F 
BRANCH   4  10
ATOM     10  C   UNL     1      43.472 131.385  22.370  1.00  0.00     0.162 C 
ATOM     11  C   UNL     1      44.102 130.298  23.187  1.00  0.00     0.093 C 
ATOM     12  O   UNL     1      42.809 132.272  22.973  1.00  0.00    -0.294 OA
ENDBRANCH   4  10
ENDBRANCH   1   3
BRANCH   1  13
ATOM     13  C   UNL     1      44.931 131.010  15.886  1.00  0.00     0.081 A 
ATOM     14  C   UNL     1      44.893 129.618  15.746  1.00  0.00     0.031 A 
ATOM     15  C   UNL     1      46.003 131.723  15.306  1.00  0.00     0.147 A 
ATOM     16  C   UNL     1      45.875 128.960  15.006  1.00  0.00     0.022 A 
ATOM     17  N   UNL     1      46.945 131.050  14.587  1.00  0.00    -0.238 NA
ATOM     18  C   UNL     1      46.899 129.702  14.419  1.00  0.00     0.113 A 
BRANCH  15  19
ATOM     19  N   UNL     1      46.151 133.134  15.488  1.00  0.00    -0.382 N 
ATOM     20  H   UNL     1      46.974 133.508  16.009  1.00  0.00     0.158 HD
ATOM     21  H   UNL     1      45.423 133.811  15.171  1.00  0.00     0.158 HD
ENDBRANCH  15  19
ENDBRANCH   1  13
TORSDOF 4
ENDMDL
MODEL 9
REMARK VINA RESULT:      -7.4      3.490      6.739
REMARK SMILES CC(=O)c1ccc(Nc2cccnc2N)cc1F
REMARK SMILES IDX 8 1 7 3 4 4 5 5 17 6 6 7 16 8 18 9 2 10 1 11 3 12 9 13 10 14
REMARK SMILES IDX 14 15 11 16 13 17 12 18 15 19
REMARK H PARENT 8 2 15 20 15 21
ROOT
ATOM      1  N   UNL     1      44.300 131.802  17.230  1.00  0.00    -0.352 N 
ATOM      2  H   UNL     1      43.802 132.647  16.870  1.00  0.00     0.167 HD
ENDROOT
BRANCH   1   3
ATOM      3  C   UNL     1      44.303 131.563  18.649  1.00  0.00     0.041 A 
ATOM      4  C   UNL     1      44.267 131.142  21.448  1.00  0.00     0.053 A 
ATOM      5  C   UNL     1      45.371 130.739  20.672  1.00  0.00     0.017 A 
ATOM      6  C   UNL     1      43.176 131.760  20.798  1.00  0.00     0.136 A 
ATOM      7  C   UNL     1      45.392 130.953  19.292  1.00  0.00     0.027 A 
ATOM      8  C   UNL     1      43.203 131.970  19.415  1.00  0.00     0.066 A 
ATOM      9  F   UNL     1      42.065 132.136  21.479  1.00  0.00    -0.206 F 
BRANCH   4  10
ATOM     10  C   UNL     1      44.288 130.899  22.918  1.00  0.00     0.162 C 
ATOM     11  C   UNL     1      44.114 132.001  23.919  1.00  0.00     0.093 C 
ATOM     12  O   UNL     1      44.453 129.726  23.349  1.00  0.00    -0.294 OA
ENDBRANCH   4  10
ENDBRANCH   1   3
BRANCH   1  13
ATOM     13  C   UNL     1      45.089 131.054  16.291  1.00  0.00     0.081 A 
ATOM     14  C   UNL     1      44.971 129.660  16.258  1.00  0.00     0.031 A 
ATOM     15  C   UNL     1      46.002 131.681  15.415  1.00  0.00     0.147 A 
ATOM     16  C   UNL     1      45.712 128.915  15.340  1.00  0.00     0.022 A 
ATOM     17  N   UNL     1      46.708 130.925  14.529  1.00  0.00    -0.238 NA
ATOM     18  C   UNL     1      46.577 129.573  14.467  1.00  0.00     0.113 A 
BRANCH  15  19
ATOM     19  N   UNL     1      46.237 133.092  15.461  1.00  0.00    -0.382 N 
ATOM     20  H   UNL     1      45.972 133.690  14.648  1.00  0.00     0.158 HD
ATOM     21  H   UNL     1      46.729 133.543  16.262  1.00  0.00     0.158 HD
ENDBRANCH  15  19
ENDBRANCH   1  13
TORSDOF 4
ENDMDL


