REMARK SMILES C#C[C@@H]1CNC(=[NH2+])[C@@H](Nc2cc(C)c3c(n[nH+]n3C)c2O)C1
REMARK SMILES IDX 9 1 8 3 3 4 4 5 22 6 5 7 6 8 2 10 1 11 7 12 10 15 11 16
REMARK SMILES IDX 20 17 12 18 15 19 14 20 16 21 18 22 17 23 13 24 19 25 21 27
REMARK H PARENT 9 2 5 9 7 13 7 14 17 26 21 28
ROOT
ATOM      1  N   UNL     1       0.073   0.959   1.237  1.00  0.00    -0.368 N 
ATOM      2  H   UNL     1      -0.075   1.915   1.632  1.00  0.00     0.161 HD
ENDROOT
BRANCH   1   3
ATOM      3  C   UNL     1       1.282   0.237   1.662  1.00  0.00     0.195 C 
ATOM      4  C   UNL     1       2.995   1.716   0.509  1.00  0.00     0.108 C 
ATOM      5  C   UNL     1       3.695   2.035   1.836  1.00  0.00     0.250 C 
ATOM      6  C   UNL     1       2.366   0.316   0.571  1.00  0.00     0.058 C 
ATOM      7  N   UNL     1       2.798   1.830   2.971  1.00  0.00    -0.276 N 
ATOM      8  C   UNL     1       1.785   0.810   2.970  1.00  0.00     0.263 C 
ATOM      9  H   UNL     1       3.044   2.300   3.871  1.00  0.00     0.304 HD
BRANCH   4  10
ATOM     10  C   UNL     1       3.959   1.790  -0.600  1.00  0.00    -0.099 C 
ATOM     11  C   UNL     1       4.748   1.851  -1.509  1.00  0.00     0.004 C 
ENDBRANCH   4  10
BRANCH   8  12
ATOM     12  N   UNL     1       1.216   0.466   4.087  1.00  0.00    -0.289 N 
ATOM     13  H   UNL     1       1.519   0.883   4.995  1.00  0.00     0.301 HD
ATOM     14  H   UNL     1       0.441  -0.235   4.104  1.00  0.00     0.301 HD
ENDBRANCH   8  12
ENDBRANCH   1   3
BRANCH   1  15
ATOM     15  C   UNL     1      -0.889   0.465   0.279  1.00  0.00     0.080 A 
ATOM     16  C   UNL     1      -0.767  -0.830  -0.304  1.00  0.00     0.035 A 
ATOM     17  C   UNL     1      -1.982   1.286  -0.089  1.00  0.00     0.173 A 
ATOM     18  C   UNL     1      -1.710  -1.312  -1.242  1.00  0.00    -0.017 A 
ATOM     19  C   UNL     1      -2.896   0.786  -1.014  1.00  0.00     0.206 A 
ATOM     20  C   UNL     1      -2.775  -0.456  -1.573  1.00  0.00     0.140 A 
ATOM     21  N   UNL     1      -3.996   1.390  -1.502  1.00  0.00     0.029 NA
ATOM     22  N   UNL     1      -3.822  -0.608  -2.414  1.00  0.00    -0.132 N 
ATOM     23  N   UNL     1      -4.530   0.515  -2.346  1.00  0.00    -0.016 N 
ATOM     24  C   UNL     1      -1.543  -2.682  -1.837  1.00  0.00     0.047 C 
ATOM     25  C   UNL     1      -4.176  -1.742  -3.262  1.00  0.00     0.226 C 
ATOM     26  H   UNL     1      -5.404   0.697  -2.889  1.00  0.00     0.526 HD
BRANCH  17  27
ATOM     27  O   UNL     1      -2.140   2.560   0.457  1.00  0.00    -0.504 OA
ATOM     28  H   UNL     1      -2.918   3.157   0.201  1.00  0.00     0.293 HD
ENDBRANCH  17  27
ENDBRANCH   1  15
TORSDOF 5


