REMARK SMILES CCNC(=O)[N-]CC(=O)n1nc2cc(-c3cnc(F)cc3C)ccc2c1C
REMARK SMILES IDX 7 1 6 2 4 3 3 4 5 6 2 7 1 8 8 9 9 10 10 11 11 12 26 13 12 14
REMARK SMILES IDX 25 15 13 16 24 17 14 18 23 19 27 20 15 21 16 22 21 23 17 24
REMARK SMILES IDX 20 25 18 26 22 27 19 28
REMARK H PARENT 3 5
ROOT
ATOM      1  C   UNL     1       2.562  -0.560   4.220  1.00  0.00     0.106 C 
ENDROOT
BRANCH   1   2
ATOM      2  N   UNL     1       1.154  -0.900   4.394  1.00  0.00    -0.421 NA
BRANCH   2   3
ATOM      3  C   UNL     1       0.689  -2.224   4.677  1.00  0.00     0.153 C 
ATOM      4  N   UNL     1      -0.717  -2.466   4.789  1.00  0.00    -0.450 N 
ATOM      5  H   UNL     1      -1.370  -1.660   4.661  1.00  0.00     0.024 HD
ATOM      6  O   UNL     1       1.512  -3.168   4.826  1.00  0.00    -0.299 OA
BRANCH   4   7
ATOM      7  C   UNL     1      -1.242  -3.802   5.068  1.00  0.00    -0.002 C 
ATOM      8  C   UNL     1      -2.766  -3.788   5.130  1.00  0.00     0.003 C 
ENDBRANCH   4   7
ENDBRANCH   2   3
ENDBRANCH   1   2
BRANCH   1   9
ATOM      9  C   UNL     1       3.091  -1.163   2.951  1.00  0.00     0.246 C 
ATOM     10  O   UNL     1       3.970  -2.064   3.025  1.00  0.00    -0.273 OA
BRANCH   9  11
ATOM     11  N   UNL     1       2.592  -0.729   1.673  1.00  0.00    -0.204 N 
ATOM     12  N   UNL     1       1.690   0.242   1.548  1.00  0.00    -0.165 NA
ATOM     13  C   UNL     1       2.925  -1.210   0.443  1.00  0.00     0.052 A 
ATOM     14  C   UNL     1       1.447   0.384   0.234  1.00  0.00     0.094 A 
ATOM     15  C   UNL     1       2.196  -0.501  -0.492  1.00  0.00     0.023 A 
ATOM     16  C   UNL     1       0.570   1.278  -0.373  1.00  0.00     0.039 A 
ATOM     17  C   UNL     1       2.121  -0.562  -1.883  1.00  0.00     0.013 A 
ATOM     18  C   UNL     1       0.473   1.258  -1.783  1.00  0.00    -0.014 A 
ATOM     19  C   UNL     1       1.245   0.329  -2.529  1.00  0.00     0.009 A 
ATOM     20  C   UNL     1       3.902  -2.314   0.163  1.00  0.00     0.067 C 
BRANCH  18  21
ATOM     21  C   UNL     1      -0.455   2.183  -2.470  1.00  0.00     0.003 A 
ATOM     22  C   UNL     1      -1.821   2.137  -2.150  1.00  0.00     0.123 A 
ATOM     23  C   UNL     1      -0.014   3.120  -3.437  1.00  0.00    -0.037 A 
ATOM     24  N   UNL     1      -2.705   2.952  -2.781  1.00  0.00    -0.228 NA
ATOM     25  C   UNL     1      -0.960   3.934  -4.078  1.00  0.00     0.064 A 
ATOM     26  C   UNL     1      -2.308   3.837  -3.731  1.00  0.00     0.213 A 
ATOM     27  C   UNL     1       1.439   3.259  -3.808  1.00  0.00     0.045 C 
ATOM     28  F   UNL     1      -3.224   4.628  -4.340  1.00  0.00    -0.185 F 
ENDBRANCH  18  21
ENDBRANCH   9  11
ENDBRANCH   1   9
TORSDOF 6


