REMARK SMILES C=Cc1cccc(-c2ccc3c(c2)[C@H](N=[N+]=[N-])CC3)c1
REMARK SMILES IDX 8 1 9 2 10 3 11 4 12 5 13 6 14 7 18 8 19 9 7 10 3 11 4 12
REMARK SMILES IDX 20 13 5 14 6 15 2 16 1 17 15 18 16 19 17 20
REMARK H PARENT
ROOT
ATOM      1  C   UNL     1       0.229  -0.936   0.820  1.00  0.00    -0.018 A 
ATOM      2  C   UNL     1      -0.474  -1.536   1.892  1.00  0.00     0.009 A 
ATOM      3  C   UNL     1      -1.868  -1.684   1.838  1.00  0.00     0.004 A 
ATOM      4  C   UNL     1      -2.550  -1.234   0.708  1.00  0.00    -0.044 A 
ATOM      5  C   UNL     1      -1.881  -0.647  -0.335  1.00  0.00    -0.035 A 
ATOM      6  C   UNL     1      -0.494  -0.487  -0.307  1.00  0.00     0.013 A 
ATOM      7  C   UNL     1      -2.807  -0.222  -1.417  1.00  0.00     0.104 C 
ATOM      8  C   UNL     1      -4.184  -0.761  -0.961  1.00  0.00     0.019 C 
ATOM      9  C   UNL     1      -4.013  -1.290   0.477  1.00  0.00     0.036 C 
ENDROOT
BRANCH   1  10
ATOM     10  C   UNL     1       1.704  -0.778   0.878  1.00  0.00    -0.018 A 
ATOM     11  C   UNL     1       3.895  -0.862  -0.215  1.00  0.00    -0.026 A 
ATOM     12  C   UNL     1       4.496  -0.491   0.998  1.00  0.00     0.008 A 
ATOM     13  C   UNL     1       2.494  -1.016  -0.262  1.00  0.00     0.016 A 
ATOM     14  C   UNL     1       3.719  -0.254   2.132  1.00  0.00     0.001 A 
ATOM     15  C   UNL     1       2.332  -0.393   2.075  1.00  0.00     0.009 A 
BRANCH  11  16
ATOM     16  C   UNL     1       4.766  -1.111  -1.390  1.00  0.00     0.000 C 
ATOM     17  C   UNL     1       4.336  -1.119  -2.652  1.00  0.00     0.009 C 
ENDBRANCH  11  16
ENDBRANCH   1  10
BRANCH   7  18
ATOM     18  N   UNL     1      -2.816   1.235  -1.558  1.00  0.00    -0.086 NA
BRANCH  18  19
ATOM     19  N   UNL     1      -3.084   1.977  -0.611  1.00  0.00     0.002 N 
ATOM     20  N   UNL     1      -3.353   2.717   0.334  1.00  0.00    -0.003 NA
ENDBRANCH  18  19
ENDBRANCH   7  18
TORSDOF 4


