MODEL 1
REMARK VINA RESULT:      -4.7      0.000      0.000
REMARK SMILES Cc1cc(NN)c([O-])c(-n2nc3ccc(-c4ccc([O-])cc4)cc3n2)c1
REMARK SMILES IDX 1 1 2 2 3 3 4 4 7 5 8 6 9 7 26 8 5 9 6 11 10 14 11 15 25 16
REMARK SMILES IDX 12 17 24 18 13 19 23 20 14 21 15 22 16 23 17 24 22 25 18 26
REMARK SMILES IDX 21 27 19 28 20 29
REMARK H PARENT 5 10 6 12 6 13
ROOT
ATOM      1  C   UNL     1      41.546 132.545  24.052  1.00  0.00     0.044 C 
ATOM      2  C   UNL     1      42.585 131.630  23.472  1.00  0.00    -0.047 A 
ATOM      3  C   UNL     1      43.271 130.732  24.298  1.00  0.00     0.030 A 
ATOM      4  C   UNL     1      44.269 129.896  23.774  1.00  0.00     0.043 A 
ATOM      5  C   UNL     1      44.592 129.977  22.404  1.00  0.00    -0.055 A 
ATOM      6  O   UNL     1      45.578 129.142  21.888  1.00  0.00    -0.870 OA
ATOM      7  C   UNL     1      43.921 130.896  21.563  1.00  0.00     0.080 A 
ATOM      8  C   UNL     1      42.922 131.719  22.117  1.00  0.00     0.033 A 
ENDROOT
BRANCH   4   9
ATOM      9  N   UNL     1      44.966 128.966  24.625  1.00  0.00    -0.325 N 
ATOM     10  H   UNL     1      45.529 129.322  25.430  1.00  0.00     0.181 HD
BRANCH   9  11
ATOM     11  N   UNL     1      44.881 127.577  24.423  1.00  0.00    -0.250 NA
ATOM     12  H   UNL     1      45.852 127.191  24.456  1.00  0.00     0.143 HD
ATOM     13  H   UNL     1      44.535 127.429  23.448  1.00  0.00     0.143 HD
ENDBRANCH   9  11
ENDBRANCH   4   9
BRANCH   7  14
ATOM     14  N   UNL     1      44.237 131.009  20.158  1.00  0.00    -0.151 N 
ATOM     15  N   UNL     1      43.550 131.756  19.293  1.00  0.00    -0.148 NA
ATOM     16  N   UNL     1      45.257 130.370  19.583  1.00  0.00    -0.148 NA
ATOM     17  C   UNL     1      44.167 131.580  18.115  1.00  0.00     0.113 A 
ATOM     18  C   UNL     1      45.210 130.731  18.292  1.00  0.00     0.114 A 
ATOM     19  C   UNL     1      43.860 132.131  16.878  1.00  0.00     0.033 A 
ATOM     20  C   UNL     1      46.047 130.352  17.248  1.00  0.00     0.041 A 
ATOM     21  C   UNL     1      44.682 131.776  15.789  1.00  0.00     0.011 A 
ATOM     22  C   UNL     1      45.781 130.886  15.962  1.00  0.00    -0.016 A 
BRANCH  22  23
ATOM     23  C   UNL     1      46.641 130.520  14.807  1.00  0.00    -0.018 A 
ATOM     24  C   UNL     1      47.518 129.423  14.888  1.00  0.00     0.008 A 
ATOM     25  C   UNL     1      46.591 131.266  13.615  1.00  0.00     0.008 A 
ATOM     26  C   UNL     1      48.326 129.080  13.799  1.00  0.00    -0.008 A 
ATOM     27  C   UNL     1      47.401 130.920  12.529  1.00  0.00    -0.008 A 
ATOM     28  C   UNL     1      48.269 129.828  12.620  1.00  0.00    -0.109 A 
ATOM     29  O   UNL     1      49.072 129.487  11.540  1.00  0.00    -0.872 OA
ENDBRANCH  22  23
ENDBRANCH   7  14
TORSDOF 4
ENDMDL
MODEL 2
REMARK VINA RESULT:      -4.4      0.373      1.009
REMARK SMILES Cc1cc(NN)c([O-])c(-n2nc3ccc(-c4ccc([O-])cc4)cc3n2)c1
REMARK SMILES IDX 1 1 2 2 3 3 4 4 7 5 8 6 9 7 26 8 5 9 6 11 10 14 11 15 25 16
REMARK SMILES IDX 12 17 24 18 13 19 23 20 14 21 15 22 16 23 17 24 22 25 18 26
REMARK SMILES IDX 21 27 19 28 20 29
REMARK H PARENT 5 10 6 12 6 13
ROOT
ATOM      1  C   UNL     1      42.048 133.217  24.170  1.00  0.00     0.044 C 
ATOM      2  C   UNL     1      42.796 132.073  23.551  1.00  0.00    -0.047 A 
ATOM      3  C   UNL     1      43.258 131.021  24.349  1.00  0.00     0.030 A 
ATOM      4  C   UNL     1      43.990 129.962  23.788  1.00  0.00     0.043 A 
ATOM      5  C   UNL     1      44.272 129.972  22.407  1.00  0.00    -0.055 A 
ATOM      6  O   UNL     1      44.992 128.918  21.854  1.00  0.00    -0.870 OA
ATOM      7  C   UNL     1      43.829 131.041  21.592  1.00  0.00     0.080 A 
ATOM      8  C   UNL     1      43.096 132.086  22.184  1.00  0.00     0.033 A 
ENDROOT
BRANCH   4   9
ATOM      9  N   UNL     1      44.456 128.876  24.611  1.00  0.00    -0.325 N 
ATOM     10  H   UNL     1      44.053 128.740  25.566  1.00  0.00     0.181 HD
BRANCH   9  11
ATOM     11  N   UNL     1      45.420 127.964  24.149  1.00  0.00    -0.250 NA
ATOM     12  H   UNL     1      44.914 127.160  23.712  1.00  0.00     0.143 HD
ATOM     13  H   UNL     1      45.912 127.584  24.988  1.00  0.00     0.143 HD
ENDBRANCH   9  11
ENDBRANCH   4   9
BRANCH   7  14
ATOM     14  N   UNL     1      44.113 131.084  20.177  1.00  0.00    -0.151 N 
ATOM     15  N   UNL     1      43.310 131.638  19.268  1.00  0.00    -0.148 NA
ATOM     16  N   UNL     1      45.216 130.566  19.634  1.00  0.00    -0.148 NA
ATOM     17  C   UNL     1      43.938 131.462  18.095  1.00  0.00     0.113 A 
ATOM     18  C   UNL     1      45.103 130.805  18.320  1.00  0.00     0.114 A 
ATOM     19  C   UNL     1      43.538 131.852  16.824  1.00  0.00     0.033 A 
ATOM     20  C   UNL     1      45.981 130.477  17.293  1.00  0.00     0.041 A 
ATOM     21  C   UNL     1      44.397 131.541  15.751  1.00  0.00     0.011 A 
ATOM     22  C   UNL     1      45.625 130.852  15.974  1.00  0.00    -0.016 A 
BRANCH  22  23
ATOM     23  C   UNL     1      46.523 130.530  14.835  1.00  0.00    -0.018 A 
ATOM     24  C   UNL     1      46.691 131.442  13.777  1.00  0.00     0.008 A 
ATOM     25  C   UNL     1      47.220 129.308  14.798  1.00  0.00     0.008 A 
ATOM     26  C   UNL     1      47.538 131.137  12.706  1.00  0.00    -0.008 A 
ATOM     27  C   UNL     1      48.064 129.007  13.725  1.00  0.00    -0.008 A 
ATOM     28  C   UNL     1      48.224 129.921  12.679  1.00  0.00    -0.109 A 
ATOM     29  O   UNL     1      49.063 129.619  11.614  1.00  0.00    -0.872 OA
ENDBRANCH  22  23
ENDBRANCH   7  14
TORSDOF 4
ENDMDL
MODEL 3
REMARK VINA RESULT:      -3.9      1.819      2.397
REMARK SMILES Cc1cc(NN)c([O-])c(-n2nc3ccc(-c4ccc([O-])cc4)cc3n2)c1
REMARK SMILES IDX 1 1 2 2 3 3 4 4 7 5 8 6 9 7 26 8 5 9 6 11 10 14 11 15 25 16
REMARK SMILES IDX 12 17 24 18 13 19 23 20 14 21 15 22 16 23 17 24 22 25 18 26
REMARK SMILES IDX 21 27 19 28 20 29
REMARK H PARENT 5 10 6 12 6 13
ROOT
ATOM      1  C   UNL     1      44.460 128.563  24.625  1.00  0.00     0.044 C 
ATOM      2  C   UNL     1      43.903 129.705  23.824  1.00  0.00    -0.047 A 
ATOM      3  C   UNL     1      43.021 130.614  24.417  1.00  0.00     0.030 A 
ATOM      4  C   UNL     1      42.466 131.666  23.670  1.00  0.00     0.043 A 
ATOM      5  C   UNL     1      42.791 131.791  22.305  1.00  0.00    -0.055 A 
ATOM      6  O   UNL     1      42.244 132.838  21.570  1.00  0.00    -0.870 OA
ATOM      7  C   UNL     1      43.665 130.865  21.688  1.00  0.00     0.080 A 
ATOM      8  C   UNL     1      44.208 129.824  22.464  1.00  0.00     0.033 A 
ENDROOT
BRANCH   4   9
ATOM      9  N   UNL     1      41.566 132.606  24.286  1.00  0.00    -0.325 N 
ATOM     10  H   UNL     1      41.868 133.132  25.137  1.00  0.00     0.181 HD
BRANCH   9  11
ATOM     11  N   UNL     1      40.293 132.866  23.749  1.00  0.00    -0.250 NA
ATOM     12  H   UNL     1      39.880 131.953  23.452  1.00  0.00     0.143 HD
ATOM     13  H   UNL     1      40.434 133.426  22.879  1.00  0.00     0.143 HD
ENDBRANCH   9  11
ENDBRANCH   4   9
BRANCH   7  14
ATOM     14  N   UNL     1      44.009 130.962  20.288  1.00  0.00    -0.151 N 
ATOM     15  N   UNL     1      43.293 131.635  19.386  1.00  0.00    -0.148 NA
ATOM     16  N   UNL     1      45.084 130.380  19.755  1.00  0.00    -0.148 NA
ATOM     17  C   UNL     1      43.951 131.470  18.228  1.00  0.00     0.113 A 
ATOM     18  C   UNL     1      45.045 130.702  18.454  1.00  0.00     0.114 A 
ATOM     19  C   UNL     1      43.637 131.965  16.969  1.00  0.00     0.033 A 
ATOM     20  C   UNL     1      45.932 130.355  17.441  1.00  0.00     0.041 A 
ATOM     21  C   UNL     1      44.509 131.640  15.910  1.00  0.00     0.011 A 
ATOM     22  C   UNL     1      45.663 130.834  16.135  1.00  0.00    -0.016 A 
BRANCH  22  23
ATOM     23  C   UNL     1      46.575 130.499  15.011  1.00  0.00    -0.018 A 
ATOM     24  C   UNL     1      47.262 129.271  14.990  1.00  0.00     0.008 A 
ATOM     25  C   UNL     1      46.764 131.403  13.950  1.00  0.00     0.008 A 
ATOM     26  C   UNL     1      48.120 128.957  13.931  1.00  0.00    -0.008 A 
ATOM     27  C   UNL     1      47.623 131.086  12.893  1.00  0.00    -0.008 A 
ATOM     28  C   UNL     1      48.301 129.863  12.883  1.00  0.00    -0.109 A 
ATOM     29  O   UNL     1      49.154 129.550  11.833  1.00  0.00    -0.872 OA
ENDBRANCH  22  23
ENDBRANCH   7  14
TORSDOF 4
ENDMDL
MODEL 4
REMARK VINA RESULT:      -3.9      1.169      1.193
REMARK SMILES Cc1cc(NN)c([O-])c(-n2nc3ccc(-c4ccc([O-])cc4)cc3n2)c1
REMARK SMILES IDX 1 1 2 2 3 3 4 4 7 5 8 6 9 7 26 8 5 9 6 11 10 14 11 15 25 16
REMARK SMILES IDX 12 17 24 18 13 19 23 20 14 21 15 22 16 23 17 24 22 25 18 26
REMARK SMILES IDX 21 27 19 28 20 29
REMARK H PARENT 5 10 6 12 6 13
ROOT
ATOM      1  C   UNL     1      44.489 133.708  24.625  1.00  0.00     0.044 C 
ATOM      2  C   UNL     1      44.130 132.458  23.875  1.00  0.00    -0.047 A 
ATOM      3  C   UNL     1      43.646 131.340  24.562  1.00  0.00     0.030 A 
ATOM      4  C   UNL     1      43.340 130.154  23.877  1.00  0.00     0.043 A 
ATOM      5  C   UNL     1      43.541 130.089  22.483  1.00  0.00    -0.055 A 
ATOM      6  O   UNL     1      43.231 128.913  21.807  1.00  0.00    -0.870 OA
ATOM      7  C   UNL     1      44.051 131.205  21.780  1.00  0.00     0.080 A 
ATOM      8  C   UNL     1      44.345 132.381  22.494  1.00  0.00     0.033 A 
ENDROOT
BRANCH   4   9
ATOM      9  N   UNL     1      42.832 129.008  24.586  1.00  0.00    -0.325 N 
ATOM     10  H   UNL     1      42.655 129.072  25.614  1.00  0.00     0.181 HD
BRANCH   9  11
ATOM     11  N   UNL     1      42.530 127.806  23.923  1.00  0.00    -0.250 NA
ATOM     12  H   UNL     1      43.207 127.081  24.254  1.00  0.00     0.143 HD
ATOM     13  H   UNL     1      42.729 127.956  22.908  1.00  0.00     0.143 HD
ENDBRANCH   9  11
ENDBRANCH   4   9
BRANCH   7  14
ATOM     14  N   UNL     1      44.277 131.164  20.353  1.00  0.00    -0.151 N 
ATOM     15  N   UNL     1      43.390 131.565  19.442  1.00  0.00    -0.148 NA
ATOM     16  N   UNL     1      45.406 130.715  19.803  1.00  0.00    -0.148 NA
ATOM     17  C   UNL     1      43.989 131.360  18.259  1.00  0.00     0.113 A 
ATOM     18  C   UNL     1      45.221 130.838  18.481  1.00  0.00     0.114 A 
ATOM     19  C   UNL     1      43.506 131.608  16.981  1.00  0.00     0.033 A 
ATOM     20  C   UNL     1      46.090 130.517  17.444  1.00  0.00     0.041 A 
ATOM     21  C   UNL     1      44.352 131.299  15.898  1.00  0.00     0.011 A 
ATOM     22  C   UNL     1      45.650 130.751  16.117  1.00  0.00    -0.016 A 
BRANCH  22  23
ATOM     23  C   UNL     1      46.533 130.429  14.967  1.00  0.00    -0.018 A 
ATOM     24  C   UNL     1      47.183 129.184  14.891  1.00  0.00     0.008 A 
ATOM     25  C   UNL     1      46.732 131.366  13.935  1.00  0.00     0.008 A 
ATOM     26  C   UNL     1      48.014 128.883  13.806  1.00  0.00    -0.008 A 
ATOM     27  C   UNL     1      47.565 131.061  12.853  1.00  0.00    -0.008 A 
ATOM     28  C   UNL     1      48.205 129.820  12.788  1.00  0.00    -0.109 A 
ATOM     29  O   UNL     1      49.031 129.520  11.713  1.00  0.00    -0.872 OA
ENDBRANCH  22  23
ENDBRANCH   7  14
TORSDOF 4
ENDMDL
MODEL 5
REMARK VINA RESULT:      -3.4      0.920      1.083
REMARK SMILES Cc1cc(NN)c([O-])c(-n2nc3ccc(-c4ccc([O-])cc4)cc3n2)c1
REMARK SMILES IDX 1 1 2 2 3 3 4 4 7 5 8 6 9 7 26 8 5 9 6 11 10 14 11 15 25 16
REMARK SMILES IDX 12 17 24 18 13 19 23 20 14 21 15 22 16 23 17 24 22 25 18 26
REMARK SMILES IDX 21 27 19 28 20 29
REMARK H PARENT 5 10 6 12 6 13
ROOT
ATOM      1  C   UNL     1      40.643 133.434  22.841  1.00  0.00     0.044 C 
ATOM      2  C   UNL     1      41.815 132.558  22.507  1.00  0.00    -0.047 A 
ATOM      3  C   UNL     1      42.552 131.950  23.530  1.00  0.00     0.030 A 
ATOM      4  C   UNL     1      43.672 131.157  23.232  1.00  0.00     0.043 A 
ATOM      5  C   UNL     1      44.063 130.988  21.889  1.00  0.00    -0.055 A 
ATOM      6  O   UNL     1      45.170 130.197  21.598  1.00  0.00    -0.870 OA
ATOM      7  C   UNL     1      43.339 131.616  20.847  1.00  0.00     0.080 A 
ATOM      8  C   UNL     1      42.220 132.402  21.177  1.00  0.00     0.033 A 
ENDROOT
BRANCH   4   9
ATOM      9  N   UNL     1      44.422 130.524  24.286  1.00  0.00    -0.325 N 
ATOM     10  H   UNL     1      45.115 131.081  24.836  1.00  0.00     0.181 HD
BRANCH   9  11
ATOM     11  N   UNL     1      44.221 129.174  24.624  1.00  0.00    -0.250 NA
ATOM     12  H   UNL     1      44.201 128.623  23.736  1.00  0.00     0.143 HD
ATOM     13  H   UNL     1      43.267 129.100  25.041  1.00  0.00     0.143 HD
ENDBRANCH   9  11
ENDBRANCH   4   9
BRANCH   7  14
ATOM     14  N   UNL     1      43.723 131.470  19.462  1.00  0.00    -0.151 N 
ATOM     15  N   UNL     1      42.934 131.773  18.430  1.00  0.00    -0.148 NA
ATOM     16  N   UNL     1      44.914 131.012  19.076  1.00  0.00    -0.148 NA
ATOM     17  C   UNL     1      43.665 131.493  17.340  1.00  0.00     0.113 A 
ATOM     18  C   UNL     1      44.875 131.026  17.736  1.00  0.00     0.114 A 
ATOM     19  C   UNL     1      43.322 131.626  16.001  1.00  0.00     0.033 A 
ATOM     20  C   UNL     1      45.860 130.650  16.829  1.00  0.00     0.041 A 
ATOM     21  C   UNL     1      44.288 131.258  15.045  1.00  0.00     0.011 A 
ATOM     22  C   UNL     1      45.564 130.767  15.447  1.00  0.00    -0.016 A 
BRANCH  22  23
ATOM     23  C   UNL     1      46.576 130.382  14.430  1.00  0.00    -0.018 A 
ATOM     24  C   UNL     1      47.323 129.198  14.576  1.00  0.00     0.008 A 
ATOM     25  C   UNL     1      46.802 131.195  13.303  1.00  0.00     0.008 A 
ATOM     26  C   UNL     1      48.275 128.838  13.617  1.00  0.00    -0.008 A 
ATOM     27  C   UNL     1      47.755 130.830  12.347  1.00  0.00    -0.008 A 
ATOM     28  C   UNL     1      48.491 129.652  12.503  1.00  0.00    -0.109 A 
ATOM     29  O   UNL     1      49.437 129.293  11.552  1.00  0.00    -0.872 OA
ENDBRANCH  22  23
ENDBRANCH   7  14
TORSDOF 4
ENDMDL
MODEL 6
REMARK VINA RESULT:      -3.4      1.211      1.761
REMARK SMILES Cc1cc(NN)c([O-])c(-n2nc3ccc(-c4ccc([O-])cc4)cc3n2)c1
REMARK SMILES IDX 1 1 2 2 3 3 4 4 7 5 8 6 9 7 26 8 5 9 6 11 10 14 11 15 25 16
REMARK SMILES IDX 12 17 24 18 13 19 23 20 14 21 15 22 16 23 17 24 22 25 18 26
REMARK SMILES IDX 21 27 19 28 20 29
REMARK H PARENT 5 10 6 12 6 13
ROOT
ATOM      1  C   UNL     1      40.105 133.707  22.702  1.00  0.00     0.044 C 
ATOM      2  C   UNL     1      41.322 132.863  22.462  1.00  0.00    -0.047 A 
ATOM      3  C   UNL     1      42.030 132.327  23.544  1.00  0.00     0.030 A 
ATOM      4  C   UNL     1      43.190 131.564  23.334  1.00  0.00     0.043 A 
ATOM      5  C   UNL     1      43.652 131.354  22.019  1.00  0.00    -0.055 A 
ATOM      6  O   UNL     1      44.799 130.593  21.816  1.00  0.00    -0.870 OA
ATOM      7  C   UNL     1      42.957 131.909  20.918  1.00  0.00     0.080 A 
ATOM      8  C   UNL     1      41.796 132.666  21.160  1.00  0.00     0.033 A 
ENDROOT
BRANCH   4   9
ATOM      9  N   UNL     1      43.911 131.006  24.449  1.00  0.00    -0.325 N 
ATOM     10  H   UNL     1      43.411 130.398  25.137  1.00  0.00     0.181 HD
BRANCH   9  11
ATOM     11  N   UNL     1      45.288 131.227  24.620  1.00  0.00    -0.250 NA
ATOM     12  H   UNL     1      45.690 131.472  23.686  1.00  0.00     0.143 HD
ATOM     13  H   UNL     1      45.715 130.314  24.896  1.00  0.00     0.143 HD
ENDBRANCH   9  11
ENDBRANCH   4   9
BRANCH   7  14
ATOM     14  N   UNL     1      43.413 131.719  19.561  1.00  0.00    -0.151 N 
ATOM     15  N   UNL     1      42.679 131.988  18.480  1.00  0.00    -0.148 NA
ATOM     16  N   UNL     1      44.622 131.250  19.252  1.00  0.00    -0.148 NA
ATOM     17  C   UNL     1      43.466 131.674  17.439  1.00  0.00     0.113 A 
ATOM     18  C   UNL     1      44.653 131.221  17.912  1.00  0.00     0.114 A 
ATOM     19  C   UNL     1      43.193 131.764  16.080  1.00  0.00     0.033 A 
ATOM     20  C   UNL     1      45.683 130.817  17.070  1.00  0.00     0.041 A 
ATOM     21  C   UNL     1      44.208 131.366  15.188  1.00  0.00     0.011 A 
ATOM     22  C   UNL     1      45.461 130.889  15.672  1.00  0.00    -0.016 A 
BRANCH  22  23
ATOM     23  C   UNL     1      46.524 130.472  14.722  1.00  0.00    -0.018 A 
ATOM     24  C   UNL     1      46.854 131.281  13.618  1.00  0.00     0.008 A 
ATOM     25  C   UNL     1      47.218 129.263  14.911  1.00  0.00     0.008 A 
ATOM     26  C   UNL     1      47.855 130.887  12.725  1.00  0.00    -0.008 A 
ATOM     27  C   UNL     1      48.218 128.873  14.015  1.00  0.00    -0.008 A 
ATOM     28  C   UNL     1      48.538 129.684  12.923  1.00  0.00    -0.109 A 
ATOM     29  O   UNL     1      49.531 129.294  12.034  1.00  0.00    -0.872 OA
ENDBRANCH  22  23
ENDBRANCH   7  14
TORSDOF 4
ENDMDL
MODEL 7
REMARK VINA RESULT:      -3.2      1.804      2.300
REMARK SMILES Cc1cc(NN)c([O-])c(-n2nc3ccc(-c4ccc([O-])cc4)cc3n2)c1
REMARK SMILES IDX 1 1 2 2 3 3 4 4 7 5 8 6 9 7 26 8 5 9 6 11 10 14 11 15 25 16
REMARK SMILES IDX 12 17 24 18 13 19 23 20 14 21 15 22 16 23 17 24 22 25 18 26
REMARK SMILES IDX 21 27 19 28 20 29
REMARK H PARENT 5 10 6 12 6 13
ROOT
ATOM      1  C   UNL     1      42.708 129.202  24.318  1.00  0.00     0.044 C 
ATOM      2  C   UNL     1      43.602 130.214  23.664  1.00  0.00    -0.047 A 
ATOM      3  C   UNL     1      44.228 131.202  24.433  1.00  0.00     0.030 A 
ATOM      4  C   UNL     1      45.038 132.176  23.829  1.00  0.00     0.043 A 
ATOM      5  C   UNL     1      45.207 132.164  22.429  1.00  0.00    -0.055 A 
ATOM      6  O   UNL     1      46.016 133.127  21.835  1.00  0.00    -0.870 OA
ATOM      7  C   UNL     1      44.563 131.184  21.638  1.00  0.00     0.080 A 
ATOM      8  C   UNL     1      43.759 130.219  22.273  1.00  0.00     0.033 A 
ENDROOT
BRANCH   4   9
ATOM      9  N   UNL     1      45.688 133.184  24.625  1.00  0.00    -0.325 N 
ATOM     10  H   UNL     1      45.623 133.144  25.667  1.00  0.00     0.181 HD
BRANCH   9  11
ATOM     11  N   UNL     1      46.446 134.211  24.035  1.00  0.00    -0.250 NA
ATOM     12  H   UNL     1      45.780 134.891  23.603  1.00  0.00     0.143 HD
ATOM     13  H   UNL     1      46.985 133.783  23.249  1.00  0.00     0.143 HD
ENDBRANCH   9  11
ENDBRANCH   4   9
BRANCH   7  14
ATOM     14  N   UNL     1      44.709 131.153  20.201  1.00  0.00    -0.151 N 
ATOM     15  N   UNL     1      43.779 131.577  19.344  1.00  0.00    -0.148 NA
ATOM     16  N   UNL     1      45.797 130.691  19.584  1.00  0.00    -0.148 NA
ATOM     17  C   UNL     1      44.308 131.373  18.128  1.00  0.00     0.113 A 
ATOM     18  C   UNL     1      45.541 130.830  18.276  1.00  0.00     0.114 A 
ATOM     19  C   UNL     1      43.759 131.642  16.881  1.00  0.00     0.033 A 
ATOM     20  C   UNL     1      46.346 130.505  17.189  1.00  0.00     0.041 A 
ATOM     21  C   UNL     1      44.538 131.330  15.750  1.00  0.00     0.011 A 
ATOM     22  C   UNL     1      45.836 130.759  15.891  1.00  0.00    -0.016 A 
BRANCH  22  23
ATOM     23  C   UNL     1      46.648 130.434  14.690  1.00  0.00    -0.018 A 
ATOM     24  C   UNL     1      46.515 131.190  13.510  1.00  0.00     0.008 A 
ATOM     25  C   UNL     1      47.565 129.367  14.715  1.00  0.00     0.008 A 
ATOM     26  C   UNL     1      47.281 130.882  12.381  1.00  0.00    -0.008 A 
ATOM     27  C   UNL     1      48.329 129.063  13.584  1.00  0.00    -0.008 A 
ATOM     28  C   UNL     1      48.188 129.820  12.417  1.00  0.00    -0.109 A 
ATOM     29  O   UNL     1      48.947 129.516  11.295  1.00  0.00    -0.872 OA
ENDBRANCH  22  23
ENDBRANCH   7  14
TORSDOF 4
ENDMDL
MODEL 8
REMARK VINA RESULT:      -3.0      1.803      2.545
REMARK SMILES Cc1cc(NN)c([O-])c(-n2nc3ccc(-c4ccc([O-])cc4)cc3n2)c1
REMARK SMILES IDX 1 1 2 2 3 3 4 4 7 5 8 6 9 7 26 8 5 9 6 11 10 14 11 15 25 16
REMARK SMILES IDX 12 17 24 18 13 19 23 20 14 21 15 22 16 23 17 24 22 25 18 26
REMARK SMILES IDX 21 27 19 28 20 29
REMARK H PARENT 5 10 6 12 6 13
ROOT
ATOM      1  C   UNL     1      45.210 129.258  24.622  1.00  0.00     0.044 C 
ATOM      2  C   UNL     1      44.416 130.187  23.750  1.00  0.00    -0.047 A 
ATOM      3  C   UNL     1      43.381 130.952  24.297  1.00  0.00     0.030 A 
ATOM      4  C   UNL     1      42.608 131.798  23.486  1.00  0.00     0.043 A 
ATOM      5  C   UNL     1      42.872 131.861  22.103  1.00  0.00    -0.055 A 
ATOM      6  O   UNL     1      42.108 132.705  21.303  1.00  0.00    -0.870 OA
ATOM      7  C   UNL     1      43.902 131.075  21.533  1.00  0.00     0.080 A 
ATOM      8  C   UNL     1      44.661 130.239  22.373  1.00  0.00     0.033 A 
ENDROOT
BRANCH   4   9
ATOM      9  N   UNL     1      41.550 132.592  24.054  1.00  0.00    -0.325 N 
ATOM     10  H   UNL     1      41.777 133.336  24.752  1.00  0.00     0.181 HD
BRANCH   9  11
ATOM     11  N   UNL     1      40.210 132.418  23.667  1.00  0.00    -0.250 NA
ATOM     12  H   UNL     1      39.606 132.705  24.471  1.00  0.00     0.143 HD
ATOM     13  H   UNL     1      40.059 131.393  23.533  1.00  0.00     0.143 HD
ENDBRANCH   9  11
ENDBRANCH   4   9
BRANCH   7  14
ATOM     14  N   UNL     1      44.188 131.111  20.118  1.00  0.00    -0.151 N 
ATOM     15  N   UNL     1      43.397 131.679  19.207  1.00  0.00    -0.148 NA
ATOM     16  N   UNL     1      45.282 130.570  19.577  1.00  0.00    -0.148 NA
ATOM     17  C   UNL     1      44.023 131.489  18.036  1.00  0.00     0.113 A 
ATOM     18  C   UNL     1      45.174 130.810  18.262  1.00  0.00     0.114 A 
ATOM     19  C   UNL     1      43.633 131.885  16.763  1.00  0.00     0.033 A 
ATOM     20  C   UNL     1      46.047 130.463  17.237  1.00  0.00     0.041 A 
ATOM     21  C   UNL     1      44.486 131.556  15.692  1.00  0.00     0.011 A 
ATOM     22  C   UNL     1      45.700 130.843  15.917  1.00  0.00    -0.016 A 
BRANCH  22  23
ATOM     23  C   UNL     1      46.592 130.502  14.779  1.00  0.00    -0.018 A 
ATOM     24  C   UNL     1      46.643 131.324  13.638  1.00  0.00     0.008 A 
ATOM     25  C   UNL     1      47.402 129.351  14.826  1.00  0.00     0.008 A 
ATOM     26  C   UNL     1      47.485 131.000  12.569  1.00  0.00    -0.008 A 
ATOM     27  C   UNL     1      48.241 129.032  13.755  1.00  0.00    -0.008 A 
ATOM     28  C   UNL     1      48.284 129.856  12.626  1.00  0.00    -0.109 A 
ATOM     29  O   UNL     1      49.118 129.536  11.563  1.00  0.00    -0.872 OA
ENDBRANCH  22  23
ENDBRANCH   7  14
TORSDOF 4
ENDMDL
MODEL 9
REMARK VINA RESULT:      -1.8      7.213     10.851
REMARK SMILES Cc1cc(NN)c([O-])c(-n2nc3ccc(-c4ccc([O-])cc4)cc3n2)c1
REMARK SMILES IDX 1 1 2 2 3 3 4 4 7 5 8 6 9 7 26 8 5 9 6 11 10 14 11 15 25 16
REMARK SMILES IDX 12 17 24 18 13 19 23 20 14 21 15 22 16 23 17 24 22 25 18 26
REMARK SMILES IDX 21 27 19 28 20 29
REMARK H PARENT 5 10 6 12 6 13
ROOT
ATOM      1  C   UNL     1      50.326 124.569  18.775  1.00  0.00     0.044 C 
ATOM      2  C   UNL     1      50.130 124.755  20.252  1.00  0.00    -0.047 A 
ATOM      3  C   UNL     1      51.230 124.718  21.116  1.00  0.00     0.030 A 
ATOM      4  C   UNL     1      51.057 124.855  22.503  1.00  0.00     0.043 A 
ATOM      5  C   UNL     1      49.758 125.014  23.025  1.00  0.00    -0.055 A 
ATOM      6  O   UNL     1      49.591 125.155  24.399  1.00  0.00    -0.870 OA
ATOM      7  C   UNL     1      48.635 125.030  22.164  1.00  0.00     0.080 A 
ATOM      8  C   UNL     1      48.841 124.894  20.778  1.00  0.00     0.033 A 
ENDROOT
BRANCH   4   9
ATOM      9  N   UNL     1      52.192 124.828  23.389  1.00  0.00    -0.325 N 
ATOM     10  H   UNL     1      53.051 125.371  23.147  1.00  0.00     0.181 HD
BRANCH   9  11
ATOM     11  N   UNL     1      52.163 124.113  24.599  1.00  0.00    -0.250 NA
ATOM     12  H   UNL     1      52.712 123.234  24.463  1.00  0.00     0.143 HD
ATOM     13  H   UNL     1      51.173 123.823  24.762  1.00  0.00     0.143 HD
ENDBRANCH   9  11
ENDBRANCH   4   9
BRANCH   7  14
ATOM     14  N   UNL     1      47.291 125.181  22.671  1.00  0.00    -0.151 N 
ATOM     15  N   UNL     1      46.858 126.250  23.339  1.00  0.00    -0.148 NA
ATOM     16  N   UNL     1      46.344 124.254  22.523  1.00  0.00    -0.148 NA
ATOM     17  C   UNL     1      45.573 125.986  23.624  1.00  0.00     0.113 A 
ATOM     18  C   UNL     1      45.260 124.764  23.126  1.00  0.00     0.114 A 
ATOM     19  C   UNL     1      44.651 126.768  24.306  1.00  0.00     0.033 A 
ATOM     20  C   UNL     1      43.993 124.208  23.261  1.00  0.00     0.041 A 
ATOM     21  C   UNL     1      43.353 126.247  24.467  1.00  0.00     0.011 A 
ATOM     22  C   UNL     1      43.010 124.964  23.948  1.00  0.00    -0.016 A 
BRANCH  22  23
ATOM     23  C   UNL     1      41.637 124.425  24.123  1.00  0.00    -0.018 A 
ATOM     24  C   UNL     1      41.396 123.041  24.035  1.00  0.00     0.008 A 
ATOM     25  C   UNL     1      40.557 125.290  24.381  1.00  0.00     0.008 A 
ATOM     26  C   UNL     1      40.102 122.536  24.201  1.00  0.00    -0.008 A 
ATOM     27  C   UNL     1      39.266 124.780  24.546  1.00  0.00    -0.008 A 
ATOM     28  C   UNL     1      39.037 123.403  24.456  1.00  0.00    -0.109 A 
ATOM     29  O   UNL     1      37.754 122.900  24.620  1.00  0.00    -0.872 OA
ENDBRANCH  22  23
ENDBRANCH   7  14
TORSDOF 4
ENDMDL


