REMARK SMILES Cc1cc(Cl)ccc1C(=O)[N-][C@H]1CC12CCC2
REMARK SMILES IDX 9 1 10 2 8 3 2 4 3 5 4 6 7 7 6 8 1 9 5 10 11 11 12 12 13 13
REMARK SMILES IDX 14 14 15 15 17 16 16 17
REMARK H PARENT
ROOT
ATOM      1  C   UNL     1       1.341   0.595   0.227  1.00  0.00     0.082 C 
ATOM      2  O   UNL     1       2.023   0.516   1.286  1.00  0.00    -0.315 OA
ENDROOT
BRANCH   1   3
ATOM      3  C   UNL     1       1.936   1.218  -0.983  1.00  0.00     0.002 A 
ATOM      4  C   UNL     1       1.563   0.849  -2.306  1.00  0.00    -0.040 A 
ATOM      5  C   UNL     1       2.151   1.515  -3.397  1.00  0.00     0.024 A 
ATOM      6  C   UNL     1       3.114   2.506  -3.196  1.00  0.00     0.041 A 
ATOM      7  C   UNL     1       2.917   2.212  -0.805  1.00  0.00     0.012 A 
ATOM      8  C   UNL     1       3.498   2.849  -1.901  1.00  0.00     0.021 A 
ATOM      9  C   UNL     1       0.554  -0.233  -2.590  1.00  0.00     0.045 C 
ATOM     10  Cl  UNL     1       3.842   3.317  -4.571  1.00  0.00    -0.084 Cl
ENDBRANCH   1   3
BRANCH   1  11
ATOM     11  N   UNL     1      -0.016   0.144   0.227  1.00  0.00    -0.646 NA
BRANCH  11  12
ATOM     12  C   UNL     1      -0.638  -0.475   1.388  1.00  0.00    -0.100 C 
ATOM     13  C   UNL     1      -1.178   0.534   2.409  1.00  0.00    -0.010 C 
ATOM     14  C   UNL     1      -2.120  -0.206   1.465  1.00  0.00    -0.044 C 
ATOM     15  C   UNL     1      -3.218  -1.015   2.091  1.00  0.00     0.006 C 
ATOM     16  C   UNL     1      -3.031   0.629   0.611  1.00  0.00     0.006 C 
ATOM     17  C   UNL     1      -4.191  -0.184   1.225  1.00  0.00     0.001 C 
ENDBRANCH  11  12
ENDBRANCH   1  11
TORSDOF 3


