REMARK SMILES CC(C)(C)c1cccc(N/C(O)=N\C(=O)c2ccc(-c3cc(F)cc(F)c3O)cc2)c1
REMARK SMILES IDX 13 1 11 2 10 3 12 5 9 7 8 8 31 9 7 10 5 11 6 12 2 13 1 14
REMARK SMILES IDX 3 15 4 16 14 17 15 18 16 19 17 20 30 21 18 22 29 23 19 24
REMARK SMILES IDX 20 25 21 26 27 27 22 28 25 29 24 30 23 31 26 32 28 33
REMARK H PARENT 10 4 12 6 28 34
ROOT
ATOM      1  N   UNL     1      -0.839  -1.721  -3.333  1.00  0.00    -0.156 NA
ENDROOT
BRANCH   1   2
ATOM      2  C   UNL     1      -1.610  -0.740  -2.959  1.00  0.00     0.294 C 
ATOM      3  N   UNL     1      -1.069   0.559  -2.670  1.00  0.00    -0.310 N 
ATOM      4  H   UNL     1      -0.390   0.961  -3.356  1.00  0.00     0.171 HD
BRANCH   2   5
ATOM      5  O   UNL     1      -2.983  -0.950  -2.890  1.00  0.00    -0.480 OA
ATOM      6  H   UNL     1      -3.613  -0.198  -2.638  1.00  0.00     0.296 HD
ENDBRANCH   2   5
BRANCH   3   7
ATOM      7  C   UNL     1      -1.304   1.276  -1.444  1.00  0.00     0.043 A 
ATOM      8  C   UNL     1      -0.852   2.596  -1.331  1.00  0.00     0.026 A 
ATOM      9  C   UNL     1      -1.894   0.656  -0.327  1.00  0.00     0.030 A 
ATOM     10  C   UNL     1      -0.996   3.291  -0.133  1.00  0.00     0.002 A 
ATOM     11  C   UNL     1      -2.047   1.342   0.900  1.00  0.00    -0.041 A 
ATOM     12  C   UNL     1      -1.584   2.676   0.973  1.00  0.00     0.004 A 
BRANCH  11  13
ATOM     13  C   UNL     1      -2.665   0.609   2.109  1.00  0.00    -0.013 C 
ATOM     14  C   UNL     1      -1.756  -0.574   2.507  1.00  0.00     0.016 C 
ATOM     15  C   UNL     1      -2.827   1.518   3.352  1.00  0.00     0.016 C 
ATOM     16  C   UNL     1      -4.066   0.076   1.736  1.00  0.00     0.016 C 
ENDBRANCH  11  13
ENDBRANCH   3   7
ENDBRANCH   1   2
BRANCH   1  17
ATOM     17  C   UNL     1       0.597  -1.676  -3.335  1.00  0.00     0.281 C 
ATOM     18  O   UNL     1       1.227  -2.197  -4.293  1.00  0.00    -0.267 OA
BRANCH  17  19
ATOM     19  C   UNL     1       1.343  -1.068  -2.213  1.00  0.00     0.042 A 
ATOM     20  C   UNL     1       0.881  -1.223  -0.897  1.00  0.00     0.014 A 
ATOM     21  C   UNL     1       2.474  -0.275  -2.455  1.00  0.00     0.014 A 
ATOM     22  C   UNL     1       1.503  -0.548   0.154  1.00  0.00     0.010 A 
ATOM     23  C   UNL     1       3.095   0.405  -1.403  1.00  0.00     0.010 A 
ATOM     24  C   UNL     1       2.605   0.285  -0.090  1.00  0.00    -0.014 A 
BRANCH  24  25
ATOM     25  C   UNL     1       3.203   1.068   1.018  1.00  0.00     0.029 A 
ATOM     26  C   UNL     1       2.363   1.811   1.868  1.00  0.00     0.052 A 
ATOM     27  C   UNL     1       4.597   1.085   1.238  1.00  0.00     0.159 A 
ATOM     28  C   UNL     1       2.901   2.569   2.911  1.00  0.00     0.127 A 
ATOM     29  C   UNL     1       5.128   1.854   2.287  1.00  0.00     0.168 A 
ATOM     30  C   UNL     1       4.281   2.592   3.118  1.00  0.00     0.082 A 
ATOM     31  F   UNL     1       2.082   3.286   3.719  1.00  0.00    -0.207 F 
ATOM     32  F   UNL     1       6.466   1.881   2.510  1.00  0.00    -0.203 F 
BRANCH  27  33
ATOM     33  O   UNL     1       5.442   0.324   0.429  1.00  0.00    -0.504 OA
ATOM     34  H   UNL     1       6.446   0.309   0.564  1.00  0.00     0.293 HD
ENDBRANCH  27  33
ENDBRANCH  24  25
ENDBRANCH  17  19
ENDBRANCH   1  17
TORSDOF 8


