REMARK SMILES C=Cc1cc([S-])cc(-c2ccc3c(c2)CC3)c1
REMARK SMILES IDX 3 1 4 2 5 3 6 4 7 5 8 6 17 7 2 8 1 9 9 10 10 11 14 12 11 13
REMARK SMILES IDX 13 14 12 15 15 16 16 17
REMARK H PARENT
ROOT
ATOM      1  C   UNL     1       3.102   0.173  -0.299  1.00  0.00    -0.027 A 
ATOM      2  C   UNL     1       3.340   1.553  -0.146  1.00  0.00    -0.013 A 
ATOM      3  C   UNL     1       2.271   2.452  -0.083  1.00  0.00    -0.174 A 
ATOM      4  S   UNL     1       2.589   4.216   0.108  1.00  0.00    -0.780 S 
ATOM      5  C   UNL     1       0.956   1.987  -0.164  1.00  0.00    -0.012 A 
ATOM      6  C   UNL     1       0.695   0.614  -0.303  1.00  0.00    -0.019 A 
ATOM      7  C   UNL     1       1.775  -0.285  -0.364  1.00  0.00     0.016 A 
ENDROOT
BRANCH   1   8
ATOM      8  C   UNL     1       4.199  -0.825  -0.357  1.00  0.00     0.000 C 
ATOM      9  C   UNL     1       5.469  -0.527  -0.637  1.00  0.00     0.009 C 
ENDBRANCH   1   8
BRANCH   6  10
ATOM     10  C   UNL     1      -0.703   0.118  -0.382  1.00  0.00    -0.018 A 
ATOM     11  C   UNL     1      -1.044  -0.919  -1.322  1.00  0.00     0.009 A 
ATOM     12  C   UNL     1      -1.698   0.675   0.474  1.00  0.00     0.012 A 
ATOM     13  C   UNL     1      -2.361  -1.428  -1.435  1.00  0.00     0.004 A 
ATOM     14  C   UNL     1      -2.968   0.157   0.337  1.00  0.00    -0.044 A 
ATOM     15  C   UNL     1      -3.290  -0.864  -0.589  1.00  0.00    -0.044 A 
ATOM     16  C   UNL     1      -4.381   0.199   0.809  1.00  0.00     0.040 C 
ATOM     17  C   UNL     1      -4.711  -0.846  -0.142  1.00  0.00     0.040 C 
ENDBRANCH   6  10
TORSDOF 2


