REMARK SMILES C=Cc1cc(-c2ccc3c(c2)[C@@H](N)CC3)c(F)cc1N
REMARK SMILES IDX 6 1 7 2 8 3 9 4 10 5 11 6 12 7 14 8 15 9 5 10 3 11 4 12
REMARK SMILES IDX 19 13 18 14 16 15 17 16 2 17 1 18 20 19 13 22
REMARK H PARENT 20 20 20 21 13 23 13 24
ROOT
ATOM      1  C   UNL     1      -0.187   0.551   0.460  1.00  0.00    -0.015 A 
ATOM      2  C   UNL     1      -0.750   1.838   0.618  1.00  0.00     0.009 A 
ATOM      3  C   UNL     1      -2.137   2.025   0.526  1.00  0.00     0.005 A 
ATOM      4  C   UNL     1      -2.950   0.919   0.272  1.00  0.00    -0.043 A 
ATOM      5  C   UNL     1      -2.416  -0.335   0.120  1.00  0.00    -0.027 A 
ATOM      6  C   UNL     1      -1.036  -0.545   0.202  1.00  0.00     0.014 A 
ATOM      7  C   UNL     1      -3.461  -1.361  -0.135  1.00  0.00     0.081 C 
ATOM      8  C   UNL     1      -4.760  -0.529  -0.265  1.00  0.00     0.028 C 
ATOM      9  C   UNL     1      -4.424   0.919   0.137  1.00  0.00     0.038 C 
ENDROOT
BRANCH   1  10
ATOM     10  C   UNL     1       1.281   0.354   0.546  1.00  0.00     0.018 A 
ATOM     11  C   UNL     1       3.336  -0.608  -0.379  1.00  0.00    -0.002 A 
ATOM     12  C   UNL     1       1.943  -0.406  -0.432  1.00  0.00     0.022 A 
ATOM     13  C   UNL     1       4.075  -0.028   0.680  1.00  0.00     0.042 A 
ATOM     14  C   UNL     1       3.408   0.733   1.651  1.00  0.00     0.066 A 
ATOM     15  C   UNL     1       2.027   0.921   1.592  1.00  0.00     0.133 A 
ATOM     16  F   UNL     1       1.417   1.626   2.578  1.00  0.00    -0.206 F 
BRANCH  11  17
ATOM     17  C   UNL     1       4.016  -1.364  -1.460  1.00  0.00     0.002 C 
ATOM     18  C   UNL     1       3.466  -2.419  -2.062  1.00  0.00     0.009 C 
ENDBRANCH  11  17
BRANCH  13  19
ATOM     19  N   UNL     1       5.489  -0.229   0.815  1.00  0.00    -0.398 N 
ATOM     20  H   UNL     1       6.015  -0.911   0.227  1.00  0.00     0.156 HD
ATOM     21  H   UNL     1       6.023   0.259   1.569  1.00  0.00     0.156 HD
ENDBRANCH  13  19
ENDBRANCH   1  10
BRANCH   7  22
ATOM     22  N   UNL     1      -3.547  -2.289   0.993  1.00  0.00    -0.324 NA
ATOM     23  H   UNL     1      -2.656  -2.834   1.038  1.00  0.00     0.119 HD
ATOM     24  H   UNL     1      -4.297  -2.986   0.779  1.00  0.00     0.119 HD
ENDBRANCH   7  22
TORSDOF 4


