MODEL 1
REMARK VINA RESULT:      -9.0      0.000      0.000
REMARK SMILES c1nc2cc(-c3ncc([C@H]4CO4)c[nH+]3)c[nH+]c2o1
REMARK SMILES IDX 1 1 2 2 3 3 4 4 5 5 15 6 16 7 17 8 18 9 6 11 7 12 14 13 8 14
REMARK SMILES IDX 13 15 9 16 10 18 11 19 12 20
REMARK H PARENT 16 10 14 17
ROOT
ATOM      1  C   UNL     1      47.705 129.923  13.316  1.00  0.00     0.316 A 
ATOM      2  N   UNL     1      47.578 129.272  14.505  1.00  0.00    -0.209 NA
ATOM      3  C   UNL     1      46.885 130.161  15.237  1.00  0.00     0.180 A 
ATOM      4  C   UNL     1      46.447 130.051  16.550  1.00  0.00     0.062 A 
ATOM      5  C   UNL     1      45.725 131.143  17.094  1.00  0.00     0.134 A 
ATOM      6  C   UNL     1      45.475 132.277  16.269  1.00  0.00     0.326 A 
ATOM      7  N   UNL     1      45.934 132.322  14.981  1.00  0.00    -0.177 N 
ATOM      8  C   UNL     1      46.627 131.264  14.499  1.00  0.00     0.399 A 
ATOM      9  O   UNL     1      47.136 131.119  13.307  1.00  0.00    -0.391 OA
ATOM     10  H   UNL     1      45.752 133.157  14.381  1.00  0.00     0.457 HD
ENDROOT
BRANCH   5  11
ATOM     11  C   UNL     1      45.211 131.108  18.486  1.00  0.00     0.334 A 
ATOM     12  N   UNL     1      44.037 131.733  18.778  1.00  0.00    -0.049 NA
ATOM     13  N   UNL     1      45.899 130.476  19.482  1.00  0.00    -0.243 N 
ATOM     14  C   UNL     1      43.525 131.727  20.035  1.00  0.00     0.264 A 
ATOM     15  C   UNL     1      45.418 130.447  20.754  1.00  0.00     0.208 A 
ATOM     16  C   UNL     1      44.201 131.061  21.059  1.00  0.00     0.066 A 
ATOM     17  H   UNL     1      46.824 130.028  19.297  1.00  0.00     0.312 HD
BRANCH  16  18
ATOM     18  C   UNL     1      43.671 131.074  22.462  1.00  0.00     0.181 C 
ATOM     19  C   UNL     1      42.980 129.843  22.909  1.00  0.00     0.198 C 
ATOM     20  O   UNL     1      44.314 130.116  23.271  1.00  0.00    -0.368 OA
ENDBRANCH  16  18
ENDBRANCH   5  11
TORSDOF 2
ENDMDL
MODEL 2
REMARK VINA RESULT:      -8.8      1.467      7.113
REMARK SMILES c1nc2cc(-c3ncc([C@H]4CO4)c[nH+]3)c[nH+]c2o1
REMARK SMILES IDX 1 1 2 2 3 3 4 4 5 5 15 6 16 7 17 8 18 9 6 11 7 12 14 13 8 14
REMARK SMILES IDX 13 15 9 16 10 18 11 19 12 20
REMARK H PARENT 16 10 14 17
ROOT
ATOM      1  C   UNL     1      42.611 132.096  22.468  1.00  0.00     0.316 A 
ATOM      2  N   UNL     1      42.421 132.371  21.147  1.00  0.00    -0.209 NA
ATOM      3  C   UNL     1      43.495 131.792  20.584  1.00  0.00     0.180 A 
ATOM      4  C   UNL     1      43.848 131.736  19.243  1.00  0.00     0.062 A 
ATOM      5  C   UNL     1      45.045 131.055  18.908  1.00  0.00     0.134 A 
ATOM      6  C   UNL     1      45.808 130.457  19.951  1.00  0.00     0.326 A 
ATOM      7  N   UNL     1      45.405 130.548  21.256  1.00  0.00    -0.177 N 
ATOM      8  C   UNL     1      44.260 131.214  21.538  1.00  0.00     0.399 A 
ATOM      9  O   UNL     1      43.714 131.402  22.707  1.00  0.00    -0.391 OA
ATOM     10  H   UNL     1      45.969 130.112  22.019  1.00  0.00     0.457 HD
ENDROOT
BRANCH   5  11
ATOM     11  C   UNL     1      45.494 130.937  17.498  1.00  0.00     0.334 A 
ATOM     12  N   UNL     1      45.017 131.813  16.571  1.00  0.00    -0.049 NA
ATOM     13  N   UNL     1      46.363 129.958  17.108  1.00  0.00    -0.243 N 
ATOM     14  C   UNL     1      45.399 131.747  15.270  1.00  0.00     0.264 A 
ATOM     15  C   UNL     1      46.771 129.861  15.814  1.00  0.00     0.208 A 
ATOM     16  C   UNL     1      46.309 130.771  14.861  1.00  0.00     0.066 A 
ATOM     17  H   UNL     1      46.710 129.245  17.787  1.00  0.00     0.312 HD
BRANCH  16  18
ATOM     18  C   UNL     1      46.715 130.658  13.421  1.00  0.00     0.181 C 
ATOM     19  C   UNL     1      47.959 131.364  13.038  1.00  0.00     0.198 C 
ATOM     20  O   UNL     1      47.940 129.976  13.278  1.00  0.00    -0.368 OA
ENDBRANCH  16  18
ENDBRANCH   5  11
TORSDOF 2
ENDMDL
MODEL 3
REMARK VINA RESULT:      -8.8      1.462      7.185
REMARK SMILES c1nc2cc(-c3ncc([C@H]4CO4)c[nH+]3)c[nH+]c2o1
REMARK SMILES IDX 1 1 2 2 3 3 4 4 5 5 15 6 16 7 17 8 18 9 6 11 7 12 14 13 8 14
REMARK SMILES IDX 13 15 9 16 10 18 11 19 12 20
REMARK H PARENT 16 10 14 17
ROOT
ATOM      1  C   UNL     1      42.683 131.982  22.574  1.00  0.00     0.316 A 
ATOM      2  N   UNL     1      42.425 132.255  21.265  1.00  0.00    -0.209 NA
ATOM      3  C   UNL     1      43.510 131.750  20.655  1.00  0.00     0.180 A 
ATOM      4  C   UNL     1      43.813 131.728  19.300  1.00  0.00     0.062 A 
ATOM      5  C   UNL     1      45.036 131.127  18.911  1.00  0.00     0.134 A 
ATOM      6  C   UNL     1      45.875 130.569  19.917  1.00  0.00     0.326 A 
ATOM      7  N   UNL     1      45.518 130.623  21.237  1.00  0.00    -0.177 N 
ATOM      8  C   UNL     1      44.346 131.213  21.571  1.00  0.00     0.399 A 
ATOM      9  O   UNL     1      43.836 131.356  22.763  1.00  0.00    -0.391 OA
ATOM     10  H   UNL     1      46.138 130.217  21.973  1.00  0.00     0.457 HD
ENDROOT
BRANCH   5  11
ATOM     11  C   UNL     1      45.435 131.050  17.484  1.00  0.00     0.334 A 
ATOM     12  N   UNL     1      46.022 129.913  17.017  1.00  0.00    -0.049 NA
ATOM     13  N   UNL     1      45.241 132.101  16.633  1.00  0.00    -0.243 N 
ATOM     14  C   UNL     1      46.402 129.794  15.719  1.00  0.00     0.264 A 
ATOM     15  C   UNL     1      45.608 132.019  15.326  1.00  0.00     0.208 A 
ATOM     16  C   UNL     1      46.186 130.848  14.830  1.00  0.00     0.066 A 
ATOM     17  H   UNL     1      44.836 133.001  16.974  1.00  0.00     0.312 HD
BRANCH  16  18
ATOM     18  C   UNL     1      46.632 130.750  13.401  1.00  0.00     0.181 C 
ATOM     19  C   UNL     1      47.980 131.284  13.102  1.00  0.00     0.198 C 
ATOM     20  O   UNL     1      47.750 129.904  13.262  1.00  0.00    -0.368 OA
ENDBRANCH  16  18
ENDBRANCH   5  11
TORSDOF 2
ENDMDL
MODEL 4
REMARK VINA RESULT:      -8.7      0.309      1.156
REMARK SMILES c1nc2cc(-c3ncc([C@H]4CO4)c[nH+]3)c[nH+]c2o1
REMARK SMILES IDX 1 1 2 2 3 3 4 4 5 5 15 6 16 7 17 8 18 9 6 11 7 12 14 13 8 14
REMARK SMILES IDX 13 15 9 16 10 18 11 19 12 20
REMARK H PARENT 16 10 14 17
ROOT
ATOM      1  C   UNL     1      47.592 129.865  13.533  1.00  0.00     0.316 A 
ATOM      2  N   UNL     1      47.359 129.234  14.718  1.00  0.00    -0.209 NA
ATOM      3  C   UNL     1      46.697 130.177  15.410  1.00  0.00     0.180 A 
ATOM      4  C   UNL     1      46.188 130.110  16.700  1.00  0.00     0.062 A 
ATOM      5  C   UNL     1      45.522 131.255  17.203  1.00  0.00     0.134 A 
ATOM      6  C   UNL     1      45.397 132.398  16.363  1.00  0.00     0.326 A 
ATOM      7  N   UNL     1      45.921 132.400  15.099  1.00  0.00    -0.177 N 
ATOM      8  C   UNL     1      46.558 131.291  14.657  1.00  0.00     0.399 A 
ATOM      9  O   UNL     1      47.113 131.100  13.492  1.00  0.00    -0.391 OA
ATOM     10  H   UNL     1      45.832 133.242  14.487  1.00  0.00     0.457 HD
ENDROOT
BRANCH   5  11
ATOM     11  C   UNL     1      44.938 131.268  18.568  1.00  0.00     0.334 A 
ATOM     12  N   UNL     1      45.669 130.783  19.609  1.00  0.00    -0.049 NA
ATOM     13  N   UNL     1      43.677 131.742  18.797  1.00  0.00    -0.243 N 
ATOM     14  C   UNL     1      45.179 130.777  20.875  1.00  0.00     0.264 A 
ATOM     15  C   UNL     1      43.153 131.752  20.052  1.00  0.00     0.208 A 
ATOM     16  C   UNL     1      43.904 131.283  21.132  1.00  0.00     0.066 A 
ATOM     17  H   UNL     1      43.077 132.076  18.011  1.00  0.00     0.312 HD
BRANCH  16  18
ATOM     18  C   UNL     1      43.330 131.250  22.518  1.00  0.00     0.181 C 
ATOM     19  C   UNL     1      42.894 129.924  23.011  1.00  0.00     0.198 C 
ATOM     20  O   UNL     1      44.127 130.486  23.393  1.00  0.00    -0.368 OA
ENDBRANCH  16  18
ENDBRANCH   5  11
TORSDOF 2
ENDMDL
MODEL 5
REMARK VINA RESULT:      -8.3      1.721      7.074
REMARK SMILES c1nc2cc(-c3ncc([C@H]4CO4)c[nH+]3)c[nH+]c2o1
REMARK SMILES IDX 1 1 2 2 3 3 4 4 5 5 15 6 16 7 17 8 18 9 6 11 7 12 14 13 8 14
REMARK SMILES IDX 13 15 9 16 10 18 11 19 12 20
REMARK H PARENT 16 10 14 17
ROOT
ATOM      1  C   UNL     1      43.512 131.590  23.158  1.00  0.00     0.316 A 
ATOM      2  N   UNL     1      44.531 131.084  22.410  1.00  0.00    -0.209 NA
ATOM      3  C   UNL     1      44.120 131.353  21.159  1.00  0.00     0.180 A 
ATOM      4  C   UNL     1      44.756 131.075  19.957  1.00  0.00     0.062 A 
ATOM      5  C   UNL     1      44.104 131.471  18.763  1.00  0.00     0.134 A 
ATOM      6  C   UNL     1      42.851 132.141  18.857  1.00  0.00     0.326 A 
ATOM      7  N   UNL     1      42.276 132.387  20.074  1.00  0.00    -0.177 N 
ATOM      8  C   UNL     1      42.925 131.986  21.193  1.00  0.00     0.399 A 
ATOM      9  O   UNL     1      42.546 132.133  22.432  1.00  0.00    -0.391 OA
ATOM     10  H   UNL     1      41.355 132.875  20.139  1.00  0.00     0.457 HD
ENDROOT
BRANCH   5  11
ATOM     11  C   UNL     1      44.715 131.222  17.433  1.00  0.00     0.334 A 
ATOM     12  N   UNL     1      45.681 130.270  17.312  1.00  0.00    -0.049 NA
ATOM     13  N   UNL     1      44.341 131.940  16.333  1.00  0.00    -0.243 N 
ATOM     14  C   UNL     1      46.268 130.004  16.117  1.00  0.00     0.264 A 
ATOM     15  C   UNL     1      44.905 131.702  15.119  1.00  0.00     0.208 A 
ATOM     16  C   UNL     1      45.877 130.708  14.977  1.00  0.00     0.066 A 
ATOM     17  H   UNL     1      43.637 132.707  16.405  1.00  0.00     0.312 HD
BRANCH  16  18
ATOM     18  C   UNL     1      46.540 130.456  13.656  1.00  0.00     0.181 C 
ATOM     19  C   UNL     1      47.751 131.258  13.370  1.00  0.00     0.198 C 
ATOM     20  O   UNL     1      47.835 129.924  13.815  1.00  0.00    -0.368 OA
ENDBRANCH  16  18
ENDBRANCH   5  11
TORSDOF 2
ENDMDL
MODEL 6
REMARK VINA RESULT:      -8.1      1.838      7.052
REMARK SMILES c1nc2cc(-c3ncc([C@H]4CO4)c[nH+]3)c[nH+]c2o1
REMARK SMILES IDX 1 1 2 2 3 3 4 4 5 5 15 6 16 7 17 8 18 9 6 11 7 12 14 13 8 14
REMARK SMILES IDX 13 15 9 16 10 18 11 19 12 20
REMARK H PARENT 16 10 14 17
ROOT
ATOM      1  C   UNL     1      43.320 131.589  23.365  1.00  0.00     0.316 A 
ATOM      2  N   UNL     1      44.324 131.097  22.588  1.00  0.00    -0.209 NA
ATOM      3  C   UNL     1      43.901 131.413  21.353  1.00  0.00     0.180 A 
ATOM      4  C   UNL     1      44.520 131.168  20.134  1.00  0.00     0.062 A 
ATOM      5  C   UNL     1      43.858 131.611  18.962  1.00  0.00     0.134 A 
ATOM      6  C   UNL     1      42.614 132.291  19.094  1.00  0.00     0.326 A 
ATOM      7  N   UNL     1      42.057 132.502  20.325  1.00  0.00    -0.177 N 
ATOM      8  C   UNL     1      42.715 132.056  21.422  1.00  0.00     0.399 A 
ATOM      9  O   UNL     1      42.351 132.166  22.670  1.00  0.00    -0.391 OA
ATOM     10  H   UNL     1      41.142 132.997  20.418  1.00  0.00     0.457 HD
ENDROOT
BRANCH   5  11
ATOM     11  C   UNL     1      44.451 131.400  17.617  1.00  0.00     0.334 A 
ATOM     12  N   UNL     1      43.715 131.695  16.511  1.00  0.00    -0.049 NA
ATOM     13  N   UNL     1      45.714 130.901  17.468  1.00  0.00    -0.243 N 
ATOM     14  C   UNL     1      44.215 131.522  15.261  1.00  0.00     0.264 A 
ATOM     15  C   UNL     1      46.250 130.715  16.232  1.00  0.00     0.208 A 
ATOM     16  C   UNL     1      45.513 131.040  15.090  1.00  0.00     0.066 A 
ATOM     17  H   UNL     1      46.284 130.622  18.297  1.00  0.00     0.312 HD
BRANCH  16  18
ATOM     18  C   UNL     1      46.070 130.806  13.717  1.00  0.00     0.181 C 
ATOM     19  C   UNL     1      47.473 131.227  13.503  1.00  0.00     0.198 C 
ATOM     20  O   UNL     1      47.133 129.881  13.736  1.00  0.00    -0.368 OA
ENDBRANCH  16  18
ENDBRANCH   5  11
TORSDOF 2
ENDMDL
MODEL 7
REMARK VINA RESULT:      -7.9      1.174      1.635
REMARK SMILES c1nc2cc(-c3ncc([C@H]4CO4)c[nH+]3)c[nH+]c2o1
REMARK SMILES IDX 1 1 2 2 3 3 4 4 5 5 15 6 16 7 17 8 18 9 6 11 7 12 14 13 8 14
REMARK SMILES IDX 13 15 9 16 10 18 11 19 12 20
REMARK H PARENT 16 10 14 17
ROOT
ATOM      1  C   UNL     1      46.889 130.021  13.934  1.00  0.00     0.316 A 
ATOM      2  N   UNL     1      47.185 129.813  15.247  1.00  0.00    -0.209 NA
ATOM      3  C   UNL     1      46.151 130.409  15.864  1.00  0.00     0.180 A 
ATOM      4  C   UNL     1      45.898 130.517  17.225  1.00  0.00     0.062 A 
ATOM      5  C   UNL     1      44.721 131.201  17.620  1.00  0.00     0.134 A 
ATOM      6  C   UNL     1      43.860 131.721  16.612  1.00  0.00     0.326 A 
ATOM      7  N   UNL     1      44.166 131.580  15.286  1.00  0.00    -0.177 N 
ATOM      8  C   UNL     1      45.304 130.928  14.947  1.00  0.00     0.399 A 
ATOM      9  O   UNL     1      45.760 130.690  13.749  1.00  0.00    -0.391 OA
ATOM     10  H   UNL     1      43.535 131.967  14.549  1.00  0.00     0.457 HD
ENDROOT
BRANCH   5  11
ATOM     11  C   UNL     1      44.366 131.356  19.053  1.00  0.00     0.334 A 
ATOM     12  N   UNL     1      45.290 131.051  20.005  1.00  0.00    -0.049 NA
ATOM     13  N   UNL     1      43.126 131.782  19.436  1.00  0.00    -0.243 N 
ATOM     14  C   UNL     1      45.014 131.179  21.328  1.00  0.00     0.264 A 
ATOM     15  C   UNL     1      42.812 131.923  20.752  1.00  0.00     0.208 A 
ATOM     16  C   UNL     1      43.761 131.640  21.736  1.00  0.00     0.066 A 
ATOM     17  H   UNL     1      42.382 131.978  18.730  1.00  0.00     0.312 HD
BRANCH  16  18
ATOM     18  C   UNL     1      43.424 131.753  23.193  1.00  0.00     0.181 C 
ATOM     19  C   UNL     1      42.597 130.661  23.757  1.00  0.00     0.198 C 
ATOM     20  O   UNL     1      43.992 130.703  23.943  1.00  0.00    -0.368 OA
ENDBRANCH  16  18
ENDBRANCH   5  11
TORSDOF 2
ENDMDL
MODEL 8
REMARK VINA RESULT:      -7.8      1.037      1.943
REMARK SMILES c1nc2cc(-c3ncc([C@H]4CO4)c[nH+]3)c[nH+]c2o1
REMARK SMILES IDX 1 1 2 2 3 3 4 4 5 5 15 6 16 7 17 8 18 9 6 11 7 12 14 13 8 14
REMARK SMILES IDX 13 15 9 16 10 18 11 19 12 20
REMARK H PARENT 16 10 14 17
ROOT
ATOM      1  C   UNL     1      47.625 131.043  13.015  1.00  0.00     0.316 A 
ATOM      2  N   UNL     1      47.229 131.993  13.907  1.00  0.00    -0.209 NA
ATOM      3  C   UNL     1      46.650 131.250  14.866  1.00  0.00     0.180 A 
ATOM      4  C   UNL     1      46.058 131.670  16.049  1.00  0.00     0.062 A 
ATOM      5  C   UNL     1      45.516 130.674  16.900  1.00  0.00     0.134 A 
ATOM      6  C   UNL     1      45.620 129.308  16.508  1.00  0.00     0.326 A 
ATOM      7  N   UNL     1      46.217 128.961  15.327  1.00  0.00    -0.177 N 
ATOM      8  C   UNL     1      46.715 129.941  14.537  1.00  0.00     0.399 A 
ATOM      9  O   UNL     1      47.319 129.810  13.389  1.00  0.00    -0.391 OA
ATOM     10  H   UNL     1      46.287 127.959  15.041  1.00  0.00     0.457 HD
ENDROOT
BRANCH   5  11
ATOM     11  C   UNL     1      44.873 131.030  18.189  1.00  0.00     0.334 A 
ATOM     12  N   UNL     1      45.530 130.775  19.354  1.00  0.00    -0.049 NA
ATOM     13  N   UNL     1      43.629 131.594  18.232  1.00  0.00    -0.243 N 
ATOM     14  C   UNL     1      44.984 131.085  20.558  1.00  0.00     0.264 A 
ATOM     15  C   UNL     1      43.050 131.919  19.419  1.00  0.00     0.208 A 
ATOM     16  C   UNL     1      43.727 131.687  20.618  1.00  0.00     0.066 A 
ATOM     17  H   UNL     1      43.083 131.758  17.358  1.00  0.00     0.312 HD
BRANCH  16  18
ATOM     18  C   UNL     1      43.091 132.003  21.940  1.00  0.00     0.181 C 
ATOM     19  C   UNL     1      42.859 130.853  22.843  1.00  0.00     0.198 C 
ATOM     20  O   UNL     1      43.955 131.719  23.015  1.00  0.00    -0.368 OA
ENDBRANCH  16  18
ENDBRANCH   5  11
TORSDOF 2
ENDMDL
MODEL 9
REMARK VINA RESULT:      -7.8      1.012      1.560
REMARK SMILES c1nc2cc(-c3ncc([C@H]4CO4)c[nH+]3)c[nH+]c2o1
REMARK SMILES IDX 1 1 2 2 3 3 4 4 5 5 15 6 16 7 17 8 18 9 6 11 7 12 14 13 8 14
REMARK SMILES IDX 13 15 9 16 10 18 11 19 12 20
REMARK H PARENT 16 10 14 17
ROOT
ATOM      1  C   UNL     1      47.604 130.970  12.952  1.00  0.00     0.316 A 
ATOM      2  N   UNL     1      47.308 131.906  13.896  1.00  0.00    -0.209 NA
ATOM      3  C   UNL     1      46.716 131.165  14.848  1.00  0.00     0.180 A 
ATOM      4  C   UNL     1      46.199 131.574  16.070  1.00  0.00     0.062 A 
ATOM      5  C   UNL     1      45.623 130.582  16.903  1.00  0.00     0.134 A 
ATOM      6  C   UNL     1      45.618 129.230  16.454  1.00  0.00     0.326 A 
ATOM      7  N   UNL     1      46.144 128.892  15.237  1.00  0.00    -0.177 N 
ATOM      8  C   UNL     1      46.678 129.869  14.466  1.00  0.00     0.399 A 
ATOM      9  O   UNL     1      47.228 129.745  13.290  1.00  0.00    -0.391 OA
ATOM     10  H   UNL     1      46.134 127.901  14.910  1.00  0.00     0.457 HD
ENDROOT
BRANCH   5  11
ATOM     11  C   UNL     1      45.055 130.927  18.230  1.00  0.00     0.334 A 
ATOM     12  N   UNL     1      43.846 131.550  18.296  1.00  0.00    -0.049 NA
ATOM     13  N   UNL     1      45.729 130.648  19.385  1.00  0.00    -0.243 N 
ATOM     14  C   UNL     1      43.285 131.883  19.487  1.00  0.00     0.264 A 
ATOM     15  C   UNL     1      45.198 130.965  20.597  1.00  0.00     0.208 A 
ATOM     16  C   UNL     1      43.946 131.579  20.678  1.00  0.00     0.066 A 
ATOM     17  H   UNL     1      46.678 130.213  19.364  1.00  0.00     0.312 HD
BRANCH  16  18
ATOM     18  C   UNL     1      43.361 131.973  22.001  1.00  0.00     0.181 C 
ATOM     19  C   UNL     1      42.949 130.861  22.888  1.00  0.00     0.198 C 
ATOM     20  O   UNL     1      44.166 131.544  23.075  1.00  0.00    -0.368 OA
ENDBRANCH  16  18
ENDBRANCH   5  11
TORSDOF 2
ENDMDL


