MODEL 1
REMARK VINA RESULT:      -6.5      0.000      0.000
REMARK SMILES CCC[C@@H]([NH3+])/C=C(\O)N1CC[C@H](C)[C@H](c2cc3cc(F)ccc3[nH]2)[C@@H]1F
REMARK SMILES IDX 6 1 7 2 8 3 9 5 10 6 25 7 11 8 14 9 12 10 26 11 13 12 15 13
REMARK SMILES IDX 16 14 24 15 17 16 23 17 18 18 22 19 19 20 21 21 20 23 4 24
REMARK SMILES IDX 3 25 2 26 1 27 5 28
REMARK H PARENT 8 4 24 22 5 29 5 30 5 31
ROOT
ATOM      1  C   UNL     1      44.088 130.213  23.954  1.00  0.00     0.102 C 
ENDROOT
BRANCH   1   2
ATOM      2  C   UNL     1      44.229 131.366  23.283  1.00  0.00     0.190 C 
BRANCH   2   3
ATOM      3  O   UNL     1      44.958 132.416  23.841  1.00  0.00    -0.495 OA
ATOM      4  H   UNL     1      45.154 132.452  24.834  1.00  0.00     0.295 HD
ENDBRANCH   2   3
BRANCH   2   5
ATOM      5  N   UNL     1      43.621 131.538  21.988  1.00  0.00    -0.313 N 
ATOM      6  C   UNL     1      42.237 132.015  21.892  1.00  0.00     0.123 C 
ATOM      7  C   UNL     1      44.282 131.056  20.768  1.00  0.00     0.274 C 
ATOM      8  C   UNL     1      42.125 133.100  20.816  1.00  0.00     0.026 C 
ATOM      9  C   UNL     1      44.162 132.122  19.657  1.00  0.00     0.094 C 
ATOM     10  C   UNL     1      42.710 132.641  19.463  1.00  0.00     0.001 C 
ATOM     11  F   UNL     1      43.719 129.850  20.396  1.00  0.00    -0.223 F 
ATOM     12  C   UNL     1      41.769 131.646  18.756  1.00  0.00     0.008 C 
BRANCH   9  13
ATOM     13  C   UNL     1      44.821 131.705  18.361  1.00  0.00     0.024 A 
ATOM     14  C   UNL     1      45.488 130.493  18.177  1.00  0.00     0.032 A 
ATOM     15  N   UNL     1      44.900 132.470  17.242  1.00  0.00    -0.358 N 
ATOM     16  C   UNL     1      45.973 130.542  16.889  1.00  0.00     0.003 A 
ATOM     17  C   UNL     1      45.601 131.747  16.354  1.00  0.00     0.046 A 
ATOM     18  C   UNL     1      46.720 129.615  16.166  1.00  0.00     0.049 A 
ATOM     19  C   UNL     1      45.953 132.111  15.056  1.00  0.00     0.029 A 
ATOM     20  C   UNL     1      47.089 129.951  14.850  1.00  0.00     0.123 A 
ATOM     21  C   UNL     1      46.707 131.196  14.298  1.00  0.00     0.041 A 
ATOM     22  H   UNL     1      44.524 133.433  17.094  1.00  0.00     0.166 HD
ATOM     23  F   UNL     1      47.816 129.080  14.109  1.00  0.00    -0.207 F 
ENDBRANCH   9  13
ENDBRANCH   2   5
ENDBRANCH   1   2
BRANCH   1  24
ATOM     24  C   UNL     1      43.465 128.970  23.357  1.00  0.00     0.209 C 
BRANCH  24  25
ATOM     25  C   UNL     1      44.181 127.703  23.878  1.00  0.00     0.069 C 
BRANCH  25  26
ATOM     26  C   UNL     1      44.690 126.766  22.766  1.00  0.00     0.003 C 
ATOM     27  C   UNL     1      45.696 125.733  23.273  1.00  0.00     0.004 C 
ENDBRANCH  25  26
ENDBRANCH  24  25
BRANCH  24  28
ATOM     28  N   UNL     1      42.041 128.923  23.707  1.00  0.00    -0.352 N 
ATOM     29  H   UNL     1      41.837 129.552  24.518  1.00  0.00     0.345 HD
ATOM     30  H   UNL     1      41.465 129.225  22.887  1.00  0.00     0.345 HD
ATOM     31  H   UNL     1      41.768 127.944  23.956  1.00  0.00     0.345 HD
ENDBRANCH  24  28
ENDBRANCH   1  24
TORSDOF 8
ENDMDL
MODEL 2
REMARK VINA RESULT:      -4.5      1.379      1.801
REMARK SMILES CCC[C@@H]([NH3+])/C=C(\O)N1CC[C@H](C)[C@H](c2cc3cc(F)ccc3[nH]2)[C@@H]1F
REMARK SMILES IDX 6 1 7 2 8 3 9 5 10 6 25 7 11 8 14 9 12 10 26 11 13 12 15 13
REMARK SMILES IDX 16 14 24 15 17 16 23 17 18 18 22 19 19 20 21 21 20 23 4 24
REMARK SMILES IDX 3 25 2 26 1 27 5 28
REMARK H PARENT 8 4 24 22 5 29 5 30 5 31
ROOT
ATOM      1  C   UNL     1      44.986 130.670  22.620  1.00  0.00     0.102 C 
ENDROOT
BRANCH   1   2
ATOM      2  C   UNL     1      45.147 131.613  21.679  1.00  0.00     0.190 C 
BRANCH   2   3
ATOM      3  O   UNL     1      45.911 132.747  21.949  1.00  0.00    -0.495 OA
ATOM      4  H   UNL     1      45.516 133.678  21.884  1.00  0.00     0.295 HD
ENDBRANCH   2   3
BRANCH   2   5
ATOM      5  N   UNL     1      44.525 131.472  20.387  1.00  0.00    -0.313 N 
ATOM      6  C   UNL     1      43.068 131.597  20.263  1.00  0.00     0.123 C 
ATOM      7  C   UNL     1      45.289 131.005  19.223  1.00  0.00     0.274 C 
ATOM      8  C   UNL     1      42.714 132.480  19.062  1.00  0.00     0.026 C 
ATOM      9  C   UNL     1      44.931 131.863  17.989  1.00  0.00     0.094 C 
ATOM     10  C   UNL     1      43.400 132.000  17.764  1.00  0.00     0.001 C 
ATOM     11  F   UNL     1      45.026 129.663  19.018  1.00  0.00    -0.223 F 
ATOM     12  C   UNL     1      42.722 130.732  17.210  1.00  0.00     0.008 C 
BRANCH   9  13
ATOM     13  C   UNL     1      45.679 131.448  16.741  1.00  0.00     0.024 A 
ATOM     14  C   UNL     1      46.258 130.191  16.557  1.00  0.00     0.032 A 
ATOM     15  N   UNL     1      45.932 132.253  15.678  1.00  0.00    -0.358 N 
ATOM     16  C   UNL     1      46.870 130.255  15.326  1.00  0.00     0.003 A 
ATOM     17  C   UNL     1      46.655 131.511  14.823  1.00  0.00     0.046 A 
ATOM     18  C   UNL     1      47.606 129.300  14.628  1.00  0.00     0.049 A 
ATOM     19  C   UNL     1      47.164 131.902  13.585  1.00  0.00     0.029 A 
ATOM     20  C   UNL     1      48.131 129.662  13.373  1.00  0.00     0.123 A 
ATOM     21  C   UNL     1      47.911 130.959  12.855  1.00  0.00     0.041 A 
ATOM     22  H   UNL     1      45.655 133.250  15.546  1.00  0.00     0.166 HD
ATOM     23  F   UNL     1      48.853 128.764  12.659  1.00  0.00    -0.207 F 
ENDBRANCH   9  13
ENDBRANCH   2   5
ENDBRANCH   1   2
BRANCH   1  24
ATOM     24  C   UNL     1      44.253 129.368  22.379  1.00  0.00     0.209 C 
BRANCH  24  25
ATOM     25  C   UNL     1      45.144 128.166  22.771  1.00  0.00     0.069 C 
BRANCH  25  26
ATOM     26  C   UNL     1      44.392 126.824  22.843  1.00  0.00     0.003 C 
ATOM     27  C   UNL     1      43.974 126.453  24.266  1.00  0.00     0.004 C 
ENDBRANCH  25  26
ENDBRANCH  24  25
BRANCH  24  28
ATOM     28  N   UNL     1      43.015 129.354  23.166  1.00  0.00    -0.352 N 
ATOM     29  H   UNL     1      43.152 129.841  24.082  1.00  0.00     0.345 HD
ATOM     30  H   UNL     1      42.252 129.832  22.634  1.00  0.00     0.345 HD
ATOM     31  H   UNL     1      42.718 128.366  23.346  1.00  0.00     0.345 HD
ENDBRANCH  24  28
ENDBRANCH   1  24
TORSDOF 8
ENDMDL
MODEL 3
REMARK VINA RESULT:      -4.3      1.798      2.241
REMARK SMILES CCC[C@@H]([NH3+])/C=C(\O)N1CC[C@H](C)[C@H](c2cc3cc(F)ccc3[nH]2)[C@@H]1F
REMARK SMILES IDX 6 1 7 2 8 3 9 5 10 6 25 7 11 8 14 9 12 10 26 11 13 12 15 13
REMARK SMILES IDX 16 14 24 15 17 16 23 17 18 18 22 19 19 20 21 21 20 23 4 24
REMARK SMILES IDX 3 25 2 26 1 27 5 28
REMARK H PARENT 8 4 24 22 5 29 5 30 5 31
ROOT
ATOM      1  C   UNL     1      43.603 128.250  23.204  1.00  0.00     0.102 C 
ENDROOT
BRANCH   1   2
ATOM      2  C   UNL     1      43.062 129.462  23.009  1.00  0.00     0.190 C 
BRANCH   2   3
ATOM      3  O   UNL     1      41.795 129.751  23.515  1.00  0.00    -0.495 OA
ATOM      4  H   UNL     1      41.430 129.273  24.330  1.00  0.00     0.295 HD
ENDBRANCH   2   3
BRANCH   2   5
ATOM      5  N   UNL     1      43.775 130.471  22.269  1.00  0.00    -0.313 N 
ATOM      6  C   UNL     1      44.303 131.649  22.966  1.00  0.00     0.123 C 
ATOM      7  C   UNL     1      43.812 130.452  20.800  1.00  0.00     0.274 C 
ATOM      8  C   UNL     1      45.738 131.934  22.511  1.00  0.00     0.026 C 
ATOM      9  C   UNL     1      45.244 130.762  20.313  1.00  0.00     0.094 C 
ATOM     10  C   UNL     1      45.853 132.030  20.974  1.00  0.00     0.001 C 
ATOM     11  F   UNL     1      42.888 131.358  20.314  1.00  0.00    -0.223 F 
ATOM     12  C   UNL     1      45.274 133.359  20.452  1.00  0.00     0.008 C 
BRANCH   9  13
ATOM     13  C   UNL     1      45.371 130.761  18.805  1.00  0.00     0.024 A 
ATOM     14  C   UNL     1      46.227 129.919  18.093  1.00  0.00     0.032 A 
ATOM     15  N   UNL     1      44.722 131.607  17.966  1.00  0.00    -0.358 N 
ATOM     16  C   UNL     1      46.067 130.278  16.774  1.00  0.00     0.003 A 
ATOM     17  C   UNL     1      45.154 131.298  16.732  1.00  0.00     0.046 A 
ATOM     18  C   UNL     1      46.671 129.783  15.620  1.00  0.00     0.049 A 
ATOM     19  C   UNL     1      44.780 131.898  15.530  1.00  0.00     0.029 A 
ATOM     20  C   UNL     1      46.313 130.366  14.390  1.00  0.00     0.123 A 
ATOM     21  C   UNL     1      45.372 131.420  14.346  1.00  0.00     0.041 A 
ATOM     22  H   UNL     1      44.046 132.363  18.210  1.00  0.00     0.166 HD
ATOM     23  F   UNL     1      46.876 129.916  13.241  1.00  0.00    -0.207 F 
ENDBRANCH   9  13
ENDBRANCH   2   5
ENDBRANCH   1   2
BRANCH   1  24
ATOM     24  C   UNL     1      45.095 127.999  23.249  1.00  0.00     0.209 C 
BRANCH  24  25
ATOM     25  C   UNL     1      45.452 127.074  24.436  1.00  0.00     0.069 C 
BRANCH  25  26
ATOM     26  C   UNL     1      44.659 125.754  24.464  1.00  0.00     0.003 C 
ATOM     27  C   UNL     1      45.556 124.524  24.604  1.00  0.00     0.004 C 
ENDBRANCH  25  26
ENDBRANCH  24  25
BRANCH  24  28
ATOM     28  N   UNL     1      45.524 127.387  21.988  1.00  0.00    -0.352 N 
ATOM     29  H   UNL     1      45.327 126.359  21.988  1.00  0.00     0.345 HD
ATOM     30  H   UNL     1      45.017 127.832  21.187  1.00  0.00     0.345 HD
ATOM     31  H   UNL     1      46.550 127.538  21.849  1.00  0.00     0.345 HD
ENDBRANCH  24  28
ENDBRANCH   1  24
TORSDOF 8
ENDMDL


