MODEL 1
REMARK VINA RESULT:      -7.1      0.000      0.000
REMARK SMILES Cc1ccc([C@@H]2CC[C@@H]3CC=N[C@]3(C=O)C2)c(F)c1F
REMARK SMILES IDX 6 1 7 2 8 3 9 4 10 5 11 6 12 7 13 8 16 9 5 10 2 11 3 12
REMARK SMILES IDX 19 13 4 14 17 15 1 16 20 17 18 18 14 19 15 20
REMARK H PARENT
ROOT
ATOM      1  C   UNL     1      44.750 130.601  17.075  1.00  0.00     0.025 C 
ATOM      2  C   UNL     1      45.469 129.260  16.878  1.00  0.00     0.009 C 
ATOM      3  C   UNL     1      45.375 128.819  15.417  1.00  0.00     0.007 C 
ATOM      4  C   UNL     1      45.883 129.882  14.421  1.00  0.00     0.029 C 
ATOM      5  C   UNL     1      47.407 129.941  14.273  1.00  0.00     0.054 C 
ATOM      6  C   UNL     1      47.612 131.373  13.927  1.00  0.00     0.079 C 
ATOM      7  N   UNL     1      46.583 132.103  14.146  1.00  0.00    -0.283 NA
ATOM      8  C   UNL     1      45.489 131.357  14.720  1.00  0.00     0.119 C 
ATOM      9  C   UNL     1      45.430 131.695  16.236  1.00  0.00     0.047 C 
ENDROOT
BRANCH   1  10
ATOM     10  C   UNL     1      44.666 130.990  18.545  1.00  0.00    -0.006 A 
ATOM     11  C   UNL     1      44.587 131.675  21.285  1.00  0.00    -0.012 A 
ATOM     12  C   UNL     1      45.691 130.991  20.757  1.00  0.00     0.007 A 
ATOM     13  C   UNL     1      43.511 131.999  20.444  1.00  0.00     0.162 A 
ATOM     14  C   UNL     1      45.731 130.656  19.402  1.00  0.00     0.007 A 
ATOM     15  C   UNL     1      43.548 131.664  19.086  1.00  0.00     0.162 A 
ATOM     16  C   UNL     1      44.533 132.013  22.747  1.00  0.00     0.047 C 
ATOM     17  F   UNL     1      42.423 132.639  20.942  1.00  0.00    -0.203 F 
ATOM     18  F   UNL     1      42.487 131.998  18.310  1.00  0.00    -0.203 F 
ENDBRANCH   1  10
BRANCH   8  19
ATOM     19  C   UNL     1      44.202 131.742  14.027  1.00  0.00     0.254 C 
ATOM     20  O   UNL     1      43.153 131.810  14.650  1.00  0.00    -0.301 OA
ENDBRANCH   8  19
TORSDOF 2
ENDMDL
MODEL 2
REMARK VINA RESULT:      -6.6      2.995      6.429
REMARK SMILES Cc1ccc([C@@H]2CC[C@@H]3CC=N[C@]3(C=O)C2)c(F)c1F
REMARK SMILES IDX 6 1 7 2 8 3 9 4 10 5 11 6 12 7 13 8 16 9 5 10 2 11 3 12
REMARK SMILES IDX 19 13 4 14 17 15 1 16 20 17 18 18 14 19 15 20
REMARK H PARENT
ROOT
ATOM      1  C   UNL     1      44.484 131.697  19.756  1.00  0.00     0.025 C 
ATOM      2  C   UNL     1      45.729 131.501  20.630  1.00  0.00     0.009 C 
ATOM      3  C   UNL     1      45.473 132.029  22.041  1.00  0.00     0.007 C 
ATOM      4  C   UNL     1      44.218 131.424  22.705  1.00  0.00     0.029 C 
ATOM      5  C   UNL     1      44.422 130.027  23.298  1.00  0.00     0.054 C 
ATOM      6  C   UNL     1      43.057 129.451  23.164  1.00  0.00     0.079 C 
ATOM      7  N   UNL     1      42.293 130.124  22.388  1.00  0.00    -0.283 NA
ATOM      8  C   UNL     1      42.966 131.256  21.798  1.00  0.00     0.119 C 
ATOM      9  C   UNL     1      43.304 130.890  20.325  1.00  0.00     0.047 C 
ENDROOT
BRANCH   1  10
ATOM     10  C   UNL     1      44.752 131.347  18.298  1.00  0.00    -0.006 A 
ATOM     11  C   UNL     1      45.323 130.663  15.617  1.00  0.00    -0.012 A 
ATOM     12  C   UNL     1      46.222 130.332  16.640  1.00  0.00     0.007 A 
ATOM     13  C   UNL     1      44.145 131.357  15.933  1.00  0.00     0.162 A 
ATOM     14  C   UNL     1      45.937 130.667  17.965  1.00  0.00     0.007 A 
ATOM     15  C   UNL     1      43.857 131.694  17.260  1.00  0.00     0.162 A 
ATOM     16  C   UNL     1      45.642 130.326  14.188  1.00  0.00     0.047 C 
ATOM     17  F   UNL     1      43.275 131.709  14.953  1.00  0.00    -0.203 F 
ATOM     18  F   UNL     1      42.706 132.363  17.520  1.00  0.00    -0.203 F 
ENDBRANCH   1  10
BRANCH   8  19
ATOM     19  C   UNL     1      42.063 132.466  21.863  1.00  0.00     0.254 C 
ATOM     20  O   UNL     1      41.678 133.015  20.841  1.00  0.00    -0.301 OA
ENDBRANCH   8  19
TORSDOF 2
ENDMDL
MODEL 3
REMARK VINA RESULT:      -6.0      3.534      7.016
REMARK SMILES Cc1ccc([C@@H]2CC[C@@H]3CC=N[C@]3(C=O)C2)c(F)c1F
REMARK SMILES IDX 6 1 7 2 8 3 9 4 10 5 11 6 12 7 13 8 16 9 5 10 2 11 3 12
REMARK SMILES IDX 19 13 4 14 17 15 1 16 20 17 18 18 14 19 15 20
REMARK H PARENT
ROOT
ATOM      1  C   UNL     1      43.256 131.147  20.528  1.00  0.00     0.025 C 
ATOM      2  C   UNL     1      42.762 132.528  20.979  1.00  0.00     0.009 C 
ATOM      3  C   UNL     1      41.914 132.398  22.245  1.00  0.00     0.007 C 
ATOM      4  C   UNL     1      42.632 131.655  23.392  1.00  0.00     0.029 C 
ATOM      5  C   UNL     1      43.627 132.510  24.182  1.00  0.00     0.054 C 
ATOM      6  C   UNL     1      44.610 131.484  24.621  1.00  0.00     0.079 C 
ATOM      7  N   UNL     1      44.496 130.370  24.001  1.00  0.00    -0.283 NA
ATOM      8  C   UNL     1      43.464 130.403  22.992  1.00  0.00     0.119 C 
ATOM      9  C   UNL     1      44.161 130.529  21.608  1.00  0.00     0.047 C 
ENDROOT
BRANCH   1  10
ATOM     10  C   UNL     1      43.955 131.207  19.177  1.00  0.00    -0.006 A 
ATOM     11  C   UNL     1      45.324 131.295  16.707  1.00  0.00    -0.012 A 
ATOM     12  C   UNL     1      45.999 130.925  17.878  1.00  0.00     0.007 A 
ATOM     13  C   UNL     1      43.966 131.643  16.775  1.00  0.00     0.162 A 
ATOM     14  C   UNL     1      45.320 130.878  19.098  1.00  0.00     0.007 A 
ATOM     15  C   UNL     1      43.284 131.597  17.996  1.00  0.00     0.162 A 
ATOM     16  C   UNL     1      46.060 131.371  15.399  1.00  0.00     0.047 C 
ATOM     17  F   UNL     1      43.303 132.030  15.655  1.00  0.00    -0.203 F 
ATOM     18  F   UNL     1      41.972 131.940  18.014  1.00  0.00    -0.203 F 
ENDBRANCH   1  10
BRANCH   8  19
ATOM     19  C   UNL     1      42.643 129.137  23.073  1.00  0.00     0.254 C 
ATOM     20  O   UNL     1      41.676 129.065  23.817  1.00  0.00    -0.301 OA
ENDBRANCH   8  19
TORSDOF 2
ENDMDL
MODEL 4
REMARK VINA RESULT:      -5.5      4.218      7.555
REMARK SMILES Cc1ccc([C@@H]2CC[C@@H]3CC=N[C@]3(C=O)C2)c(F)c1F
REMARK SMILES IDX 6 1 7 2 8 3 9 4 10 5 11 6 12 7 13 8 16 9 5 10 2 11 3 12
REMARK SMILES IDX 19 13 4 14 17 15 1 16 20 17 18 18 14 19 15 20
REMARK H PARENT
ROOT
ATOM      1  C   UNL     1      44.357 130.786  21.733  1.00  0.00     0.025 C 
ATOM      2  C   UNL     1      44.788 129.352  22.069  1.00  0.00     0.009 C 
ATOM      3  C   UNL     1      44.970 129.195  23.580  1.00  0.00     0.007 C 
ATOM      4  C   UNL     1      43.729 129.616  24.395  1.00  0.00     0.029 C 
ATOM      5  C   UNL     1      42.616 128.566  24.451  1.00  0.00     0.054 C 
ATOM      6  C   UNL     1      41.410 129.424  24.590  1.00  0.00     0.079 C 
ATOM      7  N   UNL     1      41.630 130.659  24.331  1.00  0.00    -0.283 NA
ATOM      8  C   UNL     1      42.993 130.903  23.922  1.00  0.00     0.119 C 
ATOM      9  C   UNL     1      42.996 131.096  22.380  1.00  0.00     0.047 C 
ENDROOT
BRANCH   1  10
ATOM     10  C   UNL     1      44.335 131.034  20.231  1.00  0.00    -0.006 A 
ATOM     11  C   UNL     1      44.215 131.526  17.451  1.00  0.00    -0.012 A 
ATOM     12  C   UNL     1      43.125 131.840  18.274  1.00  0.00     0.007 A 
ATOM     13  C   UNL     1      45.360 130.946  18.017  1.00  0.00     0.162 A 
ATOM     14  C   UNL     1      43.186 131.600  19.649  1.00  0.00     0.007 A 
ATOM     15  C   UNL     1      45.425 130.704  19.394  1.00  0.00     0.162 A 
ATOM     16  C   UNL     1      44.139 131.760  15.970  1.00  0.00     0.047 C 
ATOM     17  F   UNL     1      46.416 130.611  17.233  1.00  0.00    -0.203 F 
ATOM     18  F   UNL     1      46.552 130.143  19.898  1.00  0.00    -0.203 F 
ENDBRANCH   1  10
BRANCH   8  19
ATOM     19  C   UNL     1      43.514 132.135  24.625  1.00  0.00     0.254 C 
ATOM     20  O   UNL     1      44.707 132.397  24.624  1.00  0.00    -0.301 OA
ENDBRANCH   8  19
TORSDOF 2
ENDMDL
MODEL 5
REMARK VINA RESULT:      -5.2      3.351      6.699
REMARK SMILES Cc1ccc([C@@H]2CC[C@@H]3CC=N[C@]3(C=O)C2)c(F)c1F
REMARK SMILES IDX 6 1 7 2 8 3 9 4 10 5 11 6 12 7 13 8 16 9 5 10 2 11 3 12
REMARK SMILES IDX 19 13 4 14 17 15 1 16 20 17 18 18 14 19 15 20
REMARK H PARENT
ROOT
ATOM      1  C   UNL     1      44.372 131.764  19.839  1.00  0.00     0.025 C 
ATOM      2  C   UNL     1      45.639 131.556  20.679  1.00  0.00     0.009 C 
ATOM      3  C   UNL     1      45.415 132.057  22.106  1.00  0.00     0.007 C 
ATOM      4  C   UNL     1      44.179 131.435  22.789  1.00  0.00     0.029 C 
ATOM      5  C   UNL     1      44.402 130.027  23.350  1.00  0.00     0.054 C 
ATOM      6  C   UNL     1      43.037 129.448  23.238  1.00  0.00     0.079 C 
ATOM      7  N   UNL     1      42.252 130.133  22.493  1.00  0.00    -0.283 NA
ATOM      8  C   UNL     1      42.906 131.279  21.909  1.00  0.00     0.119 C 
ATOM      9  C   UNL     1      43.210 130.942  20.422  1.00  0.00     0.047 C 
ENDROOT
BRANCH   1  10
ATOM     10  C   UNL     1      44.606 131.442  18.369  1.00  0.00    -0.006 A 
ATOM     11  C   UNL     1      44.967 130.887  15.623  1.00  0.00    -0.012 A 
ATOM     12  C   UNL     1      43.848 131.609  16.058  1.00  0.00     0.007 A 
ATOM     13  C   UNL     1      45.897 130.423  16.566  1.00  0.00     0.162 A 
ATOM     14  C   UNL     1      43.672 131.886  17.415  1.00  0.00     0.007 A 
ATOM     15  C   UNL     1      45.724 130.699  17.926  1.00  0.00     0.162 A 
ATOM     16  C   UNL     1      45.143 130.566  14.166  1.00  0.00     0.047 C 
ATOM     17  F   UNL     1      46.974 129.699  16.166  1.00  0.00    -0.203 F 
ATOM     18  F   UNL     1      46.648 130.233  18.802  1.00  0.00    -0.203 F 
ENDBRANCH   1  10
BRANCH   8  19
ATOM     19  C   UNL     1      42.000 132.483  22.018  1.00  0.00     0.254 C 
ATOM     20  O   UNL     1      41.530 133.006  21.019  1.00  0.00    -0.301 OA
ENDBRANCH   8  19
TORSDOF 2
ENDMDL
MODEL 6
REMARK VINA RESULT:      -5.1      3.904      7.230
REMARK SMILES Cc1ccc([C@@H]2CC[C@@H]3CC=N[C@]3(C=O)C2)c(F)c1F
REMARK SMILES IDX 6 1 7 2 8 3 9 4 10 5 11 6 12 7 13 8 16 9 5 10 2 11 3 12
REMARK SMILES IDX 19 13 4 14 17 15 1 16 20 17 18 18 14 19 15 20
REMARK H PARENT
ROOT
ATOM      1  C   UNL     1      44.593 130.612  21.555  1.00  0.00     0.025 C 
ATOM      2  C   UNL     1      44.800 129.120  21.847  1.00  0.00     0.009 C 
ATOM      3  C   UNL     1      45.009 128.899  23.346  1.00  0.00     0.007 C 
ATOM      4  C   UNL     1      43.882 129.492  24.217  1.00  0.00     0.029 C 
ATOM      5  C   UNL     1      42.618 128.632  24.297  1.00  0.00     0.054 C 
ATOM      6  C   UNL     1      41.571 129.668  24.500  1.00  0.00     0.079 C 
ATOM      7  N   UNL     1      41.977 130.858  24.256  1.00  0.00    -0.283 NA
ATOM      8  C   UNL     1      43.345 130.891  23.799  1.00  0.00     0.119 C 
ATOM      9  C   UNL     1      43.324 131.119  22.261  1.00  0.00     0.047 C 
ENDROOT
BRANCH   1  10
ATOM     10  C   UNL     1      44.558 130.899  20.060  1.00  0.00    -0.006 A 
ATOM     11  C   UNL     1      44.570 131.400  17.280  1.00  0.00    -0.012 A 
ATOM     12  C   UNL     1      45.685 130.820  17.900  1.00  0.00     0.007 A 
ATOM     13  C   UNL     1      43.454 131.749  18.056  1.00  0.00     0.162 A 
ATOM     14  C   UNL     1      45.677 130.569  19.274  1.00  0.00     0.007 A 
ATOM     15  C   UNL     1      43.443 131.500  19.432  1.00  0.00     0.162 A 
ATOM     16  C   UNL     1      44.590 131.693  15.807  1.00  0.00     0.047 C 
ATOM     17  F   UNL     1      42.376 132.336  17.476  1.00  0.00    -0.203 F 
ATOM     18  F   UNL     1      42.343 131.852  20.142  1.00  0.00    -0.203 F 
ENDBRANCH   1  10
BRANCH   8  19
ATOM     19  C   UNL     1      44.083 132.006  24.503  1.00  0.00     0.254 C 
ATOM     20  O   UNL     1      43.577 133.111  24.625  1.00  0.00    -0.301 OA
ENDBRANCH   8  19
TORSDOF 2
ENDMDL
MODEL 7
REMARK VINA RESULT:      -5.0      1.581      2.168
REMARK SMILES Cc1ccc([C@@H]2CC[C@@H]3CC=N[C@]3(C=O)C2)c(F)c1F
REMARK SMILES IDX 6 1 7 2 8 3 9 4 10 5 11 6 12 7 13 8 16 9 5 10 2 11 3 12
REMARK SMILES IDX 19 13 4 14 17 15 1 16 20 17 18 18 14 19 15 20
REMARK H PARENT
ROOT
ATOM      1  C   UNL     1      44.443 131.736  17.919  1.00  0.00     0.025 C 
ATOM      2  C   UNL     1      43.172 131.262  17.200  1.00  0.00     0.009 C 
ATOM      3  C   UNL     1      43.303 131.486  15.693  1.00  0.00     0.007 C 
ATOM      4  C   UNL     1      44.567 130.843  15.084  1.00  0.00     0.029 C 
ATOM      5  C   UNL     1      44.454 129.339  14.821  1.00  0.00     0.054 C 
ATOM      6  C   UNL     1      45.869 128.907  14.975  1.00  0.00     0.079 C 
ATOM      7  N   UNL     1      46.613 129.789  15.532  1.00  0.00    -0.283 NA
ATOM      8  C   UNL     1      45.877 130.971  15.913  1.00  0.00     0.119 C 
ATOM      9  C   UNL     1      45.654 130.913  17.451  1.00  0.00     0.047 C 
ENDROOT
BRANCH   1  10
ATOM     10  C   UNL     1      44.287 131.696  19.433  1.00  0.00    -0.006 A 
ATOM     11  C   UNL     1      44.075 131.585  22.248  1.00  0.00    -0.012 A 
ATOM     12  C   UNL     1      45.218 131.093  21.604  1.00  0.00     0.007 A 
ATOM     13  C   UNL     1      43.026 132.114  21.481  1.00  0.00     0.162 A 
ATOM     14  C   UNL     1      45.324 131.152  20.212  1.00  0.00     0.007 A 
ATOM     15  C   UNL     1      43.129 132.174  20.087  1.00  0.00     0.162 A 
ATOM     16  C   UNL     1      43.950 131.498  23.743  1.00  0.00     0.047 C 
ATOM     17  F   UNL     1      41.900 132.571  22.086  1.00  0.00    -0.203 F 
ATOM     18  F   UNL     1      42.091 132.696  19.386  1.00  0.00    -0.203 F 
ENDBRANCH   1  10
BRANCH   8  19
ATOM     19  C   UNL     1      46.666 132.199  15.525  1.00  0.00     0.254 C 
ATOM     20  O   UNL     1      47.150 132.305  14.408  1.00  0.00    -0.301 OA
ENDBRANCH   8  19
TORSDOF 2
ENDMDL
MODEL 8
REMARK VINA RESULT:      -5.0      3.308      6.485
REMARK SMILES Cc1ccc([C@@H]2CC[C@@H]3CC=N[C@]3(C=O)C2)c(F)c1F
REMARK SMILES IDX 6 1 7 2 8 3 9 4 10 5 11 6 12 7 13 8 16 9 5 10 2 11 3 12
REMARK SMILES IDX 19 13 4 14 17 15 1 16 20 17 18 18 14 19 15 20
REMARK H PARENT
ROOT
ATOM      1  C   UNL     1      45.033 130.736  17.676  1.00  0.00     0.025 C 
ATOM      2  C   UNL     1      43.851 131.713  17.729  1.00  0.00     0.009 C 
ATOM      3  C   UNL     1      43.032 131.483  19.001  1.00  0.00     0.007 C 
ATOM      4  C   UNL     1      43.874 131.546  20.293  1.00  0.00     0.029 C 
ATOM      5  C   UNL     1      44.182 132.964  20.784  1.00  0.00     0.054 C 
ATOM      6  C   UNL     1      45.485 132.758  21.472  1.00  0.00     0.079 C 
ATOM      7  N   UNL     1      46.036 131.635  21.195  1.00  0.00    -0.283 NA
ATOM      8  C   UNL     1      45.272 130.865  20.244  1.00  0.00     0.119 C 
ATOM      9  C   UNL     1      45.978 130.983  18.864  1.00  0.00     0.047 C 
ENDROOT
BRANCH   1  10
ATOM     10  C   UNL     1      45.771 130.810  16.346  1.00  0.00    -0.006 A 
ATOM     11  C   UNL     1      47.129 131.032  13.878  1.00  0.00    -0.012 A 
ATOM     12  C   UNL     1      46.626 132.175  14.516  1.00  0.00     0.007 A 
ATOM     13  C   UNL     1      46.933 129.773  14.466  1.00  0.00     0.162 A 
ATOM     14  C   UNL     1      45.958 132.065  15.737  1.00  0.00     0.007 A 
ATOM     15  C   UNL     1      46.264 129.660  15.690  1.00  0.00     0.162 A 
ATOM     16  C   UNL     1      47.824 131.148  12.552  1.00  0.00     0.047 C 
ATOM     17  F   UNL     1      47.389 128.653  13.851  1.00  0.00    -0.203 F 
ATOM     18  F   UNL     1      46.099 128.423  16.222  1.00  0.00    -0.203 F 
ENDBRANCH   1  10
BRANCH   8  19
ATOM     19  C   UNL     1      45.207 129.426  20.700  1.00  0.00     0.254 C 
ATOM     20  O   UNL     1      45.110 129.149  21.885  1.00  0.00    -0.301 OA
ENDBRANCH   8  19
TORSDOF 2
ENDMDL
MODEL 9
REMARK VINA RESULT:      -4.9      1.378      1.758
REMARK SMILES Cc1ccc([C@@H]2CC[C@@H]3CC=N[C@]3(C=O)C2)c(F)c1F
REMARK SMILES IDX 6 1 7 2 8 3 9 4 10 5 11 6 12 7 13 8 16 9 5 10 2 11 3 12
REMARK SMILES IDX 19 13 4 14 17 15 1 16 20 17 18 18 14 19 15 20
REMARK H PARENT
ROOT
ATOM      1  C   UNL     1      44.366 130.720  16.957  1.00  0.00     0.025 C 
ATOM      2  C   UNL     1      45.062 129.358  16.837  1.00  0.00     0.009 C 
ATOM      3  C   UNL     1      45.107 128.915  15.374  1.00  0.00     0.007 C 
ATOM      4  C   UNL     1      45.748 129.959  14.435  1.00  0.00     0.029 C 
ATOM      5  C   UNL     1      47.279 129.971  14.447  1.00  0.00     0.054 C 
ATOM      6  C   UNL     1      47.563 131.395  14.124  1.00  0.00     0.079 C 
ATOM      7  N   UNL     1      46.539 132.157  14.234  1.00  0.00    -0.283 NA
ATOM      8  C   UNL     1      45.369 131.446  14.691  1.00  0.00     0.119 C 
ATOM      9  C   UNL     1      45.163 131.791  16.193  1.00  0.00     0.047 C 
ENDROOT
BRANCH   1  10
ATOM     10  C   UNL     1      44.142 131.117  18.410  1.00  0.00    -0.006 A 
ATOM     11  C   UNL     1      43.647 131.879  21.085  1.00  0.00    -0.012 A 
ATOM     12  C   UNL     1      42.656 132.039  20.108  1.00  0.00     0.007 A 
ATOM     13  C   UNL     1      44.897 131.356  20.719  1.00  0.00     0.162 A 
ATOM     14  C   UNL     1      42.900 131.659  18.786  1.00  0.00     0.007 A 
ATOM     15  C   UNL     1      45.145 130.974  19.396  1.00  0.00     0.162 A 
ATOM     16  C   UNL     1      43.394 132.312  22.501  1.00  0.00     0.047 C 
ATOM     17  F   UNL     1      45.879 131.218  21.646  1.00  0.00    -0.203 F 
ATOM     18  F   UNL     1      46.366 130.472  19.088  1.00  0.00    -0.203 F 
ENDBRANCH   1  10
BRANCH   8  19
ATOM     19  C   UNL     1      44.173 131.867  13.868  1.00  0.00     0.254 C 
ATOM     20  O   UNL     1      43.045 131.521  14.183  1.00  0.00    -0.301 OA
ENDBRANCH   8  19
TORSDOF 2
ENDMDL


