MODEL 1
REMARK VINA RESULT:      -9.8      0.000      0.000
REMARK SMILES Nc1cc(F)c[nH]/c1=N\c1cnc2[nH]ccc2c1
REMARK SMILES IDX 8 1 2 2 3 3 4 4 5 5 6 6 7 7 9 9 10 10 11 11 12 12 13 13
REMARK SMILES IDX 18 14 17 15 14 16 16 17 15 18 1 20
REMARK H PARENT 7 8 14 19 1 21 1 22
ROOT
ATOM      1  C   UNL     1      43.927 131.714  18.257  1.00  0.00     0.154 A 
ATOM      2  C   UNL     1      42.730 132.151  18.865  1.00  0.00     0.078 A 
ATOM      3  C   UNL     1      42.615 132.099  20.259  1.00  0.00     0.070 A 
ATOM      4  C   UNL     1      43.677 131.632  21.031  1.00  0.00     0.141 A 
ATOM      5  F   UNL     1      43.572 131.583  22.382  1.00  0.00    -0.205 F 
ATOM      6  C   UNL     1      44.854 131.232  20.403  1.00  0.00     0.123 A 
ATOM      7  N   UNL     1      44.963 131.285  19.048  1.00  0.00    -0.342 N 
ATOM      8  H   UNL     1      45.884 131.019  18.637  1.00  0.00     0.168 HD
ENDROOT
BRANCH   1   9
ATOM      9  N   UNL     1      44.033 131.766  16.956  1.00  0.00    -0.227 NA
BRANCH   9  10
ATOM     10  C   UNL     1      44.965 131.055  16.129  1.00  0.00     0.085 A 
ATOM     11  C   UNL     1      45.196 129.679  16.373  1.00  0.00     0.142 A 
ATOM     12  N   UNL     1      46.122 128.986  15.643  1.00  0.00    -0.236 NA
ATOM     13  C   UNL     1      46.833 129.640  14.692  1.00  0.00     0.137 A 
ATOM     14  C   UNL     1      45.742 131.724  15.158  1.00  0.00     0.042 A 
ATOM     15  C   UNL     1      46.667 130.971  14.445  1.00  0.00     0.021 A 
ATOM     16  N   UNL     1      47.780 129.109  13.905  1.00  0.00    -0.346 N 
ATOM     17  C   UNL     1      47.554 131.313  13.448  1.00  0.00     0.030 A 
ATOM     18  C   UNL     1      48.225 130.132  13.138  1.00  0.00     0.085 A 
ATOM     19  H   UNL     1      48.111 128.118  13.890  1.00  0.00     0.167 HD
ENDBRANCH   9  10
ENDBRANCH   1   9
BRANCH   2  20
ATOM     20  N   UNL     1      41.628 132.633  18.084  1.00  0.00    -0.396 N 
ATOM     21  H   UNL     1      40.999 131.965  17.585  1.00  0.00     0.156 HD
ATOM     22  H   UNL     1      41.424 133.653  17.994  1.00  0.00     0.156 HD
ENDBRANCH   2  20
TORSDOF 3
ENDMDL
MODEL 2
REMARK VINA RESULT:      -9.3      2.940      6.410
REMARK SMILES Nc1cc(F)c[nH]/c1=N\c1cnc2[nH]ccc2c1
REMARK SMILES IDX 8 1 2 2 3 3 4 4 5 5 6 6 7 7 9 9 10 10 11 11 12 12 13 13
REMARK SMILES IDX 18 14 17 15 14 16 16 17 15 18 1 20
REMARK H PARENT 7 8 14 19 1 21 1 22
ROOT
ATOM      1  C   UNL     1      45.557 130.921  14.928  1.00  0.00     0.154 A 
ATOM      2  C   UNL     1      45.893 129.550  14.968  1.00  0.00     0.078 A 
ATOM      3  C   UNL     1      47.060 129.116  14.328  1.00  0.00     0.070 A 
ATOM      4  C   UNL     1      47.881 130.032  13.674  1.00  0.00     0.141 A 
ATOM      5  F   UNL     1      49.014 129.616  13.057  1.00  0.00    -0.205 F 
ATOM      6  C   UNL     1      47.535 131.381  13.674  1.00  0.00     0.123 A 
ATOM      7  N   UNL     1      46.400 131.800  14.297  1.00  0.00    -0.342 N 
ATOM      8  H   UNL     1      46.218 132.827  14.306  1.00  0.00     0.168 HD
ENDROOT
BRANCH   1   9
ATOM      9  N   UNL     1      44.469 131.325  15.527  1.00  0.00    -0.227 NA
BRANCH   9  10
ATOM     10  C   UNL     1      44.224 131.389  16.939  1.00  0.00     0.085 A 
ATOM     11  C   UNL     1      42.946 131.785  17.402  1.00  0.00     0.142 A 
ATOM     12  N   UNL     1      42.696 131.915  18.740  1.00  0.00    -0.236 NA
ATOM     13  C   UNL     1      43.698 131.676  19.622  1.00  0.00     0.137 A 
ATOM     14  C   UNL     1      45.262 131.179  17.873  1.00  0.00     0.042 A 
ATOM     15  C   UNL     1      44.952 131.323  19.220  1.00  0.00     0.021 A 
ATOM     16  N   UNL     1      43.618 131.771  20.957  1.00  0.00    -0.346 N 
ATOM     17  C   UNL     1      45.719 131.184  20.356  1.00  0.00     0.030 A 
ATOM     18  C   UNL     1      44.856 131.469  21.413  1.00  0.00     0.085 A 
ATOM     19  H   UNL     1      42.781 132.030  21.526  1.00  0.00     0.167 HD
ENDBRANCH   9  10
ENDBRANCH   1   9
BRANCH   2  20
ATOM     20  N   UNL     1      45.058 128.596  15.636  1.00  0.00    -0.396 N 
ATOM     21  H   UNL     1      45.224 128.356  16.639  1.00  0.00     0.156 HD
ATOM     22  H   UNL     1      44.269 128.119  15.146  1.00  0.00     0.156 HD
ENDBRANCH   2  20
TORSDOF 3
ENDMDL
MODEL 3
REMARK VINA RESULT:      -9.2      1.580      2.442
REMARK SMILES Nc1cc(F)c[nH]/c1=N\c1cnc2[nH]ccc2c1
REMARK SMILES IDX 8 1 2 2 3 3 4 4 5 5 6 6 7 7 9 9 10 10 11 11 12 12 13 13
REMARK SMILES IDX 18 14 17 15 14 16 16 17 15 18 1 20
REMARK H PARENT 7 8 14 19 1 21 1 22
ROOT
ATOM      1  C   UNL     1      44.227 131.253  18.875  1.00  0.00     0.154 A 
ATOM      2  C   UNL     1      44.310 131.583  20.246  1.00  0.00     0.078 A 
ATOM      3  C   UNL     1      43.258 132.288  20.842  1.00  0.00     0.070 A 
ATOM      4  C   UNL     1      42.140 132.644  20.089  1.00  0.00     0.141 A 
ATOM      5  F   UNL     1      41.118 133.324  20.664  1.00  0.00    -0.205 F 
ATOM      6  C   UNL     1      42.077 132.282  18.746  1.00  0.00     0.123 A 
ATOM      7  N   UNL     1      43.101 131.596  18.170  1.00  0.00    -0.342 N 
ATOM      8  H   UNL     1      42.977 131.310  17.174  1.00  0.00     0.168 HD
ENDROOT
BRANCH   1   9
ATOM      9  N   UNL     1      45.208 130.593  18.321  1.00  0.00    -0.227 NA
BRANCH   9  10
ATOM     10  C   UNL     1      45.803 130.831  17.037  1.00  0.00     0.085 A 
ATOM     11  C   UNL     1      45.597 132.080  16.400  1.00  0.00     0.142 A 
ATOM     12  N   UNL     1      46.098 132.317  15.150  1.00  0.00    -0.236 NA
ATOM     13  C   UNL     1      46.781 131.333  14.517  1.00  0.00     0.137 A 
ATOM     14  C   UNL     1      46.487 129.808  16.345  1.00  0.00     0.042 A 
ATOM     15  C   UNL     1      46.976 130.105  15.078  1.00  0.00     0.021 A 
ATOM     16  N   UNL     1      47.322 131.404  13.292  1.00  0.00    -0.346 N 
ATOM     17  C   UNL     1      47.677 129.347  14.166  1.00  0.00     0.030 A 
ATOM     18  C   UNL     1      47.874 130.188  13.072  1.00  0.00     0.085 A 
ATOM     19  H   UNL     1      47.313 132.221  12.641  1.00  0.00     0.167 HD
ENDBRANCH   9  10
ENDBRANCH   1   9
BRANCH   2  20
ATOM     20  N   UNL     1      45.453 131.224  21.032  1.00  0.00    -0.396 N 
ATOM     21  H   UNL     1      45.957 131.943  21.598  1.00  0.00     0.156 HD
ATOM     22  H   UNL     1      45.812 130.243  21.063  1.00  0.00     0.156 HD
ENDBRANCH   2  20
TORSDOF 3
ENDMDL
MODEL 4
REMARK VINA RESULT:      -9.0      2.890      6.570
REMARK SMILES Nc1cc(F)c[nH]/c1=N\c1cnc2[nH]ccc2c1
REMARK SMILES IDX 8 1 2 2 3 3 4 4 5 5 6 6 7 7 9 9 10 10 11 11 12 12 13 13
REMARK SMILES IDX 18 14 17 15 14 16 16 17 15 18 1 20
REMARK H PARENT 7 8 14 19 1 21 1 22
ROOT
ATOM      1  C   UNL     1      45.325 131.075  15.613  1.00  0.00     0.154 A 
ATOM      2  C   UNL     1      45.706 129.785  15.183  1.00  0.00     0.078 A 
ATOM      3  C   UNL     1      46.740 129.657  14.248  1.00  0.00     0.070 A 
ATOM      4  C   UNL     1      47.388 130.790  13.762  1.00  0.00     0.141 A 
ATOM      5  F   UNL     1      48.392 130.670  12.859  1.00  0.00    -0.205 F 
ATOM      6  C   UNL     1      47.006 132.047  14.225  1.00  0.00     0.123 A 
ATOM      7  N   UNL     1      46.001 132.169  15.135  1.00  0.00    -0.342 N 
ATOM      8  H   UNL     1      45.792 133.130  15.481  1.00  0.00     0.168 HD
ENDROOT
BRANCH   1   9
ATOM      9  N   UNL     1      44.362 131.194  16.487  1.00  0.00    -0.227 NA
BRANCH   9  10
ATOM     10  C   UNL     1      44.483 131.245  17.916  1.00  0.00     0.085 A 
ATOM     11  C   UNL     1      45.648 130.723  18.530  1.00  0.00     0.142 A 
ATOM     12  N   UNL     1      45.769 130.701  19.892  1.00  0.00    -0.236 NA
ATOM     13  C   UNL     1      44.748 131.169  20.651  1.00  0.00     0.137 A 
ATOM     14  C   UNL     1      43.417 131.695  18.726  1.00  0.00     0.042 A 
ATOM     15  C   UNL     1      43.596 131.650  20.104  1.00  0.00     0.021 A 
ATOM     16  N   UNL     1      44.708 131.204  21.991  1.00  0.00    -0.346 N 
ATOM     17  C   UNL     1      42.771 132.013  21.146  1.00  0.00     0.030 A 
ATOM     18  C   UNL     1      43.496 131.723  22.300  1.00  0.00     0.085 A 
ATOM     19  H   UNL     1      45.450 130.892  22.657  1.00  0.00     0.167 HD
ENDBRANCH   9  10
ENDBRANCH   1   9
BRANCH   2  20
ATOM     20  N   UNL     1      45.047 128.610  15.673  1.00  0.00    -0.396 N 
ATOM     21  H   UNL     1      44.296 128.684  16.395  1.00  0.00     0.156 HD
ATOM     22  H   UNL     1      45.296 127.657  15.325  1.00  0.00     0.156 HD
ENDBRANCH   2  20
TORSDOF 3
ENDMDL
MODEL 5
REMARK VINA RESULT:      -8.6      2.726      6.472
REMARK SMILES Nc1cc(F)c[nH]/c1=N\c1cnc2[nH]ccc2c1
REMARK SMILES IDX 8 1 2 2 3 3 4 4 5 5 6 6 7 7 9 9 10 10 11 11 12 12 13 13
REMARK SMILES IDX 18 14 17 15 14 16 16 17 15 18 1 20
REMARK H PARENT 7 8 14 19 1 21 1 22
ROOT
ATOM      1  C   UNL     1      44.903 130.981  15.878  1.00  0.00     0.154 A 
ATOM      2  C   UNL     1      45.997 131.676  15.316  1.00  0.00     0.078 A 
ATOM      3  C   UNL     1      46.991 130.953  14.647  1.00  0.00     0.070 A 
ATOM      4  C   UNL     1      46.891 129.568  14.530  1.00  0.00     0.141 A 
ATOM      5  F   UNL     1      47.850 128.865  13.880  1.00  0.00    -0.205 F 
ATOM      6  C   UNL     1      45.787 128.915  15.073  1.00  0.00     0.123 A 
ATOM      7  N   UNL     1      44.821 129.620  15.723  1.00  0.00    -0.342 N 
ATOM      8  H   UNL     1      43.995 129.084  16.066  1.00  0.00     0.168 HD
ENDROOT
BRANCH   1   9
ATOM      9  N   UNL     1      43.974 131.657  16.500  1.00  0.00    -0.227 NA
BRANCH   9  10
ATOM     10  C   UNL     1      43.662 131.623  17.900  1.00  0.00     0.085 A 
ATOM     11  C   UNL     1      42.348 131.942  18.323  1.00  0.00     0.142 A 
ATOM     12  N   UNL     1      42.032 131.979  19.653  1.00  0.00    -0.236 NA
ATOM     13  C   UNL     1      43.000 131.723  20.566  1.00  0.00     0.137 A 
ATOM     14  C   UNL     1      44.663 131.394  18.870  1.00  0.00     0.042 A 
ATOM     15  C   UNL     1      44.285 131.442  20.206  1.00  0.00     0.021 A 
ATOM     16  N   UNL     1      42.855 131.731  21.900  1.00  0.00    -0.346 N 
ATOM     17  C   UNL     1      45.003 131.262  21.367  1.00  0.00     0.030 A 
ATOM     18  C   UNL     1      44.082 131.448  22.396  1.00  0.00     0.085 A 
ATOM     19  H   UNL     1      41.983 131.922  22.442  1.00  0.00     0.167 HD
ENDBRANCH   9  10
ENDBRANCH   1   9
BRANCH   2  20
ATOM     20  N   UNL     1      46.114 133.100  15.429  1.00  0.00    -0.396 N 
ATOM     21  H   UNL     1      46.473 133.668  14.630  1.00  0.00     0.156 HD
ATOM     22  H   UNL     1      45.847 133.605  16.303  1.00  0.00     0.156 HD
ENDBRANCH   2  20
TORSDOF 3
ENDMDL
MODEL 6
REMARK VINA RESULT:      -8.6      2.813      6.572
REMARK SMILES Nc1cc(F)c[nH]/c1=N\c1cnc2[nH]ccc2c1
REMARK SMILES IDX 8 1 2 2 3 3 4 4 5 5 6 6 7 7 9 9 10 10 11 11 12 12 13 13
REMARK SMILES IDX 18 14 17 15 14 16 16 17 15 18 1 20
REMARK H PARENT 7 8 14 19 1 21 1 22
ROOT
ATOM      1  C   UNL     1      45.361 130.654  16.031  1.00  0.00     0.154 A 
ATOM      2  C   UNL     1      46.138 131.557  15.271  1.00  0.00     0.078 A 
ATOM      3  C   UNL     1      47.081 131.051  14.369  1.00  0.00     0.070 A 
ATOM      4  C   UNL     1      47.238 129.675  14.219  1.00  0.00     0.141 A 
ATOM      5  F   UNL     1      48.149 129.181  13.344  1.00  0.00    -0.205 F 
ATOM      6  C   UNL     1      46.439 128.811  14.964  1.00  0.00     0.123 A 
ATOM      7  N   UNL     1      45.522 129.305  15.840  1.00  0.00    -0.342 N 
ATOM      8  H   UNL     1      44.919 128.612  16.334  1.00  0.00     0.168 HD
ENDROOT
BRANCH   1   9
ATOM      9  N   UNL     1      44.479 131.127  16.870  1.00  0.00    -0.227 NA
BRANCH   9  10
ATOM     10  C   UNL     1      44.578 131.180  18.300  1.00  0.00     0.085 A 
ATOM     11  C   UNL     1      45.725 130.643  18.934  1.00  0.00     0.142 A 
ATOM     12  N   UNL     1      45.825 130.622  20.298  1.00  0.00    -0.236 NA
ATOM     13  C   UNL     1      44.799 131.108  21.040  1.00  0.00     0.137 A 
ATOM     14  C   UNL     1      43.507 131.649  19.093  1.00  0.00     0.042 A 
ATOM     15  C   UNL     1      43.663 131.606  20.473  1.00  0.00     0.021 A 
ATOM     16  N   UNL     1      44.738 131.148  22.379  1.00  0.00    -0.346 N 
ATOM     17  C   UNL     1      42.828 131.984  21.501  1.00  0.00     0.030 A 
ATOM     18  C   UNL     1      43.530 131.686  22.667  1.00  0.00     0.085 A 
ATOM     19  H   UNL     1      45.465 130.826  23.057  1.00  0.00     0.167 HD
ENDBRANCH   9  10
ENDBRANCH   1   9
BRANCH   2  20
ATOM     20  N   UNL     1      45.989 132.975  15.415  1.00  0.00    -0.396 N 
ATOM     21  H   UNL     1      46.669 133.526  15.985  1.00  0.00     0.156 HD
ATOM     22  H   UNL     1      45.205 133.493  14.959  1.00  0.00     0.156 HD
ENDBRANCH   2  20
TORSDOF 3
ENDMDL
MODEL 7
REMARK VINA RESULT:      -8.1      1.080      1.509
REMARK SMILES Nc1cc(F)c[nH]/c1=N\c1cnc2[nH]ccc2c1
REMARK SMILES IDX 8 1 2 2 3 3 4 4 5 5 6 6 7 7 9 9 10 10 11 11 12 12 13 13
REMARK SMILES IDX 18 14 17 15 14 16 16 17 15 18 1 20
REMARK H PARENT 7 8 14 19 1 21 1 22
ROOT
ATOM      1  C   UNL     1      44.043 131.466  18.551  1.00  0.00     0.154 A 
ATOM      2  C   UNL     1      42.964 132.013  19.279  1.00  0.00     0.078 A 
ATOM      3  C   UNL     1      43.045 132.072  20.675  1.00  0.00     0.070 A 
ATOM      4  C   UNL     1      44.184 131.608  21.330  1.00  0.00     0.141 A 
ATOM      5  F   UNL     1      44.267 131.667  22.682  1.00  0.00    -0.205 F 
ATOM      6  C   UNL     1      45.242 131.098  20.582  1.00  0.00     0.123 A 
ATOM      7  N   UNL     1      45.160 131.042  19.225  1.00  0.00    -0.342 N 
ATOM      8  H   UNL     1      46.002 130.696  18.715  1.00  0.00     0.168 HD
ENDROOT
BRANCH   1   9
ATOM      9  N   UNL     1      43.967 131.414  17.248  1.00  0.00    -0.227 NA
BRANCH   9  10
ATOM     10  C   UNL     1      45.051 131.287  16.316  1.00  0.00     0.085 A 
ATOM     11  C   UNL     1      45.545 132.445  15.668  1.00  0.00     0.142 A 
ATOM     12  N   UNL     1      46.535 132.352  14.730  1.00  0.00    -0.236 NA
ATOM     13  C   UNL     1      47.028 131.130  14.412  1.00  0.00     0.137 A 
ATOM     14  C   UNL     1      45.554 130.020  15.945  1.00  0.00     0.042 A 
ATOM     15  C   UNL     1      46.561 129.985  14.987  1.00  0.00     0.021 A 
ATOM     16  N   UNL     1      47.986 130.871  13.510  1.00  0.00    -0.346 N 
ATOM     17  C   UNL     1      47.253 128.936  14.425  1.00  0.00     0.030 A 
ATOM     18  C   UNL     1      48.129 129.525  13.515  1.00  0.00     0.085 A 
ATOM     19  H   UNL     1      48.507 131.560  12.922  1.00  0.00     0.167 HD
ENDBRANCH   9  10
ENDBRANCH   1   9
BRANCH   2  20
ATOM     20  N   UNL     1      41.785 132.494  18.620  1.00  0.00    -0.396 N 
ATOM     21  H   UNL     1      41.695 133.502  18.363  1.00  0.00     0.156 HD
ATOM     22  H   UNL     1      40.993 131.858  18.379  1.00  0.00     0.156 HD
ENDBRANCH   2  20
TORSDOF 3
ENDMDL
MODEL 8
REMARK VINA RESULT:      -8.1      0.665      1.656
REMARK SMILES Nc1cc(F)c[nH]/c1=N\c1cnc2[nH]ccc2c1
REMARK SMILES IDX 8 1 2 2 3 3 4 4 5 5 6 6 7 7 9 9 10 10 11 11 12 12 13 13
REMARK SMILES IDX 18 14 17 15 14 16 16 17 15 18 1 20
REMARK H PARENT 7 8 14 19 1 21 1 22
ROOT
ATOM      1  C   UNL     1      43.524 131.768  17.669  1.00  0.00     0.154 A 
ATOM      2  C   UNL     1      44.599 131.447  18.526  1.00  0.00     0.078 A 
ATOM      3  C   UNL     1      44.424 131.559  19.910  1.00  0.00     0.070 A 
ATOM      4  C   UNL     1      43.198 131.972  20.428  1.00  0.00     0.141 A 
ATOM      5  F   UNL     1      43.023 132.079  21.768  1.00  0.00    -0.205 F 
ATOM      6  C   UNL     1      42.149 132.257  19.557  1.00  0.00     0.123 A 
ATOM      7  N   UNL     1      42.323 132.146  18.212  1.00  0.00    -0.342 N 
ATOM      8  H   UNL     1      41.488 132.325  17.612  1.00  0.00     0.168 HD
ENDROOT
BRANCH   1   9
ATOM      9  N   UNL     1      43.688 131.660  16.377  1.00  0.00    -0.227 NA
BRANCH   9  10
ATOM     10  C   UNL     1      44.728 130.952  15.688  1.00  0.00     0.085 A 
ATOM     11  C   UNL     1      44.936 129.580  15.971  1.00  0.00     0.142 A 
ATOM     12  N   UNL     1      45.957 128.891  15.378  1.00  0.00    -0.236 NA
ATOM     13  C   UNL     1      46.783 129.544  14.524  1.00  0.00     0.137 A 
ATOM     14  C   UNL     1      45.621 131.621  14.822  1.00  0.00     0.042 A 
ATOM     15  C   UNL     1      46.640 130.871  14.245  1.00  0.00     0.021 A 
ATOM     16  N   UNL     1      47.831 129.017  13.874  1.00  0.00    -0.346 N 
ATOM     17  C   UNL     1      47.648 131.215  13.373  1.00  0.00     0.030 A 
ATOM     18  C   UNL     1      48.365 130.038  13.165  1.00  0.00     0.085 A 
ATOM     19  H   UNL     1      48.169 128.029  13.912  1.00  0.00     0.167 HD
ENDBRANCH   9  10
ENDBRANCH   1   9
BRANCH   2  20
ATOM     20  N   UNL     1      45.866 131.022  18.008  1.00  0.00    -0.396 N 
ATOM     21  H   UNL     1      46.467 131.682  17.466  1.00  0.00     0.156 HD
ATOM     22  H   UNL     1      46.222 130.051  18.156  1.00  0.00     0.156 HD
ENDBRANCH   2  20
TORSDOF 3
ENDMDL
MODEL 9
REMARK VINA RESULT:      -8.1      2.761      6.464
REMARK SMILES Nc1cc(F)c[nH]/c1=N\c1cnc2[nH]ccc2c1
REMARK SMILES IDX 8 1 2 2 3 3 4 4 5 5 6 6 7 7 9 9 10 10 11 11 12 12 13 13
REMARK SMILES IDX 18 14 17 15 14 16 16 17 15 18 1 20
REMARK H PARENT 7 8 14 19 1 21 1 22
ROOT
ATOM      1  C   UNL     1      44.677 131.178  16.135  1.00  0.00     0.154 A 
ATOM      2  C   UNL     1      44.656 131.121  14.724  1.00  0.00     0.078 A 
ATOM      3  C   UNL     1      45.706 130.482  14.053  1.00  0.00     0.070 A 
ATOM      4  C   UNL     1      46.746 129.901  14.775  1.00  0.00     0.141 A 
ATOM      5  F   UNL     1      47.762 129.278  14.129  1.00  0.00    -0.205 F 
ATOM      6  C   UNL     1      46.725 129.952  16.167  1.00  0.00     0.123 A 
ATOM      7  N   UNL     1      45.703 130.574  16.816  1.00  0.00    -0.342 N 
ATOM      8  H   UNL     1      45.715 130.538  17.859  1.00  0.00     0.168 HD
ENDROOT
BRANCH   1   9
ATOM      9  N   UNL     1      43.696 131.773  16.760  1.00  0.00    -0.227 NA
BRANCH   9  10
ATOM     10  C   UNL     1      43.417 131.748  18.167  1.00  0.00     0.085 A 
ATOM     11  C   UNL     1      42.141 132.156  18.626  1.00  0.00     0.142 A 
ATOM     12  N   UNL     1      41.861 132.202  19.964  1.00  0.00    -0.236 NA
ATOM     13  C   UNL     1      42.831 131.868  20.851  1.00  0.00     0.137 A 
ATOM     14  C   UNL     1      44.423 131.438  19.109  1.00  0.00     0.042 A 
ATOM     15  C   UNL     1      44.083 131.500  20.455  1.00  0.00     0.021 A 
ATOM     16  N   UNL     1      42.720 131.874  22.187  1.00  0.00    -0.346 N 
ATOM     17  C   UNL     1      44.815 131.257  21.596  1.00  0.00     0.030 A 
ATOM     18  C   UNL     1      43.935 131.498  22.650  1.00  0.00     0.085 A 
ATOM     19  H   UNL     1      41.877 132.122  22.753  1.00  0.00     0.167 HD
ENDBRANCH   9  10
ENDBRANCH   1   9
BRANCH   2  20
ATOM     20  N   UNL     1      43.593 131.715  13.968  1.00  0.00    -0.396 N 
ATOM     21  H   UNL     1      43.053 132.521  14.354  1.00  0.00     0.156 HD
ATOM     22  H   UNL     1      43.331 131.363  13.020  1.00  0.00     0.156 HD
ENDBRANCH   2  20
TORSDOF 3
ENDMDL


