REMARK SMILES c1cc(-c2ccc3cc[nH]c3c2)cc([C@H]2CO2)c1
REMARK SMILES IDX 4 1 5 2 6 3 7 4 8 5 9 6 10 7 11 8 12 9 3 11 1 12 2 13 18 14
REMARK SMILES IDX 14 15 13 16 15 17 16 18 17 19
REMARK H PARENT 10 10
ROOT
ATOM      1  C   UNL     1       0.597  -0.597   0.141  1.00  0.00    -0.016 A 
ATOM      2  C   UNL     1       1.324  -1.541   0.917  1.00  0.00     0.009 A 
ATOM      3  C   UNL     1       1.758  -1.224   2.217  1.00  0.00     0.011 A 
ATOM      4  C   UNL     1       1.453   0.039   2.714  1.00  0.00    -0.001 A 
ATOM      5  C   UNL     1       1.744   0.620   3.929  1.00  0.00     0.028 A 
ATOM      6  C   UNL     1       1.192   1.895   3.864  1.00  0.00     0.083 A 
ATOM      7  N   UNL     1       0.589   2.096   2.670  1.00  0.00    -0.361 N 
ATOM      8  C   UNL     1       0.754   0.956   1.978  1.00  0.00     0.046 A 
ATOM      9  C   UNL     1       0.309   0.677   0.688  1.00  0.00     0.035 A 
ATOM     10  H   UNL     1       0.096   2.961   2.354  1.00  0.00     0.166 HD
ENDROOT
BRANCH   1  11
ATOM     11  C   UNL     1       0.144  -0.942  -1.231  1.00  0.00    -0.018 A 
ATOM     12  C   UNL     1       0.551  -1.996  -3.387  1.00  0.00     0.001 A 
ATOM     13  C   UNL     1       0.981  -1.667  -2.099  1.00  0.00     0.009 A 
ATOM     14  C   UNL     1      -0.714  -1.601  -3.827  1.00  0.00     0.006 A 
ATOM     15  C   UNL     1      -1.554  -0.863  -2.982  1.00  0.00    -0.016 A 
ATOM     16  C   UNL     1      -1.129  -0.550  -1.683  1.00  0.00     0.015 A 
BRANCH  15  17
ATOM     17  C   UNL     1      -2.929  -0.470  -3.439  1.00  0.00     0.174 C 
ATOM     18  C   UNL     1      -3.192   0.984  -3.536  1.00  0.00     0.198 C 
ATOM     19  O   UNL     1      -2.894   0.209  -4.673  1.00  0.00    -0.368 OA
ENDBRANCH  15  17
ENDBRANCH   1  11
TORSDOF 2


