MODEL 1
REMARK VINA RESULT:     -10.0      0.000      0.000
REMARK SMILES O=C1NCc2[nH+]cc(-c3ccc4[nH]ccc4c3)cc21
REMARK SMILES IDX 1 1 2 2 3 3 4 4 5 5 6 6 7 7 8 8 18 9 19 10 9 13 10 14 17 15
REMARK SMILES IDX 11 16 16 17 12 18 15 19 13 20 14 21
REMARK H PARENT 3 11 6 12 13 22
ROOT
ATOM      1  O   UNL     1      41.527 133.025  20.434  1.00  0.00    -0.269 OA
ATOM      2  C   UNL     1      42.446 132.336  20.949  1.00  0.00     0.258 C 
ATOM      3  N   UNL     1      42.527 132.021  22.334  1.00  0.00    -0.342 N 
ATOM      4  C   UNL     1      43.725 131.206  22.558  1.00  0.00     0.225 C 
ATOM      5  C   UNL     1      44.314 131.085  21.183  1.00  0.00     0.211 A 
ATOM      6  N   UNL     1      45.442 130.419  20.829  1.00  0.00    -0.212 N 
ATOM      7  C   UNL     1      45.841 130.403  19.521  1.00  0.00     0.315 A 
ATOM      8  C   UNL     1      45.088 131.079  18.523  1.00  0.00     0.046 A 
ATOM      9  C   UNL     1      43.918 131.769  18.908  1.00  0.00     0.035 A 
ATOM     10  C   UNL     1      43.560 131.751  20.250  1.00  0.00     0.109 A 
ATOM     11  H   UNL     1      41.849 132.320  23.068  1.00  0.00     0.164 HD
ATOM     12  H   UNL     1      46.006 129.920  21.552  1.00  0.00     0.453 HD
ENDROOT
BRANCH   8  13
ATOM     13  C   UNL     1      45.523 131.060  17.104  1.00  0.00    -0.012 A 
ATOM     14  C   UNL     1      44.975 131.982  16.172  1.00  0.00     0.011 A 
ATOM     15  C   UNL     1      46.487 130.121  16.665  1.00  0.00     0.019 A 
ATOM     16  C   UNL     1      45.378 131.973  14.825  1.00  0.00     0.027 A 
ATOM     17  C   UNL     1      46.861 130.141  15.324  1.00  0.00    -0.000 A 
ATOM     18  C   UNL     1      46.327 131.032  14.436  1.00  0.00     0.045 A 
ATOM     19  C   UNL     1      47.757 129.355  14.632  1.00  0.00     0.028 A 
ATOM     20  N   UNL     1      46.843 130.853  13.209  1.00  0.00    -0.361 N 
ATOM     21  C   UNL     1      47.718 129.828  13.323  1.00  0.00     0.083 A 
ATOM     22  H   UNL     1      46.618 131.390  12.343  1.00  0.00     0.166 HD
ENDBRANCH   8  13
TORSDOF 1
ENDMDL
MODEL 2
REMARK VINA RESULT:      -9.0      1.691      2.418
REMARK SMILES O=C1NCc2[nH+]cc(-c3ccc4[nH]ccc4c3)cc21
REMARK SMILES IDX 1 1 2 2 3 3 4 4 5 5 6 6 7 7 8 8 18 9 19 10 9 13 10 14 17 15
REMARK SMILES IDX 11 16 16 17 12 18 15 19 13 20 14 21
REMARK H PARENT 3 11 6 12 13 22
ROOT
ATOM      1  O   UNL     1      44.490 131.125  22.081  1.00  0.00    -0.269 OA
ATOM      2  C   UNL     1      43.601 131.642  21.354  1.00  0.00     0.258 C 
ATOM      3  N   UNL     1      42.449 132.310  21.855  1.00  0.00    -0.342 N 
ATOM      4  C   UNL     1      41.650 132.777  20.718  1.00  0.00     0.225 C 
ATOM      5  C   UNL     1      42.447 132.318  19.532  1.00  0.00     0.211 A 
ATOM      6  N   UNL     1      42.147 132.501  18.222  1.00  0.00    -0.212 N 
ATOM      7  C   UNL     1      42.989 132.020  17.257  1.00  0.00     0.315 A 
ATOM      8  C   UNL     1      44.178 131.327  17.611  1.00  0.00     0.046 A 
ATOM      9  C   UNL     1      44.475 131.143  18.979  1.00  0.00     0.035 A 
ATOM     10  C   UNL     1      43.584 131.654  19.915  1.00  0.00     0.109 A 
ATOM     11  H   UNL     1      42.212 132.445  22.862  1.00  0.00     0.164 HD
ATOM     12  H   UNL     1      41.275 133.006  17.948  1.00  0.00     0.453 HD
ENDROOT
BRANCH   8  13
ATOM     13  C   UNL     1      45.090 130.806  16.563  1.00  0.00    -0.012 A 
ATOM     14  C   UNL     1      45.316 129.408  16.435  1.00  0.00     0.011 A 
ATOM     15  C   UNL     1      45.747 131.698  15.680  1.00  0.00     0.019 A 
ATOM     16  C   UNL     1      46.179 128.903  15.447  1.00  0.00     0.027 A 
ATOM     17  C   UNL     1      46.596 131.162  14.715  1.00  0.00    -0.000 A 
ATOM     18  C   UNL     1      46.805 129.815  14.601  1.00  0.00     0.045 A 
ATOM     19  C   UNL     1      47.354 131.781  13.745  1.00  0.00     0.028 A 
ATOM     20  N   UNL     1      47.661 129.547  13.601  1.00  0.00    -0.361 N 
ATOM     21  C   UNL     1      48.000 130.746  13.075  1.00  0.00     0.083 A 
ATOM     22  H   UNL     1      47.999 128.609  13.292  1.00  0.00     0.166 HD
ENDBRANCH   8  13
TORSDOF 1
ENDMDL
MODEL 3
REMARK VINA RESULT:      -8.9      1.994      6.875
REMARK SMILES O=C1NCc2[nH+]cc(-c3ccc4[nH]ccc4c3)cc21
REMARK SMILES IDX 1 1 2 2 3 3 4 4 5 5 6 6 7 7 8 8 18 9 19 10 9 13 10 14 17 15
REMARK SMILES IDX 11 16 16 17 12 18 15 19 13 20 14 21
REMARK H PARENT 3 11 6 12 13 22
ROOT
ATOM      1  O   UNL     1      43.457 131.900  14.176  1.00  0.00    -0.269 OA
ATOM      2  C   UNL     1      44.501 131.367  14.635  1.00  0.00     0.258 C 
ATOM      3  N   UNL     1      45.566 130.874  13.831  1.00  0.00    -0.342 N 
ATOM      4  C   UNL     1      46.603 130.329  14.712  1.00  0.00     0.225 C 
ATOM      5  C   UNL     1      46.036 130.556  16.083  1.00  0.00     0.211 A 
ATOM      6  N   UNL     1      46.607 130.235  17.271  1.00  0.00    -0.212 N 
ATOM      7  C   UNL     1      45.953 130.516  18.439  1.00  0.00     0.315 A 
ATOM      8  C   UNL     1      44.679 131.144  18.425  1.00  0.00     0.046 A 
ATOM      9  C   UNL     1      44.097 131.471  17.181  1.00  0.00     0.035 A 
ATOM     10  C   UNL     1      44.806 131.162  16.027  1.00  0.00     0.109 A 
ATOM     11  H   UNL     1      45.603 130.896  12.788  1.00  0.00     0.164 HD
ATOM     12  H   UNL     1      47.542 129.770  17.295  1.00  0.00     0.453 HD
ENDROOT
BRANCH   8  13
ATOM     13  C   UNL     1      43.972 131.449  19.694  1.00  0.00    -0.012 A 
ATOM     14  C   UNL     1      42.768 132.206  19.682  1.00  0.00     0.011 A 
ATOM     15  C   UNL     1      44.491 130.991  20.929  1.00  0.00     0.019 A 
ATOM     16  C   UNL     1      42.090 132.503  20.878  1.00  0.00     0.027 A 
ATOM     17  C   UNL     1      43.792 131.305  22.092  1.00  0.00    -0.000 A 
ATOM     18  C   UNL     1      42.636 132.034  22.069  1.00  0.00     0.045 A 
ATOM     19  C   UNL     1      44.062 131.000  23.409  1.00  0.00     0.028 A 
ATOM     20  N   UNL     1      42.154 132.205  23.312  1.00  0.00    -0.361 N 
ATOM     21  C   UNL     1      43.023 131.575  24.134  1.00  0.00     0.083 A 
ATOM     22  H   UNL     1      41.289 132.720  23.589  1.00  0.00     0.166 HD
ENDBRANCH   8  13
TORSDOF 1
ENDMDL
MODEL 4
REMARK VINA RESULT:      -8.3      1.547      2.061
REMARK SMILES O=C1NCc2[nH+]cc(-c3ccc4[nH]ccc4c3)cc21
REMARK SMILES IDX 1 1 2 2 3 3 4 4 5 5 6 6 7 7 8 8 18 9 19 10 9 13 10 14 17 15
REMARK SMILES IDX 11 16 16 17 12 18 15 19 13 20 14 21
REMARK H PARENT 3 11 6 12 13 22
ROOT
ATOM      1  O   UNL     1      45.257 131.195  21.947  1.00  0.00    -0.269 OA
ATOM      2  C   UNL     1      44.165 131.587  21.458  1.00  0.00     0.258 C 
ATOM      3  N   UNL     1      43.051 132.017  22.233  1.00  0.00    -0.342 N 
ATOM      4  C   UNL     1      41.968 132.397  21.322  1.00  0.00     0.225 C 
ATOM      5  C   UNL     1      42.562 132.147  19.966  1.00  0.00     0.211 A 
ATOM      6  N   UNL     1      41.969 132.344  18.762  1.00  0.00    -0.212 N 
ATOM      7  C   UNL     1      42.656 132.068  17.612  1.00  0.00     0.315 A 
ATOM      8  C   UNL     1      43.987 131.575  17.662  1.00  0.00     0.046 A 
ATOM      9  C   UNL     1      44.590 131.375  18.923  1.00  0.00     0.035 A 
ATOM     10  C   UNL     1      43.845 131.672  20.058  1.00  0.00     0.109 A 
ATOM     11  H   UNL     1      43.012 132.056  23.275  1.00  0.00     0.164 HD
ATOM     12  H   UNL     1      40.990 132.703  18.711  1.00  0.00     0.453 HD
ENDROOT
BRANCH   8  13
ATOM     13  C   UNL     1      44.732 131.277  16.413  1.00  0.00    -0.012 A 
ATOM     14  C   UNL     1      44.204 131.664  15.151  1.00  0.00     0.011 A 
ATOM     15  C   UNL     1      45.975 130.603  16.467  1.00  0.00     0.019 A 
ATOM     16  C   UNL     1      44.899 131.386  13.961  1.00  0.00     0.027 A 
ATOM     17  C   UNL     1      46.636 130.344  15.268  1.00  0.00    -0.000 A 
ATOM     18  C   UNL     1      46.118 130.720  14.060  1.00  0.00     0.045 A 
ATOM     19  C   UNL     1      47.836 129.712  15.024  1.00  0.00     0.028 A 
ATOM     20  N   UNL     1      46.935 130.359  13.056  1.00  0.00    -0.361 N 
ATOM     21  C   UNL     1      47.986 129.742  13.641  1.00  0.00     0.083 A 
ATOM     22  H   UNL     1      46.790 130.519  12.035  1.00  0.00     0.166 HD
ENDBRANCH   8  13
TORSDOF 1
ENDMDL
MODEL 5
REMARK VINA RESULT:      -8.0      2.456      7.195
REMARK SMILES O=C1NCc2[nH+]cc(-c3ccc4[nH]ccc4c3)cc21
REMARK SMILES IDX 1 1 2 2 3 3 4 4 5 5 6 6 7 7 8 8 18 9 19 10 9 13 10 14 17 15
REMARK SMILES IDX 11 16 16 17 12 18 15 19 13 20 14 21
REMARK H PARENT 3 11 6 12 13 22
ROOT
ATOM      1  O   UNL     1      48.548 129.134  14.826  1.00  0.00    -0.269 OA
ATOM      2  C   UNL     1      47.628 129.893  14.426  1.00  0.00     0.258 C 
ATOM      3  N   UNL     1      47.439 130.274  13.068  1.00  0.00    -0.342 N 
ATOM      4  C   UNL     1      46.273 131.159  12.990  1.00  0.00     0.225 C 
ATOM      5  C   UNL     1      45.817 131.247  14.417  1.00  0.00     0.211 A 
ATOM      6  N   UNL     1      44.759 131.947  14.899  1.00  0.00    -0.212 N 
ATOM      7  C   UNL     1      44.476 131.917  16.236  1.00  0.00     0.315 A 
ATOM      8  C   UNL     1      45.278 131.160  17.132  1.00  0.00     0.046 A 
ATOM      9  C   UNL     1      46.376 130.439  16.615  1.00  0.00     0.035 A 
ATOM     10  C   UNL     1      46.617 130.505  15.248  1.00  0.00     0.109 A 
ATOM     11  H   UNL     1      48.031 129.974  12.263  1.00  0.00     0.164 HD
ATOM     12  H   UNL     1      44.163 132.510  14.252  1.00  0.00     0.453 HD
ENDROOT
BRANCH   8  13
ATOM     13  C   UNL     1      44.968 131.128  18.583  1.00  0.00    -0.012 A 
ATOM     14  C   UNL     1      45.842 130.471  19.491  1.00  0.00     0.011 A 
ATOM     15  C   UNL     1      43.796 131.751  19.077  1.00  0.00     0.019 A 
ATOM     16  C   UNL     1      45.559 130.433  20.868  1.00  0.00     0.027 A 
ATOM     17  C   UNL     1      43.548 131.693  20.446  1.00  0.00    -0.000 A 
ATOM     18  C   UNL     1      44.396 131.058  21.310  1.00  0.00     0.045 A 
ATOM     19  C   UNL     1      42.503 132.198  21.190  1.00  0.00     0.028 A 
ATOM     20  N   UNL     1      43.941 131.136  22.572  1.00  0.00    -0.361 N 
ATOM     21  C   UNL     1      42.783 131.832  22.503  1.00  0.00     0.083 A 
ATOM     22  H   UNL     1      44.385 130.742  23.430  1.00  0.00     0.166 HD
ENDBRANCH   8  13
TORSDOF 1
ENDMDL
MODEL 6
REMARK VINA RESULT:      -7.9      2.458      7.001
REMARK SMILES O=C1NCc2[nH+]cc(-c3ccc4[nH]ccc4c3)cc21
REMARK SMILES IDX 1 1 2 2 3 3 4 4 5 5 6 6 7 7 8 8 18 9 19 10 9 13 10 14 17 15
REMARK SMILES IDX 11 16 16 17 12 18 15 19 13 20 14 21
REMARK H PARENT 3 11 6 12 13 22
ROOT
ATOM      1  O   UNL     1      47.449 128.106  14.684  1.00  0.00    -0.269 OA
ATOM      2  C   UNL     1      47.341 129.323  14.382  1.00  0.00     0.258 C 
ATOM      3  N   UNL     1      47.890 129.907  13.207  1.00  0.00    -0.342 N 
ATOM      4  C   UNL     1      47.561 131.335  13.197  1.00  0.00     0.225 C 
ATOM      5  C   UNL     1      46.778 131.511  14.466  1.00  0.00     0.211 A 
ATOM      6  N   UNL     1      46.227 132.658  14.938  1.00  0.00    -0.212 N 
ATOM      7  C   UNL     1      45.536 132.645  16.118  1.00  0.00     0.315 A 
ATOM      8  C   UNL     1      45.387 131.443  16.859  1.00  0.00     0.046 A 
ATOM      9  C   UNL     1      45.966 130.258  16.355  1.00  0.00     0.035 A 
ATOM     10  C   UNL     1      46.657 130.329  15.152  1.00  0.00     0.109 A 
ATOM     11  H   UNL     1      48.436 129.403  12.474  1.00  0.00     0.164 HD
ATOM     12  H   UNL     1      46.333 133.549  14.404  1.00  0.00     0.453 HD
ENDROOT
BRANCH   8  13
ATOM     13  C   UNL     1      44.635 131.431  18.139  1.00  0.00    -0.012 A 
ATOM     14  C   UNL     1      43.273 131.837  18.178  1.00  0.00     0.011 A 
ATOM     15  C   UNL     1      45.269 131.016  19.335  1.00  0.00     0.019 A 
ATOM     16  C   UNL     1      42.552 131.831  19.384  1.00  0.00     0.027 A 
ATOM     17  C   UNL     1      44.523 131.024  20.512  1.00  0.00    -0.000 A 
ATOM     18  C   UNL     1      43.214 131.417  20.537  1.00  0.00     0.045 A 
ATOM     19  C   UNL     1      44.876 130.682  21.799  1.00  0.00     0.028 A 
ATOM     20  N   UNL     1      42.715 131.338  21.782  1.00  0.00    -0.361 N 
ATOM     21  C   UNL     1      43.728 130.890  22.557  1.00  0.00     0.083 A 
ATOM     22  H   UNL     1      41.747 131.576  22.091  1.00  0.00     0.166 HD
ENDBRANCH   8  13
TORSDOF 1
ENDMDL
MODEL 7
REMARK VINA RESULT:      -7.9      0.919      1.424
REMARK SMILES O=C1NCc2[nH+]cc(-c3ccc4[nH]ccc4c3)cc21
REMARK SMILES IDX 1 1 2 2 3 3 4 4 5 5 6 6 7 7 8 8 18 9 19 10 9 13 10 14 17 15
REMARK SMILES IDX 11 16 16 17 12 18 15 19 13 20 14 21
REMARK H PARENT 3 11 6 12 13 22
ROOT
ATOM      1  O   UNL     1      41.264 132.995  19.487  1.00  0.00    -0.269 OA
ATOM      2  C   UNL     1      42.166 132.500  20.213  1.00  0.00     0.258 C 
ATOM      3  N   UNL     1      42.145 132.516  21.636  1.00  0.00    -0.342 N 
ATOM      4  C   UNL     1      43.354 131.850  22.127  1.00  0.00     0.225 C 
ATOM      5  C   UNL     1      44.062 131.455  20.864  1.00  0.00     0.211 A 
ATOM      6  N   UNL     1      45.243 130.797  20.756  1.00  0.00    -0.212 N 
ATOM      7  C   UNL     1      45.751 130.508  19.520  1.00  0.00     0.315 A 
ATOM      8  C   UNL     1      45.056 130.890  18.342  1.00  0.00     0.046 A 
ATOM      9  C   UNL     1      43.828 131.575  18.470  1.00  0.00     0.035 A 
ATOM     10  C   UNL     1      43.359 131.842  19.751  1.00  0.00     0.109 A 
ATOM     11  H   UNL     1      41.394 132.931  22.230  1.00  0.00     0.164 HD
ATOM     12  H   UNL     1      45.766 130.513  21.614  1.00  0.00     0.453 HD
ENDROOT
BRANCH   8  13
ATOM     13  C   UNL     1      45.608 130.575  17.001  1.00  0.00    -0.012 A 
ATOM     14  C   UNL     1      45.585 129.242  16.508  1.00  0.00     0.011 A 
ATOM     15  C   UNL     1      46.166 131.600  16.199  1.00  0.00     0.019 A 
ATOM     16  C   UNL     1      46.106 128.931  15.239  1.00  0.00     0.027 A 
ATOM     17  C   UNL     1      46.673 131.255  14.949  1.00  0.00    -0.000 A 
ATOM     18  C   UNL     1      46.645 129.969  14.485  1.00  0.00     0.045 A 
ATOM     19  C   UNL     1      47.267 132.031  13.977  1.00  0.00     0.028 A 
ATOM     20  N   UNL     1      47.193 129.890  13.261  1.00  0.00    -0.361 N 
ATOM     21  C   UNL     1      47.574 131.149  12.946  1.00  0.00     0.083 A 
ATOM     22  H   UNL     1      47.303 129.036  12.672  1.00  0.00     0.166 HD
ENDBRANCH   8  13
TORSDOF 1
ENDMDL
MODEL 8
REMARK VINA RESULT:      -7.7      1.903      2.464
REMARK SMILES O=C1NCc2[nH+]cc(-c3ccc4[nH]ccc4c3)cc21
REMARK SMILES IDX 1 1 2 2 3 3 4 4 5 5 6 6 7 7 8 8 18 9 19 10 9 13 10 14 17 15
REMARK SMILES IDX 11 16 16 17 12 18 15 19 13 20 14 21
REMARK H PARENT 3 11 6 12 13 22
ROOT
ATOM      1  O   UNL     1      44.903 129.519  23.184  1.00  0.00    -0.269 OA
ATOM      2  C   UNL     1      44.027 130.400  22.978  1.00  0.00     0.258 C 
ATOM      3  N   UNL     1      43.211 130.968  23.995  1.00  0.00    -0.342 N 
ATOM      4  C   UNL     1      42.317 131.954  23.379  1.00  0.00     0.225 C 
ATOM      5  C   UNL     1      42.696 131.896  21.929  1.00  0.00     0.211 A 
ATOM      6  N   UNL     1      42.168 132.623  20.912  1.00  0.00    -0.212 N 
ATOM      7  C   UNL     1      42.633 132.450  19.638  1.00  0.00     0.315 A 
ATOM      8  C   UNL     1      43.668 131.516  19.363  1.00  0.00     0.046 A 
ATOM      9  C   UNL     1      44.207 130.767  20.431  1.00  0.00     0.035 A 
ATOM     10  C   UNL     1      43.696 130.983  21.705  1.00  0.00     0.109 A 
ATOM     11  H   UNL     1      43.242 130.725  25.009  1.00  0.00     0.164 HD
ATOM     12  H   UNL     1      41.405 133.310  21.100  1.00  0.00     0.453 HD
ENDROOT
BRANCH   8  13
ATOM     13  C   UNL     1      44.172 131.332  17.979  1.00  0.00    -0.012 A 
ATOM     14  C   UNL     1      43.407 131.779  16.868  1.00  0.00     0.011 A 
ATOM     15  C   UNL     1      45.422 130.705  17.753  1.00  0.00     0.019 A 
ATOM     16  C   UNL     1      43.875 131.608  15.553  1.00  0.00     0.027 A 
ATOM     17  C   UNL     1      45.853 130.553  16.437  1.00  0.00    -0.000 A 
ATOM     18  C   UNL     1      45.108 130.987  15.376  1.00  0.00     0.045 A 
ATOM     19  C   UNL     1      47.003 129.987  15.930  1.00  0.00     0.028 A 
ATOM     20  N   UNL     1      45.731 130.726  14.215  1.00  0.00    -0.361 N 
ATOM     21  C   UNL     1      46.890 130.114  14.549  1.00  0.00     0.083 A 
ATOM     22  H   UNL     1      45.394 130.947  13.253  1.00  0.00     0.166 HD
ENDBRANCH   8  13
TORSDOF 1
ENDMDL
MODEL 9
REMARK VINA RESULT:      -7.6      2.490      7.196
REMARK SMILES O=C1NCc2[nH+]cc(-c3ccc4[nH]ccc4c3)cc21
REMARK SMILES IDX 1 1 2 2 3 3 4 4 5 5 6 6 7 7 8 8 18 9 19 10 9 13 10 14 17 15
REMARK SMILES IDX 11 16 16 17 12 18 15 19 13 20 14 21
REMARK H PARENT 3 11 6 12 13 22
ROOT
ATOM      1  O   UNL     1      47.695 129.641  15.373  1.00  0.00    -0.269 OA
ATOM      2  C   UNL     1      46.632 130.256  15.099  1.00  0.00     0.258 C 
ATOM      3  N   UNL     1      46.213 130.578  13.778  1.00  0.00    -0.342 N 
ATOM      4  C   UNL     1      44.934 131.290  13.854  1.00  0.00     0.225 C 
ATOM      5  C   UNL     1      44.664 131.344  15.329  1.00  0.00     0.211 A 
ATOM      6  N   UNL     1      43.591 131.900  15.947  1.00  0.00    -0.212 N 
ATOM      7  C   UNL     1      43.495 131.859  17.310  1.00  0.00     0.315 A 
ATOM      8  C   UNL     1      44.507 131.241  18.092  1.00  0.00     0.046 A 
ATOM      9  C   UNL     1      45.617 130.669  17.434  1.00  0.00     0.035 A 
ATOM     10  C   UNL     1      45.663 130.739  16.048  1.00  0.00     0.109 A 
ATOM     11  H   UNL     1      46.729 130.346  12.901  1.00  0.00     0.164 HD
ATOM     12  H   UNL     1      42.841 132.360  15.384  1.00  0.00     0.453 HD
ENDROOT
BRANCH   8  13
ATOM     13  C   UNL     1      44.399 131.197  19.572  1.00  0.00    -0.012 A 
ATOM     14  C   UNL     1      45.435 130.613  20.351  1.00  0.00     0.011 A 
ATOM     15  C   UNL     1      43.262 131.736  20.222  1.00  0.00     0.019 A 
ATOM     16  C   UNL     1      45.344 130.565  21.754  1.00  0.00     0.027 A 
ATOM     17  C   UNL     1      43.207 131.670  21.612  1.00  0.00    -0.000 A 
ATOM     18  C   UNL     1      44.208 131.105  22.351  1.00  0.00     0.045 A 
ATOM     19  C   UNL     1      42.238 132.102  22.491  1.00  0.00     0.028 A 
ATOM     20  N   UNL     1      43.924 131.160  23.663  1.00  0.00    -0.361 N 
ATOM     21  C   UNL     1      42.719 131.768  23.753  1.00  0.00     0.083 A 
ATOM     22  H   UNL     1      44.508 130.805  24.452  1.00  0.00     0.166 HD
ENDBRANCH   8  13
TORSDOF 1
ENDMDL


