REMARK SMILES CC(=O)c1ccc(-c2nccc(C)c2F)c(NN)c1
REMARK SMILES IDX 4 1 5 2 6 3 7 4 16 5 19 6 2 7 1 8 3 9 17 10 18 12 8 15 9 16
REMARK SMILES IDX 14 17 10 18 12 19 11 20 15 21 13 22
REMARK H PARENT 17 11 18 13 18 14
ROOT
ATOM      1  C   UNL     1      -1.127  -2.406  -0.209  1.00  0.00     0.019 A 
ATOM      2  C   UNL     1      -0.242  -2.031   0.817  1.00  0.00     0.012 A 
ATOM      3  C   UNL     1       0.246  -0.727   0.892  1.00  0.00     0.013 A 
ATOM      4  C   UNL     1      -0.129   0.235  -0.056  1.00  0.00     0.028 A 
ATOM      5  C   UNL     1      -1.043  -0.114  -1.079  1.00  0.00     0.059 A 
ATOM      6  C   UNL     1      -1.522  -1.436  -1.148  1.00  0.00     0.039 A 
ENDROOT
BRANCH   1   7
ATOM      7  C   UNL     1      -1.653  -3.795  -0.305  1.00  0.00     0.159 C 
ATOM      8  C   UNL     1      -1.268  -4.859   0.679  1.00  0.00     0.093 C 
ATOM      9  O   UNL     1      -2.445  -4.102  -1.238  1.00  0.00    -0.295 OA
ENDBRANCH   1   7
BRANCH   5  10
ATOM     10  N   UNL     1      -1.526   0.875  -2.009  1.00  0.00    -0.323 N 
ATOM     11  H   UNL     1      -1.416   1.892  -1.791  1.00  0.00     0.181 HD
BRANCH  10  12
ATOM     12  N   UNL     1      -2.201   0.506  -3.184  1.00  0.00    -0.250 NA
ATOM     13  H   UNL     1      -2.512   1.383  -3.663  1.00  0.00     0.143 HD
ATOM     14  H   UNL     1      -1.499   0.056  -3.814  1.00  0.00     0.143 HD
ENDBRANCH  10  12
ENDBRANCH   5  10
BRANCH   4  15
ATOM     15  C   UNL     1       0.460   1.587   0.047  1.00  0.00     0.108 A 
ATOM     16  N   UNL     1       0.335   2.279   1.213  1.00  0.00    -0.253 NA
ATOM     17  C   UNL     1       1.193   2.145  -1.015  1.00  0.00     0.152 A 
ATOM     18  C   UNL     1       0.875   3.514   1.379  1.00  0.00     0.112 A 
ATOM     19  C   UNL     1       1.747   3.427  -0.873  1.00  0.00    -0.012 A 
ATOM     20  C   UNL     1       1.591   4.111   0.341  1.00  0.00     0.026 A 
ATOM     21  F   UNL     1       1.385   1.442  -2.162  1.00  0.00    -0.204 F 
ATOM     22  C   UNL     1       2.551   4.033  -1.987  1.00  0.00     0.047 C 
ENDBRANCH   4  15
TORSDOF 4


