MODEL 1
REMARK VINA RESULT:      -4.0      0.000      0.000
REMARK SMILES C/C=C(\C)C(=O)N1CC[C@@H](C)[C@H](F)[C@H]1c1ccc(C(C)=O)cc1
REMARK SMILES IDX 7 1 8 2 9 3 10 4 11 5 12 6 13 7 14 8 5 9 6 10 3 11 4 12 2 13
REMARK SMILES IDX 1 14 15 15 16 16 23 17 17 18 22 19 18 20 19 21 21 22 20 23
REMARK H PARENT
ROOT
ATOM      1  N   UNL     1      45.601 124.858  23.569  1.00  0.00    -0.329 N 
ATOM      2  C   UNL     1      45.134 123.690  24.331  1.00  0.00     0.121 C 
ATOM      3  C   UNL     1      44.589 122.612  23.383  1.00  0.00     0.028 C 
ATOM      4  C   UNL     1      43.699 123.173  22.236  1.00  0.00     0.024 C 
ATOM      5  C   UNL     1      42.393 122.375  22.116  1.00  0.00     0.011 C 
ATOM      6  C   UNL     1      43.405 124.681  22.395  1.00  0.00     0.196 C 
ATOM      7  F   UNL     1      42.724 125.148  21.282  1.00  0.00    -0.245 F 
ATOM      8  C   UNL     1      44.723 125.467  22.552  1.00  0.00     0.150 C 
ENDROOT
BRANCH   1   9
ATOM      9  C   UNL     1      46.947 125.353  23.731  1.00  0.00     0.249 C 
ATOM     10  O   UNL     1      47.185 126.212  24.624  1.00  0.00    -0.269 OA
BRANCH   9  11
ATOM     11  C   UNL     1      48.068 124.865  22.889  1.00  0.00     0.010 C 
ATOM     12  C   UNL     1      47.751 124.213  21.566  1.00  0.00     0.050 C 
BRANCH  11  13
ATOM     13  C   UNL     1      49.339 125.104  23.262  1.00  0.00    -0.021 C 
ATOM     14  C   UNL     1      50.025 124.372  24.375  1.00  0.00     0.036 C 
ENDBRANCH  11  13
ENDBRANCH   9  11
ENDBRANCH   1   9
BRANCH   8  15
ATOM     15  C   UNL     1      44.443 126.916  22.897  1.00  0.00    -0.022 A 
ATOM     16  C   UNL     1      43.526 127.237  23.908  1.00  0.00     0.007 A 
ATOM     17  C   UNL     1      45.099 127.955  22.217  1.00  0.00     0.007 A 
ATOM     18  C   UNL     1      43.260 128.572  24.228  1.00  0.00     0.012 A 
ATOM     19  C   UNL     1      44.833 129.289  22.534  1.00  0.00     0.012 A 
ATOM     20  C   UNL     1      43.909 129.617  23.543  1.00  0.00     0.017 A 
BRANCH  20  21
ATOM     21  C   UNL     1      43.636 131.044  23.868  1.00  0.00     0.159 C 
ATOM     22  O   UNL     1      44.596 131.856  23.973  1.00  0.00    -0.295 OA
ATOM     23  C   UNL     1      42.243 131.555  24.078  1.00  0.00     0.093 C 
ENDBRANCH  20  21
ENDBRANCH   8  15
TORSDOF 5
ENDMDL
MODEL 2
REMARK VINA RESULT:      -3.1      5.692      8.157
REMARK SMILES C/C=C(\C)C(=O)N1CC[C@@H](C)[C@H](F)[C@H]1c1ccc(C(C)=O)cc1
REMARK SMILES IDX 7 1 8 2 9 3 10 4 11 5 12 6 13 7 14 8 5 9 6 10 3 11 4 12 2 13
REMARK SMILES IDX 1 14 15 15 16 16 23 17 17 18 22 19 18 20 19 21 21 22 20 23
REMARK H PARENT
ROOT
ATOM      1  N   UNL     1      44.848 131.104  20.220  1.00  0.00    -0.329 N 
ATOM      2  C   UNL     1      44.696 132.290  21.075  1.00  0.00     0.121 C 
ATOM      3  C   UNL     1      43.223 132.493  21.458  1.00  0.00     0.028 C 
ATOM      4  C   UNL     1      42.231 132.277  20.279  1.00  0.00     0.024 C 
ATOM      5  C   UNL     1      41.222 133.431  20.193  1.00  0.00     0.011 C 
ATOM      6  C   UNL     1      42.949 132.077  18.926  1.00  0.00     0.196 C 
ATOM      7  F   UNL     1      42.024 131.760  17.944  1.00  0.00    -0.245 F 
ATOM      8  C   UNL     1      43.984 130.939  19.036  1.00  0.00     0.150 C 
ENDROOT
BRANCH   1   9
ATOM      9  C   UNL     1      45.762 130.047  20.583  1.00  0.00     0.249 C 
ATOM     10  O   UNL     1      46.907 130.013  20.055  1.00  0.00    -0.269 OA
BRANCH   9  11
ATOM     11  C   UNL     1      45.400 129.006  21.577  1.00  0.00     0.010 C 
ATOM     12  C   UNL     1      46.035 127.642  21.464  1.00  0.00     0.050 C 
BRANCH  11  13
ATOM     13  C   UNL     1      44.604 129.320  22.616  1.00  0.00    -0.021 C 
ATOM     14  C   UNL     1      43.811 128.308  23.385  1.00  0.00     0.036 C 
ENDBRANCH  11  13
ENDBRANCH   9  11
ENDBRANCH   1   9
BRANCH   8  15
ATOM     15  C   UNL     1      44.825 130.860  17.777  1.00  0.00    -0.022 A 
ATOM     16  C   UNL     1      45.291 129.620  17.314  1.00  0.00     0.007 A 
ATOM     17  C   UNL     1      45.144 132.021  17.054  1.00  0.00     0.007 A 
ATOM     18  C   UNL     1      46.070 129.542  16.156  1.00  0.00     0.012 A 
ATOM     19  C   UNL     1      45.924 131.944  15.897  1.00  0.00     0.012 A 
ATOM     20  C   UNL     1      46.399 130.704  15.432  1.00  0.00     0.017 A 
BRANCH  20  21
ATOM     21  C   UNL     1      47.231 130.639  14.200  1.00  0.00     0.159 C 
ATOM     22  O   UNL     1      47.206 131.595  13.377  1.00  0.00    -0.295 OA
ATOM     23  C   UNL     1      48.107 129.461  13.897  1.00  0.00     0.093 C 
ENDBRANCH  20  21
ENDBRANCH   8  15
TORSDOF 5
ENDMDL
MODEL 3
REMARK VINA RESULT:      -3.1      5.808      8.226
REMARK SMILES C/C=C(\C)C(=O)N1CC[C@@H](C)[C@H](F)[C@H]1c1ccc(C(C)=O)cc1
REMARK SMILES IDX 7 1 8 2 9 3 10 4 11 5 12 6 13 7 14 8 5 9 6 10 3 11 4 12 2 13
REMARK SMILES IDX 1 14 15 15 16 16 23 17 17 18 22 19 18 20 19 21 21 22 20 23
REMARK H PARENT
ROOT
ATOM      1  N   UNL     1      44.825 131.134  20.068  1.00  0.00    -0.329 N 
ATOM      2  C   UNL     1      44.688 132.336  20.904  1.00  0.00     0.121 C 
ATOM      3  C   UNL     1      43.223 132.545  21.313  1.00  0.00     0.028 C 
ATOM      4  C   UNL     1      42.207 132.307  20.158  1.00  0.00     0.024 C 
ATOM      5  C   UNL     1      41.196 133.458  20.071  1.00  0.00     0.011 C 
ATOM      6  C   UNL     1      42.898 132.083  18.796  1.00  0.00     0.196 C 
ATOM      7  F   UNL     1      41.954 131.747  17.838  1.00  0.00    -0.245 F 
ATOM      8  C   UNL     1      43.937 130.947  18.905  1.00  0.00     0.150 C 
ENDROOT
BRANCH   1   9
ATOM      9  C   UNL     1      45.747 130.085  20.432  1.00  0.00     0.249 C 
ATOM     10  O   UNL     1      46.864 130.017  19.851  1.00  0.00    -0.269 OA
BRANCH   9  11
ATOM     11  C   UNL     1      45.426 129.092  21.487  1.00  0.00     0.010 C 
ATOM     12  C   UNL     1      44.475 129.486  22.591  1.00  0.00     0.050 C 
BRANCH  11  13
ATOM     13  C   UNL     1      45.896 127.834  21.388  1.00  0.00    -0.021 C 
ATOM     14  C   UNL     1      45.414 126.703  22.246  1.00  0.00     0.036 C 
ENDBRANCH  11  13
ENDBRANCH   9  11
ENDBRANCH   1   9
BRANCH   8  15
ATOM     15  C   UNL     1      44.753 130.845  17.631  1.00  0.00    -0.022 A 
ATOM     16  C   UNL     1      45.203 132.006  16.985  1.00  0.00     0.007 A 
ATOM     17  C   UNL     1      45.074 129.592  17.084  1.00  0.00     0.007 A 
ATOM     18  C   UNL     1      45.952 131.918  15.807  1.00  0.00     0.012 A 
ATOM     19  C   UNL     1      45.821 129.502  15.907  1.00  0.00     0.012 A 
ATOM     20  C   UNL     1      46.270 130.664  15.251  1.00  0.00     0.017 A 
BRANCH  20  21
ATOM     21  C   UNL     1      47.063 130.552  13.997  1.00  0.00     0.159 C 
ATOM     22  O   UNL     1      46.798 131.305  13.020  1.00  0.00    -0.295 OA
ATOM     23  C   UNL     1      48.179 129.562  13.852  1.00  0.00     0.093 C 
ENDBRANCH  20  21
ENDBRANCH   8  15
TORSDOF 5
ENDMDL
MODEL 4
REMARK VINA RESULT:      -2.7      3.971      7.340
REMARK SMILES C/C=C(\C)C(=O)N1CC[C@@H](C)[C@H](F)[C@H]1c1ccc(C(C)=O)cc1
REMARK SMILES IDX 7 1 8 2 9 3 10 4 11 5 12 6 13 7 14 8 5 9 6 10 3 11 4 12 2 13
REMARK SMILES IDX 1 14 15 15 16 16 23 17 17 18 22 19 18 20 19 21 21 22 20 23
REMARK H PARENT
ROOT
ATOM      1  N   UNL     1      43.995 131.386  20.022  1.00  0.00    -0.329 N 
ATOM      2  C   UNL     1      42.778 131.579  19.219  1.00  0.00     0.121 C 
ATOM      3  C   UNL     1      42.047 132.860  19.647  1.00  0.00     0.028 C 
ATOM      4  C   UNL     1      41.976 133.058  21.189  1.00  0.00     0.024 C 
ATOM      5  C   UNL     1      40.549 133.412  21.631  1.00  0.00     0.011 C 
ATOM      6  C   UNL     1      42.501 131.834  21.971  1.00  0.00     0.196 C 
ATOM      7  F   UNL     1      42.535 132.120  23.326  1.00  0.00    -0.245 F 
ATOM      8  C   UNL     1      43.921 131.466  21.493  1.00  0.00     0.150 C 
ENDROOT
BRANCH   1   9
ATOM      9  C   UNL     1      45.279 131.224  19.385  1.00  0.00     0.249 C 
ATOM     10  O   UNL     1      46.327 131.294  20.082  1.00  0.00    -0.269 OA
BRANCH   9  11
ATOM     11  C   UNL     1      45.404 130.955  17.930  1.00  0.00     0.010 C 
ATOM     12  C   UNL     1      44.897 131.988  16.955  1.00  0.00     0.050 C 
BRANCH  11  13
ATOM     13  C   UNL     1      46.056 129.857  17.505  1.00  0.00    -0.021 C 
ATOM     14  C   UNL     1      46.562 129.687  16.104  1.00  0.00     0.036 C 
ENDBRANCH  11  13
ENDBRANCH   9  11
ENDBRANCH   1   9
BRANCH   8  15
ATOM     15  C   UNL     1      44.371 130.159  22.114  1.00  0.00    -0.022 A 
ATOM     16  C   UNL     1      45.001 129.182  21.329  1.00  0.00     0.007 A 
ATOM     17  C   UNL     1      44.171 129.908  23.482  1.00  0.00     0.007 A 
ATOM     18  C   UNL     1      45.415 127.973  21.896  1.00  0.00     0.012 A 
ATOM     19  C   UNL     1      44.582 128.700  24.050  1.00  0.00     0.012 A 
ATOM     20  C   UNL     1      45.209 127.714  23.265  1.00  0.00     0.017 A 
BRANCH  20  21
ATOM     21  C   UNL     1      45.639 126.432  23.884  1.00  0.00     0.159 C 
ATOM     22  O   UNL     1      46.860 126.111  23.873  1.00  0.00    -0.295 OA
ATOM     23  C   UNL     1      44.662 125.496  24.528  1.00  0.00     0.093 C 
ENDBRANCH  20  21
ENDBRANCH   8  15
TORSDOF 5
ENDMDL
MODEL 5
REMARK VINA RESULT:      -2.7      5.727      8.112
REMARK SMILES C/C=C(\C)C(=O)N1CC[C@@H](C)[C@H](F)[C@H]1c1ccc(C(C)=O)cc1
REMARK SMILES IDX 7 1 8 2 9 3 10 4 11 5 12 6 13 7 14 8 5 9 6 10 3 11 4 12 2 13
REMARK SMILES IDX 1 14 15 15 16 16 23 17 17 18 22 19 18 20 19 21 21 22 20 23
REMARK H PARENT
ROOT
ATOM      1  N   UNL     1      44.798 131.130  20.222  1.00  0.00    -0.329 N 
ATOM      2  C   UNL     1      44.657 132.347  21.035  1.00  0.00     0.121 C 
ATOM      3  C   UNL     1      43.183 132.590  21.389  1.00  0.00     0.028 C 
ATOM      4  C   UNL     1      42.203 132.354  20.203  1.00  0.00     0.024 C 
ATOM      5  C   UNL     1      41.219 133.524  20.065  1.00  0.00     0.011 C 
ATOM      6  C   UNL     1      42.936 132.096  18.869  1.00  0.00     0.196 C 
ATOM      7  F   UNL     1      42.019 131.765  17.884  1.00  0.00    -0.245 F 
ATOM      8  C   UNL     1      43.948 130.943  19.031  1.00  0.00     0.150 C 
ENDROOT
BRANCH   1   9
ATOM      9  C   UNL     1      45.685 130.068  20.633  1.00  0.00     0.249 C 
ATOM     10  O   UNL     1      46.829 129.983  20.109  1.00  0.00    -0.269 OA
BRANCH   9  11
ATOM     11  C   UNL     1      45.298 129.082  21.672  1.00  0.00     0.010 C 
ATOM     12  C   UNL     1      44.351 129.512  22.765  1.00  0.00     0.050 C 
BRANCH  11  13
ATOM     13  C   UNL     1      45.705 127.803  21.566  1.00  0.00    -0.021 C 
ATOM     14  C   UNL     1      45.498 126.779  22.641  1.00  0.00     0.036 C 
ENDBRANCH  11  13
ENDBRANCH   9  11
ENDBRANCH   1   9
BRANCH   8  15
ATOM     15  C   UNL     1      44.805 130.806  17.788  1.00  0.00    -0.022 A 
ATOM     16  C   UNL     1      45.177 129.536  17.322  1.00  0.00     0.007 A 
ATOM     17  C   UNL     1      45.232 131.942  17.083  1.00  0.00     0.007 A 
ATOM     18  C   UNL     1      45.970 129.404  16.178  1.00  0.00     0.012 A 
ATOM     19  C   UNL     1      46.026 131.812  15.941  1.00  0.00     0.012 A 
ATOM     20  C   UNL     1      46.408 130.541  15.473  1.00  0.00     0.017 A 
BRANCH  20  21
ATOM     21  C   UNL     1      47.256 130.419  14.256  1.00  0.00     0.159 C 
ATOM     22  O   UNL     1      48.177 129.558  14.220  1.00  0.00    -0.295 OA
ATOM     23  C   UNL     1      47.051 131.295  13.057  1.00  0.00     0.093 C 
ENDBRANCH  20  21
ENDBRANCH   8  15
TORSDOF 5
ENDMDL
MODEL 6
REMARK VINA RESULT:      -2.7      4.186      7.492
REMARK SMILES C/C=C(\C)C(=O)N1CC[C@@H](C)[C@H](F)[C@H]1c1ccc(C(C)=O)cc1
REMARK SMILES IDX 7 1 8 2 9 3 10 4 11 5 12 6 13 7 14 8 5 9 6 10 3 11 4 12 2 13
REMARK SMILES IDX 1 14 15 15 16 16 23 17 17 18 22 19 18 20 19 21 21 22 20 23
REMARK H PARENT
ROOT
ATOM      1  N   UNL     1      44.075 131.414  19.741  1.00  0.00    -0.329 N 
ATOM      2  C   UNL     1      42.889 131.683  18.914  1.00  0.00     0.121 C 
ATOM      3  C   UNL     1      42.173 132.952  19.395  1.00  0.00     0.028 C 
ATOM      4  C   UNL     1      42.057 133.062  20.943  1.00  0.00     0.024 C 
ATOM      5  C   UNL     1      40.625 133.423  21.361  1.00  0.00     0.011 C 
ATOM      6  C   UNL     1      42.530 131.783  21.666  1.00  0.00     0.196 C 
ATOM      7  F   UNL     1      42.527 131.988  23.037  1.00  0.00    -0.245 F 
ATOM      8  C   UNL     1      43.956 131.410  21.211  1.00  0.00     0.150 C 
ENDROOT
BRANCH   1   9
ATOM      9  C   UNL     1      45.376 131.259  19.135  1.00  0.00     0.249 C 
ATOM     10  O   UNL     1      46.407 131.335  19.858  1.00  0.00    -0.269 OA
BRANCH   9  11
ATOM     11  C   UNL     1      45.537 130.992  17.684  1.00  0.00     0.010 C 
ATOM     12  C   UNL     1      45.746 129.570  17.226  1.00  0.00     0.050 C 
BRANCH  11  13
ATOM     13  C   UNL     1      45.388 131.995  16.798  1.00  0.00    -0.021 C 
ATOM     14  C   UNL     1      45.782 131.888  15.356  1.00  0.00     0.036 C 
ENDBRANCH  11  13
ENDBRANCH   9  11
ENDBRANCH   1   9
BRANCH   8  15
ATOM     15  C   UNL     1      44.358 130.058  21.768  1.00  0.00    -0.022 A 
ATOM     16  C   UNL     1      43.707 129.536  22.895  1.00  0.00     0.007 A 
ATOM     17  C   UNL     1      45.379 129.308  21.162  1.00  0.00     0.007 A 
ATOM     18  C   UNL     1      44.076 128.291  23.415  1.00  0.00     0.012 A 
ATOM     19  C   UNL     1      45.750 128.065  21.681  1.00  0.00     0.012 A 
ATOM     20  C   UNL     1      45.105 127.539  22.816  1.00  0.00     0.017 A 
BRANCH  20  21
ATOM     21  C   UNL     1      45.513 126.215  23.358  1.00  0.00     0.159 C 
ATOM     22  O   UNL     1      46.372 125.525  22.743  1.00  0.00    -0.295 OA
ATOM     23  C   UNL     1      44.931 125.665  24.625  1.00  0.00     0.093 C 
ENDBRANCH  20  21
ENDBRANCH   8  15
TORSDOF 5
ENDMDL
MODEL 7
REMARK VINA RESULT:      -2.6      4.081      7.436
REMARK SMILES C/C=C(\C)C(=O)N1CC[C@@H](C)[C@H](F)[C@H]1c1ccc(C(C)=O)cc1
REMARK SMILES IDX 7 1 8 2 9 3 10 4 11 5 12 6 13 7 14 8 5 9 6 10 3 11 4 12 2 13
REMARK SMILES IDX 1 14 15 15 16 16 23 17 17 18 22 19 18 20 19 21 21 22 20 23
REMARK H PARENT
ROOT
ATOM      1  N   UNL     1      43.866 131.480  19.820  1.00  0.00    -0.329 N 
ATOM      2  C   UNL     1      42.625 131.741  19.075  1.00  0.00     0.121 C 
ATOM      3  C   UNL     1      41.933 133.004  19.607  1.00  0.00     0.028 C 
ATOM      4  C   UNL     1      41.920 133.109  21.160  1.00  0.00     0.024 C 
ATOM      5  C   UNL     1      40.517 133.458  21.674  1.00  0.00     0.011 C 
ATOM      6  C   UNL     1      42.451 131.832  21.846  1.00  0.00     0.196 C 
ATOM      7  F   UNL     1      42.539 132.034  23.214  1.00  0.00    -0.245 F 
ATOM      8  C   UNL     1      43.846 131.471  21.295  1.00  0.00     0.150 C 
ENDROOT
BRANCH   1   9
ATOM      9  C   UNL     1      45.124 131.337  19.127  1.00  0.00     0.249 C 
ATOM     10  O   UNL     1      46.199 131.549  19.751  1.00  0.00    -0.269 OA
BRANCH   9  11
ATOM     11  C   UNL     1      45.191 130.926  17.702  1.00  0.00     0.010 C 
ATOM     12  C   UNL     1      44.463 131.754  16.673  1.00  0.00     0.050 C 
BRANCH  11  13
ATOM     13  C   UNL     1      45.979 129.897  17.338  1.00  0.00    -0.021 C 
ATOM     14  C   UNL     1      46.623 129.787  15.989  1.00  0.00     0.036 C 
ENDBRANCH  11  13
ENDBRANCH   9  11
ENDBRANCH   1   9
BRANCH   8  15
ATOM     15  C   UNL     1      44.294 130.121  21.819  1.00  0.00    -0.022 A 
ATOM     16  C   UNL     1      43.668 129.553  22.938  1.00  0.00     0.007 A 
ATOM     17  C   UNL     1      45.335 129.418  21.191  1.00  0.00     0.007 A 
ATOM     18  C   UNL     1      44.080 128.310  23.428  1.00  0.00     0.012 A 
ATOM     19  C   UNL     1      45.749 128.177  21.680  1.00  0.00     0.012 A 
ATOM     20  C   UNL     1      45.129 127.606  22.807  1.00  0.00     0.017 A 
BRANCH  20  21
ATOM     21  C   UNL     1      45.583 126.283  23.317  1.00  0.00     0.159 C 
ATOM     22  O   UNL     1      45.035 125.786  24.339  1.00  0.00    -0.295 OA
ATOM     23  C   UNL     1      46.683 125.513  22.651  1.00  0.00     0.093 C 
ENDBRANCH  20  21
ENDBRANCH   8  15
TORSDOF 5
ENDMDL
MODEL 8
REMARK VINA RESULT:      -2.4      2.175      4.246
REMARK SMILES C/C=C(\C)C(=O)N1CC[C@@H](C)[C@H](F)[C@H]1c1ccc(C(C)=O)cc1
REMARK SMILES IDX 7 1 8 2 9 3 10 4 11 5 12 6 13 7 14 8 5 9 6 10 3 11 4 12 2 13
REMARK SMILES IDX 1 14 15 15 16 16 23 17 17 18 22 19 18 20 19 21 21 22 20 23
REMARK H PARENT
ROOT
ATOM      1  N   UNL     1      44.966 124.326  22.579  1.00  0.00    -0.329 N 
ATOM      2  C   UNL     1      45.421 123.628  21.368  1.00  0.00     0.121 C 
ATOM      3  C   UNL     1      46.754 122.910  21.628  1.00  0.00     0.028 C 
ATOM      4  C   UNL     1      47.775 123.754  22.444  1.00  0.00     0.024 C 
ATOM      5  C   UNL     1      49.158 123.733  21.779  1.00  0.00     0.011 C 
ATOM      6  C   UNL     1      47.300 125.206  22.669  1.00  0.00     0.196 C 
ATOM      7  F   UNL     1      48.184 125.866  23.508  1.00  0.00    -0.245 F 
ATOM      8  C   UNL     1      45.894 125.215  23.304  1.00  0.00     0.150 C 
ENDROOT
BRANCH   1   9
ATOM      9  C   UNL     1      43.656 124.071  23.127  1.00  0.00     0.249 C 
ATOM     10  O   UNL     1      43.433 122.976  23.711  1.00  0.00    -0.269 OA
BRANCH   9  11
ATOM     11  C   UNL     1      42.563 125.072  23.042  1.00  0.00     0.010 C 
ATOM     12  C   UNL     1      42.352 125.808  21.742  1.00  0.00     0.050 C 
BRANCH  11  13
ATOM     13  C   UNL     1      41.717 125.231  24.078  1.00  0.00    -0.021 C 
ATOM     14  C   UNL     1      41.063 126.535  24.418  1.00  0.00     0.036 C 
ENDBRANCH  11  13
ENDBRANCH   9  11
ENDBRANCH   1   9
BRANCH   8  15
ATOM     15  C   UNL     1      45.340 126.625  23.355  1.00  0.00    -0.022 A 
ATOM     16  C   UNL     1      45.313 127.417  22.198  1.00  0.00     0.007 A 
ATOM     17  C   UNL     1      44.841 127.156  24.556  1.00  0.00     0.007 A 
ATOM     18  C   UNL     1      44.807 128.719  22.240  1.00  0.00     0.012 A 
ATOM     19  C   UNL     1      44.337 128.458  24.601  1.00  0.00     0.012 A 
ATOM     20  C   UNL     1      44.313 129.259  23.444  1.00  0.00     0.017 A 
BRANCH  20  21
ATOM     21  C   UNL     1      43.774 130.644  23.508  1.00  0.00     0.159 C 
ATOM     22  O   UNL     1      42.960 131.040  22.629  1.00  0.00    -0.295 OA
ATOM     23  C   UNL     1      44.170 131.599  24.594  1.00  0.00     0.093 C 
ENDBRANCH  20  21
ENDBRANCH   8  15
TORSDOF 5
ENDMDL
MODEL 9
REMARK VINA RESULT:      -2.3      5.049      7.768
REMARK SMILES C/C=C(\C)C(=O)N1CC[C@@H](C)[C@H](F)[C@H]1c1ccc(C(C)=O)cc1
REMARK SMILES IDX 7 1 8 2 9 3 10 4 11 5 12 6 13 7 14 8 5 9 6 10 3 11 4 12 2 13
REMARK SMILES IDX 1 14 15 15 16 16 23 17 17 18 22 19 18 20 19 21 21 22 20 23
REMARK H PARENT
ROOT
ATOM      1  N   UNL     1      44.275 131.025  21.153  1.00  0.00    -0.329 N 
ATOM      2  C   UNL     1      44.246 132.118  22.136  1.00  0.00     0.121 C 
ATOM      3  C   UNL     1      42.803 132.415  22.570  1.00  0.00     0.028 C 
ATOM      4  C   UNL     1      41.783 132.426  21.395  1.00  0.00     0.024 C 
ATOM      5  C   UNL     1      40.889 133.672  21.457  1.00  0.00     0.011 C 
ATOM      6  C   UNL     1      42.464 132.311  20.014  1.00  0.00     0.196 C 
ATOM      7  F   UNL     1      41.503 132.194  19.023  1.00  0.00    -0.245 F 
ATOM      8  C   UNL     1      43.387 131.075  19.976  1.00  0.00     0.150 C 
ENDROOT
BRANCH   1   9
ATOM      9  C   UNL     1      45.086 129.853  21.378  1.00  0.00     0.249 C 
ATOM     10  O   UNL     1      46.214 129.766  20.820  1.00  0.00    -0.269 OA
BRANCH   9  11
ATOM     11  C   UNL     1      44.640 128.750  22.267  1.00  0.00     0.010 C 
ATOM     12  C   UNL     1      45.336 127.415  22.173  1.00  0.00     0.050 C 
BRANCH  11  13
ATOM     13  C   UNL     1      43.706 128.985  23.208  1.00  0.00    -0.021 C 
ATOM     14  C   UNL     1      42.837 127.913  23.793  1.00  0.00     0.036 C 
ENDBRANCH  11  13
ENDBRANCH   9  11
ENDBRANCH   1   9
BRANCH   8  15
ATOM     15  C   UNL     1      44.203 131.057  18.699  1.00  0.00    -0.022 A 
ATOM     16  C   UNL     1      43.675 131.591  17.515  1.00  0.00     0.007 A 
ATOM     17  C   UNL     1      45.498 130.514  18.683  1.00  0.00     0.007 A 
ATOM     18  C   UNL     1      44.422 131.574  16.333  1.00  0.00     0.012 A 
ATOM     19  C   UNL     1      46.245 130.494  17.503  1.00  0.00     0.012 A 
ATOM     20  C   UNL     1      45.717 131.023  16.310  1.00  0.00     0.017 A 
BRANCH  20  21
ATOM     21  C   UNL     1      46.524 130.993  15.061  1.00  0.00     0.159 C 
ATOM     22  O   UNL     1      46.869 132.075  14.512  1.00  0.00    -0.295 OA
ATOM     23  C   UNL     1      46.948 129.704  14.422  1.00  0.00     0.093 C 
ENDBRANCH  20  21
ENDBRANCH   8  15
TORSDOF 5
ENDMDL


