REMARK SMILES Cc1cc(N)c(OC(=O)/C=C(\[NH3+])C([NH-])=O)c(-n2nc3ccccc3[nH+]2)c1
REMARK SMILES IDX 10 1 11 2 13 3 15 4 14 5 12 7 8 11 9 12 7 13 6 14 4 15 16 16
REMARK SMILES IDX 3 17 26 18 2 19 1 20 5 21 17 24 18 25 25 26 19 27 24 28
REMARK SMILES IDX 20 29 23 30 21 31 22 32
REMARK H PARENT 14 6 12 8 12 9 12 10 5 22 5 23 25 33
ROOT
ATOM      1  C   UNL     1       2.922  -1.412  -0.630  1.00  0.00     0.163 C 
ENDROOT
BRANCH   1   2
ATOM      2  C   UNL     1       3.308  -2.561  -0.032  1.00  0.00     0.160 C 
BRANCH   2   3
ATOM      3  C   UNL     1       4.248  -3.466  -0.743  1.00  0.00     0.134 C 
ATOM      4  O   UNL     1       4.304  -3.460  -2.002  1.00  0.00    -0.309 OA
BRANCH   3   5
ATOM      5  N   UNL     1       5.112  -4.345  -0.024  1.00  0.00    -0.659 NA
ATOM      6  H   UNL     1       5.176  -4.340   1.018  1.00  0.00    -0.121 HD
ENDBRANCH   3   5
ENDBRANCH   2   3
BRANCH   2   7
ATOM      7  N   UNL     1       2.841  -2.916   1.285  1.00  0.00    -0.323 N 
ATOM      8  H   UNL     1       3.377  -2.377   2.003  1.00  0.00     0.350 HD
ATOM      9  H   UNL     1       2.965  -3.939   1.458  1.00  0.00     0.350 HD
ATOM     10  H   UNL     1       1.817  -2.730   1.374  1.00  0.00     0.350 HD
ENDBRANCH   2   7
ENDBRANCH   1   2
BRANCH   1  11
ATOM     11  C   UNL     1       2.060  -0.382  -0.021  1.00  0.00     0.342 C 
ATOM     12  O   UNL     1       1.964  -0.267   1.231  1.00  0.00    -0.246 OA
BRANCH  11  13
ATOM     13  O   UNL     1       1.380   0.506  -0.864  1.00  0.00    -0.418 OA
BRANCH  13  14
ATOM     14  C   UNL     1       0.327   1.327  -0.436  1.00  0.00     0.185 A 
ATOM     15  C   UNL     1       0.372   2.703  -0.729  1.00  0.00     0.078 A 
ATOM     16  C   UNL     1      -0.777   0.799   0.277  1.00  0.00     0.173 A 
ATOM     17  C   UNL     1      -0.639   3.550  -0.258  1.00  0.00     0.033 A 
ATOM     18  C   UNL     1      -1.770   1.666   0.754  1.00  0.00     0.042 A 
ATOM     19  C   UNL     1      -1.696   3.043   0.507  1.00  0.00    -0.046 A 
ATOM     20  C   UNL     1      -2.792   3.954   0.977  1.00  0.00     0.044 C 
BRANCH  15  21
ATOM     21  N   UNL     1       1.458   3.252  -1.486  1.00  0.00    -0.396 N 
ATOM     22  H   UNL     1       1.498   4.274  -1.695  1.00  0.00     0.156 HD
ATOM     23  H   UNL     1       2.230   2.649  -1.847  1.00  0.00     0.156 HD
ENDBRANCH  15  21
BRANCH  16  24
ATOM     24  N   UNL     1      -0.925  -0.617   0.471  1.00  0.00    -0.009 N 
ATOM     25  N   UNL     1      -0.642  -1.525  -0.463  1.00  0.00     0.054 NA
ATOM     26  N   UNL     1      -1.347  -1.175   1.604  1.00  0.00    -0.161 N 
ATOM     27  C   UNL     1      -0.887  -2.711   0.121  1.00  0.00     0.249 A 
ATOM     28  C   UNL     1      -1.319  -2.497   1.395  1.00  0.00     0.198 A 
ATOM     29  C   UNL     1      -0.714  -3.991  -0.396  1.00  0.00     0.064 A 
ATOM     30  C   UNL     1      -1.618  -3.539   2.266  1.00  0.00     0.058 A 
ATOM     31  C   UNL     1      -1.010  -5.076   0.453  1.00  0.00     0.005 A 
ATOM     32  C   UNL     1      -1.461  -4.852   1.777  1.00  0.00     0.005 A 
ATOM     33  H   UNL     1      -1.604  -0.671   2.483  1.00  0.00     0.340 HD
ENDBRANCH  16  24
ENDBRANCH  13  14
ENDBRANCH  11  13
ENDBRANCH   1  11
TORSDOF 9


