MODEL 1
REMARK VINA RESULT:      -3.9      0.000      0.000
REMARK SMILES CCOCCOC(=O)N(c1cc2ccccc2[n-]1)c1ccc(-c2ccc(C)cc2)cc1C=O
REMARK SMILES IDX 6 1 5 2 4 3 3 4 2 5 1 6 7 7 8 8 9 9 10 10 11 11 18 12 12 13
REMARK SMILES IDX 17 14 13 15 16 16 14 17 15 18 19 19 20 20 31 21 21 22 30 23
REMARK SMILES IDX 22 24 32 25 33 26 23 27 24 28 29 29 25 30 28 31 26 32 27 33
REMARK H PARENT
ROOT
ATOM      1  O   UNL     1      44.771 132.446  23.648  1.00  0.00    -0.462 OA
ENDROOT
BRANCH   1   2
ATOM      2  C   UNL     1      45.569 133.317  22.846  1.00  0.00     0.261 C 
BRANCH   2   3
ATOM      3  C   UNL     1      47.046 132.941  22.946  1.00  0.00     0.201 C 
BRANCH   3   4
ATOM      4  O   UNL     1      47.604 133.545  24.095  1.00  0.00    -0.378 OA
BRANCH   4   5
ATOM      5  C   UNL     1      48.319 134.702  23.720  1.00  0.00     0.157 C 
ATOM      6  C   UNL     1      49.515 134.294  22.876  1.00  0.00     0.035 C 
ENDBRANCH   4   5
ENDBRANCH   3   4
ENDBRANCH   2   3
ENDBRANCH   1   2
BRANCH   1   7
ATOM      7  C   UNL     1      43.622 131.797  23.178  1.00  0.00     0.333 C 
ATOM      8  O   UNL     1      42.480 132.261  23.450  1.00  0.00    -0.250 OA
BRANCH   7   9
ATOM      9  N   UNL     1      43.738 130.590  22.404  1.00  0.00    -0.354 N 
BRANCH   9  10
ATOM     10  C   UNL     1      43.421 129.293  22.942  1.00  0.00    -0.048 A 
ATOM     11  C   UNL     1      44.274 128.191  22.955  1.00  0.00     0.008 A 
ATOM     12  N   UNL     1      42.192 128.988  23.434  1.00  0.00    -0.435 NA
ATOM     13  C   UNL     1      43.525 127.181  23.504  1.00  0.00    -0.023 A 
ATOM     14  C   UNL     1      42.283 127.693  23.778  1.00  0.00    -0.034 A 
ATOM     15  C   UNL     1      43.845 125.850  23.759  1.00  0.00     0.008 A 
ATOM     16  C   UNL     1      41.273 126.900  24.320  1.00  0.00     0.004 A 
ATOM     17  C   UNL     1      42.849 125.030  24.321  1.00  0.00     0.001 A 
ATOM     18  C   UNL     1      41.566 125.552  24.593  1.00  0.00     0.000 A 
ENDBRANCH   9  10
BRANCH   9  19
ATOM     19  C   UNL     1      44.213 130.669  21.050  1.00  0.00    -0.021 A 
ATOM     20  C   UNL     1      45.463 130.124  20.734  1.00  0.00     0.005 A 
ATOM     21  C   UNL     1      43.443 131.295  20.048  1.00  0.00     0.019 A 
ATOM     22  C   UNL     1      45.958 130.199  19.431  1.00  0.00     0.009 A 
ATOM     23  C   UNL     1      43.950 131.364  18.737  1.00  0.00     0.020 A 
ATOM     24  C   UNL     1      45.210 130.822  18.419  1.00  0.00    -0.018 A 
BRANCH  21  25
ATOM     25  C   UNL     1      42.120 131.878  20.363  1.00  0.00     0.260 C 
ATOM     26  O   UNL     1      41.784 133.008  19.919  1.00  0.00    -0.298 OA
ENDBRANCH  21  25
BRANCH  24  27
ATOM     27  C   UNL     1      45.741 130.912  17.034  1.00  0.00    -0.018 A 
ATOM     28  C   UNL     1      45.825 132.153  16.378  1.00  0.00     0.009 A 
ATOM     29  C   UNL     1      46.173 129.755  16.360  1.00  0.00     0.009 A 
ATOM     30  C   UNL     1      46.333 132.236  15.078  1.00  0.00     0.004 A 
ATOM     31  C   UNL     1      46.682 129.839  15.061  1.00  0.00     0.004 A 
ATOM     32  C   UNL     1      46.766 131.079  14.413  1.00  0.00    -0.051 A 
ATOM     33  C   UNL     1      47.320 131.151  13.020  1.00  0.00     0.044 C 
ENDBRANCH  24  27
ENDBRANCH   9  19
ENDBRANCH   7   9
ENDBRANCH   1   7
TORSDOF 10
ENDMDL
MODEL 2
REMARK VINA RESULT:      -2.6      6.864      9.879
REMARK SMILES CCOCCOC(=O)N(c1cc2ccccc2[n-]1)c1ccc(-c2ccc(C)cc2)cc1C=O
REMARK SMILES IDX 6 1 5 2 4 3 3 4 2 5 1 6 7 7 8 8 9 9 10 10 11 11 18 12 12 13
REMARK SMILES IDX 17 14 13 15 16 16 14 17 15 18 19 19 20 20 31 21 21 22 30 23
REMARK SMILES IDX 22 24 32 25 33 26 23 27 24 28 29 29 25 30 28 31 26 32 27 33
REMARK H PARENT
ROOT
ATOM      1  O   UNL     1      51.689 126.731  23.451  1.00  0.00    -0.462 OA
ENDROOT
BRANCH   1   2
ATOM      2  C   UNL     1      52.852 127.139  22.731  1.00  0.00     0.261 C 
BRANCH   2   3
ATOM      3  C   UNL     1      52.973 128.663  22.718  1.00  0.00     0.201 C 
BRANCH   3   4
ATOM      4  O   UNL     1      52.609 129.170  23.985  1.00  0.00    -0.378 OA
BRANCH   4   5
ATOM      5  C   UNL     1      52.127 130.488  23.844  1.00  0.00     0.157 C 
ATOM      6  C   UNL     1      53.214 131.462  24.271  1.00  0.00     0.035 C 
ENDBRANCH   4   5
ENDBRANCH   3   4
ENDBRANCH   2   3
ENDBRANCH   1   2
BRANCH   1   7
ATOM      7  C   UNL     1      51.222 125.411  23.483  1.00  0.00     0.333 C 
ATOM      8  O   UNL     1      51.564 124.643  24.424  1.00  0.00    -0.250 OA
BRANCH   7   9
ATOM      9  N   UNL     1      50.371 124.920  22.432  1.00  0.00    -0.354 N 
BRANCH   9  10
ATOM     10  C   UNL     1      50.888 124.450  21.174  1.00  0.00    -0.048 A 
ATOM     11  C   UNL     1      52.098 124.837  20.599  1.00  0.00     0.008 A 
ATOM     12  N   UNL     1      50.187 123.615  20.364  1.00  0.00    -0.435 NA
ATOM     13  C   UNL     1      52.132 124.182  19.394  1.00  0.00    -0.023 A 
ATOM     14  C   UNL     1      50.971 123.462  19.284  1.00  0.00    -0.034 A 
ATOM     15  C   UNL     1      53.091 124.191  18.385  1.00  0.00     0.008 A 
ATOM     16  C   UNL     1      50.690 122.704  18.148  1.00  0.00     0.004 A 
ATOM     17  C   UNL     1      52.840 123.424  17.232  1.00  0.00     0.001 A 
ATOM     18  C   UNL     1      51.641 122.689  17.112  1.00  0.00     0.000 A 
ENDBRANCH   9  10
BRANCH   9  19
ATOM     19  C   UNL     1      48.947 124.921  22.626  1.00  0.00    -0.021 A 
ATOM     20  C   UNL     1      48.178 125.926  22.030  1.00  0.00     0.005 A 
ATOM     21  C   UNL     1      48.323 123.931  23.415  1.00  0.00     0.019 A 
ATOM     22  C   UNL     1      46.794 125.962  22.213  1.00  0.00     0.009 A 
ATOM     23  C   UNL     1      46.928 123.975  23.593  1.00  0.00     0.020 A 
ATOM     24  C   UNL     1      46.155 124.990  22.998  1.00  0.00    -0.018 A 
BRANCH  21  25
ATOM     25  C   UNL     1      49.120 122.861  24.055  1.00  0.00     0.260 C 
ATOM     26  O   UNL     1      50.142 122.385  23.492  1.00  0.00    -0.298 OA
ENDBRANCH  21  25
BRANCH  24  27
ATOM     27  C   UNL     1      44.683 125.033  23.202  1.00  0.00    -0.018 A 
ATOM     28  C   UNL     1      44.142 125.469  24.426  1.00  0.00     0.009 A 
ATOM     29  C   UNL     1      43.809 124.644  22.171  1.00  0.00     0.009 A 
ATOM     30  C   UNL     1      42.757 125.516  24.612  1.00  0.00     0.004 A 
ATOM     31  C   UNL     1      42.425 124.693  22.358  1.00  0.00     0.004 A 
ATOM     32  C   UNL     1      41.891 125.130  23.578  1.00  0.00    -0.051 A 
ATOM     33  C   UNL     1      40.402 125.183  23.760  1.00  0.00     0.044 C 
ENDBRANCH  24  27
ENDBRANCH   9  19
ENDBRANCH   7   9
ENDBRANCH   1   7
TORSDOF 10
ENDMDL
MODEL 3
REMARK VINA RESULT:      -1.8      1.962      5.926
REMARK SMILES CCOCCOC(=O)N(c1cc2ccccc2[n-]1)c1ccc(-c2ccc(C)cc2)cc1C=O
REMARK SMILES IDX 6 1 5 2 4 3 3 4 2 5 1 6 7 7 8 8 9 9 10 10 11 11 18 12 12 13
REMARK SMILES IDX 17 14 13 15 16 16 14 17 15 18 19 19 20 20 31 21 21 22 30 23
REMARK SMILES IDX 22 24 32 25 33 26 23 27 24 28 29 29 25 30 28 31 26 32 27 33
REMARK H PARENT
ROOT
ATOM      1  O   UNL     1      43.073 132.402  19.854  1.00  0.00    -0.462 OA
ENDROOT
BRANCH   1   2
ATOM      2  C   UNL     1      42.217 131.981  18.792  1.00  0.00     0.261 C 
BRANCH   2   3
ATOM      3  C   UNL     1      43.027 131.336  17.668  1.00  0.00     0.201 C 
BRANCH   3   4
ATOM      4  O   UNL     1      44.157 132.135  17.391  1.00  0.00    -0.378 OA
BRANCH   4   5
ATOM      5  C   UNL     1      44.820 131.635  16.250  1.00  0.00     0.157 C 
ATOM      6  C   UNL     1      43.828 131.543  15.102  1.00  0.00     0.035 C 
ENDBRANCH   4   5
ENDBRANCH   3   4
ENDBRANCH   2   3
ENDBRANCH   1   2
BRANCH   1   7
ATOM      7  C   UNL     1      42.849 132.086  21.200  1.00  0.00     0.333 C 
ATOM      8  O   UNL     1      41.738 132.357  21.735  1.00  0.00    -0.250 OA
BRANCH   7   9
ATOM      9  N   UNL     1      43.889 131.475  21.983  1.00  0.00    -0.354 N 
BRANCH   9  10
ATOM     10  C   UNL     1      43.720 130.203  22.635  1.00  0.00    -0.048 A 
ATOM     11  C   UNL     1      44.694 129.210  22.741  1.00  0.00     0.008 A 
ATOM     12  N   UNL     1      42.532 129.805  23.159  1.00  0.00    -0.435 NA
ATOM     13  C   UNL     1      44.062 128.174  23.382  1.00  0.00    -0.023 A 
ATOM     14  C   UNL     1      42.769 128.563  23.616  1.00  0.00    -0.034 A 
ATOM     15  C   UNL     1      44.531 126.917  23.752  1.00  0.00     0.008 A 
ATOM     16  C   UNL     1      41.853 127.712  24.232  1.00  0.00     0.004 A 
ATOM     17  C   UNL     1      43.632 126.042  24.390  1.00  0.00     0.001 A 
ATOM     18  C   UNL     1      42.297 126.436  24.622  1.00  0.00     0.000 A 
ENDBRANCH   9  10
BRANCH   9  19
ATOM     19  C   UNL     1      45.139 132.165  22.148  1.00  0.00    -0.021 A 
ATOM     20  C   UNL     1      45.270 133.099  23.182  1.00  0.00     0.005 A 
ATOM     21  C   UNL     1      46.222 131.920  21.278  1.00  0.00     0.019 A 
ATOM     22  C   UNL     1      46.467 133.796  23.358  1.00  0.00     0.009 A 
ATOM     23  C   UNL     1      47.425 132.626  21.465  1.00  0.00     0.020 A 
ATOM     24  C   UNL     1      47.555 133.571  22.501  1.00  0.00    -0.018 A 
BRANCH  21  25
ATOM     25  C   UNL     1      46.102 130.936  20.179  1.00  0.00     0.260 C 
ATOM     26  O   UNL     1      45.971 131.311  18.982  1.00  0.00    -0.298 OA
ENDBRANCH  21  25
BRANCH  24  27
ATOM     27  C   UNL     1      48.826 134.320  22.681  1.00  0.00    -0.018 A 
ATOM     28  C   UNL     1      49.103 135.458  21.901  1.00  0.00     0.009 A 
ATOM     29  C   UNL     1      49.768 133.906  23.639  1.00  0.00     0.009 A 
ATOM     30  C   UNL     1      50.296 136.165  22.078  1.00  0.00     0.004 A 
ATOM     31  C   UNL     1      50.959 134.615  23.816  1.00  0.00     0.004 A 
ATOM     32  C   UNL     1      51.230 135.749  23.039  1.00  0.00    -0.051 A 
ATOM     33  C   UNL     1      52.511 136.502  23.246  1.00  0.00     0.044 C 
ENDBRANCH  24  27
ENDBRANCH   9  19
ENDBRANCH   7   9
ENDBRANCH   1   7
TORSDOF 10
ENDMDL
MODEL 4
REMARK VINA RESULT:      -1.3      1.143      1.554
REMARK SMILES CCOCCOC(=O)N(c1cc2ccccc2[n-]1)c1ccc(-c2ccc(C)cc2)cc1C=O
REMARK SMILES IDX 6 1 5 2 4 3 3 4 2 5 1 6 7 7 8 8 9 9 10 10 11 11 18 12 12 13
REMARK SMILES IDX 17 14 13 15 16 16 14 17 15 18 19 19 20 20 31 21 21 22 30 23
REMARK SMILES IDX 22 24 32 25 33 26 23 27 24 28 29 29 25 30 28 31 26 32 27 33
REMARK H PARENT
ROOT
ATOM      1  O   UNL     1      45.071 133.182  21.808  1.00  0.00    -0.462 OA
ENDROOT
BRANCH   1   2
ATOM      2  C   UNL     1      46.404 133.474  21.386  1.00  0.00     0.261 C 
BRANCH   2   3
ATOM      3  C   UNL     1      47.398 133.212  22.516  1.00  0.00     0.201 C 
BRANCH   3   4
ATOM      4  O   UNL     1      46.905 133.780  23.711  1.00  0.00    -0.378 OA
BRANCH   4   5
ATOM      5  C   UNL     1      47.979 134.302  24.464  1.00  0.00     0.157 C 
ATOM      6  C   UNL     1      49.287 133.918  23.792  1.00  0.00     0.035 C 
ENDBRANCH   4   5
ENDBRANCH   3   4
ENDBRANCH   2   3
ENDBRANCH   1   2
BRANCH   1   7
ATOM      7  C   UNL     1      44.704 131.987  22.439  1.00  0.00     0.333 C 
ATOM      8  O   UNL     1      44.419 131.985  23.669  1.00  0.00    -0.250 OA
BRANCH   7   9
ATOM      9  N   UNL     1      44.673 130.756  21.696  1.00  0.00    -0.354 N 
BRANCH   9  10
ATOM     10  C   UNL     1      44.310 129.499  22.296  1.00  0.00    -0.048 A 
ATOM     11  C   UNL     1      43.394 129.331  23.334  1.00  0.00     0.008 A 
ATOM     12  N   UNL     1      44.903 128.328  21.950  1.00  0.00    -0.435 NA
ATOM     13  C   UNL     1      43.424 127.986  23.606  1.00  0.00    -0.023 A 
ATOM     14  C   UNL     1      44.340 127.416  22.760  1.00  0.00    -0.034 A 
ATOM     15  C   UNL     1      42.727 127.236  24.549  1.00  0.00     0.008 A 
ATOM     16  C   UNL     1      44.625 126.052  22.808  1.00  0.00     0.004 A 
ATOM     17  C   UNL     1      42.984 125.854  24.611  1.00  0.00     0.001 A 
ATOM     18  C   UNL     1      43.935 125.267  23.748  1.00  0.00     0.000 A 
ENDBRANCH   9  10
BRANCH   9  19
ATOM     19  C   UNL     1      45.043 130.767  20.308  1.00  0.00    -0.021 A 
ATOM     20  C   UNL     1      46.301 130.280  19.934  1.00  0.00     0.005 A 
ATOM     21  C   UNL     1      44.162 131.270  19.327  1.00  0.00     0.019 A 
ATOM     22  C   UNL     1      46.695 130.292  18.594  1.00  0.00     0.009 A 
ATOM     23  C   UNL     1      44.568 131.275  17.979  1.00  0.00     0.020 A 
ATOM     24  C   UNL     1      45.835 130.792  17.604  1.00  0.00    -0.018 A 
BRANCH  21  25
ATOM     25  C   UNL     1      42.828 131.789  19.703  1.00  0.00     0.260 C 
ATOM     26  O   UNL     1      42.586 133.026  19.693  1.00  0.00    -0.298 OA
ENDBRANCH  21  25
BRANCH  24  27
ATOM     27  C   UNL     1      46.257 130.815  16.179  1.00  0.00    -0.018 A 
ATOM     28  C   UNL     1      45.623 131.667  15.257  1.00  0.00     0.009 A 
ATOM     29  C   UNL     1      47.303 129.987  15.732  1.00  0.00     0.009 A 
ATOM     30  C   UNL     1      46.028 131.692  13.919  1.00  0.00     0.004 A 
ATOM     31  C   UNL     1      47.709 130.015  14.395  1.00  0.00     0.004 A 
ATOM     32  C   UNL     1      47.075 130.867  13.481  1.00  0.00    -0.051 A 
ATOM     33  C   UNL     1      47.526 130.888  12.050  1.00  0.00     0.044 C 
ENDBRANCH  24  27
ENDBRANCH   9  19
ENDBRANCH   7   9
ENDBRANCH   1   7
TORSDOF 10
ENDMDL
MODEL 5
REMARK VINA RESULT:      -1.2      0.963      1.086
REMARK SMILES CCOCCOC(=O)N(c1cc2ccccc2[n-]1)c1ccc(-c2ccc(C)cc2)cc1C=O
REMARK SMILES IDX 6 1 5 2 4 3 3 4 2 5 1 6 7 7 8 8 9 9 10 10 11 11 18 12 12 13
REMARK SMILES IDX 17 14 13 15 16 16 14 17 15 18 19 19 20 20 31 21 21 22 30 23
REMARK SMILES IDX 22 24 32 25 33 26 23 27 24 28 29 29 25 30 28 31 26 32 27 33
REMARK H PARENT
ROOT
ATOM      1  O   UNL     1      45.309 133.068  22.783  1.00  0.00    -0.462 OA
ENDROOT
BRANCH   1   2
ATOM      2  C   UNL     1      46.653 133.549  22.758  1.00  0.00     0.261 C 
BRANCH   2   3
ATOM      3  C   UNL     1      47.450 132.986  23.934  1.00  0.00     0.201 C 
BRANCH   3   4
ATOM      4  O   UNL     1      48.813 133.319  23.775  1.00  0.00    -0.378 OA
BRANCH   4   5
ATOM      5  C   UNL     1      48.984 134.708  23.955  1.00  0.00     0.157 C 
ATOM      6  C   UNL     1      49.480 135.320  22.656  1.00  0.00     0.035 C 
ENDBRANCH   4   5
ENDBRANCH   3   4
ENDBRANCH   2   3
ENDBRANCH   1   2
BRANCH   1   7
ATOM      7  C   UNL     1      44.933 131.853  23.368  1.00  0.00     0.333 C 
ATOM      8  O   UNL     1      45.067 131.684  24.612  1.00  0.00    -0.250 OA
BRANCH   7   9
ATOM      9  N   UNL     1      44.416 130.786  22.554  1.00  0.00    -0.354 N 
BRANCH   9  10
ATOM     10  C   UNL     1      43.665 129.688  23.103  1.00  0.00    -0.048 A 
ATOM     11  C   UNL     1      44.168 128.415  23.369  1.00  0.00     0.008 A 
ATOM     12  N   UNL     1      42.332 129.767  23.348  1.00  0.00    -0.435 NA
ATOM     13  C   UNL     1      43.085 127.703  23.820  1.00  0.00    -0.023 A 
ATOM     14  C   UNL     1      42.001 128.542  23.792  1.00  0.00    -0.034 A 
ATOM     15  C   UNL     1      42.978 126.377  24.228  1.00  0.00     0.008 A 
ATOM     16  C   UNL     1      40.732 128.104  24.166  1.00  0.00     0.004 A 
ATOM     17  C   UNL     1      41.711 125.911  24.625  1.00  0.00     0.001 A 
ATOM     18  C   UNL     1      40.592 126.769  24.587  1.00  0.00     0.000 A 
ENDBRANCH   9  10
BRANCH   9  19
ATOM     19  C   UNL     1      44.677 130.795  21.141  1.00  0.00    -0.021 A 
ATOM     20  C   UNL     1      45.894 130.290  20.669  1.00  0.00     0.005 A 
ATOM     21  C   UNL     1      43.730 131.313  20.232  1.00  0.00     0.019 A 
ATOM     22  C   UNL     1      46.182 130.299  19.303  1.00  0.00     0.009 A 
ATOM     23  C   UNL     1      44.029 131.316  18.857  1.00  0.00     0.020 A 
ATOM     24  C   UNL     1      45.256 130.814  18.383  1.00  0.00    -0.018 A 
BRANCH  21  25
ATOM     25  C   UNL     1      42.437 131.852  20.712  1.00  0.00     0.260 C 
ATOM     26  O   UNL     1      42.373 132.973  21.284  1.00  0.00    -0.298 OA
ENDBRANCH  21  25
BRANCH  24  27
ATOM     27  C   UNL     1      45.566 130.834  16.930  1.00  0.00    -0.018 A 
ATOM     28  C   UNL     1      44.618 131.301  16.001  1.00  0.00     0.009 A 
ATOM     29  C   UNL     1      46.816 130.390  16.462  1.00  0.00     0.009 A 
ATOM     30  C   UNL     1      44.916 131.327  14.635  1.00  0.00     0.004 A 
ATOM     31  C   UNL     1      47.113 130.418  15.096  1.00  0.00     0.004 A 
ATOM     32  C   UNL     1      46.166 130.887  14.176  1.00  0.00    -0.051 A 
ATOM     33  C   UNL     1      46.504 130.915  12.714  1.00  0.00     0.044 C 
ENDBRANCH  24  27
ENDBRANCH   9  19
ENDBRANCH   7   9
ENDBRANCH   1   7
TORSDOF 10
ENDMDL


