REMARK SMILES NCC[C@H]1CC[C@]([S-])(c2c[nH+]c3cc[nH+]n3c2)CC1
REMARK SMILES IDX 3 1 2 2 1 3 4 6 5 7 19 8 6 9 18 10 7 11 8 12 9 13 10 14
REMARK SMILES IDX 17 15 11 16 16 17 12 18 15 19 13 20 14 21
REMARK H PARENT 1 4 1 5 11 22 15 23
ROOT
ATOM      1  C   UNL     1       2.823  -1.890   2.392  1.00  0.00     0.018 C 
ENDROOT
BRANCH   1   2
ATOM      2  C   UNL     1       4.175  -1.895   1.665  1.00  0.00     0.078 C 
BRANCH   2   3
ATOM      3  N   UNL     1       5.052  -2.907   2.245  1.00  0.00    -0.330 NA
ATOM      4  H   UNL     1       5.923  -2.942   1.667  1.00  0.00     0.118 HD
ATOM      5  H   UNL     1       5.342  -2.584   3.196  1.00  0.00     0.118 HD
ENDBRANCH   2   3
ENDBRANCH   1   2
BRANCH   1   6
ATOM      6  C   UNL     1       1.899  -0.735   1.940  1.00  0.00    -0.010 C 
ATOM      7  C   UNL     1       0.697  -0.627   2.895  1.00  0.00     0.002 C 
ATOM      8  C   UNL     1       1.401  -0.932   0.495  1.00  0.00     0.002 C 
ATOM      9  C   UNL     1      -0.248   0.509   2.476  1.00  0.00    -0.014 C 
ATOM     10  C   UNL     1       0.441   0.191   0.068  1.00  0.00    -0.014 C 
ATOM     11  C   UNL     1      -0.774   0.359   1.021  1.00  0.00    -0.119 C 
ATOM     12  S   UNL     1      -1.829  -1.096   0.933  1.00  0.00    -0.781 S 
BRANCH  11  13
ATOM     13  C   UNL     1      -1.616   1.563   0.562  1.00  0.00     0.019 A 
ATOM     14  C   UNL     1      -1.910   2.681   1.399  1.00  0.00     0.204 A 
ATOM     15  C   UNL     1      -2.162   1.578  -0.744  1.00  0.00     0.283 A 
ATOM     16  N   UNL     1      -2.667   3.723   0.943  1.00  0.00    -0.242 N 
ATOM     17  N   UNL     1      -2.902   2.645  -1.125  1.00  0.00     0.007 N 
ATOM     18  C   UNL     1      -3.147   3.680  -0.321  1.00  0.00     0.346 A 
ATOM     19  N   UNL     1      -3.491   2.845  -2.290  1.00  0.00    -0.055 N 
ATOM     20  C   UNL     1      -3.929   4.609  -0.974  1.00  0.00     0.180 A 
ATOM     21  C   UNL     1      -4.127   4.038  -2.230  1.00  0.00     0.364 A 
ATOM     22  H   UNL     1      -2.874   4.536   1.564  1.00  0.00     0.312 HD
ATOM     23  H   UNL     1      -3.463   2.191  -3.104  1.00  0.00     0.514 HD
ENDBRANCH  11  13
ENDBRANCH   1   6
TORSDOF 4


