MODEL 1
REMARK VINA RESULT:      -7.5      0.000      0.000
REMARK SMILES C=Cc1ccc([C@@H]2CCC[C@@]3(Cl)C=CO[C@@H]23)[nH+]c1
REMARK SMILES IDX 3 1 4 2 5 3 6 4 17 5 18 6 2 8 1 9 7 10 8 11 16 12 9 13 15 14
REMARK SMILES IDX 11 15 10 16 14 17 13 18 12 19
REMARK H PARENT 17 7
ROOT
ATOM      1  C   UNL     1      46.051 130.764  15.172  1.00  0.00     0.038 A 
ATOM      2  C   UNL     1      46.250 129.835  16.209  1.00  0.00     0.021 A 
ATOM      3  C   UNL     1      45.909 130.165  17.521  1.00  0.00     0.075 A 
ATOM      4  C   UNL     1      45.370 131.428  17.806  1.00  0.00     0.186 A 
ATOM      5  N   UNL     1      45.196 132.323  16.788  1.00  0.00    -0.214 N 
ATOM      6  C   UNL     1      45.523 132.021  15.502  1.00  0.00     0.314 A 
ATOM      7  H   UNL     1      44.805 133.272  16.981  1.00  0.00     0.453 HD
ENDROOT
BRANCH   1   8
ATOM      8  C   UNL     1      46.399 130.483  13.758  1.00  0.00     0.006 C 
ATOM      9  C   UNL     1      47.450 131.006  13.125  1.00  0.00     0.009 C 
ENDBRANCH   1   8
BRANCH   4  10
ATOM     10  C   UNL     1      45.004 131.790  19.234  1.00  0.00     0.128 C 
ATOM     11  C   UNL     1      45.943 131.103  20.245  1.00  0.00     0.019 C 
ATOM     12  C   UNL     1      43.534 131.430  19.543  1.00  0.00     0.211 C 
ATOM     13  C   UNL     1      45.616 131.462  21.713  1.00  0.00     0.003 C 
ATOM     14  O   UNL     1      42.657 132.310  18.853  1.00  0.00    -0.495 OA
ATOM     15  C   UNL     1      43.154 131.610  21.044  1.00  0.00     0.103 C 
ATOM     16  C   UNL     1      44.289 132.220  21.893  1.00  0.00     0.031 C 
ATOM     17  C   UNL     1      41.776 132.918  19.725  1.00  0.00     0.185 C 
ATOM     18  C   UNL     1      41.998 132.556  20.971  1.00  0.00     0.038 C 
ATOM     19  Cl  UNL     1      42.601 130.065  21.761  1.00  0.00    -0.111 Cl
ENDBRANCH   4  10
TORSDOF 2
ENDMDL
MODEL 2
REMARK VINA RESULT:      -7.2      1.803      2.795
REMARK SMILES C=Cc1ccc([C@@H]2CCC[C@@]3(Cl)C=CO[C@@H]23)[nH+]c1
REMARK SMILES IDX 3 1 4 2 5 3 6 4 17 5 18 6 2 8 1 9 7 10 8 11 16 12 9 13 15 14
REMARK SMILES IDX 11 15 10 16 14 17 13 18 12 19
REMARK H PARENT 17 7
ROOT
ATOM      1  C   UNL     1      46.648 130.818  14.945  1.00  0.00     0.038 A 
ATOM      2  C   UNL     1      46.012 132.014  15.321  1.00  0.00     0.021 A 
ATOM      3  C   UNL     1      45.284 132.078  16.508  1.00  0.00     0.075 A 
ATOM      4  C   UNL     1      45.183 130.945  17.328  1.00  0.00     0.186 A 
ATOM      5  N   UNL     1      45.796 129.786  16.941  1.00  0.00    -0.214 N 
ATOM      6  C   UNL     1      46.510 129.704  15.786  1.00  0.00     0.314 A 
ATOM      7  H   UNL     1      45.724 128.929  17.532  1.00  0.00     0.453 HD
ENDROOT
BRANCH   1   8
ATOM      8  C   UNL     1      47.430 130.678  13.692  1.00  0.00     0.006 C 
ATOM      9  C   UNL     1      48.248 129.658  13.427  1.00  0.00     0.009 C 
ENDBRANCH   1   8
BRANCH   4  10
ATOM     10  C   UNL     1      44.386 131.012  18.618  1.00  0.00     0.128 C 
ATOM     11  C   UNL     1      43.516 132.283  18.675  1.00  0.00     0.019 C 
ATOM     12  C   UNL     1      45.312 130.946  19.852  1.00  0.00     0.211 C 
ATOM     13  C   UNL     1      42.671 132.380  19.967  1.00  0.00     0.003 C 
ATOM     14  O   UNL     1      45.857 129.639  19.988  1.00  0.00    -0.495 OA
ATOM     15  C   UNL     1      44.569 131.193  21.200  1.00  0.00     0.103 C 
ATOM     16  C   UNL     1      43.041 131.339  21.038  1.00  0.00     0.031 C 
ATOM     17  C   UNL     1      45.602 129.123  21.243  1.00  0.00     0.185 C 
ATOM     18  C   UNL     1      44.891 129.955  21.975  1.00  0.00     0.038 C 
ATOM     19  Cl  UNL     1      45.242 132.612  22.059  1.00  0.00    -0.111 Cl
ENDBRANCH   4  10
TORSDOF 2
ENDMDL
MODEL 3
REMARK VINA RESULT:      -6.9      0.699      1.146
REMARK SMILES C=Cc1ccc([C@@H]2CCC[C@@]3(Cl)C=CO[C@@H]23)[nH+]c1
REMARK SMILES IDX 3 1 4 2 5 3 6 4 17 5 18 6 2 8 1 9 7 10 8 11 16 12 9 13 15 14
REMARK SMILES IDX 11 15 10 16 14 17 13 18 12 19
REMARK H PARENT 17 7
ROOT
ATOM      1  C   UNL     1      46.135 130.574  15.357  1.00  0.00     0.038 A 
ATOM      2  C   UNL     1      45.413 131.759  15.581  1.00  0.00     0.021 A 
ATOM      3  C   UNL     1      45.057 132.128  16.878  1.00  0.00     0.075 A 
ATOM      4  C   UNL     1      45.418 131.313  17.960  1.00  0.00     0.186 A 
ATOM      5  N   UNL     1      46.107 130.156  17.723  1.00  0.00    -0.214 N 
ATOM      6  C   UNL     1      46.462 129.779  16.465  1.00  0.00     0.314 A 
ATOM      7  H   UNL     1      46.375 129.531  18.514  1.00  0.00     0.453 HD
ENDROOT
BRANCH   1   8
ATOM      8  C   UNL     1      46.537 130.116  14.004  1.00  0.00     0.006 C 
ATOM      9  C   UNL     1      47.492 130.690  13.270  1.00  0.00     0.009 C 
ENDBRANCH   1   8
BRANCH   4  10
ATOM     10  C   UNL     1      45.026 131.711  19.372  1.00  0.00     0.128 C 
ATOM     11  C   UNL     1      45.935 131.036  20.418  1.00  0.00     0.019 C 
ATOM     12  C   UNL     1      43.546 131.374  19.658  1.00  0.00     0.211 C 
ATOM     13  C   UNL     1      45.582 131.432  21.871  1.00  0.00     0.003 C 
ATOM     14  O   UNL     1      42.693 132.248  18.929  1.00  0.00    -0.495 OA
ATOM     15  C   UNL     1      43.136 131.591  21.146  1.00  0.00     0.103 C 
ATOM     16  C   UNL     1      44.260 132.208  22.005  1.00  0.00     0.031 C 
ATOM     17  C   UNL     1      41.801 132.885  19.769  1.00  0.00     0.185 C 
ATOM     18  C   UNL     1      41.993 132.548  21.027  1.00  0.00     0.038 C 
ATOM     19  Cl  UNL     1      42.551 130.069  21.885  1.00  0.00    -0.111 Cl
ENDBRANCH   4  10
TORSDOF 2
ENDMDL
MODEL 4
REMARK VINA RESULT:      -6.8      1.621      2.515
REMARK SMILES C=Cc1ccc([C@@H]2CCC[C@@]3(Cl)C=CO[C@@H]23)[nH+]c1
REMARK SMILES IDX 3 1 4 2 5 3 6 4 17 5 18 6 2 8 1 9 7 10 8 11 16 12 9 13 15 14
REMARK SMILES IDX 11 15 10 16 14 17 13 18 12 19
REMARK H PARENT 17 7
ROOT
ATOM      1  C   UNL     1      46.574 131.274  15.214  1.00  0.00     0.038 A 
ATOM      2  C   UNL     1      46.545 130.098  15.984  1.00  0.00     0.021 A 
ATOM      3  C   UNL     1      45.797 130.048  17.160  1.00  0.00     0.075 A 
ATOM      4  C   UNL     1      45.075 131.175  17.577  1.00  0.00     0.186 A 
ATOM      5  N   UNL     1      45.126 132.315  16.825  1.00  0.00    -0.214 N 
ATOM      6  C   UNL     1      45.850 132.384  15.675  1.00  0.00     0.314 A 
ATOM      7  H   UNL     1      44.604 133.168  17.124  1.00  0.00     0.453 HD
ENDROOT
BRANCH   1   8
ATOM      8  C   UNL     1      47.355 131.400  13.959  1.00  0.00     0.006 C 
ATOM      9  C   UNL     1      47.558 130.403  13.097  1.00  0.00     0.009 C 
ENDBRANCH   1   8
BRANCH   4  10
ATOM     10  C   UNL     1      44.265 131.123  18.860  1.00  0.00     0.128 C 
ATOM     11  C   UNL     1      43.348 132.354  18.995  1.00  0.00     0.019 C 
ATOM     12  C   UNL     1      45.183 131.005  20.097  1.00  0.00     0.211 C 
ATOM     13  C   UNL     1      42.489 132.330  20.281  1.00  0.00     0.003 C 
ATOM     14  O   UNL     1      45.776 129.714  20.148  1.00  0.00    -0.495 OA
ATOM     15  C   UNL     1      44.421 131.131  21.450  1.00  0.00     0.103 C 
ATOM     16  C   UNL     1      42.889 131.232  21.282  1.00  0.00     0.031 C 
ATOM     17  C   UNL     1      45.529 129.103  21.362  1.00  0.00     0.185 C 
ATOM     18  C   UNL     1      44.781 129.855  22.142  1.00  0.00     0.038 C 
ATOM     19  Cl  UNL     1      45.033 132.512  22.412  1.00  0.00    -0.111 Cl
ENDBRANCH   4  10
TORSDOF 2
ENDMDL
MODEL 5
REMARK VINA RESULT:      -6.0      2.518      3.299
REMARK SMILES C=Cc1ccc([C@@H]2CCC[C@@]3(Cl)C=CO[C@@H]23)[nH+]c1
REMARK SMILES IDX 3 1 4 2 5 3 6 4 17 5 18 6 2 8 1 9 7 10 8 11 16 12 9 13 15 14
REMARK SMILES IDX 11 15 10 16 14 17 13 18 12 19
REMARK H PARENT 17 7
ROOT
ATOM      1  C   UNL     1      44.935 131.425  17.799  1.00  0.00     0.038 A 
ATOM      2  C   UNL     1      45.902 130.593  18.389  1.00  0.00     0.021 A 
ATOM      3  C   UNL     1      45.778 130.210  19.725  1.00  0.00     0.075 A 
ATOM      4  C   UNL     1      44.686 130.660  20.481  1.00  0.00     0.186 A 
ATOM      5  N   UNL     1      43.762 131.480  19.896  1.00  0.00    -0.214 N 
ATOM      6  C   UNL     1      43.867 131.865  18.595  1.00  0.00     0.314 A 
ATOM      7  H   UNL     1      42.948 131.833  20.445  1.00  0.00     0.453 HD
ENDROOT
BRANCH   1   8
ATOM      8  C   UNL     1      45.010 131.878  16.389  1.00  0.00     0.006 C 
ATOM      9  C   UNL     1      45.891 131.419  15.498  1.00  0.00     0.009 C 
ENDBRANCH   1   8
BRANCH   4  10
ATOM     10  C   UNL     1      44.552 130.248  21.936  1.00  0.00     0.128 C 
ATOM     11  C   UNL     1      44.987 128.784  22.147  1.00  0.00     0.019 C 
ATOM     12  C   UNL     1      43.109 130.453  22.445  1.00  0.00     0.211 C 
ATOM     13  C   UNL     1      44.885 128.331  23.622  1.00  0.00     0.003 C 
ATOM     14  O   UNL     1      42.825 131.841  22.573  1.00  0.00    -0.495 OA
ATOM     15  C   UNL     1      42.867 129.880  23.874  1.00  0.00     0.103 C 
ATOM     16  C   UNL     1      44.147 129.326  24.535  1.00  0.00     0.031 C 
ATOM     17  C   UNL     1      42.384 132.141  23.847  1.00  0.00     0.185 C 
ATOM     18  C   UNL     1      42.375 131.077  24.622  1.00  0.00     0.038 C 
ATOM     19  Cl  UNL     1      41.583 128.630  23.861  1.00  0.00    -0.111 Cl
ENDBRANCH   4  10
TORSDOF 2
ENDMDL
MODEL 6
REMARK VINA RESULT:      -5.9      2.128      3.199
REMARK SMILES C=Cc1ccc([C@@H]2CCC[C@@]3(Cl)C=CO[C@@H]23)[nH+]c1
REMARK SMILES IDX 3 1 4 2 5 3 6 4 17 5 18 6 2 8 1 9 7 10 8 11 16 12 9 13 15 14
REMARK SMILES IDX 11 15 10 16 14 17 13 18 12 19
REMARK H PARENT 17 7
ROOT
ATOM      1  C   UNL     1      45.487 131.160  16.670  1.00  0.00     0.038 A 
ATOM      2  C   UNL     1      44.202 131.710  16.818  1.00  0.00     0.021 A 
ATOM      3  C   UNL     1      43.571 131.694  18.062  1.00  0.00     0.075 A 
ATOM      4  C   UNL     1      44.220 131.123  19.166  1.00  0.00     0.186 A 
ATOM      5  N   UNL     1      45.464 130.580  19.001  1.00  0.00    -0.214 N 
ATOM      6  C   UNL     1      46.095 130.586  17.796  1.00  0.00     0.314 A 
ATOM      7  H   UNL     1      45.959 130.141  19.809  1.00  0.00     0.453 HD
ENDROOT
BRANCH   1   8
ATOM      8  C   UNL     1      46.211 131.136  15.375  1.00  0.00     0.006 C 
ATOM      9  C   UNL     1      46.433 130.033  14.659  1.00  0.00     0.009 C 
ENDBRANCH   1   8
BRANCH   4  10
ATOM     10  C   UNL     1      43.533 131.099  20.519  1.00  0.00     0.128 C 
ATOM     11  C   UNL     1      42.751 132.403  20.775  1.00  0.00     0.019 C 
ATOM     12  C   UNL     1      44.546 130.855  21.658  1.00  0.00     0.211 C 
ATOM     13  C   UNL     1      42.018 132.411  22.136  1.00  0.00     0.003 C 
ATOM     14  O   UNL     1      45.018 129.515  21.618  1.00  0.00    -0.495 OA
ATOM     15  C   UNL     1      43.929 131.002  23.082  1.00  0.00     0.103 C 
ATOM     16  C   UNL     1      42.405 131.246  23.064  1.00  0.00     0.031 C 
ATOM     17  C   UNL     1      44.830 128.886  22.833  1.00  0.00     0.185 C 
ATOM     18  C   UNL     1      44.232 129.675  23.701  1.00  0.00     0.038 C 
ATOM     19  Cl  UNL     1      44.755 132.286  24.017  1.00  0.00    -0.111 Cl
ENDBRANCH   4  10
TORSDOF 2
ENDMDL
MODEL 7
REMARK VINA RESULT:      -5.8      1.884      2.774
REMARK SMILES C=Cc1ccc([C@@H]2CCC[C@@]3(Cl)C=CO[C@@H]23)[nH+]c1
REMARK SMILES IDX 3 1 4 2 5 3 6 4 17 5 18 6 2 8 1 9 7 10 8 11 16 12 9 13 15 14
REMARK SMILES IDX 11 15 10 16 14 17 13 18 12 19
REMARK H PARENT 17 7
ROOT
ATOM      1  C   UNL     1      45.151 131.304  16.005  1.00  0.00     0.038 A 
ATOM      2  C   UNL     1      45.914 130.862  17.100  1.00  0.00     0.021 A 
ATOM      3  C   UNL     1      45.364 130.856  18.381  1.00  0.00     0.075 A 
ATOM      4  C   UNL     1      44.047 131.294  18.578  1.00  0.00     0.186 A 
ATOM      5  N   UNL     1      43.323 131.734  17.504  1.00  0.00    -0.214 N 
ATOM      6  C   UNL     1      43.843 131.748  16.247  1.00  0.00     0.314 A 
ATOM      7  H   UNL     1      42.345 132.074  17.632  1.00  0.00     0.453 HD
ENDROOT
BRANCH   1   8
ATOM      8  C   UNL     1      45.676 131.346  14.618  1.00  0.00     0.006 C 
ATOM      9  C   UNL     1      46.972 131.340  14.305  1.00  0.00     0.009 C 
ENDBRANCH   1   8
BRANCH   4  10
ATOM     10  C   UNL     1      43.449 131.293  19.973  1.00  0.00     0.128 C 
ATOM     11  C   UNL     1      42.673 132.596  20.252  1.00  0.00     0.019 C 
ATOM     12  C   UNL     1      44.537 131.081  21.048  1.00  0.00     0.211 C 
ATOM     13  C   UNL     1      42.030 132.627  21.658  1.00  0.00     0.003 C 
ATOM     14  O   UNL     1      45.017 129.744  21.005  1.00  0.00    -0.495 OA
ATOM     15  C   UNL     1      44.012 131.253  22.505  1.00  0.00     0.103 C 
ATOM     16  C   UNL     1      42.487 131.485  22.582  1.00  0.00     0.031 C 
ATOM     17  C   UNL     1      44.914 129.139  22.242  1.00  0.00     0.185 C 
ATOM     18  C   UNL     1      44.366 129.941  23.131  1.00  0.00     0.038 C 
ATOM     19  Cl  UNL     1      44.884 132.563  23.359  1.00  0.00    -0.111 Cl
ENDBRANCH   4  10
TORSDOF 2
ENDMDL
MODEL 8
REMARK VINA RESULT:      -5.5      2.571      6.112
REMARK SMILES C=Cc1ccc([C@@H]2CCC[C@@]3(Cl)C=CO[C@@H]23)[nH+]c1
REMARK SMILES IDX 3 1 4 2 5 3 6 4 17 5 18 6 2 8 1 9 7 10 8 11 16 12 9 13 15 14
REMARK SMILES IDX 11 15 10 16 14 17 13 18 12 19
REMARK H PARENT 17 7
ROOT
ATOM      1  C   UNL     1      43.855 131.718  21.245  1.00  0.00     0.038 A 
ATOM      2  C   UNL     1      45.065 131.022  21.070  1.00  0.00     0.021 A 
ATOM      3  C   UNL     1      45.458 130.608  19.799  1.00  0.00     0.075 A 
ATOM      4  C   UNL     1      44.643 130.882  18.691  1.00  0.00     0.186 A 
ATOM      5  N   UNL     1      43.463 131.547  18.880  1.00  0.00    -0.214 N 
ATOM      6  C   UNL     1      43.062 131.959  20.113  1.00  0.00     0.314 A 
ATOM      7  H   UNL     1      42.838 131.751  18.070  1.00  0.00     0.453 HD
ENDROOT
BRANCH   1   8
ATOM      8  C   UNL     1      43.372 132.180  22.569  1.00  0.00     0.006 C 
ATOM      9  C   UNL     1      43.325 131.414  23.660  1.00  0.00     0.009 C 
ENDBRANCH   1   8
BRANCH   4  10
ATOM     10  C   UNL     1      45.068 130.426  17.307  1.00  0.00     0.128 C 
ATOM     11  C   UNL     1      46.508 129.876  17.314  1.00  0.00     0.019 C 
ATOM     12  C   UNL     1      44.940 131.570  16.277  1.00  0.00     0.211 C 
ATOM     13  C   UNL     1      46.973 129.381  15.925  1.00  0.00     0.003 C 
ATOM     14  O   UNL     1      43.570 131.846  16.016  1.00  0.00    -0.495 OA
ATOM     15  C   UNL     1      45.532 131.216  14.880  1.00  0.00     0.103 C 
ATOM     16  C   UNL     1      46.021 129.756  14.775  1.00  0.00     0.031 C 
ATOM     17  C   UNL     1      43.298 131.776  14.664  1.00  0.00     0.185 C 
ATOM     18  C   UNL     1      44.365 131.436  13.971  1.00  0.00     0.038 C 
ATOM     19  Cl  UNL     1      46.846 132.346  14.428  1.00  0.00    -0.111 Cl
ENDBRANCH   4  10
TORSDOF 2
ENDMDL
MODEL 9
REMARK VINA RESULT:      -5.5      2.275      3.436
REMARK SMILES C=Cc1ccc([C@@H]2CCC[C@@]3(Cl)C=CO[C@@H]23)[nH+]c1
REMARK SMILES IDX 3 1 4 2 5 3 6 4 17 5 18 6 2 8 1 9 7 10 8 11 16 12 9 13 15 14
REMARK SMILES IDX 11 15 10 16 14 17 13 18 12 19
REMARK H PARENT 17 7
ROOT
ATOM      1  C   UNL     1      44.767 131.542  17.034  1.00  0.00     0.038 A 
ATOM      2  C   UNL     1      45.626 131.178  18.085  1.00  0.00     0.021 A 
ATOM      3  C   UNL     1      45.132 131.050  19.383  1.00  0.00     0.075 A 
ATOM      4  C   UNL     1      43.775 131.289  19.640  1.00  0.00     0.186 A 
ATOM      5  N   UNL     1      42.955 131.656  18.608  1.00  0.00    -0.214 N 
ATOM      6  C   UNL     1      43.419 131.786  17.336  1.00  0.00     0.314 A 
ATOM      7  H   UNL     1      41.944 131.848  18.781  1.00  0.00     0.453 HD
ENDROOT
BRANCH   1   8
ATOM      8  C   UNL     1      45.227 131.705  15.633  1.00  0.00     0.006 C 
ATOM      9  C   UNL     1      45.368 130.701  14.767  1.00  0.00     0.009 C 
ENDBRANCH   1   8
BRANCH   4  10
ATOM     10  C   UNL     1      43.237 131.155  21.053  1.00  0.00     0.128 C 
ATOM     11  C   UNL     1      42.469 132.421  21.483  1.00  0.00     0.019 C 
ATOM     12  C   UNL     1      44.370 130.854  22.057  1.00  0.00     0.211 C 
ATOM     13  C   UNL     1      41.886 132.319  22.912  1.00  0.00     0.003 C 
ATOM     14  O   UNL     1      44.853 129.530  21.871  1.00  0.00    -0.495 OA
ATOM     15  C   UNL     1      43.907 130.887  23.545  1.00  0.00     0.103 C 
ATOM     16  C   UNL     1      42.387 131.100  23.707  1.00  0.00     0.031 C 
ATOM     17  C   UNL     1      44.805 128.813  23.051  1.00  0.00     0.185 C 
ATOM     18  C   UNL     1      44.293 129.527  24.032  1.00  0.00     0.038 C 
ATOM     19  Cl  UNL     1      44.811 132.120  24.477  1.00  0.00    -0.111 Cl
ENDBRANCH   4  10
TORSDOF 2
ENDMDL


