MODEL 1
REMARK VINA RESULT:      -8.4      0.000      0.000
REMARK SMILES O=C=Nc1c(/C(O)=N/Cc2ccc[nH]2)ccc2cc[nH]c12
REMARK SMILES IDX 6 1 7 2 8 4 9 5 10 6 11 7 14 8 12 9 13 10 5 12 15 13 4 14
REMARK SMILES IDX 16 15 21 16 17 17 20 18 18 19 19 20 3 22 2 23 1 24
REMARK H PARENT 7 3 14 11 20 21
ROOT
ATOM      1  C   UNL     1      44.501 131.701  17.460  1.00  0.00     0.216 C 
ENDROOT
BRANCH   1   2
ATOM      2  O   UNL     1      43.261 131.835  16.827  1.00  0.00    -0.493 OA
ATOM      3  H   UNL     1      43.151 131.910  15.825  1.00  0.00     0.295 HD
ENDBRANCH   1   2
BRANCH   1   4
ATOM      4  N   UNL     1      45.615 131.955  16.832  1.00  0.00    -0.245 NA
BRANCH   4   5
ATOM      5  C   UNL     1      45.763 132.195  15.400  1.00  0.00     0.199 C 
BRANCH   5   6
ATOM      6  C   UNL     1      46.635 131.147  14.774  1.00  0.00     0.037 A 
ATOM      7  C   UNL     1      47.147 131.190  13.492  1.00  0.00     0.025 A 
ATOM      8  N   UNL     1      47.000 130.006  15.385  1.00  0.00    -0.363 N 
ATOM      9  C   UNL     1      47.865 130.024  13.325  1.00  0.00     0.020 A 
ATOM     10  C   UNL     1      47.754 129.319  14.508  1.00  0.00     0.082 A 
ATOM     11  H   UNL     1      46.749 129.705  16.354  1.00  0.00     0.166 HD
ENDBRANCH   5   6
ENDBRANCH   4   5
ENDBRANCH   1   4
BRANCH   1  12
ATOM     12  C   UNL     1      44.530 131.282  18.885  1.00  0.00     0.065 A 
ATOM     13  C   UNL     1      45.636 130.512  19.332  1.00  0.00     0.017 A 
ATOM     14  C   UNL     1      43.489 131.620  19.802  1.00  0.00     0.113 A 
ATOM     15  C   UNL     1      45.727 130.073  20.658  1.00  0.00     0.011 A 
ATOM     16  C   UNL     1      43.629 131.176  21.137  1.00  0.00     0.073 A 
ATOM     17  C   UNL     1      44.708 130.425  21.532  1.00  0.00     0.002 A 
ATOM     18  N   UNL     1      42.839 131.430  22.202  1.00  0.00    -0.359 N 
ATOM     19  C   UNL     1      44.585 130.176  22.881  1.00  0.00     0.028 A 
ATOM     20  C   UNL     1      43.416 130.817  23.259  1.00  0.00     0.083 A 
ATOM     21  H   UNL     1      41.977 132.011  22.249  1.00  0.00     0.166 HD
BRANCH  14  22
ATOM     22  N   UNL     1      42.384 132.429  19.358  1.00  0.00    -0.165 NA
BRANCH  22  23
ATOM     23  C   UNL     1      41.570 133.035  20.127  1.00  0.00     0.240 C 
ATOM     24  O   UNL     1      40.780 133.620  20.877  1.00  0.00    -0.211 OA
ENDBRANCH  22  23
ENDBRANCH  14  22
ENDBRANCH   1  12
TORSDOF 7
ENDMDL
MODEL 2
REMARK VINA RESULT:      -7.8      1.006      1.090
REMARK SMILES O=C=Nc1c(/C(O)=N/Cc2ccc[nH]2)ccc2cc[nH]c12
REMARK SMILES IDX 6 1 7 2 8 4 9 5 10 6 11 7 14 8 12 9 13 10 5 12 15 13 4 14
REMARK SMILES IDX 16 15 21 16 17 17 20 18 18 19 19 20 3 22 2 23 1 24
REMARK H PARENT 7 3 14 11 20 21
ROOT
ATOM      1  C   UNL     1      44.851 131.576  17.194  1.00  0.00     0.216 C 
ENDROOT
BRANCH   1   2
ATOM      2  O   UNL     1      45.406 132.813  16.850  1.00  0.00    -0.493 OA
ATOM      3  H   UNL     1      45.147 133.330  16.021  1.00  0.00     0.295 HD
ENDBRANCH   1   2
BRANCH   1   4
ATOM      4  N   UNL     1      44.387 130.763  16.286  1.00  0.00    -0.245 NA
BRANCH   4   5
ATOM      5  C   UNL     1      45.050 129.563  15.783  1.00  0.00     0.199 C 
BRANCH   5   6
ATOM      6  C   UNL     1      46.121 129.924  14.796  1.00  0.00     0.037 A 
ATOM      7  C   UNL     1      46.056 130.960  13.885  1.00  0.00     0.025 A 
ATOM      8  N   UNL     1      47.276 129.249  14.656  1.00  0.00    -0.363 N 
ATOM      9  C   UNL     1      47.234 130.916  13.168  1.00  0.00     0.020 A 
ATOM     10  C   UNL     1      47.961 129.853  13.667  1.00  0.00     0.082 A 
ATOM     11  H   UNL     1      47.587 128.417  15.205  1.00  0.00     0.166 HD
ENDBRANCH   5   6
ENDBRANCH   4   5
ENDBRANCH   1   4
BRANCH   1  12
ATOM     12  C   UNL     1      44.815 131.185  18.627  1.00  0.00     0.065 A 
ATOM     13  C   UNL     1      45.904 130.434  19.142  1.00  0.00     0.017 A 
ATOM     14  C   UNL     1      43.728 131.534  19.486  1.00  0.00     0.113 A 
ATOM     15  C   UNL     1      45.933 130.022  20.480  1.00  0.00     0.011 A 
ATOM     16  C   UNL     1      43.808 131.118  20.835  1.00  0.00     0.073 A 
ATOM     17  C   UNL     1      44.872 130.384  21.297  1.00  0.00     0.002 A 
ATOM     18  N   UNL     1      42.966 131.387  21.856  1.00  0.00    -0.359 N 
ATOM     19  C   UNL     1      44.686 130.161  22.643  1.00  0.00     0.028 A 
ATOM     20  C   UNL     1      43.495 130.800  22.952  1.00  0.00     0.083 A 
ATOM     21  H   UNL     1      42.098 131.962  21.849  1.00  0.00     0.166 HD
BRANCH  14  22
ATOM     22  N   UNL     1      42.640 132.324  18.973  1.00  0.00    -0.165 NA
BRANCH  22  23
ATOM     23  C   UNL     1      41.752 132.890  19.688  1.00  0.00     0.240 C 
ATOM     24  O   UNL     1      40.888 133.444  20.379  1.00  0.00    -0.211 OA
ENDBRANCH  22  23
ENDBRANCH  14  22
ENDBRANCH   1  12
TORSDOF 7
ENDMDL
MODEL 3
REMARK VINA RESULT:      -7.7      1.852      2.096
REMARK SMILES O=C=Nc1c(/C(O)=N/Cc2ccc[nH]2)ccc2cc[nH]c12
REMARK SMILES IDX 6 1 7 2 8 4 9 5 10 6 11 7 14 8 12 9 13 10 5 12 15 13 4 14
REMARK SMILES IDX 16 15 21 16 17 17 20 18 18 19 19 20 3 22 2 23 1 24
REMARK H PARENT 7 3 14 11 20 21
ROOT
ATOM      1  C   UNL     1      45.583 131.075  17.388  1.00  0.00     0.216 C 
ENDROOT
BRANCH   1   2
ATOM      2  O   UNL     1      45.641 132.260  16.648  1.00  0.00    -0.493 OA
ATOM      3  H   UNL     1      46.339 132.976  16.795  1.00  0.00     0.295 HD
ENDBRANCH   1   2
BRANCH   1   4
ATOM      4  N   UNL     1      45.972 129.938  16.882  1.00  0.00    -0.245 NA
BRANCH   4   5
ATOM      5  C   UNL     1      45.613 129.409  15.569  1.00  0.00     0.199 C 
BRANCH   5   6
ATOM      6  C   UNL     1      46.653 129.772  14.550  1.00  0.00     0.037 A 
ATOM      7  C   UNL     1      46.614 130.878  13.724  1.00  0.00     0.025 A 
ATOM      8  N   UNL     1      47.746 129.032  14.292  1.00  0.00    -0.363 N 
ATOM      9  C   UNL     1      47.745 130.809  12.937  1.00  0.00     0.020 A 
ATOM     10  C   UNL     1      48.419 129.663  13.312  1.00  0.00     0.082 A 
ATOM     11  H   UNL     1      48.025 128.140  14.758  1.00  0.00     0.166 HD
ENDBRANCH   5   6
ENDBRANCH   4   5
ENDBRANCH   1   4
BRANCH   1  12
ATOM     12  C   UNL     1      45.084 131.133  18.786  1.00  0.00     0.065 A 
ATOM     13  C   UNL     1      45.945 130.684  19.822  1.00  0.00     0.017 A 
ATOM     14  C   UNL     1      43.780 131.615  19.112  1.00  0.00     0.113 A 
ATOM     15  C   UNL     1      45.538 130.700  21.162  1.00  0.00     0.011 A 
ATOM     16  C   UNL     1      43.416 131.635  20.478  1.00  0.00     0.073 A 
ATOM     17  C   UNL     1      44.271 131.184  21.453  1.00  0.00     0.002 A 
ATOM     18  N   UNL     1      42.291 132.116  21.048  1.00  0.00    -0.359 N 
ATOM     19  C   UNL     1      43.659 131.361  22.673  1.00  0.00     0.028 A 
ATOM     20  C   UNL     1      42.435 131.942  22.381  1.00  0.00     0.083 A 
ATOM     21  H   UNL     1      41.474 132.572  20.593  1.00  0.00     0.166 HD
BRANCH  14  22
ATOM     22  N   UNL     1      42.919 132.102  18.066  1.00  0.00    -0.165 NA
BRANCH  22  23
ATOM     23  C   UNL     1      43.070 131.858  16.826  1.00  0.00     0.240 C 
ATOM     24  O   UNL     1      43.213 131.624  15.620  1.00  0.00    -0.211 OA
ENDBRANCH  22  23
ENDBRANCH  14  22
ENDBRANCH   1  12
TORSDOF 7
ENDMDL
MODEL 4
REMARK VINA RESULT:      -7.6      0.746      1.015
REMARK SMILES O=C=Nc1c(/C(O)=N/Cc2ccc[nH]2)ccc2cc[nH]c12
REMARK SMILES IDX 6 1 7 2 8 4 9 5 10 6 11 7 14 8 12 9 13 10 5 12 15 13 4 14
REMARK SMILES IDX 16 15 21 16 17 17 20 18 18 19 19 20 3 22 2 23 1 24
REMARK H PARENT 7 3 14 11 20 21
ROOT
ATOM      1  C   UNL     1      44.656 131.465  17.672  1.00  0.00     0.216 C 
ENDROOT
BRANCH   1   2
ATOM      2  O   UNL     1      43.610 132.217  17.127  1.00  0.00    -0.493 OA
ATOM      3  H   UNL     1      43.102 132.923  17.642  1.00  0.00     0.295 HD
ENDBRANCH   1   2
BRANCH   1   4
ATOM      4  N   UNL     1      45.660 131.069  16.941  1.00  0.00    -0.245 NA
BRANCH   4   5
ATOM      5  C   UNL     1      45.655 129.954  15.998  1.00  0.00     0.199 C 
BRANCH   5   6
ATOM      6  C   UNL     1      46.576 130.230  14.847  1.00  0.00     0.037 A 
ATOM      7  C   UNL     1      47.534 129.361  14.360  1.00  0.00     0.025 A 
ATOM      8  N   UNL     1      46.604 131.388  14.163  1.00  0.00    -0.363 N 
ATOM      9  C   UNL     1      48.162 130.022  13.324  1.00  0.00     0.020 A 
ATOM     10  C   UNL     1      47.566 131.265  13.230  1.00  0.00     0.082 A 
ATOM     11  H   UNL     1      45.999 132.224  14.320  1.00  0.00     0.166 HD
ENDBRANCH   5   6
ENDBRANCH   4   5
ENDBRANCH   1   4
BRANCH   1  12
ATOM     12  C   UNL     1      44.617 131.138  19.120  1.00  0.00     0.065 A 
ATOM     13  C   UNL     1      45.682 130.371  19.661  1.00  0.00     0.017 A 
ATOM     14  C   UNL     1      43.551 131.562  19.970  1.00  0.00     0.113 A 
ATOM     15  C   UNL     1      45.708 130.016  21.015  1.00  0.00     0.011 A 
ATOM     16  C   UNL     1      43.625 131.202  21.336  1.00  0.00     0.073 A 
ATOM     17  C   UNL     1      44.666 130.450  21.822  1.00  0.00     0.002 A 
ATOM     18  N   UNL     1      42.802 131.545  22.349  1.00  0.00    -0.359 N 
ATOM     19  C   UNL     1      44.483 130.292  23.177  1.00  0.00     0.028 A 
ATOM     20  C   UNL     1      43.318 130.987  23.466  1.00  0.00     0.083 A 
ATOM     21  H   UNL     1      41.955 132.150  22.323  1.00  0.00     0.166 HD
BRANCH  14  22
ATOM     22  N   UNL     1      42.487 132.368  19.431  1.00  0.00    -0.165 NA
BRANCH  22  23
ATOM     23  C   UNL     1      41.634 133.008  20.126  1.00  0.00     0.240 C 
ATOM     24  O   UNL     1      40.803 133.632  20.797  1.00  0.00    -0.211 OA
ENDBRANCH  22  23
ENDBRANCH  14  22
ENDBRANCH   1  12
TORSDOF 7
ENDMDL
MODEL 5
REMARK VINA RESULT:      -7.5      2.160      2.949
REMARK SMILES O=C=Nc1c(/C(O)=N/Cc2ccc[nH]2)ccc2cc[nH]c12
REMARK SMILES IDX 6 1 7 2 8 4 9 5 10 6 11 7 14 8 12 9 13 10 5 12 15 13 4 14
REMARK SMILES IDX 16 15 21 16 17 17 20 18 18 19 19 20 3 22 2 23 1 24
REMARK H PARENT 7 3 14 11 20 21
ROOT
ATOM      1  C   UNL     1      45.146 131.037  17.311  1.00  0.00     0.216 C 
ENDROOT
BRANCH   1   2
ATOM      2  O   UNL     1      46.047 129.993  17.544  1.00  0.00    -0.493 OA
ATOM      3  H   UNL     1      45.826 129.178  18.101  1.00  0.00     0.295 HD
ENDBRANCH   1   2
BRANCH   1   4
ATOM      4  N   UNL     1      45.083 131.635  16.154  1.00  0.00    -0.245 NA
BRANCH   4   5
ATOM      5  C   UNL     1      44.891 130.988  14.858  1.00  0.00     0.199 C 
BRANCH   5   6
ATOM      6  C   UNL     1      46.202 130.511  14.307  1.00  0.00     0.037 A 
ATOM      7  C   UNL     1      46.939 131.147  13.326  1.00  0.00     0.025 A 
ATOM      8  N   UNL     1      46.809 129.371  14.683  1.00  0.00    -0.363 N 
ATOM      9  C   UNL     1      48.050 130.358  13.108  1.00  0.00     0.020 A 
ATOM     10  C   UNL     1      47.939 129.275  13.958  1.00  0.00     0.082 A 
ATOM     11  H   UNL     1      46.474 128.688  15.399  1.00  0.00     0.166 HD
ENDBRANCH   5   6
ENDBRANCH   4   5
ENDBRANCH   1   4
BRANCH   1  12
ATOM     12  C   UNL     1      44.234 131.448  18.409  1.00  0.00     0.065 A 
ATOM     13  C   UNL     1      43.006 132.069  18.061  1.00  0.00     0.017 A 
ATOM     14  C   UNL     1      44.556 131.245  19.786  1.00  0.00     0.113 A 
ATOM     15  C   UNL     1      42.101 132.491  19.043  1.00  0.00     0.011 A 
ATOM     16  C   UNL     1      43.607 131.666  20.745  1.00  0.00     0.073 A 
ATOM     17  C   UNL     1      42.433 132.272  20.372  1.00  0.00     0.002 A 
ATOM     18  N   UNL     1      43.632 131.513  22.086  1.00  0.00    -0.359 N 
ATOM     19  C   UNL     1      41.706 132.533  21.512  1.00  0.00     0.028 A 
ATOM     20  C   UNL     1      42.481 132.046  22.553  1.00  0.00     0.083 A 
ATOM     21  H   UNL     1      44.353 131.048  22.675  1.00  0.00     0.166 HD
BRANCH  14  22
ATOM     22  N   UNL     1      45.786 130.585  20.139  1.00  0.00    -0.165 NA
BRANCH  22  23
ATOM     23  C   UNL     1      45.867 129.511  20.818  1.00  0.00     0.240 C 
ATOM     24  O   UNL     1      45.946 128.465  21.473  1.00  0.00    -0.211 OA
ENDBRANCH  22  23
ENDBRANCH  14  22
ENDBRANCH   1  12
TORSDOF 7
ENDMDL
MODEL 6
REMARK VINA RESULT:      -7.2      1.724      2.271
REMARK SMILES O=C=Nc1c(/C(O)=N/Cc2ccc[nH]2)ccc2cc[nH]c12
REMARK SMILES IDX 6 1 7 2 8 4 9 5 10 6 11 7 14 8 12 9 13 10 5 12 15 13 4 14
REMARK SMILES IDX 16 15 21 16 17 17 20 18 18 19 19 20 3 22 2 23 1 24
REMARK H PARENT 7 3 14 11 20 21
ROOT
ATOM      1  C   UNL     1      45.180 131.441  19.983  1.00  0.00     0.216 C 
ENDROOT
BRANCH   1   2
ATOM      2  O   UNL     1      45.569 132.754  20.266  1.00  0.00    -0.493 OA
ATOM      3  H   UNL     1      45.110 133.568  19.880  1.00  0.00     0.295 HD
ENDBRANCH   1   2
BRANCH   1   4
ATOM      4  N   UNL     1      45.321 130.932  18.791  1.00  0.00    -0.245 NA
BRANCH   4   5
ATOM      5  C   UNL     1      44.962 131.576  17.530  1.00  0.00     0.199 C 
BRANCH   5   6
ATOM      6  C   UNL     1      45.809 131.053  16.408  1.00  0.00     0.037 A 
ATOM      7  C   UNL     1      45.981 131.663  15.181  1.00  0.00     0.025 A 
ATOM      8  N   UNL     1      46.486 129.891  16.452  1.00  0.00    -0.363 N 
ATOM      9  C   UNL     1      46.811 130.835  14.453  1.00  0.00     0.020 A 
ATOM     10  C   UNL     1      47.102 129.755  15.264  1.00  0.00     0.082 A 
ATOM     11  H   UNL     1      46.528 129.219  17.251  1.00  0.00     0.166 HD
ENDBRANCH   5   6
ENDBRANCH   4   5
ENDBRANCH   1   4
BRANCH   1  12
ATOM     12  C   UNL     1      44.616 130.614  21.081  1.00  0.00     0.065 A 
ATOM     13  C   UNL     1      45.310 129.433  21.452  1.00  0.00     0.017 A 
ATOM     14  C   UNL     1      43.408 130.965  21.758  1.00  0.00     0.113 A 
ATOM     15  C   UNL     1      44.832 128.599  22.471  1.00  0.00     0.011 A 
ATOM     16  C   UNL     1      42.972 130.109  22.795  1.00  0.00     0.073 A 
ATOM     17  C   UNL     1      43.664 128.969  23.121  1.00  0.00     0.002 A 
ATOM     18  N   UNL     1      41.924 130.259  23.633  1.00  0.00    -0.359 N 
ATOM     19  C   UNL     1      43.022 128.368  24.180  1.00  0.00     0.028 A 
ATOM     20  C   UNL     1      41.950 129.198  24.470  1.00  0.00     0.083 A 
ATOM     21  H   UNL     1      41.238 131.040  23.685  1.00  0.00     0.166 HD
BRANCH  14  22
ATOM     22  N   UNL     1      42.722 132.180  21.405  1.00  0.00    -0.165 NA
BRANCH  22  23
ATOM     23  C   UNL     1      42.213 132.424  20.264  1.00  0.00     0.240 C 
ATOM     24  O   UNL     1      41.715 132.661  19.157  1.00  0.00    -0.211 OA
ENDBRANCH  22  23
ENDBRANCH  14  22
ENDBRANCH   1  12
TORSDOF 7
ENDMDL
MODEL 7
REMARK VINA RESULT:      -7.1      2.184      2.866
REMARK SMILES O=C=Nc1c(/C(O)=N/Cc2ccc[nH]2)ccc2cc[nH]c12
REMARK SMILES IDX 6 1 7 2 8 4 9 5 10 6 11 7 14 8 12 9 13 10 5 12 15 13 4 14
REMARK SMILES IDX 16 15 21 16 17 17 20 18 18 19 19 20 3 22 2 23 1 24
REMARK H PARENT 7 3 14 11 20 21
ROOT
ATOM      1  C   UNL     1      45.458 131.143  17.512  1.00  0.00     0.216 C 
ENDROOT
BRANCH   1   2
ATOM      2  O   UNL     1      46.212 129.976  17.673  1.00  0.00    -0.493 OA
ATOM      3  H   UNL     1      46.876 129.839  18.423  1.00  0.00     0.295 HD
ENDBRANCH   1   2
BRANCH   1   4
ATOM      4  N   UNL     1      45.610 131.911  16.469  1.00  0.00    -0.245 NA
BRANCH   4   5
ATOM      5  C   UNL     1      45.304 131.558  15.085  1.00  0.00     0.199 C 
BRANCH   5   6
ATOM      6  C   UNL     1      46.454 130.825  14.460  1.00  0.00     0.037 A 
ATOM      7  C   UNL     1      47.174 131.251  13.360  1.00  0.00     0.025 A 
ATOM      8  N   UNL     1      46.906 129.630  14.881  1.00  0.00    -0.363 N 
ATOM      9  C   UNL     1      48.113 130.271  13.113  1.00  0.00     0.020 A 
ATOM     10  C   UNL     1      47.921 129.290  14.066  1.00  0.00     0.082 A 
ATOM     11  H   UNL     1      46.544 129.070  15.685  1.00  0.00     0.166 HD
ENDBRANCH   5   6
ENDBRANCH   4   5
ENDBRANCH   1   4
BRANCH   1  12
ATOM     12  C   UNL     1      44.453 131.490  18.549  1.00  0.00     0.065 A 
ATOM     13  C   UNL     1      43.134 131.798  18.125  1.00  0.00     0.017 A 
ATOM     14  C   UNL     1      44.774 131.528  19.940  1.00  0.00     0.113 A 
ATOM     15  C   UNL     1      42.137 132.144  19.045  1.00  0.00     0.011 A 
ATOM     16  C   UNL     1      43.734 131.860  20.839  1.00  0.00     0.073 A 
ATOM     17  C   UNL     1      42.472 132.162  20.392  1.00  0.00     0.002 A 
ATOM     18  N   UNL     1      43.755 131.882  22.188  1.00  0.00    -0.359 N 
ATOM     19  C   UNL     1      41.677 132.406  21.489  1.00  0.00     0.028 A 
ATOM     20  C   UNL     1      42.508 132.221  22.583  1.00  0.00     0.083 A 
ATOM     21  H   UNL     1      44.540 131.651  22.831  1.00  0.00     0.166 HD
BRANCH  14  22
ATOM     22  N   UNL     1      46.103 131.183  20.374  1.00  0.00    -0.165 NA
BRANCH  22  23
ATOM     23  C   UNL     1      46.918 131.986  20.930  1.00  0.00     0.240 C 
ATOM     24  O   UNL     1      47.713 132.768  21.467  1.00  0.00    -0.211 OA
ENDBRANCH  22  23
ENDBRANCH  14  22
ENDBRANCH   1  12
TORSDOF 7
ENDMDL
MODEL 8
REMARK VINA RESULT:      -7.1      2.133      2.906
REMARK SMILES O=C=Nc1c(/C(O)=N/Cc2ccc[nH]2)ccc2cc[nH]c12
REMARK SMILES IDX 6 1 7 2 8 4 9 5 10 6 11 7 14 8 12 9 13 10 5 12 15 13 4 14
REMARK SMILES IDX 16 15 21 16 17 17 20 18 18 19 19 20 3 22 2 23 1 24
REMARK H PARENT 7 3 14 11 20 21
ROOT
ATOM      1  C   UNL     1      45.228 131.417  17.265  1.00  0.00     0.216 C 
ENDROOT
BRANCH   1   2
ATOM      2  O   UNL     1      45.574 132.531  16.492  1.00  0.00    -0.493 OA
ATOM      3  H   UNL     1      46.154 133.287  16.831  1.00  0.00     0.295 HD
ENDBRANCH   1   2
BRANCH   1   4
ATOM      4  N   UNL     1      45.677 130.227  16.980  1.00  0.00    -0.245 NA
BRANCH   4   5
ATOM      5  C   UNL     1      45.435 129.486  15.744  1.00  0.00     0.199 C 
BRANCH   5   6
ATOM      6  C   UNL     1      46.470 129.828  14.712  1.00  0.00     0.037 A 
ATOM      7  C   UNL     1      46.408 130.895  13.837  1.00  0.00     0.025 A 
ATOM      8  N   UNL     1      47.582 129.104  14.491  1.00  0.00    -0.363 N 
ATOM      9  C   UNL     1      47.543 130.817  13.056  1.00  0.00     0.020 A 
ATOM     10  C   UNL     1      48.243 129.706  13.485  1.00  0.00     0.082 A 
ATOM     11  H   UNL     1      47.881 128.242  14.998  1.00  0.00     0.166 HD
ENDBRANCH   5   6
ENDBRANCH   4   5
ENDBRANCH   1   4
BRANCH   1  12
ATOM     12  C   UNL     1      44.347 131.615  18.444  1.00  0.00     0.065 A 
ATOM     13  C   UNL     1      42.972 131.881  18.214  1.00  0.00     0.017 A 
ATOM     14  C   UNL     1      44.839 131.554  19.784  1.00  0.00     0.113 A 
ATOM     15  C   UNL     1      42.084 132.088  19.277  1.00  0.00     0.011 A 
ATOM     16  C   UNL     1      43.906 131.747  20.828  1.00  0.00     0.073 A 
ATOM     17  C   UNL     1      42.584 132.011  20.568  1.00  0.00     0.002 A 
ATOM     18  N   UNL     1      44.096 131.655  22.162  1.00  0.00    -0.359 N 
ATOM     19  C   UNL     1      41.924 132.114  21.772  1.00  0.00     0.028 A 
ATOM     20  C   UNL     1      42.895 131.886  22.735  1.00  0.00     0.083 A 
ATOM     21  H   UNL     1      44.967 131.416  22.681  1.00  0.00     0.166 HD
BRANCH  14  22
ATOM     22  N   UNL     1      46.227 131.252  20.019  1.00  0.00    -0.165 NA
BRANCH  22  23
ATOM     23  C   UNL     1      47.013 131.952  20.733  1.00  0.00     0.240 C 
ATOM     24  O   UNL     1      47.774 132.637  21.428  1.00  0.00    -0.211 OA
ENDBRANCH  22  23
ENDBRANCH  14  22
ENDBRANCH   1  12
TORSDOF 7
ENDMDL
MODEL 9
REMARK VINA RESULT:      -6.8      1.844      2.891
REMARK SMILES O=C=Nc1c(/C(O)=N/Cc2ccc[nH]2)ccc2cc[nH]c12
REMARK SMILES IDX 6 1 7 2 8 4 9 5 10 6 11 7 14 8 12 9 13 10 5 12 15 13 4 14
REMARK SMILES IDX 16 15 21 16 17 17 20 18 18 19 19 20 3 22 2 23 1 24
REMARK H PARENT 7 3 14 11 20 21
ROOT
ATOM      1  C   UNL     1      44.262 131.534  17.211  1.00  0.00     0.216 C 
ENDROOT
BRANCH   1   2
ATOM      2  O   UNL     1      43.532 131.870  16.066  1.00  0.00    -0.493 OA
ATOM      3  H   UNL     1      42.853 131.256  15.637  1.00  0.00     0.295 HD
ENDBRANCH   1   2
BRANCH   1   4
ATOM      4  N   UNL     1      45.464 131.036  17.129  1.00  0.00    -0.245 NA
BRANCH   4   5
ATOM      5  C   UNL     1      45.843 129.804  16.444  1.00  0.00     0.199 C 
BRANCH   5   6
ATOM      6  C   UNL     1      46.632 130.109  15.204  1.00  0.00     0.037 A 
ATOM      7  C   UNL     1      46.580 131.290  14.491  1.00  0.00     0.025 A 
ATOM      8  N   UNL     1      47.473 129.241  14.612  1.00  0.00    -0.363 N 
ATOM      9  C   UNL     1      47.438 131.132  13.422  1.00  0.00     0.020 A 
ATOM     10  C   UNL     1      47.970 129.862  13.527  1.00  0.00     0.082 A 
ATOM     11  H   UNL     1      47.699 128.272  14.928  1.00  0.00     0.166 HD
ENDBRANCH   5   6
ENDBRANCH   4   5
ENDBRANCH   1   4
BRANCH   1  12
ATOM     12  C   UNL     1      43.648 131.775  18.542  1.00  0.00     0.065 A 
ATOM     13  C   UNL     1      42.375 132.403  18.587  1.00  0.00     0.017 A 
ATOM     14  C   UNL     1      44.296 131.405  19.760  1.00  0.00     0.113 A 
ATOM     15  C   UNL     1      41.741 132.671  19.806  1.00  0.00     0.011 A 
ATOM     16  C   UNL     1      43.612 131.674  20.968  1.00  0.00     0.073 A 
ATOM     17  C   UNL     1      42.386 132.292  20.974  1.00  0.00     0.002 A 
ATOM     18  N   UNL     1      43.964 131.351  22.231  1.00  0.00    -0.359 N 
ATOM     19  C   UNL     1      41.961 132.384  22.280  1.00  0.00     0.028 A 
ATOM     20  C   UNL     1      42.965 131.789  23.028  1.00  0.00     0.083 A 
ATOM     21  H   UNL     1      44.804 130.833  22.560  1.00  0.00     0.166 HD
BRANCH  14  22
ATOM     22  N   UNL     1      45.571 130.739  19.714  1.00  0.00    -0.165 NA
BRANCH  22  23
ATOM     23  C   UNL     1      45.879 129.708  20.395  1.00  0.00     0.240 C 
ATOM     24  O   UNL     1      46.181 128.706  21.053  1.00  0.00    -0.211 OA
ENDBRANCH  22  23
ENDBRANCH  14  22
ENDBRANCH   1  12
TORSDOF 7
ENDMDL


