REMARK SMILES [O-]c1ccc(-c2cc3cc(/N=C4\[CH]C=CC4)ncc3nc2Cl)cc1
REMARK SMILES IDX 10 1 17 2 18 3 19 4 20 5 21 6 22 7 6 8 7 9 8 10 9 11 11 12
REMARK SMILES IDX 12 13 13 14 14 15 15 16 16 17 5 18 4 19 23 20 3 21 24 22
REMARK SMILES IDX 2 23 1 24
REMARK H PARENT
ROOT
ATOM      1  C   UNL     1      -0.755   1.557  -0.450  1.00  0.00     0.152 A 
ATOM      2  N   UNL     1      -1.949   0.911  -0.582  1.00  0.00    -0.235 NA
ATOM      3  C   UNL     1      -2.109  -0.394  -0.235  1.00  0.00     0.142 A 
ATOM      4  C   UNL     1      -1.029  -1.115   0.278  1.00  0.00     0.090 A 
ATOM      5  N   UNL     1      -1.175  -2.418   0.634  1.00  0.00    -0.234 NA
ATOM      6  C   UNL     1      -0.142  -3.149   1.134  1.00  0.00     0.137 A 
ATOM      7  Cl  UNL     1      -0.464  -4.808   1.621  1.00  0.00    -0.062 Cl
ATOM      8  C   UNL     1       1.129  -2.555   1.298  1.00  0.00     0.020 A 
ATOM      9  C   UNL     1       1.292  -1.205   0.949  1.00  0.00     0.022 A 
ATOM     10  C   UNL     1       0.214  -0.476   0.433  1.00  0.00     0.006 A 
ATOM     11  C   UNL     1       0.349   0.870   0.067  1.00  0.00     0.059 A 
ENDROOT
BRANCH   1  12
ATOM     12  N   UNL     1      -0.606   2.940  -0.811  1.00  0.00    -0.237 NA
BRANCH  12  13
ATOM     13  C   UNL     1      -1.494   3.712  -1.368  1.00  0.00     0.032 C 
ATOM     14  C   UNL     1      -2.875   3.311  -1.775  1.00  0.00     0.069 C 
ATOM     15  C   UNL     1      -3.409   4.594  -2.313  1.00  0.00    -0.020 C 
ATOM     16  C   UNL     1      -2.518   5.580  -2.258  1.00  0.00    -0.025 C 
ATOM     17  C   UNL     1      -1.222   5.143  -1.667  1.00  0.00     0.079 C 
ENDBRANCH  12  13
ENDBRANCH   1  12
BRANCH   8  18
ATOM     18  C   UNL     1       2.285  -3.312   1.827  1.00  0.00    -0.015 A 
ATOM     19  C   UNL     1       2.719  -4.490   1.194  1.00  0.00     0.008 A 
ATOM     20  C   UNL     1       2.987  -2.837   2.948  1.00  0.00     0.008 A 
ATOM     21  C   UNL     1       3.823  -5.190   1.689  1.00  0.00    -0.008 A 
ATOM     22  C   UNL     1       4.091  -3.540   3.440  1.00  0.00    -0.008 A 
ATOM     23  C   UNL     1       4.508  -4.717   2.812  1.00  0.00    -0.109 A 
ATOM     24  O   UNL     1       5.605  -5.415   3.302  1.00  0.00    -0.872 OA
ENDBRANCH   8  18
TORSDOF 3


