MODEL 1
REMARK VINA RESULT:      -5.7      0.000      0.000
REMARK SMILES C=Cc1ccc(-c2cnc3ocnc3c2)c([NH2+]C[C@@H](C)C(C)C)c1F
REMARK SMILES IDX 17 1 16 4 3 5 4 6 24 7 5 8 6 9 25 10 2 11 1 12 7 13 8 14
REMARK SMILES IDX 15 15 9 16 14 17 10 18 13 19 11 20 12 21 18 22 19 23 20 24
REMARK SMILES IDX 21 25 22 26 23 27
REMARK H PARENT 17 2 17 3
ROOT
ATOM      1  N   UNL     1      45.743 131.097  19.516  1.00  0.00    -0.311 N 
ATOM      2  H   UNL     1      46.477 131.778  19.234  1.00  0.00     0.352 HD
ATOM      3  H   UNL     1      45.973 130.199  19.033  1.00  0.00     0.352 HD
ENDROOT
BRANCH   1   4
ATOM      4  C   UNL     1      44.441 131.555  19.075  1.00  0.00     0.174 A 
ATOM      5  C   UNL     1      42.303 132.644  19.583  1.00  0.00     0.016 A 
ATOM      6  C   UNL     1      41.923 132.499  18.243  1.00  0.00     0.012 A 
ATOM      7  C   UNL     1      43.558 132.155  20.001  1.00  0.00     0.191 A 
ATOM      8  C   UNL     1      42.791 131.924  17.317  1.00  0.00     0.016 A 
ATOM      9  C   UNL     1      44.051 131.461  17.715  1.00  0.00     0.047 A 
ATOM     10  F   UNL     1      43.915 132.219  21.310  1.00  0.00    -0.200 F 
BRANCH   5  11
ATOM     11  C   UNL     1      41.342 133.275  20.519  1.00  0.00     0.003 C 
ATOM     12  C   UNL     1      41.216 132.912  21.794  1.00  0.00     0.009 C 
ENDBRANCH   5  11
BRANCH   9  13
ATOM     13  C   UNL     1      44.938 130.879  16.692  1.00  0.00     0.009 A 
ATOM     14  C   UNL     1      45.088 129.470  16.595  1.00  0.00     0.124 A 
ATOM     15  C   UNL     1      45.638 131.718  15.799  1.00  0.00     0.044 A 
ATOM     16  N   UNL     1      45.920 128.924  15.655  1.00  0.00    -0.219 NA
ATOM     17  C   UNL     1      46.469 131.103  14.872  1.00  0.00     0.130 A 
ATOM     18  C   UNL     1      46.590 129.755  14.820  1.00  0.00     0.246 A 
ATOM     19  N   UNL     1      47.251 131.668  13.937  1.00  0.00    -0.215 NA
ATOM     20  O   UNL     1      47.429 129.430  13.878  1.00  0.00    -0.425 OA
ATOM     21  C   UNL     1      47.823 130.580  13.352  1.00  0.00     0.311 A 
ENDBRANCH   9  13
ENDBRANCH   1   4
BRANCH   1  22
ATOM     22  C   UNL     1      45.734 130.885  20.976  1.00  0.00     0.269 C 
BRANCH  22  23
ATOM     23  C   UNL     1      45.106 129.532  21.425  1.00  0.00     0.044 C 
ATOM     24  C   UNL     1      45.939 128.310  21.000  1.00  0.00     0.014 C 
BRANCH  23  25
ATOM     25  C   UNL     1      44.652 129.510  22.926  1.00  0.00    -0.009 C 
ATOM     26  C   UNL     1      43.958 130.826  23.318  1.00  0.00     0.008 C 
ATOM     27  C   UNL     1      43.748 128.326  23.307  1.00  0.00     0.008 C 
ENDBRANCH  23  25
ENDBRANCH  22  23
ENDBRANCH   1  22
TORSDOF 6
ENDMDL
MODEL 2
REMARK VINA RESULT:      -5.3      0.665      1.117
REMARK SMILES C=Cc1ccc(-c2cnc3ocnc3c2)c([NH2+]C[C@@H](C)C(C)C)c1F
REMARK SMILES IDX 17 1 16 4 3 5 4 6 24 7 5 8 6 9 25 10 2 11 1 12 7 13 8 14
REMARK SMILES IDX 15 15 9 16 14 17 10 18 13 19 11 20 12 21 18 22 19 23 20 24
REMARK SMILES IDX 21 25 22 26 23 27
REMARK H PARENT 17 2 17 3
ROOT
ATOM      1  N   UNL     1      45.822 131.302  19.129  1.00  0.00    -0.311 N 
ATOM      2  H   UNL     1      46.220 132.083  19.688  1.00  0.00     0.352 HD
ATOM      3  H   UNL     1      46.444 131.188  18.297  1.00  0.00     0.352 HD
ENDROOT
BRANCH   1   4
ATOM      4  C   UNL     1      44.485 131.638  18.682  1.00  0.00     0.174 A 
ATOM      5  C   UNL     1      42.278 132.596  19.160  1.00  0.00     0.016 A 
ATOM      6  C   UNL     1      41.896 132.348  17.835  1.00  0.00     0.012 A 
ATOM      7  C   UNL     1      43.571 132.224  19.586  1.00  0.00     0.191 A 
ATOM      8  C   UNL     1      42.795 131.786  16.930  1.00  0.00     0.016 A 
ATOM      9  C   UNL     1      44.089 131.439  17.335  1.00  0.00     0.047 A 
ATOM     10  F   UNL     1      43.935 132.387  20.884  1.00  0.00    -0.200 F 
BRANCH   5  11
ATOM     11  C   UNL     1      41.284 133.207  20.072  1.00  0.00     0.003 C 
ATOM     12  C   UNL     1      41.260 132.984  21.386  1.00  0.00     0.009 C 
ENDBRANCH   5  11
BRANCH   9  13
ATOM     13  C   UNL     1      45.006 130.866  16.334  1.00  0.00     0.009 A 
ATOM     14  C   UNL     1      45.123 129.458  16.195  1.00  0.00     0.124 A 
ATOM     15  C   UNL     1      45.768 131.714  15.502  1.00  0.00     0.044 A 
ATOM     16  N   UNL     1      45.982 128.920  15.275  1.00  0.00    -0.219 NA
ATOM     17  C   UNL     1      46.624 131.106  14.592  1.00  0.00     0.130 A 
ATOM     18  C   UNL     1      46.711 129.758  14.500  1.00  0.00     0.246 A 
ATOM     19  N   UNL     1      47.462 131.680  13.713  1.00  0.00    -0.215 NA
ATOM     20  O   UNL     1      47.583 129.440  13.586  1.00  0.00    -0.425 OA
ATOM     21  C   UNL     1      48.031 130.596  13.117  1.00  0.00     0.311 A 
ENDBRANCH   9  13
ENDBRANCH   1   4
BRANCH   1  22
ATOM     22  C   UNL     1      45.794 130.045  19.900  1.00  0.00     0.269 C 
BRANCH  22  23
ATOM     23  C   UNL     1      45.730 130.239  21.445  1.00  0.00     0.044 C 
ATOM     24  C   UNL     1      45.895 131.709  21.875  1.00  0.00     0.014 C 
BRANCH  23  25
ATOM     25  C   UNL     1      44.527 129.502  22.129  1.00  0.00    -0.009 C 
ATOM     26  C   UNL     1      44.959 128.137  22.694  1.00  0.00     0.008 C 
ATOM     27  C   UNL     1      43.821 130.308  23.232  1.00  0.00     0.008 C 
ENDBRANCH  23  25
ENDBRANCH  22  23
ENDBRANCH   1  22
TORSDOF 6
ENDMDL
MODEL 3
REMARK VINA RESULT:      -5.2      3.478      6.710
REMARK SMILES C=Cc1ccc(-c2cnc3ocnc3c2)c([NH2+]C[C@@H](C)C(C)C)c1F
REMARK SMILES IDX 17 1 16 4 3 5 4 6 24 7 5 8 6 9 25 10 2 11 1 12 7 13 8 14
REMARK SMILES IDX 15 15 9 16 14 17 10 18 13 19 11 20 12 21 18 22 19 23 20 24
REMARK SMILES IDX 21 25 22 26 23 27
REMARK H PARENT 17 2 17 3
ROOT
ATOM      1  N   UNL     1      45.619 129.175  20.881  1.00  0.00    -0.311 N 
ATOM      2  H   UNL     1      45.138 128.504  20.248  1.00  0.00     0.352 HD
ATOM      3  H   UNL     1      46.588 128.806  21.020  1.00  0.00     0.352 HD
ENDROOT
BRANCH   1   4
ATOM      4  C   UNL     1      44.942 129.229  22.161  1.00  0.00     0.174 A 
ATOM      5  C   UNL     1      43.634 130.496  23.804  1.00  0.00     0.016 A 
ATOM      6  C   UNL     1      43.576 129.358  24.618  1.00  0.00     0.012 A 
ATOM      7  C   UNL     1      44.333 130.433  22.580  1.00  0.00     0.191 A 
ATOM      8  C   UNL     1      44.157 128.160  24.207  1.00  0.00     0.016 A 
ATOM      9  C   UNL     1      44.829 128.079  22.982  1.00  0.00     0.047 A 
ATOM     10  F   UNL     1      44.465 131.545  21.812  1.00  0.00    -0.200 F 
BRANCH   5  11
ATOM     11  C   UNL     1      42.986 131.737  24.288  1.00  0.00     0.003 C 
ATOM     12  C   UNL     1      41.979 132.335  23.653  1.00  0.00     0.009 C 
ENDBRANCH   5  11
BRANCH   9  13
ATOM     13  C   UNL     1      45.410 126.784  22.586  1.00  0.00     0.009 A 
ATOM     14  C   UNL     1      44.564 125.699  22.233  1.00  0.00     0.124 A 
ATOM     15  C   UNL     1      46.810 126.615  22.551  1.00  0.00     0.044 A 
ATOM     16  N   UNL     1      45.097 124.490  21.876  1.00  0.00    -0.219 NA
ATOM     17  C   UNL     1      47.289 125.363  22.185  1.00  0.00     0.130 A 
ATOM     18  C   UNL     1      46.445 124.354  21.865  1.00  0.00     0.246 A 
ATOM     19  N   UNL     1      48.561 124.942  22.096  1.00  0.00    -0.215 NA
ATOM     20  O   UNL     1      47.134 123.288  21.570  1.00  0.00    -0.425 OA
ATOM     21  C   UNL     1      48.403 123.646  21.709  1.00  0.00     0.311 A 
ENDBRANCH   9  13
ENDBRANCH   1   4
BRANCH   1  22
ATOM     22  C   UNL     1      45.686 130.524  20.288  1.00  0.00     0.269 C 
BRANCH  22  23
ATOM     23  C   UNL     1      44.885 130.684  18.961  1.00  0.00     0.044 C 
ATOM     24  C   UNL     1      43.721 131.685  19.076  1.00  0.00     0.014 C 
BRANCH  23  25
ATOM     25  C   UNL     1      45.786 130.890  17.695  1.00  0.00    -0.009 C 
ATOM     26  C   UNL     1      45.923 129.586  16.890  1.00  0.00     0.008 C 
ATOM     27  C   UNL     1      45.331 132.020  16.758  1.00  0.00     0.008 C 
ENDBRANCH  23  25
ENDBRANCH  22  23
ENDBRANCH   1  22
TORSDOF 6
ENDMDL
MODEL 4
REMARK VINA RESULT:      -5.0      6.053      9.462
REMARK SMILES C=Cc1ccc(-c2cnc3ocnc3c2)c([NH2+]C[C@@H](C)C(C)C)c1F
REMARK SMILES IDX 17 1 16 4 3 5 4 6 24 7 5 8 6 9 25 10 2 11 1 12 7 13 8 14
REMARK SMILES IDX 15 15 9 16 14 17 10 18 13 19 11 20 12 21 18 22 19 23 20 24
REMARK SMILES IDX 21 25 22 26 23 27
REMARK H PARENT 17 2 17 3
ROOT
ATOM      1  N   UNL     1      44.445 126.695  22.386  1.00  0.00    -0.311 N 
ATOM      2  H   UNL     1      43.438 126.455  22.291  1.00  0.00     0.352 HD
ATOM      3  H   UNL     1      44.766 127.003  21.440  1.00  0.00     0.352 HD
ENDROOT
BRANCH   1   4
ATOM      4  C   UNL     1      45.202 125.526  22.787  1.00  0.00     0.174 A 
ATOM      5  C   UNL     1      47.368 124.458  23.212  1.00  0.00     0.016 A 
ATOM      6  C   UNL     1      46.703 123.290  23.608  1.00  0.00     0.012 A 
ATOM      7  C   UNL     1      46.614 125.571  22.786  1.00  0.00     0.191 A 
ATOM      8  C   UNL     1      45.310 123.240  23.631  1.00  0.00     0.016 A 
ATOM      9  C   UNL     1      44.552 124.349  23.236  1.00  0.00     0.047 A 
ATOM     10  F   UNL     1      47.240 126.685  22.327  1.00  0.00    -0.200 F 
BRANCH   5  11
ATOM     11  C   UNL     1      48.850 124.455  23.220  1.00  0.00     0.003 C 
ATOM     12  C   UNL     1      49.583 125.526  23.525  1.00  0.00     0.009 C 
ENDBRANCH   5  11
BRANCH   9  13
ATOM     13  C   UNL     1      43.083 124.249  23.297  1.00  0.00     0.009 A 
ATOM     14  C   UNL     1      42.440 123.008  23.046  1.00  0.00     0.124 A 
ATOM     15  C   UNL     1      42.307 125.384  23.612  1.00  0.00     0.044 A 
ATOM     16  N   UNL     1      41.075 122.911  23.089  1.00  0.00    -0.219 NA
ATOM     17  C   UNL     1      40.927 125.222  23.636  1.00  0.00     0.130 A 
ATOM     18  C   UNL     1      40.355 124.021  23.380  1.00  0.00     0.246 A 
ATOM     19  N   UNL     1      39.977 126.138  23.883  1.00  0.00    -0.215 NA
ATOM     20  O   UNL     1      39.059 124.133  23.454  1.00  0.00    -0.425 OA
ATOM     21  C   UNL     1      38.837 125.404  23.756  1.00  0.00     0.311 A 
ENDBRANCH   9  13
ENDBRANCH   1   4
BRANCH   1  22
ATOM     22  C   UNL     1      44.652 127.786  23.356  1.00  0.00     0.269 C 
BRANCH  22  23
ATOM     23  C   UNL     1      43.624 128.952  23.242  1.00  0.00     0.044 C 
ATOM     24  C   UNL     1      42.446 128.814  24.223  1.00  0.00     0.014 C 
BRANCH  23  25
ATOM     25  C   UNL     1      44.279 130.376  23.220  1.00  0.00    -0.009 C 
ATOM     26  C   UNL     1      43.446 131.359  22.378  1.00  0.00     0.008 C 
ATOM     27  C   UNL     1      44.536 130.988  24.606  1.00  0.00     0.008 C 
ENDBRANCH  23  25
ENDBRANCH  22  23
ENDBRANCH   1  22
TORSDOF 6
ENDMDL
MODEL 5
REMARK VINA RESULT:      -4.8      5.254      8.400
REMARK SMILES C=Cc1ccc(-c2cnc3ocnc3c2)c([NH2+]C[C@@H](C)C(C)C)c1F
REMARK SMILES IDX 17 1 16 4 3 5 4 6 24 7 5 8 6 9 25 10 2 11 1 12 7 13 8 14
REMARK SMILES IDX 15 15 9 16 14 17 10 18 13 19 11 20 12 21 18 22 19 23 20 24
REMARK SMILES IDX 21 25 22 26 23 27
REMARK H PARENT 17 2 17 3
ROOT
ATOM      1  N   UNL     1      45.854 127.113  22.569  1.00  0.00    -0.311 N 
ATOM      2  H   UNL     1      46.203 127.142  21.590  1.00  0.00     0.352 HD
ATOM      3  H   UNL     1      46.625 127.485  23.169  1.00  0.00     0.352 HD
ENDROOT
BRANCH   1   4
ATOM      4  C   UNL     1      45.567 125.746  22.957  1.00  0.00     0.174 A 
ATOM      5  C   UNL     1      43.947 123.924  23.223  1.00  0.00     0.016 A 
ATOM      6  C   UNL     1      44.981 123.083  23.654  1.00  0.00     0.012 A 
ATOM      7  C   UNL     1      44.241 125.263  22.890  1.00  0.00     0.191 A 
ATOM      8  C   UNL     1      46.295 123.543  23.708  1.00  0.00     0.016 A 
ATOM      9  C   UNL     1      46.602 124.862  23.352  1.00  0.00     0.047 A 
ATOM     10  F   UNL     1      43.243 126.115  22.541  1.00  0.00    -0.200 F 
BRANCH   5  11
ATOM     11  C   UNL     1      42.572 123.375  23.175  1.00  0.00     0.003 C 
ATOM     12  C   UNL     1      42.025 122.864  22.073  1.00  0.00     0.009 C 
ENDBRANCH   5  11
BRANCH   9  13
ATOM     13  C   UNL     1      48.011 125.292  23.408  1.00  0.00     0.009 A 
ATOM     14  C   UNL     1      48.514 125.940  24.567  1.00  0.00     0.124 A 
ATOM     15  C   UNL     1      48.869 125.057  22.313  1.00  0.00     0.044 A 
ATOM     16  N   UNL     1      49.818 126.352  24.620  1.00  0.00    -0.219 NA
ATOM     17  C   UNL     1      50.179 125.503  22.427  1.00  0.00     0.130 A 
ATOM     18  C   UNL     1      50.615 126.125  23.549  1.00  0.00     0.246 A 
ATOM     19  N   UNL     1      51.176 125.423  21.531  1.00  0.00    -0.215 NA
ATOM     20  O   UNL     1      51.868 126.452  23.404  1.00  0.00    -0.425 OA
ATOM     21  C   UNL     1      52.200 126.029  22.194  1.00  0.00     0.311 A 
ENDBRANCH   9  13
ENDBRANCH   1   4
BRANCH   1  22
ATOM     22  C   UNL     1      44.650 127.948  22.740  1.00  0.00     0.269 C 
BRANCH  22  23
ATOM     23  C   UNL     1      44.883 129.469  22.496  1.00  0.00     0.044 C 
ATOM     24  C   UNL     1      45.158 129.808  21.020  1.00  0.00     0.014 C 
BRANCH  23  25
ATOM     25  C   UNL     1      43.817 130.393  23.180  1.00  0.00    -0.009 C 
ATOM     26  C   UNL     1      42.421 129.746  23.154  1.00  0.00     0.008 C 
ATOM     27  C   UNL     1      44.156 130.811  24.620  1.00  0.00     0.008 C 
ENDBRANCH  23  25
ENDBRANCH  22  23
ENDBRANCH   1  22
TORSDOF 6
ENDMDL
MODEL 6
REMARK VINA RESULT:      -4.5      6.032      8.741
REMARK SMILES C=Cc1ccc(-c2cnc3ocnc3c2)c([NH2+]C[C@@H](C)C(C)C)c1F
REMARK SMILES IDX 17 1 16 4 3 5 4 6 24 7 5 8 6 9 25 10 2 11 1 12 7 13 8 14
REMARK SMILES IDX 15 15 9 16 14 17 10 18 13 19 11 20 12 21 18 22 19 23 20 24
REMARK SMILES IDX 21 25 22 26 23 27
REMARK H PARENT 17 2 17 3
ROOT
ATOM      1  N   UNL     1      46.131 126.505  22.292  1.00  0.00    -0.311 N 
ATOM      2  H   UNL     1      45.419 126.820  21.603  1.00  0.00     0.352 HD
ATOM      3  H   UNL     1      47.061 126.622  21.828  1.00  0.00     0.352 HD
ENDROOT
BRANCH   1   4
ATOM      4  C   UNL     1      45.933 125.106  22.613  1.00  0.00     0.174 A 
ATOM      5  C   UNL     1      44.453 123.152  22.706  1.00  0.00     0.016 A 
ATOM      6  C   UNL     1      45.522 122.380  23.181  1.00  0.00     0.012 A 
ATOM      7  C   UNL     1      44.658 124.522  22.438  1.00  0.00     0.191 A 
ATOM      8  C   UNL     1      46.787 122.941  23.341  1.00  0.00     0.016 A 
ATOM      9  C   UNL     1      47.008 124.293  23.051  1.00  0.00     0.047 A 
ATOM     10  F   UNL     1      43.619 125.304  22.049  1.00  0.00    -0.200 F 
BRANCH   5  11
ATOM     11  C   UNL     1      43.134 122.497  22.544  1.00  0.00     0.003 C 
ATOM     12  C   UNL     1      42.436 122.526  21.410  1.00  0.00     0.009 C 
ENDBRANCH   5  11
BRANCH   9  13
ATOM     13  C   UNL     1      48.369 124.831  23.219  1.00  0.00     0.009 A 
ATOM     14  C   UNL     1      48.763 125.406  24.457  1.00  0.00     0.124 A 
ATOM     15  C   UNL     1      49.292 124.774  22.154  1.00  0.00     0.044 A 
ATOM     16  N   UNL     1      50.022 125.918  24.616  1.00  0.00    -0.219 NA
ATOM     17  C   UNL     1      50.552 125.314  22.376  1.00  0.00     0.130 A 
ATOM     18  C   UNL     1      50.882 125.861  23.571  1.00  0.00     0.246 A 
ATOM     19  N   UNL     1      51.591 125.403  21.530  1.00  0.00    -0.215 NA
ATOM     20  O   UNL     1      52.106 126.303  23.522  1.00  0.00    -0.425 OA
ATOM     21  C   UNL     1      52.528 126.027  22.297  1.00  0.00     0.311 A 
ENDBRANCH   9  13
ENDBRANCH   1   4
BRANCH   1  22
ATOM     22  C   UNL     1      46.089 127.316  23.523  1.00  0.00     0.269 C 
BRANCH  22  23
ATOM     23  C   UNL     1      45.029 128.458  23.504  1.00  0.00     0.044 C 
ATOM     24  C   UNL     1      44.469 128.738  22.098  1.00  0.00     0.014 C 
BRANCH  23  25
ATOM     25  C   UNL     1      43.932 128.325  24.617  1.00  0.00    -0.009 C 
ATOM     26  C   UNL     1      42.915 129.477  24.537  1.00  0.00     0.008 C 
ATOM     27  C   UNL     1      43.181 126.984  24.623  1.00  0.00     0.008 C 
ENDBRANCH  23  25
ENDBRANCH  22  23
ENDBRANCH   1  22
TORSDOF 6
ENDMDL
MODEL 7
REMARK VINA RESULT:      -4.3      1.884      2.819
REMARK SMILES C=Cc1ccc(-c2cnc3ocnc3c2)c([NH2+]C[C@@H](C)C(C)C)c1F
REMARK SMILES IDX 17 1 16 4 3 5 4 6 24 7 5 8 6 9 25 10 2 11 1 12 7 13 8 14
REMARK SMILES IDX 15 15 9 16 14 17 10 18 13 19 11 20 12 21 18 22 19 23 20 24
REMARK SMILES IDX 21 25 22 26 23 27
REMARK H PARENT 17 2 17 3
ROOT
ATOM      1  N   UNL     1      45.474 129.915  21.247  1.00  0.00    -0.311 N 
ATOM      2  H   UNL     1      46.115 130.185  22.020  1.00  0.00     0.352 HD
ATOM      3  H   UNL     1      46.020 130.018  20.362  1.00  0.00     0.352 HD
ENDROOT
BRANCH   1   4
ATOM      4  C   UNL     1      44.334 130.809  21.208  1.00  0.00     0.174 A 
ATOM      5  C   UNL     1      42.578 132.041  22.397  1.00  0.00     0.016 A 
ATOM      6  C   UNL     1      42.147 132.581  21.178  1.00  0.00     0.012 A 
ATOM      7  C   UNL     1      43.663 131.141  22.407  1.00  0.00     0.191 A 
ATOM      8  C   UNL     1      42.811 132.275  19.992  1.00  0.00     0.016 A 
ATOM      9  C   UNL     1      43.908 131.404  19.995  1.00  0.00     0.047 A 
ATOM     10  F   UNL     1      44.049 130.549  23.567  1.00  0.00    -0.200 F 
BRANCH   5  11
ATOM     11  C   UNL     1      41.840 132.414  23.627  1.00  0.00     0.003 C 
ATOM     12  C   UNL     1      40.670 133.051  23.615  1.00  0.00     0.009 C 
ENDBRANCH   5  11
BRANCH   9  13
ATOM     13  C   UNL     1      44.586 131.129  18.715  1.00  0.00     0.009 A 
ATOM     14  C   UNL     1      45.766 130.340  18.687  1.00  0.00     0.124 A 
ATOM     15  C   UNL     1      44.063 131.644  17.510  1.00  0.00     0.044 A 
ATOM     16  N   UNL     1      46.407 130.091  17.504  1.00  0.00    -0.219 NA
ATOM     17  C   UNL     1      44.762 131.359  16.344  1.00  0.00     0.130 A 
ATOM     18  C   UNL     1      45.889 130.609  16.364  1.00  0.00     0.246 A 
ATOM     19  N   UNL     1      44.490 131.743  15.086  1.00  0.00    -0.215 NA
ATOM     20  O   UNL     1      46.358 130.496  15.154  1.00  0.00    -0.425 OA
ATOM     21  C   UNL     1      45.516 131.177  14.390  1.00  0.00     0.311 A 
ENDBRANCH   9  13
ENDBRANCH   1   4
BRANCH   1  22
ATOM     22  C   UNL     1      45.016 128.520  21.385  1.00  0.00     0.269 C 
BRANCH  22  23
ATOM     23  C   UNL     1      45.714 127.724  22.528  1.00  0.00     0.044 C 
ATOM     24  C   UNL     1      45.050 127.934  23.901  1.00  0.00     0.014 C 
BRANCH  23  25
ATOM     25  C   UNL     1      45.999 126.224  22.176  1.00  0.00    -0.009 C 
ATOM     26  C   UNL     1      47.089 125.634  23.087  1.00  0.00     0.008 C 
ATOM     27  C   UNL     1      44.763 125.309  22.206  1.00  0.00     0.008 C 
ENDBRANCH  23  25
ENDBRANCH  22  23
ENDBRANCH   1  22
TORSDOF 6
ENDMDL
MODEL 8
REMARK VINA RESULT:      -4.1      1.045      1.467
REMARK SMILES C=Cc1ccc(-c2cnc3ocnc3c2)c([NH2+]C[C@@H](C)C(C)C)c1F
REMARK SMILES IDX 17 1 16 4 3 5 4 6 24 7 5 8 6 9 25 10 2 11 1 12 7 13 8 14
REMARK SMILES IDX 15 15 9 16 14 17 10 18 13 19 11 20 12 21 18 22 19 23 20 24
REMARK SMILES IDX 21 25 22 26 23 27
REMARK H PARENT 17 2 17 3
ROOT
ATOM      1  N   UNL     1      45.536 131.141  19.673  1.00  0.00    -0.311 N 
ATOM      2  H   UNL     1      46.223 131.887  19.445  1.00  0.00     0.352 HD
ATOM      3  H   UNL     1      45.718 130.358  19.005  1.00  0.00     0.352 HD
ENDROOT
BRANCH   1   4
ATOM      4  C   UNL     1      44.185 131.628  19.478  1.00  0.00     0.174 A 
ATOM      5  C   UNL     1      42.133 132.590  20.416  1.00  0.00     0.016 A 
ATOM      6  C   UNL     1      41.577 132.628  19.131  1.00  0.00     0.012 A 
ATOM      7  C   UNL     1      43.434 132.073  20.590  1.00  0.00     0.191 A 
ATOM      8  C   UNL     1      42.314 132.208  18.026  1.00  0.00     0.016 A 
ATOM      9  C   UNL     1      43.617 131.720  18.183  1.00  0.00     0.047 A 
ATOM     10  F   UNL     1      43.963 131.958  21.835  1.00  0.00    -0.200 F 
BRANCH   5  11
ATOM     11  C   UNL     1      41.305 133.061  21.552  1.00  0.00     0.003 C 
ATOM     12  C   UNL     1      41.422 132.585  22.790  1.00  0.00     0.009 C 
ENDBRANCH   5  11
BRANCH   9  13
ATOM     13  C   UNL     1      44.359 131.307  16.979  1.00  0.00     0.009 A 
ATOM     14  C   UNL     1      43.840 131.588  15.688  1.00  0.00     0.124 A 
ATOM     15  C   UNL     1      45.594 130.636  17.102  1.00  0.00     0.044 A 
ATOM     16  N   UNL     1      44.519 131.197  14.566  1.00  0.00    -0.219 NA
ATOM     17  C   UNL     1      46.232 130.261  15.926  1.00  0.00     0.130 A 
ATOM     18  C   UNL     1      45.695 130.542  14.715  1.00  0.00     0.246 A 
ATOM     19  N   UNL     1      47.391 129.601  15.771  1.00  0.00    -0.215 NA
ATOM     20  O   UNL     1      46.474 130.081  13.778  1.00  0.00    -0.425 OA
ATOM     21  C   UNL     1      47.490 129.518  14.416  1.00  0.00     0.311 A 
ENDBRANCH   9  13
ENDBRANCH   1   4
BRANCH   1  22
ATOM     22  C   UNL     1      45.702 130.657  21.057  1.00  0.00     0.269 C 
BRANCH  22  23
ATOM     23  C   UNL     1      45.067 129.260  21.330  1.00  0.00     0.044 C 
ATOM     24  C   UNL     1      46.083 128.108  21.238  1.00  0.00     0.014 C 
BRANCH  23  25
ATOM     25  C   UNL     1      44.158 129.215  22.606  1.00  0.00    -0.009 C 
ATOM     26  C   UNL     1      44.181 127.821  23.258  1.00  0.00     0.008 C 
ATOM     27  C   UNL     1      44.485 130.277  23.668  1.00  0.00     0.008 C 
ENDBRANCH  23  25
ENDBRANCH  22  23
ENDBRANCH   1  22
TORSDOF 6
ENDMDL
MODEL 9
REMARK VINA RESULT:      -4.1      1.580      2.498
REMARK SMILES C=Cc1ccc(-c2cnc3ocnc3c2)c([NH2+]C[C@@H](C)C(C)C)c1F
REMARK SMILES IDX 17 1 16 4 3 5 4 6 24 7 5 8 6 9 25 10 2 11 1 12 7 13 8 14
REMARK SMILES IDX 15 15 9 16 14 17 10 18 13 19 11 20 12 21 18 22 19 23 20 24
REMARK SMILES IDX 21 25 22 26 23 27
REMARK H PARENT 17 2 17 3
ROOT
ATOM      1  N   UNL     1      45.487 129.999  20.692  1.00  0.00    -0.311 N 
ATOM      2  H   UNL     1      46.344 130.540  20.462  1.00  0.00     0.352 HD
ATOM      3  H   UNL     1      45.324 129.349  19.889  1.00  0.00     0.352 HD
ENDROOT
BRANCH   1   4
ATOM      4  C   UNL     1      44.352 130.891  20.820  1.00  0.00     0.174 A 
ATOM      5  C   UNL     1      42.779 132.112  22.252  1.00  0.00     0.016 A 
ATOM      6  C   UNL     1      42.180 132.658  21.109  1.00  0.00     0.012 A 
ATOM      7  C   UNL     1      43.857 131.214  22.104  1.00  0.00     0.191 A 
ATOM      8  C   UNL     1      42.670 132.360  19.839  1.00  0.00     0.016 A 
ATOM      9  C   UNL     1      43.757 131.492  19.682  1.00  0.00     0.047 A 
ATOM     10  F   UNL     1      44.403 130.617  23.194  1.00  0.00    -0.200 F 
BRANCH   5  11
ATOM     11  C   UNL     1      42.222 132.476  23.576  1.00  0.00     0.003 C 
ATOM     12  C   UNL     1      42.226 131.654  24.624  1.00  0.00     0.009 C 
ENDBRANCH   5  11
BRANCH   9  13
ATOM     13  C   UNL     1      44.248 131.225  18.318  1.00  0.00     0.009 A 
ATOM     14  C   UNL     1      43.488 131.638  17.192  1.00  0.00     0.124 A 
ATOM     15  C   UNL     1      45.478 130.562  18.124  1.00  0.00     0.044 A 
ATOM     16  N   UNL     1      43.933 131.383  15.923  1.00  0.00    -0.219 NA
ATOM     17  C   UNL     1      45.872 130.329  16.813  1.00  0.00     0.130 A 
ATOM     18  C   UNL     1      45.111 130.733  15.767  1.00  0.00     0.246 A 
ATOM     19  N   UNL     1      46.974 129.707  16.363  1.00  0.00    -0.215 NA
ATOM     20  O   UNL     1      45.690 130.389  14.651  1.00  0.00    -0.425 OA
ATOM     21  C   UNL     1      46.806 129.775  15.013  1.00  0.00     0.311 A 
ENDBRANCH   9  13
ENDBRANCH   1   4
BRANCH   1  22
ATOM     22  C   UNL     1      45.656 129.218  21.932  1.00  0.00     0.269 C 
BRANCH  22  23
ATOM     23  C   UNL     1      45.294 127.709  21.796  1.00  0.00     0.044 C 
ATOM     24  C   UNL     1      46.531 126.802  21.665  1.00  0.00     0.014 C 
BRANCH  23  25
ATOM     25  C   UNL     1      44.241 127.211  22.845  1.00  0.00    -0.009 C 
ATOM     26  C   UNL     1      44.929 126.652  24.103  1.00  0.00     0.008 C 
ATOM     27  C   UNL     1      43.200 128.264  23.262  1.00  0.00     0.008 C 
ENDBRANCH  23  25
ENDBRANCH  22  23
ENDBRANCH   1  22
TORSDOF 6
ENDMDL


