REMARK SMILES C=Cc1cccc(-c2ccc3cc[nH]c(=O)c3c2)c1
REMARK SMILES IDX 3 1 4 2 5 3 6 4 7 5 19 6 2 7 1 8 8 9 9 10 18 11 10 12 17 13
REMARK SMILES IDX 11 14 15 15 12 16 14 17 13 18 16 19
REMARK H PARENT 14 20
ROOT
ATOM      1  C   UNL     1      -0.862   1.231  -2.321  1.00  0.00    -0.026 A 
ATOM      2  C   UNL     1       0.079   2.244  -2.559  1.00  0.00     0.008 A 
ATOM      3  C   UNL     1       1.106   2.489  -1.646  1.00  0.00     0.001 A 
ATOM      4  C   UNL     1       1.213   1.720  -0.487  1.00  0.00     0.009 A 
ATOM      5  C   UNL     1       0.294   0.688  -0.231  1.00  0.00    -0.018 A 
ATOM      6  C   UNL     1      -0.739   0.446  -1.156  1.00  0.00     0.016 A 
ENDROOT
BRANCH   1   7
ATOM      7  C   UNL     1      -1.929   1.005  -3.327  1.00  0.00     0.000 C 
ATOM      8  C   UNL     1      -3.062   0.345  -3.081  1.00  0.00     0.009 C 
ENDBRANCH   1   7
BRANCH   5   9
ATOM      9  C   UNL     1       0.415  -0.140   0.997  1.00  0.00    -0.018 A 
ATOM     10  C   UNL     1      -0.730  -0.492   1.732  1.00  0.00     0.009 A 
ATOM     11  C   UNL     1       1.676  -0.580   1.440  1.00  0.00     0.023 A 
ATOM     12  C   UNL     1      -0.623  -1.268   2.888  1.00  0.00     0.009 A 
ATOM     13  C   UNL     1       1.795  -1.364   2.603  1.00  0.00     0.048 A 
ATOM     14  C   UNL     1       0.632  -1.708   3.330  1.00  0.00    -0.011 A 
ATOM     15  C   UNL     1       3.045  -1.820   3.068  1.00  0.00     0.255 A 
ATOM     16  C   UNL     1       0.746  -2.487   4.488  1.00  0.00     0.027 A 
ATOM     17  N   UNL     1       3.117  -2.577   4.199  1.00  0.00    -0.329 N 
ATOM     18  C   UNL     1       2.005  -2.914   4.907  1.00  0.00     0.086 A 
ATOM     19  O   UNL     1       4.105  -1.534   2.446  1.00  0.00    -0.269 OA
ATOM     20  H   UNL     1       4.047  -2.912   4.537  1.00  0.00     0.169 HD
ENDBRANCH   5   9
TORSDOF 2


