REMARK SMILES [O-]c1cc(-c2cccc3ncoc23)cc(F)c1F
REMARK SMILES IDX 1 1 2 2 3 3 4 4 14 5 15 6 16 7 17 8 18 9 5 10 6 11 13 12
REMARK SMILES IDX 7 13 12 14 9 15 8 16 11 17 10 18
REMARK H PARENT
ROOT
ATOM      1  O   UNL     1       3.841  -1.790   0.861  1.00  0.00    -0.870 OA
ATOM      2  C   UNL     1       2.938  -1.674  -0.190  1.00  0.00    -0.068 A 
ATOM      3  C   UNL     1       1.757  -0.945  -0.016  1.00  0.00     0.003 A 
ATOM      4  C   UNL     1       0.836  -0.817  -1.073  1.00  0.00    -0.012 A 
ATOM      5  C   UNL     1       1.125  -1.429  -2.306  1.00  0.00     0.051 A 
ATOM      6  C   UNL     1       2.306  -2.159  -2.476  1.00  0.00     0.158 A 
ATOM      7  F   UNL     1       2.569  -2.749  -3.668  1.00  0.00    -0.204 F 
ATOM      8  C   UNL     1       3.212  -2.282  -1.419  1.00  0.00     0.151 A 
ATOM      9  F   UNL     1       4.357  -2.990  -1.588  1.00  0.00    -0.204 F 
ENDROOT
BRANCH   4  10
ATOM     10  C   UNL     1      -0.417  -0.043  -0.894  1.00  0.00     0.027 A 
ATOM     11  C   UNL     1      -0.903   0.817  -1.908  1.00  0.00     0.013 A 
ATOM     12  C   UNL     1      -1.180  -0.128   0.278  1.00  0.00     0.162 A 
ATOM     13  C   UNL     1      -2.098   1.550  -1.722  1.00  0.00     0.003 A 
ATOM     14  O   UNL     1      -0.976  -0.852   1.347  1.00  0.00    -0.443 OA
ATOM     15  C   UNL     1      -2.331   0.580   0.453  1.00  0.00     0.110 A 
ATOM     16  C   UNL     1      -2.828   1.434  -0.526  1.00  0.00     0.032 A 
ATOM     17  C   UNL     1      -1.982  -0.589   2.164  1.00  0.00     0.309 A 
ATOM     18  N   UNL     1      -2.867   0.306   1.654  1.00  0.00    -0.217 NA
ENDBRANCH   4  10
TORSDOF 1


