REMARK SMILES CC/N=C(\O)C(=O)N1CC[C@H](C)[C@@H](F)[C@@H]1c1ccc(C(C)=O)c(F)c1
REMARK SMILES IDX 6 1 7 2 4 3 5 4 3 6 2 7 1 8 8 9 9 10 15 11 10 12 13 13 11 14
REMARK SMILES IDX 14 15 12 16 16 17 17 18 25 19 18 20 23 21 19 22 24 23 20 24
REMARK SMILES IDX 22 25 21 26
REMARK H PARENT 5 5
ROOT
ATOM      1  C   UNL     1       1.056  -0.306  -2.302  1.00  0.00     0.309 C 
ATOM      2  O   UNL     1       1.724  -1.309  -2.672  1.00  0.00    -0.264 OA
ENDROOT
BRANCH   1   3
ATOM      3  C   UNL     1       1.692   1.023  -2.257  1.00  0.00     0.273 C 
BRANCH   3   4
ATOM      4  O   UNL     1       2.987   1.206  -2.746  1.00  0.00    -0.490 OA
ATOM      5  H   UNL     1       3.520   0.442  -3.142  1.00  0.00     0.295 HD
ENDBRANCH   3   4
BRANCH   3   6
ATOM      6  N   UNL     1       1.041   2.022  -1.742  1.00  0.00    -0.247 NA
BRANCH   6   7
ATOM      7  C   UNL     1       1.583   3.371  -1.640  1.00  0.00     0.143 C 
ATOM      8  C   UNL     1       0.563   4.281  -0.972  1.00  0.00     0.029 C 
ENDBRANCH   6   7
ENDBRANCH   3   6
ENDBRANCH   1   3
BRANCH   1   9
ATOM      9  N   UNL     1      -0.320  -0.471  -1.909  1.00  0.00    -0.325 N 
ATOM     10  C   UNL     1      -1.330   0.076  -2.825  1.00  0.00     0.121 C 
ATOM     11  C   UNL     1      -0.702  -1.596  -1.027  1.00  0.00     0.150 C 
ATOM     12  C   UNL     1      -2.632   0.379  -2.088  1.00  0.00     0.028 C 
ATOM     13  C   UNL     1      -2.052  -1.319  -0.327  1.00  0.00     0.196 C 
ATOM     14  C   UNL     1      -3.125  -0.865  -1.332  1.00  0.00     0.024 C 
ATOM     15  F   UNL     1      -2.475  -2.473   0.316  1.00  0.00    -0.245 F 
ATOM     16  C   UNL     1      -4.450  -0.562  -0.621  1.00  0.00     0.011 C 
BRANCH  11  17
ATOM     17  C   UNL     1       0.359  -1.869   0.028  1.00  0.00    -0.020 A 
ATOM     18  C   UNL     1       0.867  -3.163   0.201  1.00  0.00     0.007 A 
ATOM     19  C   UNL     1       0.833  -0.835   0.853  1.00  0.00     0.046 A 
ATOM     20  C   UNL     1       1.840  -3.418   1.171  1.00  0.00     0.015 A 
ATOM     21  C   UNL     1       1.806  -1.084   1.824  1.00  0.00     0.134 A 
ATOM     22  C   UNL     1       2.321  -2.388   1.999  1.00  0.00     0.053 A 
ATOM     23  F   UNL     1       2.260  -0.039   2.560  1.00  0.00    -0.206 F 
BRANCH  22  24
ATOM     24  C   UNL     1       3.356  -2.703   3.020  1.00  0.00     0.162 C 
ATOM     25  O   UNL     1       4.083  -3.722   2.870  1.00  0.00    -0.294 OA
ATOM     26  C   UNL     1       3.579  -1.846   4.229  1.00  0.00     0.093 C 
ENDBRANCH  22  24
ENDBRANCH  11  17
ENDBRANCH   1   9
TORSDOF 7


