MODEL 1
REMARK VINA RESULT:      -5.2      0.000      0.000
REMARK SMILES Cn1n[nH+]c2cc([N-]C(=O)c3cc(F)cn3/C(S)=N\[C@H]3CCCO3)ccc21
REMARK SMILES IDX 16 1 15 2 13 3 14 4 12 5 11 6 17 7 18 8 19 10 20 11 24 12
REMARK SMILES IDX 21 13 23 14 22 15 9 16 10 17 8 18 7 19 25 20 6 21 26 22 5 23
REMARK SMILES IDX 27 24 4 25 2 26 3 27 1 29
REMARK H PARENT 18 9 4 28
ROOT
ATOM      1  N   UNL     1      43.520 131.988  20.773  1.00  0.00    -0.292 N 
ATOM      2  C   UNL     1      42.678 132.521  21.677  1.00  0.00     0.133 A 
ATOM      3  C   UNL     1      41.571 133.020  21.029  1.00  0.00     0.142 A 
ATOM      4  F   UNL     1      40.507 133.623  21.614  1.00  0.00    -0.205 F 
ATOM      5  C   UNL     1      41.740 132.796  19.679  1.00  0.00     0.069 A 
ATOM      6  C   UNL     1      42.961 132.159  19.549  1.00  0.00     0.076 A 
ENDROOT
BRANCH   1   7
ATOM      7  C   UNL     1      44.751 131.326  21.096  1.00  0.00     0.167 C 
BRANCH   7   8
ATOM      8  S   UNL     1      46.244 132.292  21.275  1.00  0.00    -0.105 SA
ATOM      9  H   UNL     1      46.920 131.226  21.899  1.00  0.00     0.111 HD
ENDBRANCH   7   8
BRANCH   7  10
ATOM     10  N   UNL     1      44.799 130.044  21.312  1.00  0.00    -0.230 NA
BRANCH  10  11
ATOM     11  C   UNL     1      44.047 129.340  22.352  1.00  0.00     0.237 C 
ATOM     12  O   UNL     1      43.798 130.200  23.439  1.00  0.00    -0.356 OA
ATOM     13  C   UNL     1      44.841 128.156  22.858  1.00  0.00     0.059 C 
ATOM     14  C   UNL     1      43.883 129.426  24.615  1.00  0.00     0.163 C 
ATOM     15  C   UNL     1      44.377 128.030  24.277  1.00  0.00     0.033 C 
ENDBRANCH  10  11
ENDBRANCH   7  10
ENDBRANCH   1   7
BRANCH   6  16
ATOM     16  C   UNL     1      43.569 131.765  18.263  1.00  0.00     0.103 C 
ATOM     17  O   UNL     1      42.951 131.966  17.184  1.00  0.00    -0.313 OA
BRANCH  16  18
ATOM     18  N   UNL     1      44.838 131.098  18.260  1.00  0.00    -0.621 NA
BRANCH  18  19
ATOM     19  C   UNL     1      45.636 130.777  17.112  1.00  0.00    -0.129 A 
ATOM     20  C   UNL     1      46.362 129.553  17.014  1.00  0.00    -0.011 A 
ATOM     21  C   UNL     1      45.652 131.687  16.033  1.00  0.00     0.042 A 
ATOM     22  C   UNL     1      47.128 129.260  15.869  1.00  0.00     0.057 A 
ATOM     23  C   UNL     1      46.421 131.360  14.923  1.00  0.00     0.194 A 
ATOM     24  C   UNL     1      47.130 130.202  14.844  1.00  0.00     0.197 A 
ATOM     25  N   UNL     1      46.605 132.041  13.778  1.00  0.00    -0.143 N 
ATOM     26  N   UNL     1      47.743 130.184  13.648  1.00  0.00    -0.133 N 
ATOM     27  N   UNL     1      47.415 131.309  13.017  1.00  0.00     0.088 NA
ATOM     28  H   UNL     1      46.198 132.964  13.511  1.00  0.00     0.342 HD
ATOM     29  C   UNL     1      48.615 129.151  13.108  1.00  0.00     0.327 C 
ENDBRANCH  18  19
ENDBRANCH  16  18
ENDBRANCH   6  16
TORSDOF 7
ENDMDL
MODEL 2
REMARK VINA RESULT:      -5.1      1.050      1.663
REMARK SMILES Cn1n[nH+]c2cc([N-]C(=O)c3cc(F)cn3/C(S)=N\[C@H]3CCCO3)ccc21
REMARK SMILES IDX 16 1 15 2 13 3 14 4 12 5 11 6 17 7 18 8 19 10 20 11 24 12
REMARK SMILES IDX 21 13 23 14 22 15 9 16 10 17 8 18 7 19 25 20 6 21 26 22 5 23
REMARK SMILES IDX 27 24 4 25 2 26 3 27 1 29
REMARK H PARENT 18 9 4 28
ROOT
ATOM      1  N   UNL     1      43.570 131.963  20.488  1.00  0.00    -0.292 N 
ATOM      2  C   UNL     1      42.773 132.702  21.282  1.00  0.00     0.133 A 
ATOM      3  C   UNL     1      41.675 133.117  20.564  1.00  0.00     0.142 A 
ATOM      4  F   UNL     1      40.651 133.872  21.033  1.00  0.00    -0.205 F 
ATOM      5  C   UNL     1      41.803 132.627  19.281  1.00  0.00     0.069 A 
ATOM      6  C   UNL     1      42.992 131.919  19.262  1.00  0.00     0.076 A 
ENDROOT
BRANCH   1   7
ATOM      7  C   UNL     1      44.777 131.318  20.919  1.00  0.00     0.167 C 
BRANCH   7   8
ATOM      8  S   UNL     1      46.303 132.249  20.950  1.00  0.00    -0.105 SA
ATOM      9  H   UNL     1      46.872 131.383  21.902  1.00  0.00     0.111 HD
ENDBRANCH   7   8
BRANCH   7  10
ATOM     10  N   UNL     1      44.781 130.086  21.335  1.00  0.00    -0.230 NA
BRANCH  10  11
ATOM     11  C   UNL     1      44.467 129.661  22.699  1.00  0.00     0.237 C 
ATOM     12  O   UNL     1      43.270 128.921  22.717  1.00  0.00    -0.356 OA
ATOM     13  C   UNL     1      44.291 130.869  23.594  1.00  0.00     0.059 C 
ATOM     14  C   UNL     1      42.592 129.245  23.911  1.00  0.00     0.163 C 
ATOM     15  C   UNL     1      43.314 130.378  24.619  1.00  0.00     0.033 C 
ENDBRANCH  10  11
ENDBRANCH   7  10
ENDBRANCH   1   7
BRANCH   6  16
ATOM     16  C   UNL     1      43.553 131.253  18.070  1.00  0.00     0.103 C 
ATOM     17  O   UNL     1      42.799 130.610  17.293  1.00  0.00    -0.313 OA
BRANCH  16  18
ATOM     18  N   UNL     1      44.967 131.295  17.841  1.00  0.00    -0.621 NA
BRANCH  18  19
ATOM     19  C   UNL     1      45.637 131.145  16.582  1.00  0.00    -0.129 A 
ATOM     20  C   UNL     1      45.447 132.065  15.509  1.00  0.00    -0.011 A 
ATOM     21  C   UNL     1      46.550 130.077  16.433  1.00  0.00     0.042 A 
ATOM     22  C   UNL     1      46.128 131.898  14.288  1.00  0.00     0.057 A 
ATOM     23  C   UNL     1      47.200 129.949  15.212  1.00  0.00     0.194 A 
ATOM     24  C   UNL     1      46.997 130.815  14.184  1.00  0.00     0.197 A 
ATOM     25  N   UNL     1      48.103 129.035  14.816  1.00  0.00    -0.143 N 
ATOM     26  N   UNL     1      47.781 130.424  13.165  1.00  0.00    -0.133 N 
ATOM     27  N   UNL     1      48.443 129.341  13.566  1.00  0.00     0.088 NA
ATOM     28  H   UNL     1      48.487 128.235  15.366  1.00  0.00     0.342 HD
ATOM     29  C   UNL     1      47.909 131.038  11.851  1.00  0.00     0.327 C 
ENDBRANCH  18  19
ENDBRANCH  16  18
ENDBRANCH   6  16
TORSDOF 7
ENDMDL
MODEL 3
REMARK VINA RESULT:      -5.1      2.426      3.024
REMARK SMILES Cn1n[nH+]c2cc([N-]C(=O)c3cc(F)cn3/C(S)=N\[C@H]3CCCO3)ccc21
REMARK SMILES IDX 16 1 15 2 13 3 14 4 12 5 11 6 17 7 18 8 19 10 20 11 24 12
REMARK SMILES IDX 21 13 23 14 22 15 9 16 10 17 8 18 7 19 25 20 6 21 26 22 5 23
REMARK SMILES IDX 27 24 4 25 2 26 3 27 1 29
REMARK H PARENT 18 9 4 28
ROOT
ATOM      1  N   UNL     1      44.257 131.388  21.585  1.00  0.00    -0.292 N 
ATOM      2  C   UNL     1      45.493 131.602  22.073  1.00  0.00     0.133 A 
ATOM      3  C   UNL     1      46.293 132.116  21.078  1.00  0.00     0.142 A 
ATOM      4  F   UNL     1      47.597 132.464  21.201  1.00  0.00    -0.205 F 
ATOM      5  C   UNL     1      45.529 132.214  19.934  1.00  0.00     0.069 A 
ATOM      6  C   UNL     1      44.270 131.749  20.277  1.00  0.00     0.076 A 
ENDROOT
BRANCH   1   7
ATOM      7  C   UNL     1      43.146 130.910  22.357  1.00  0.00     0.167 C 
BRANCH   7   8
ATOM      8  S   UNL     1      42.093 132.084  23.197  1.00  0.00    -0.105 SA
ATOM      9  H   UNL     1      41.020 131.823  22.325  1.00  0.00     0.111 HD
ENDBRANCH   7   8
BRANCH   7  10
ATOM     10  N   UNL     1      42.857 129.643  22.421  1.00  0.00    -0.230 NA
BRANCH  10  11
ATOM     11  C   UNL     1      42.777 128.863  23.656  1.00  0.00     0.237 C 
ATOM     12  O   UNL     1      43.721 127.819  23.636  1.00  0.00    -0.356 OA
ATOM     13  C   UNL     1      41.400 128.253  23.799  1.00  0.00     0.059 C 
ATOM     14  C   UNL     1      43.134 126.707  24.275  1.00  0.00     0.163 C 
ATOM     15  C   UNL     1      41.674 127.001  24.575  1.00  0.00     0.033 C 
ENDBRANCH  10  11
ENDBRANCH   7  10
ENDBRANCH   1   7
BRANCH   6  16
ATOM     16  C   UNL     1      43.135 131.635  19.342  1.00  0.00     0.103 C 
ATOM     17  O   UNL     1      42.052 131.117  19.723  1.00  0.00    -0.313 OA
BRANCH  16  18
ATOM     18  N   UNL     1      43.297 132.062  17.983  1.00  0.00    -0.621 NA
BRANCH  18  19
ATOM     19  C   UNL     1      44.274 131.588  17.045  1.00  0.00    -0.129 A 
ATOM     20  C   UNL     1      45.180 132.472  16.387  1.00  0.00    -0.011 A 
ATOM     21  C   UNL     1      44.364 130.198  16.817  1.00  0.00     0.042 A 
ATOM     22  C   UNL     1      46.137 131.976  15.479  1.00  0.00     0.057 A 
ATOM     23  C   UNL     1      45.321 129.752  15.914  1.00  0.00     0.194 A 
ATOM     24  C   UNL     1      46.166 130.601  15.271  1.00  0.00     0.197 A 
ATOM     25  N   UNL     1      45.610 128.498  15.524  1.00  0.00    -0.143 N 
ATOM     26  N   UNL     1      46.969 129.857  14.491  1.00  0.00    -0.133 N 
ATOM     27  N   UNL     1      46.615 128.584  14.656  1.00  0.00     0.088 NA
ATOM     28  H   UNL     1      45.155 127.611  15.833  1.00  0.00     0.342 HD
ATOM     29  C   UNL     1      48.035 130.316  13.611  1.00  0.00     0.327 C 
ENDBRANCH  18  19
ENDBRANCH  16  18
ENDBRANCH   6  16
TORSDOF 7
ENDMDL
MODEL 4
REMARK VINA RESULT:      -5.1      1.234      1.242
REMARK SMILES Cn1n[nH+]c2cc([N-]C(=O)c3cc(F)cn3/C(S)=N\[C@H]3CCCO3)ccc21
REMARK SMILES IDX 16 1 15 2 13 3 14 4 12 5 11 6 17 7 18 8 19 10 20 11 24 12
REMARK SMILES IDX 21 13 23 14 22 15 9 16 10 17 8 18 7 19 25 20 6 21 26 22 5 23
REMARK SMILES IDX 27 24 4 25 2 26 3 27 1 29
REMARK H PARENT 18 9 4 28
ROOT
ATOM      1  N   UNL     1      43.539 131.727  21.372  1.00  0.00    -0.292 N 
ATOM      2  C   UNL     1      42.365 132.287  21.717  1.00  0.00     0.133 A 
ATOM      3  C   UNL     1      41.753 132.792  20.592  1.00  0.00     0.142 A 
ATOM      4  F   UNL     1      40.553 133.419  20.548  1.00  0.00    -0.205 F 
ATOM      5  C   UNL     1      42.582 132.544  19.518  1.00  0.00     0.069 A 
ATOM      6  C   UNL     1      43.686 131.886  20.033  1.00  0.00     0.076 A 
ENDROOT
BRANCH   1   7
ATOM      7  C   UNL     1      44.419 131.052  22.282  1.00  0.00     0.167 C 
BRANCH   7   8
ATOM      8  S   UNL     1      44.965 131.896  23.760  1.00  0.00    -0.105 SA
ATOM      9  H   UNL     1      44.089 131.151  24.571  1.00  0.00     0.111 HD
ENDBRANCH   7   8
BRANCH   7  10
ATOM     10  N   UNL     1      44.791 129.822  22.084  1.00  0.00    -0.230 NA
BRANCH  10  11
ATOM     11  C   UNL     1      44.146 128.646  22.669  1.00  0.00     0.237 C 
ATOM     12  O   UNL     1      43.101 129.040  23.526  1.00  0.00    -0.356 OA
ATOM     13  C   UNL     1      45.147 127.850  23.478  1.00  0.00     0.059 C 
ATOM     14  C   UNL     1      43.085 128.140  24.612  1.00  0.00     0.163 C 
ATOM     15  C   UNL     1      44.291 127.218  24.532  1.00  0.00     0.033 C 
ENDBRANCH  10  11
ENDBRANCH   7  10
ENDBRANCH   1   7
BRANCH   6  16
ATOM     16  C   UNL     1      44.856 131.463  19.240  1.00  0.00     0.103 C 
ATOM     17  O   UNL     1      45.741 130.733  19.760  1.00  0.00    -0.313 OA
BRANCH  16  18
ATOM     18  N   UNL     1      45.004 131.938  17.896  1.00  0.00    -0.621 NA
BRANCH  18  19
ATOM     19  C   UNL     1      45.776 131.331  16.851  1.00  0.00    -0.129 A 
ATOM     20  C   UNL     1      46.259 129.992  16.947  1.00  0.00    -0.011 A 
ATOM     21  C   UNL     1      46.014 132.077  15.676  1.00  0.00     0.042 A 
ATOM     22  C   UNL     1      47.005 129.419  15.899  1.00  0.00     0.057 A 
ATOM     23  C   UNL     1      46.755 131.473  14.667  1.00  0.00     0.194 A 
ATOM     24  C   UNL     1      47.233 130.205  14.774  1.00  0.00     0.197 A 
ATOM     25  N   UNL     1      47.117 131.957  13.465  1.00  0.00    -0.143 N 
ATOM     26  N   UNL     1      47.885 129.921  13.632  1.00  0.00    -0.133 N 
ATOM     27  N   UNL     1      47.806 130.997  12.852  1.00  0.00     0.088 NA
ATOM     28  H   UNL     1      46.906 132.897  13.064  1.00  0.00     0.342 HD
ATOM     29  C   UNL     1      48.567 128.685  13.278  1.00  0.00     0.327 C 
ENDBRANCH  18  19
ENDBRANCH  16  18
ENDBRANCH   6  16
TORSDOF 7
ENDMDL
MODEL 5
REMARK VINA RESULT:      -4.2      1.519      2.016
REMARK SMILES Cn1n[nH+]c2cc([N-]C(=O)c3cc(F)cn3/C(S)=N\[C@H]3CCCO3)ccc21
REMARK SMILES IDX 16 1 15 2 13 3 14 4 12 5 11 6 17 7 18 8 19 10 20 11 24 12
REMARK SMILES IDX 21 13 23 14 22 15 9 16 10 17 8 18 7 19 25 20 6 21 26 22 5 23
REMARK SMILES IDX 27 24 4 25 2 26 3 27 1 29
REMARK H PARENT 18 9 4 28
ROOT
ATOM      1  N   UNL     1      43.542 131.978  20.596  1.00  0.00    -0.292 N 
ATOM      2  C   UNL     1      42.339 132.572  20.496  1.00  0.00     0.133 A 
ATOM      3  C   UNL     1      41.955 132.601  19.174  1.00  0.00     0.142 A 
ATOM      4  F   UNL     1      40.798 133.114  18.689  1.00  0.00    -0.205 F 
ATOM      5  C   UNL     1      42.960 132.015  18.433  1.00  0.00     0.069 A 
ATOM      6  C   UNL     1      43.935 131.643  19.342  1.00  0.00     0.076 A 
ENDROOT
BRANCH   1   7
ATOM      7  C   UNL     1      44.225 131.724  21.832  1.00  0.00     0.167 C 
BRANCH   7   8
ATOM      8  S   UNL     1      45.787 132.533  22.153  1.00  0.00    -0.105 SA
ATOM      9  H   UNL     1      45.488 132.680  23.520  1.00  0.00     0.111 HD
ENDBRANCH   7   8
BRANCH   7  10
ATOM     10  N   UNL     1      43.712 130.956  22.748  1.00  0.00    -0.230 NA
BRANCH  10  11
ATOM     11  C   UNL     1      43.873 129.503  22.811  1.00  0.00     0.237 C 
ATOM     12  O   UNL     1      42.636 128.887  23.081  1.00  0.00    -0.356 OA
ATOM     13  C   UNL     1      44.838 129.132  23.916  1.00  0.00     0.059 C 
ATOM     14  C   UNL     1      42.891 127.778  23.915  1.00  0.00     0.163 C 
ATOM     15  C   UNL     1      44.350 127.780  24.338  1.00  0.00     0.033 C 
ENDBRANCH  10  11
ENDBRANCH   7  10
ENDBRANCH   1   7
BRANCH   6  16
ATOM     16  C   UNL     1      45.220 131.012  18.983  1.00  0.00     0.103 C 
ATOM     17  O   UNL     1      46.271 131.320  19.604  1.00  0.00    -0.313 OA
BRANCH  16  18
ATOM     18  N   UNL     1      45.269 130.093  17.884  1.00  0.00    -0.621 NA
BRANCH  18  19
ATOM     19  C   UNL     1      45.892 130.311  16.610  1.00  0.00    -0.129 A 
ATOM     20  C   UNL     1      45.775 131.549  15.913  1.00  0.00    -0.011 A 
ATOM     21  C   UNL     1      46.684 129.276  16.068  1.00  0.00     0.042 A 
ATOM     22  C   UNL     1      46.409 131.738  14.669  1.00  0.00     0.057 A 
ATOM     23  C   UNL     1      47.291 129.503  14.839  1.00  0.00     0.194 A 
ATOM     24  C   UNL     1      47.157 130.677  14.167  1.00  0.00     0.197 A 
ATOM     25  N   UNL     1      48.085 128.695  14.114  1.00  0.00    -0.143 N 
ATOM     26  N   UNL     1      47.874 130.579  13.034  1.00  0.00    -0.133 N 
ATOM     27  N   UNL     1      48.428 129.368  13.018  1.00  0.00     0.088 NA
ATOM     28  H   UNL     1      48.395 127.726  14.347  1.00  0.00     0.342 HD
ATOM     29  C   UNL     1      48.036 131.581  11.991  1.00  0.00     0.327 C 
ENDBRANCH  18  19
ENDBRANCH  16  18
ENDBRANCH   6  16
TORSDOF 7
ENDMDL
MODEL 6
REMARK VINA RESULT:      -3.8      1.498      1.750
REMARK SMILES Cn1n[nH+]c2cc([N-]C(=O)c3cc(F)cn3/C(S)=N\[C@H]3CCCO3)ccc21
REMARK SMILES IDX 16 1 15 2 13 3 14 4 12 5 11 6 17 7 18 8 19 10 20 11 24 12
REMARK SMILES IDX 21 13 23 14 22 15 9 16 10 17 8 18 7 19 25 20 6 21 26 22 5 23
REMARK SMILES IDX 27 24 4 25 2 26 3 27 1 29
REMARK H PARENT 18 9 4 28
ROOT
ATOM      1  N   UNL     1      43.870 131.106  21.887  1.00  0.00    -0.292 N 
ATOM      2  C   UNL     1      43.463 131.440  23.126  1.00  0.00     0.133 A 
ATOM      3  C   UNL     1      42.361 132.260  23.037  1.00  0.00     0.142 A 
ATOM      4  F   UNL     1      41.671 132.789  24.078  1.00  0.00    -0.205 F 
ATOM      5  C   UNL     1      42.084 132.447  21.699  1.00  0.00     0.069 A 
ATOM      6  C   UNL     1      43.041 131.723  21.009  1.00  0.00     0.076 A 
ENDROOT
BRANCH   1   7
ATOM      7  C   UNL     1      44.958 130.218  21.599  1.00  0.00     0.167 C 
BRANCH   7   8
ATOM      8  S   UNL     1      46.138 130.660  20.331  1.00  0.00    -0.105 SA
ATOM      9  H   UNL     1      46.579 131.781  21.060  1.00  0.00     0.111 HD
ENDBRANCH   7   8
BRANCH   7  10
ATOM     10  N   UNL     1      45.137 129.119  22.272  1.00  0.00    -0.230 NA
BRANCH  10  11
ATOM     11  C   UNL     1      44.299 127.924  22.164  1.00  0.00     0.237 C 
ATOM     12  O   UNL     1      43.405 127.856  23.249  1.00  0.00    -0.356 OA
ATOM     13  C   UNL     1      45.159 126.680  22.180  1.00  0.00     0.059 C 
ATOM     14  C   UNL     1      43.266 126.496  23.596  1.00  0.00     0.163 C 
ATOM     15  C   UNL     1      44.251 125.660  22.797  1.00  0.00     0.033 C 
ENDBRANCH  10  11
ENDBRANCH   7  10
ENDBRANCH   1   7
BRANCH   6  16
ATOM     16  C   UNL     1      43.153 131.670  19.538  1.00  0.00     0.103 C 
ATOM     17  O   UNL     1      42.249 131.119  18.855  1.00  0.00    -0.313 OA
BRANCH  16  18
ATOM     18  N   UNL     1      44.325 132.197  18.903  1.00  0.00    -0.621 NA
BRANCH  18  19
ATOM     19  C   UNL     1      45.044 131.612  17.808  1.00  0.00    -0.129 A 
ATOM     20  C   UNL     1      45.317 130.214  17.744  1.00  0.00    -0.011 A 
ATOM     21  C   UNL     1      45.443 132.451  16.745  1.00  0.00     0.042 A 
ATOM     22  C   UNL     1      46.016 129.666  16.650  1.00  0.00     0.057 A 
ATOM     23  C   UNL     1      46.130 131.870  15.686  1.00  0.00     0.194 A 
ATOM     24  C   UNL     1      46.409 130.540  15.642  1.00  0.00     0.197 A 
ATOM     25  N   UNL     1      46.613 132.436  14.567  1.00  0.00    -0.143 N 
ATOM     26  N   UNL     1      47.061 130.302  14.490  1.00  0.00    -0.133 N 
ATOM     27  N   UNL     1      47.178 131.465  13.853  1.00  0.00     0.088 NA
ATOM     28  H   UNL     1      46.562 133.440  14.284  1.00  0.00     0.342 HD
ATOM     29  C   UNL     1      47.566 129.029  13.998  1.00  0.00     0.327 C 
ENDBRANCH  18  19
ENDBRANCH  16  18
ENDBRANCH   6  16
TORSDOF 7
ENDMDL
MODEL 7
REMARK VINA RESULT:      -3.4      2.255      2.617
REMARK SMILES Cn1n[nH+]c2cc([N-]C(=O)c3cc(F)cn3/C(S)=N\[C@H]3CCCO3)ccc21
REMARK SMILES IDX 16 1 15 2 13 3 14 4 12 5 11 6 17 7 18 8 19 10 20 11 24 12
REMARK SMILES IDX 21 13 23 14 22 15 9 16 10 17 8 18 7 19 25 20 6 21 26 22 5 23
REMARK SMILES IDX 27 24 4 25 2 26 3 27 1 29
REMARK H PARENT 18 9 4 28
ROOT
ATOM      1  N   UNL     1      44.263 131.812  21.529  1.00  0.00    -0.292 N 
ATOM      2  C   UNL     1      45.505 131.856  22.046  1.00  0.00     0.133 A 
ATOM      3  C   UNL     1      46.404 132.155  21.046  1.00  0.00     0.142 A 
ATOM      4  F   UNL     1      47.744 132.292  21.191  1.00  0.00    -0.205 F 
ATOM      5  C   UNL     1      45.694 132.290  19.872  1.00  0.00     0.069 A 
ATOM      6  C   UNL     1      44.368 132.066  20.201  1.00  0.00     0.076 A 
ENDROOT
BRANCH   1   7
ATOM      7  C   UNL     1      43.071 131.582  22.293  1.00  0.00     0.167 C 
BRANCH   7   8
ATOM      8  S   UNL     1      41.593 132.512  21.911  1.00  0.00    -0.105 SA
ATOM      9  H   UNL     1      41.089 132.345  23.214  1.00  0.00     0.111 HD
ENDBRANCH   7   8
BRANCH   7  10
ATOM     10  N   UNL     1      43.024 130.676  23.225  1.00  0.00    -0.230 NA
BRANCH  10  11
ATOM     11  C   UNL     1      42.585 129.294  23.030  1.00  0.00     0.237 C 
ATOM     12  O   UNL     1      41.561 128.974  23.942  1.00  0.00    -0.356 OA
ATOM     13  C   UNL     1      43.739 128.343  23.259  1.00  0.00     0.059 C 
ATOM     14  C   UNL     1      41.744 127.629  24.325  1.00  0.00     0.163 C 
ATOM     15  C   UNL     1      43.052 127.106  23.755  1.00  0.00     0.033 C 
ENDBRANCH  10  11
ENDBRANCH   7  10
ENDBRANCH   1   7
BRANCH   6  16
ATOM     16  C   UNL     1      43.252 132.069  19.235  1.00  0.00     0.103 C 
ATOM     17  O   UNL     1      42.303 132.886  19.369  1.00  0.00    -0.313 OA
BRANCH  16  18
ATOM     18  N   UNL     1      43.229 131.095  18.184  1.00  0.00    -0.621 NA
BRANCH  18  19
ATOM     19  C   UNL     1      44.272 130.834  17.233  1.00  0.00    -0.129 A 
ATOM     20  C   UNL     1      44.764 129.517  16.994  1.00  0.00    -0.011 A 
ATOM     21  C   UNL     1      44.780 131.917  16.483  1.00  0.00     0.042 A 
ATOM     22  C   UNL     1      45.781 129.290  16.045  1.00  0.00     0.057 A 
ATOM     23  C   UNL     1      45.782 131.650  15.559  1.00  0.00     0.194 A 
ATOM     24  C   UNL     1      46.264 130.395  15.352  1.00  0.00     0.197 A 
ATOM     25  N   UNL     1      46.426 132.488  14.729  1.00  0.00    -0.143 N 
ATOM     26  N   UNL     1      47.202 130.477  14.392  1.00  0.00    -0.133 N 
ATOM     27  N   UNL     1      47.288 131.755  14.028  1.00  0.00     0.088 NA
ATOM     28  H   UNL     1      46.291 133.518  14.628  1.00  0.00     0.342 HD
ATOM     29  C   UNL     1      48.001 129.397  13.831  1.00  0.00     0.327 C 
ENDBRANCH  18  19
ENDBRANCH  16  18
ENDBRANCH   6  16
TORSDOF 7
ENDMDL
MODEL 8
REMARK VINA RESULT:      -3.2      2.100      2.843
REMARK SMILES Cn1n[nH+]c2cc([N-]C(=O)c3cc(F)cn3/C(S)=N\[C@H]3CCCO3)ccc21
REMARK SMILES IDX 16 1 15 2 13 3 14 4 12 5 11 6 17 7 18 8 19 10 20 11 24 12
REMARK SMILES IDX 21 13 23 14 22 15 9 16 10 17 8 18 7 19 25 20 6 21 26 22 5 23
REMARK SMILES IDX 27 24 4 25 2 26 3 27 1 29
REMARK H PARENT 18 9 4 28
ROOT
ATOM      1  N   UNL     1      44.359 132.163  21.150  1.00  0.00    -0.292 N 
ATOM      2  C   UNL     1      45.357 132.503  21.987  1.00  0.00     0.133 A 
ATOM      3  C   UNL     1      46.545 132.529  21.292  1.00  0.00     0.142 A 
ATOM      4  F   UNL     1      47.762 132.838  21.801  1.00  0.00    -0.205 F 
ATOM      5  C   UNL     1      46.273 132.184  19.985  1.00  0.00     0.069 A 
ATOM      6  C   UNL     1      44.909 131.957  19.927  1.00  0.00     0.076 A 
ENDROOT
BRANCH   1   7
ATOM      7  C   UNL     1      42.974 132.092  21.518  1.00  0.00     0.167 C 
BRANCH   7   8
ATOM      8  S   UNL     1      41.731 132.664  20.368  1.00  0.00    -0.105 SA
ATOM      9  H   UNL     1      41.994 131.604  19.479  1.00  0.00     0.111 HD
ENDBRANCH   7   8
BRANCH   7  10
ATOM     10  N   UNL     1      42.597 131.576  22.651  1.00  0.00    -0.230 NA
BRANCH  10  11
ATOM     11  C   UNL     1      43.325 130.539  23.383  1.00  0.00     0.237 C 
ATOM     12  O   UNL     1      43.942 129.649  22.484  1.00  0.00    -0.356 OA
ATOM     13  C   UNL     1      42.373 129.749  24.254  1.00  0.00     0.059 C 
ATOM     14  C   UNL     1      43.875 128.360  23.054  1.00  0.00     0.163 C 
ATOM     15  C   UNL     1      43.022 128.399  24.310  1.00  0.00     0.033 C 
ENDBRANCH  10  11
ENDBRANCH   7  10
ENDBRANCH   1   7
BRANCH   6  16
ATOM     16  C   UNL     1      44.181 131.520  18.720  1.00  0.00     0.103 C 
ATOM     17  O   UNL     1      43.071 132.040  18.429  1.00  0.00    -0.313 OA
BRANCH  16  18
ATOM     18  N   UNL     1      44.721 130.461  17.918  1.00  0.00    -0.621 NA
BRANCH  18  19
ATOM     19  C   UNL     1      45.485 130.601  16.713  1.00  0.00    -0.129 A 
ATOM     20  C   UNL     1      45.562 131.837  16.006  1.00  0.00    -0.011 A 
ATOM     21  C   UNL     1      46.218 129.486  16.253  1.00  0.00     0.042 A 
ATOM     22  C   UNL     1      46.331 131.947  14.830  1.00  0.00     0.057 A 
ATOM     23  C   UNL     1      46.962 129.637  15.089  1.00  0.00     0.194 A 
ATOM     24  C   UNL     1      47.014 130.812  14.406  1.00  0.00     0.197 A 
ATOM     25  N   UNL     1      47.739 128.746  14.448  1.00  0.00    -0.143 N 
ATOM     26  N   UNL     1      47.825 130.629  13.349  1.00  0.00    -0.133 N 
ATOM     27  N   UNL     1      48.253 129.370  13.390  1.00  0.00     0.088 NA
ATOM     28  H   UNL     1      47.925 127.754  14.712  1.00  0.00     0.342 HD
ATOM     29  C   UNL     1      48.189 131.599  12.326  1.00  0.00     0.327 C 
ENDBRANCH  18  19
ENDBRANCH  16  18
ENDBRANCH   6  16
TORSDOF 7
ENDMDL
MODEL 9
REMARK VINA RESULT:      -2.9      1.932      2.639
REMARK SMILES Cn1n[nH+]c2cc([N-]C(=O)c3cc(F)cn3/C(S)=N\[C@H]3CCCO3)ccc21
REMARK SMILES IDX 16 1 15 2 13 3 14 4 12 5 11 6 17 7 18 8 19 10 20 11 24 12
REMARK SMILES IDX 21 13 23 14 22 15 9 16 10 17 8 18 7 19 25 20 6 21 26 22 5 23
REMARK SMILES IDX 27 24 4 25 2 26 3 27 1 29
REMARK H PARENT 18 9 4 28
ROOT
ATOM      1  N   UNL     1      43.499 132.201  20.613  1.00  0.00    -0.292 N 
ATOM      2  C   UNL     1      42.590 132.667  21.489  1.00  0.00     0.133 A 
ATOM      3  C   UNL     1      41.414 132.935  20.826  1.00  0.00     0.142 A 
ATOM      4  F   UNL     1      40.272 133.409  21.383  1.00  0.00    -0.205 F 
ATOM      5  C   UNL     1      41.606 132.634  19.494  1.00  0.00     0.069 A 
ATOM      6  C   UNL     1      42.912 132.186  19.390  1.00  0.00     0.076 A 
ENDROOT
BRANCH   1   7
ATOM      7  C   UNL     1      44.820 131.766  20.963  1.00  0.00     0.167 C 
BRANCH   7   8
ATOM      8  S   UNL     1      45.079 130.072  21.473  1.00  0.00    -0.105 SA
ATOM      9  H   UNL     1      45.321 129.658  20.150  1.00  0.00     0.111 HD
ENDBRANCH   7   8
BRANCH   7  10
ATOM     10  N   UNL     1      45.845 132.562  20.871  1.00  0.00    -0.230 NA
BRANCH  10  11
ATOM     11  C   UNL     1      46.857 132.748  21.912  1.00  0.00     0.237 C 
ATOM     12  O   UNL     1      46.297 133.403  23.025  1.00  0.00    -0.356 OA
ATOM     13  C   UNL     1      47.995 133.597  21.387  1.00  0.00     0.059 C 
ATOM     14  C   UNL     1      47.284 134.263  23.549  1.00  0.00     0.163 C 
ATOM     15  C   UNL     1      48.488 134.287  22.622  1.00  0.00     0.033 C 
ENDBRANCH  10  11
ENDBRANCH   7  10
ENDBRANCH   1   7
BRANCH   6  16
ATOM     16  C   UNL     1      43.565 131.791  18.127  1.00  0.00     0.103 C 
ATOM     17  O   UNL     1      42.956 131.925  17.033  1.00  0.00    -0.313 OA
BRANCH  16  18
ATOM     18  N   UNL     1      44.870 131.200  18.165  1.00  0.00    -0.621 NA
BRANCH  18  19
ATOM     19  C   UNL     1      45.694 130.866  17.040  1.00  0.00    -0.129 A 
ATOM     20  C   UNL     1      46.356 129.607  16.935  1.00  0.00    -0.011 A 
ATOM     21  C   UNL     1      45.801 131.800  15.987  1.00  0.00     0.042 A 
ATOM     22  C   UNL     1      47.150 129.302  15.812  1.00  0.00     0.057 A 
ATOM     23  C   UNL     1      46.593 131.460  14.898  1.00  0.00     0.194 A 
ATOM     24  C   UNL     1      47.242 130.268  14.815  1.00  0.00     0.197 A 
ATOM     25  N   UNL     1      46.858 132.159  13.781  1.00  0.00    -0.143 N 
ATOM     26  N   UNL     1      47.899 130.247  13.642  1.00  0.00    -0.133 N 
ATOM     27  N   UNL     1      47.657 131.403  13.030  1.00  0.00     0.088 NA
ATOM     28  H   UNL     1      46.511 133.109  13.523  1.00  0.00     0.342 HD
ATOM     29  C   UNL     1      48.735 129.181  13.107  1.00  0.00     0.327 C 
ENDBRANCH  18  19
ENDBRANCH  16  18
ENDBRANCH   6  16
TORSDOF 7
ENDMDL


