REMARK SMILES Cc1ccc([NH2+]c2ccc([C@@H]3O[C@H]3c3ccccc3)c(N)c2[O-])cc1F
REMARK SMILES IDX 7 1 8 2 9 3 10 4 20 5 22 6 23 7 6 8 5 11 2 12 3 13 25 14
REMARK SMILES IDX 4 15 24 16 1 17 26 18 21 19 11 22 12 23 13 24 14 25 15 26
REMARK SMILES IDX 19 27 16 28 18 29 17 30
REMARK H PARENT 6 9 6 10 21 20 21 21
ROOT
ATOM      1  C   UNL     1      -2.226  -0.862   1.200  1.00  0.00     0.128 A 
ATOM      2  C   UNL     1      -1.363  -1.837   0.677  1.00  0.00     0.068 A 
ATOM      3  C   UNL     1       0.016  -1.730   0.848  1.00  0.00     0.015 A 
ATOM      4  C   UNL     1       0.568  -0.636   1.529  1.00  0.00     0.007 A 
ATOM      5  C   UNL     1      -0.288   0.339   2.092  1.00  0.00     0.035 A 
ATOM      6  C   UNL     1      -1.681   0.227   1.911  1.00  0.00    -0.021 A 
ATOM      7  O   UNL     1      -2.525   1.194   2.448  1.00  0.00    -0.867 OA
ENDROOT
BRANCH   1   8
ATOM      8  N   UNL     1      -3.650  -0.969   0.977  1.00  0.00    -0.282 N 
ATOM      9  H   UNL     1      -4.180  -0.557   1.780  1.00  0.00     0.358 HD
ATOM     10  H   UNL     1      -3.930  -1.977   0.927  1.00  0.00     0.358 HD
BRANCH   8  11
ATOM     11  C   UNL     1      -4.003  -0.306  -0.254  1.00  0.00     0.137 A 
ATOM     12  C   UNL     1      -4.642   1.004  -2.668  1.00  0.00    -0.015 A 
ATOM     13  C   UNL     1      -4.209  -0.331  -2.678  1.00  0.00     0.012 A 
ATOM     14  C   UNL     1      -4.736   1.688  -1.445  1.00  0.00     0.132 A 
ATOM     15  C   UNL     1      -3.895  -0.981  -1.482  1.00  0.00     0.068 A 
ATOM     16  C   UNL     1      -4.422   1.036  -0.248  1.00  0.00     0.107 A 
ATOM     17  C   UNL     1      -4.951   1.711  -3.956  1.00  0.00     0.047 C 
ATOM     18  F   UNL     1      -5.129   2.986  -1.411  1.00  0.00    -0.206 F 
ENDBRANCH   8  11
ENDBRANCH   1   8
BRANCH   5  19
ATOM     19  N   UNL     1       0.242   1.434   2.856  1.00  0.00    -0.399 N 
ATOM     20  H   UNL     1      -0.382   2.183   3.232  1.00  0.00     0.156 HD
ATOM     21  H   UNL     1       1.255   1.502   3.096  1.00  0.00     0.156 HD
ENDBRANCH   5  19
BRANCH   4  22
ATOM     22  C   UNL     1       2.063  -0.563   1.690  1.00  0.00     0.185 C 
ATOM     23  O   UNL     1       2.594   0.592   1.078  1.00  0.00    -0.359 OA
ATOM     24  C   UNL     1       2.863  -0.634   0.439  1.00  0.00     0.183 C 
BRANCH  24  25
ATOM     25  C   UNL     1       4.295  -1.043   0.608  1.00  0.00    -0.016 A 
ATOM     26  C   UNL     1       5.332  -0.160   0.269  1.00  0.00     0.006 A 
ATOM     27  C   UNL     1       4.607  -2.339   1.049  1.00  0.00     0.006 A 
ATOM     28  C   UNL     1       6.666  -0.559   0.398  1.00  0.00     0.000 A 
ATOM     29  C   UNL     1       5.942  -2.735   1.177  1.00  0.00     0.000 A 
ATOM     30  C   UNL     1       6.971  -1.845   0.855  1.00  0.00     0.000 A 
ENDBRANCH  24  25
ENDBRANCH   4  22
TORSDOF 5


