REMARK SMILES O/C(=C\Cc1c(F)ccc2[n-]c([NH2+]c3cn4ccccc4n3)cc12)c1ccccc1
REMARK SMILES IDX 3 1 2 2 1 3 25 5 26 6 30 7 27 8 29 9 28 10 4 11 5 12 6 13
REMARK SMILES IDX 24 14 8 15 23 16 10 17 9 18 12 19 11 20 7 21 13 22 14 25
REMARK SMILES IDX 22 26 15 27 21 28 16 29 20 30 17 31 19 32 18 33
REMARK H PARENT 1 4 13 23 13 24
ROOT
ATOM      1  C   UNL     1       0.882  -1.108   3.315  1.00  0.00     0.024 C 
ENDROOT
BRANCH   1   2
ATOM      2  C   UNL     1       1.946  -1.423   2.559  1.00  0.00     0.119 C 
BRANCH   2   3
ATOM      3  O   UNL     1       1.859  -2.477   1.646  1.00  0.00    -0.508 OA
ATOM      4  H   UNL     1       2.656  -2.782   1.100  1.00  0.00     0.293 HD
ENDBRANCH   2   3
BRANCH   2   5
ATOM      5  C   UNL     1       3.210  -0.653   2.666  1.00  0.00     0.016 A 
ATOM      6  C   UNL     1       3.702  -0.225   3.914  1.00  0.00     0.012 A 
ATOM      7  C   UNL     1       3.943  -0.351   1.504  1.00  0.00     0.012 A 
ATOM      8  C   UNL     1       4.898   0.496   3.993  1.00  0.00     0.001 A 
ATOM      9  C   UNL     1       5.137   0.371   1.588  1.00  0.00     0.001 A 
ATOM     10  C   UNL     1       5.614   0.795   2.832  1.00  0.00     0.000 A 
ENDBRANCH   2   5
ENDBRANCH   1   2
BRANCH   1  11
ATOM     11  C   UNL     1      -0.430  -1.839   3.236  1.00  0.00     0.070 C 
BRANCH  11  12
ATOM     12  C   UNL     1      -1.550  -0.855   3.023  1.00  0.00    -0.002 A 
ATOM     13  C   UNL     1      -2.384  -0.441   4.089  1.00  0.00     0.127 A 
ATOM     14  C   UNL     1      -1.776  -0.268   1.769  1.00  0.00    -0.030 A 
ATOM     15  C   UNL     1      -3.415   0.501   3.870  1.00  0.00     0.038 A 
ATOM     16  C   UNL     1      -1.123  -0.426   0.569  1.00  0.00     0.050 A 
ATOM     17  C   UNL     1      -2.777   0.650   1.562  1.00  0.00    -0.125 A 
ATOM     18  C   UNL     1      -3.621   1.052   2.594  1.00  0.00    -0.012 A 
ATOM     19  C   UNL     1      -1.784   0.430  -0.306  1.00  0.00     0.037 A 
ATOM     20  N   UNL     1      -2.806   1.088   0.290  1.00  0.00    -0.610 NA
ATOM     21  F   UNL     1      -2.205  -0.943   5.338  1.00  0.00    -0.207 F 
BRANCH  19  22
ATOM     22  N   UNL     1      -1.454   0.585  -1.693  1.00  0.00    -0.282 N 
ATOM     23  H   UNL     1      -1.870   1.469  -2.062  1.00  0.00     0.358 HD
ATOM     24  H   UNL     1      -0.415   0.632  -1.800  1.00  0.00     0.358 HD
BRANCH  22  25
ATOM     25  C   UNL     1      -1.969  -0.531  -2.429  1.00  0.00     0.246 A 
ATOM     26  N   UNL     1      -3.262  -0.636  -2.830  1.00  0.00    -0.177 NA
ATOM     27  C   UNL     1      -1.250  -1.672  -2.753  1.00  0.00     0.183 A 
ATOM     28  C   UNL     1      -3.291  -1.853  -3.413  1.00  0.00     0.143 A 
ATOM     29  N   UNL     1      -2.104  -2.490  -3.380  1.00  0.00    -0.301 N 
ATOM     30  C   UNL     1      -4.406  -2.450  -3.999  1.00  0.00     0.048 A 
ATOM     31  C   UNL     1      -1.901  -3.728  -3.899  1.00  0.00     0.093 A 
ATOM     32  C   UNL     1      -4.242  -3.732  -4.552  1.00  0.00     0.005 A 
ATOM     33  C   UNL     1      -2.987  -4.375  -4.505  1.00  0.00     0.018 A 
ENDBRANCH  22  25
ENDBRANCH  19  22
ENDBRANCH  11  12
ENDBRANCH   1  11
TORSDOF 7


