REMARK SMILES Cc1cc(-c2cccc3[nH+]coc23)cc(OC(=S)Nc2ccc(-n3cccn3)cc2)c1F
REMARK SMILES IDX 16 1 15 2 2 3 3 4 31 5 4 6 14 7 1 8 32 9 5 10 6 11 13 12
REMARK SMILES IDX 7 13 12 14 9 15 8 16 11 17 10 18 17 20 19 21 18 22 20 24
REMARK SMILES IDX 21 25 30 26 22 27 29 28 23 29 24 30 25 31 28 32 26 33 27 34
REMARK H PARENT 10 19 19 23
ROOT
ATOM      1  O   UNL     1       0.047  -1.268   3.381  1.00  0.00    -0.429 OA
ENDROOT
BRANCH   1   2
ATOM      2  C   UNL     1       0.201  -2.273   2.415  1.00  0.00     0.166 A 
ATOM      3  C   UNL     1       0.852  -4.555   1.878  1.00  0.00    -0.011 A 
ATOM      4  C   UNL     1       0.493  -4.338   0.539  1.00  0.00     0.015 A 
ATOM      5  C   UNL     1       0.686  -3.523   2.815  1.00  0.00     0.168 A 
ATOM      6  C   UNL     1      -0.013  -3.094   0.125  1.00  0.00    -0.010 A 
ATOM      7  C   UNL     1      -0.163  -2.068   1.073  1.00  0.00     0.059 A 
ATOM      8  C   UNL     1       1.352  -5.901   2.318  1.00  0.00     0.048 C 
ATOM      9  F   UNL     1       1.003  -3.728   4.120  1.00  0.00    -0.203 F 
BRANCH   6  10
ATOM     10  C   UNL     1      -0.400  -2.869  -1.289  1.00  0.00     0.032 A 
ATOM     11  C   UNL     1      -1.582  -2.168  -1.630  1.00  0.00     0.013 A 
ATOM     12  C   UNL     1       0.386  -3.332  -2.353  1.00  0.00     0.212 A 
ATOM     13  C   UNL     1      -1.936  -1.960  -2.983  1.00  0.00     0.008 A 
ATOM     14  O   UNL     1       1.526  -3.981  -2.321  1.00  0.00    -0.403 OA
ATOM     15  C   UNL     1       0.038  -3.129  -3.656  1.00  0.00     0.249 A 
ATOM     16  C   UNL     1      -1.118  -2.446  -4.019  1.00  0.00     0.083 A 
ATOM     17  C   UNL     1       1.875  -4.181  -3.582  1.00  0.00     0.521 A 
ATOM     18  N   UNL     1       0.974  -3.665  -4.452  1.00  0.00    -0.176 N 
ATOM     19  H   UNL     1       1.007  -3.678  -5.495  1.00  0.00     0.457 HD
ENDBRANCH   6  10
ENDBRANCH   1   2
BRANCH   1  20
ATOM     20  C   UNL     1       0.188   0.108   3.150  1.00  0.00     0.266 C 
ATOM     21  N   UNL     1      -0.518   1.018   4.006  1.00  0.00    -0.316 N 
ATOM     22  S   UNL     1       1.276   0.669   2.048  1.00  0.00    -0.018 S 
ATOM     23  H   UNL     1      -0.787   0.673   4.954  1.00  0.00     0.171 HD
BRANCH  21  24
ATOM     24  C   UNL     1      -0.874   2.365   3.650  1.00  0.00     0.042 A 
ATOM     25  C   UNL     1      -1.251   2.698   2.338  1.00  0.00     0.028 A 
ATOM     26  C   UNL     1      -0.919   3.351   4.643  1.00  0.00     0.028 A 
ATOM     27  C   UNL     1      -1.622   4.007   2.020  1.00  0.00     0.030 A 
ATOM     28  C   UNL     1      -1.289   4.662   4.327  1.00  0.00     0.030 A 
ATOM     29  C   UNL     1      -1.638   5.008   3.007  1.00  0.00     0.065 A 
BRANCH  29  30
ATOM     30  N   UNL     1      -2.024   6.355   2.662  1.00  0.00    -0.241 N 
ATOM     31  C   UNL     1      -1.876   7.468   3.414  1.00  0.00     0.115 A 
ATOM     32  N   UNL     1      -2.584   6.682   1.506  1.00  0.00    -0.177 NA
ATOM     33  C   UNL     1      -2.366   8.544   2.707  1.00  0.00     0.042 A 
ATOM     34  C   UNL     1      -2.803   8.011   1.512  1.00  0.00     0.135 A 
ENDBRANCH  29  30
ENDBRANCH  21  24
ENDBRANCH   1  20
TORSDOF 5


