REMARK SMILES c1cc(Nc2ccc3cc[nH]c3c2)c2o[nH+]cc2c1
REMARK SMILES IDX 4 1 3 3 1 4 2 5 19 6 18 7 14 8 17 9 15 10 16 11 5 13 6 14
REMARK SMILES IDX 13 15 7 16 12 17 8 18 11 19 9 20 10 21
REMARK H PARENT 4 2 16 12 11 22
ROOT
ATOM      1  N   UNL     1      -1.844  -0.322   0.463  1.00  0.00    -0.352 N 
ATOM      2  H   UNL     1      -2.789  -0.595   0.818  1.00  0.00     0.167 HD
ENDROOT
BRANCH   1   3
ATOM      3  C   UNL     1      -1.658  -0.252  -0.960  1.00  0.00     0.090 A 
ATOM      4  C   UNL     1      -2.556   0.166  -3.207  1.00  0.00     0.003 A 
ATOM      5  C   UNL     1      -2.726   0.121  -1.803  1.00  0.00     0.030 A 
ATOM      6  C   UNL     1      -1.323  -0.181  -3.790  1.00  0.00     0.019 A 
ATOM      7  C   UNL     1      -0.296  -0.568  -2.935  1.00  0.00     0.095 A 
ATOM      8  C   UNL     1      -0.453  -0.612  -1.577  1.00  0.00     0.239 A 
ATOM      9  C   UNL     1       0.991  -0.993  -3.171  1.00  0.00     0.369 A 
ATOM     10  O   UNL     1       0.660  -1.042  -1.034  1.00  0.00    -0.236 OA
ATOM     11  N   UNL     1       1.542  -1.273  -1.968  1.00  0.00    -0.035 N 
ATOM     12  H   UNL     1       2.510  -1.624  -1.799  1.00  0.00     0.516 HD
ENDBRANCH   1   3
BRANCH   1  13
ATOM     13  C   UNL     1      -0.824  -0.015   1.428  1.00  0.00     0.041 A 
ATOM     14  C   UNL     1       0.170   0.965   1.159  1.00  0.00     0.027 A 
ATOM     15  C   UNL     1      -0.850  -0.655   2.686  1.00  0.00     0.052 A 
ATOM     16  C   UNL     1       1.149   1.276   2.119  1.00  0.00     0.012 A 
ATOM     17  C   UNL     1       0.135  -0.323   3.614  1.00  0.00     0.047 A 
ATOM     18  C   UNL     1       1.101   0.606   3.338  1.00  0.00    -0.001 A 
ATOM     19  N   UNL     1       0.292  -0.821   4.851  1.00  0.00    -0.361 N 
ATOM     20  C   UNL     1       1.908   0.705   4.450  1.00  0.00     0.028 A 
ATOM     21  C   UNL     1       1.375  -0.196   5.367  1.00  0.00     0.083 A 
ATOM     22  H   UNL     1      -0.299  -1.542   5.323  1.00  0.00     0.166 HD
ENDBRANCH   1  13
TORSDOF 2


