REMARK SMILES N#CC[C@H]1C[C@H]1C(=O)NCCc1ccc(-c2cnc3ccnn3c2)cc1
REMARK SMILES IDX 7 1 8 2 9 3 6 5 4 6 5 7 3 8 2 9 1 10 10 11 11 12 12 13 13 14
REMARK SMILES IDX 26 15 14 16 25 17 15 18 16 19 17 20 24 21 18 22 23 23 19 24
REMARK SMILES IDX 22 25 20 26 21 27
REMARK H PARENT 9 4
ROOT
ATOM      1  C   UNL     1       1.424   2.571  -2.667  1.00  0.00     0.223 C 
ATOM      2  O   UNL     1       1.863   3.646  -2.174  1.00  0.00    -0.275 OA
ATOM      3  N   UNL     1       2.124   1.340  -2.460  1.00  0.00    -0.356 N 
ATOM      4  H   UNL     1       1.758   0.477  -2.918  1.00  0.00     0.163 HD
ENDROOT
BRANCH   1   5
ATOM      5  C   UNL     1       0.205   2.596  -3.548  1.00  0.00     0.083 C 
ATOM      6  C   UNL     1      -1.065   1.922  -3.022  1.00  0.00     0.016 C 
ATOM      7  C   UNL     1      -0.957   3.442  -3.039  1.00  0.00     0.019 C 
BRANCH   6   8
ATOM      8  C   UNL     1      -1.028   1.284  -1.625  1.00  0.00     0.124 C 
BRANCH   8   9
ATOM      9  C   UNL     1      -2.392   1.018  -1.162  1.00  0.00     0.062 C 
ATOM     10  N   UNL     1      -3.469   0.807  -0.796  1.00  0.00    -0.198 NA
ENDBRANCH   8   9
ENDBRANCH   6   8
ENDBRANCH   1   5
BRANCH   3  11
ATOM     11  C   UNL     1       3.414   1.258  -1.776  1.00  0.00     0.120 C 
BRANCH  11  12
ATOM     12  C   UNL     1       3.274   1.454  -0.258  1.00  0.00     0.056 C 
BRANCH  12  13
ATOM     13  C   UNL     1       2.199   0.585   0.351  1.00  0.00    -0.046 A 
ATOM     14  C   UNL     1       1.160   1.166   1.094  1.00  0.00     0.004 A 
ATOM     15  C   UNL     1       2.231  -0.809   0.197  1.00  0.00     0.004 A 
ATOM     16  C   UNL     1       0.144   0.372   1.632  1.00  0.00     0.009 A 
ATOM     17  C   UNL     1       1.216  -1.603   0.736  1.00  0.00     0.009 A 
ATOM     18  C   UNL     1       0.154  -1.021   1.449  1.00  0.00    -0.015 A 
BRANCH  18  19
ATOM     19  C   UNL     1      -0.940  -1.865   1.997  1.00  0.00     0.018 A 
ATOM     20  C   UNL     1      -1.526  -1.583   3.257  1.00  0.00     0.124 A 
ATOM     21  C   UNL     1      -1.427  -2.975   1.276  1.00  0.00     0.125 A 
ATOM     22  N   UNL     1      -2.525  -2.369   3.753  1.00  0.00    -0.236 NA
ATOM     23  N   UNL     1      -2.419  -3.712   1.829  1.00  0.00    -0.222 N 
ATOM     24  C   UNL     1      -2.948  -3.427   3.021  1.00  0.00     0.154 A 
ATOM     25  N   UNL     1      -3.006  -4.776   1.314  1.00  0.00    -0.175 NA
ATOM     26  C   UNL     1      -3.931  -4.335   3.325  1.00  0.00     0.071 A 
ATOM     27  C   UNL     1      -3.936  -5.177   2.215  1.00  0.00     0.138 A 
ENDBRANCH  18  19
ENDBRANCH  12  13
ENDBRANCH  11  12
ENDBRANCH   3  11
TORSDOF 7


