REMARK SMILES C=C[C@@H]1CN[C@H](c2c[nH+]c3ocnc3c2)N(/C(S)=[NH+]\c2cccc(SC(F)(F)F)c2)C1
REMARK SMILES IDX 19 1 17 3 18 4 16 6 31 7 6 8 3 9 5 10 4 11 7 13 15 14 8 15
REMARK SMILES IDX 14 16 9 17 13 18 10 19 12 20 11 21 2 23 1 24 20 25 21 26
REMARK SMILES IDX 30 27 22 28 24 29 23 30 25 31 26 32 27 33 28 34 29 35
REMARK H PARENT 19 2 18 5 5 12 9 22
ROOT
ATOM      1  N   UNL     1      -2.075   1.116  -0.018  1.00  0.00    -0.235 N 
ATOM      2  H   UNL     1      -3.067   1.350  -0.245  1.00  0.00     0.313 HD
ENDROOT
BRANCH   1   3
ATOM      3  C   UNL     1      -1.826   0.201   0.877  1.00  0.00     0.309 C 
BRANCH   3   4
ATOM      4  S   UNL     1      -3.203  -0.616   1.688  1.00  0.00    -0.056 SA
ATOM      5  H   UNL     1      -3.267   0.373   2.688  1.00  0.00     0.116 HD
ENDBRANCH   3   4
BRANCH   3   6
ATOM      6  N   UNL     1      -0.480  -0.087   1.314  1.00  0.00    -0.235 N 
ATOM      7  C   UNL     1       0.085   0.869   2.278  1.00  0.00     0.248 C 
ATOM      8  C   UNL     1      -0.034  -1.498   1.403  1.00  0.00     0.284 C 
ATOM      9  C   UNL     1       1.604   0.711   2.397  1.00  0.00     0.067 C 
ATOM     10  N   UNL     1       1.432  -1.583   1.541  1.00  0.00    -0.274 NA
ATOM     11  C   UNL     1       1.921  -0.765   2.654  1.00  0.00     0.097 C 
ATOM     12  H   UNL     1       1.684  -2.579   1.749  1.00  0.00     0.127 HD
BRANCH   8  13
ATOM     13  C   UNL     1      -0.439  -2.274   0.166  1.00  0.00     0.078 A 
ATOM     14  C   UNL     1       0.215  -2.043  -1.066  1.00  0.00     0.055 A 
ATOM     15  C   UNL     1      -1.482  -3.240   0.224  1.00  0.00     0.319 A 
ATOM     16  C   UNL     1      -0.215  -2.772  -2.167  1.00  0.00     0.179 A 
ATOM     17  N   UNL     1      -1.860  -3.927  -0.897  1.00  0.00    -0.177 N 
ATOM     18  N   UNL     1       0.232  -2.726  -3.432  1.00  0.00    -0.209 NA
ATOM     19  C   UNL     1      -1.218  -3.674  -2.063  1.00  0.00     0.399 A 
ATOM     20  C   UNL     1      -0.562  -3.646  -4.046  1.00  0.00     0.316 A 
ATOM     21  O   UNL     1      -1.434  -4.218  -3.229  1.00  0.00    -0.391 OA
ATOM     22  H   UNL     1      -2.628  -4.633  -0.856  1.00  0.00     0.457 HD
ENDBRANCH   8  13
BRANCH   9  23
ATOM     23  C   UNL     1       2.306   1.214   1.154  1.00  0.00    -0.026 C 
ATOM     24  C   UNL     1       3.627   1.409   1.127  1.00  0.00     0.004 C 
ENDBRANCH   9  23
ENDBRANCH   3   6
ENDBRANCH   1   3
BRANCH   1  25
ATOM     25  C   UNL     1      -1.057   1.840  -0.718  1.00  0.00     0.126 A 
ATOM     26  C   UNL     1      -0.412   1.263  -1.820  1.00  0.00     0.052 A 
ATOM     27  C   UNL     1      -0.762   3.161  -0.357  1.00  0.00     0.067 A 
ATOM     28  C   UNL     1       0.567   1.979  -2.515  1.00  0.00     0.006 A 
ATOM     29  C   UNL     1       0.225   3.877  -1.046  1.00  0.00     0.020 A 
ATOM     30  C   UNL     1       0.889   3.283  -2.126  1.00  0.00     0.015 A 
BRANCH  29  31
ATOM     31  S   UNL     1       0.610   5.564  -0.569  1.00  0.00    -0.014 SA
BRANCH  31  32
ATOM     32  C   UNL     1       1.914   5.102   0.619  1.00  0.00     0.446 C 
ATOM     33  F   UNL     1       2.929   4.422  -0.029  1.00  0.00    -0.160 F 
ATOM     34  F   UNL     1       2.433   6.250   1.185  1.00  0.00    -0.160 F 
ATOM     35  F   UNL     1       1.387   4.307   1.620  1.00  0.00    -0.160 F 
ENDBRANCH  31  32
ENDBRANCH  29  31
ENDBRANCH   1  25
TORSDOF 8


