MODEL 1
REMARK VINA RESULT:      -7.1      0.000      0.000
REMARK SMILES CCn1[nH+]c[nH+]c1COc1ccc(Nc2ccc3cc[nH]c3c2)c(F)c1
REMARK SMILES IDX 9 1 8 2 7 3 3 4 4 5 5 6 6 7 2 10 1 11 10 12 11 13 26 14
REMARK SMILES IDX 12 15 24 16 13 17 25 18 14 19 15 21 16 22 23 23 17 24 22 25
REMARK SMILES IDX 18 26 21 27 19 28 20 29
REMARK H PARENT 4 8 6 9 14 20 21 30
ROOT
ATOM      1  O   UNL     1      44.435 132.059  16.886  1.00  0.00    -0.480 OA
ENDROOT
BRANCH   1   2
ATOM      2  C   UNL     1      43.944 131.185  15.875  1.00  0.00     0.364 C 
BRANCH   2   3
ATOM      3  C   UNL     1      44.974 130.139  15.587  1.00  0.00     0.347 A 
ATOM      4  N   UNL     1      46.159 130.356  14.977  1.00  0.00    -0.089 N 
ATOM      5  N   UNL     1      46.795 129.197  14.929  1.00  0.00    -0.067 N 
ATOM      6  C   UNL     1      46.007 128.284  15.528  1.00  0.00     0.656 A 
ATOM      7  N   UNL     1      44.858 128.847  15.956  1.00  0.00    -0.135 N 
ATOM      8  H   UNL     1      47.732 129.033  14.499  1.00  0.00     0.495 HD
ATOM      9  H   UNL     1      44.067 128.384  16.456  1.00  0.00     0.462 HD
BRANCH   4  10
ATOM     10  C   UNL     1      46.659 131.598  14.389  1.00  0.00     0.194 C 
ATOM     11  C   UNL     1      47.458 131.299  13.126  1.00  0.00     0.034 C 
ENDBRANCH   4  10
ENDBRANCH   2   3
ENDBRANCH   1   2
BRANCH   1  12
ATOM     12  C   UNL     1      44.479 131.746  18.253  1.00  0.00     0.123 A 
ATOM     13  C   UNL     1      43.475 132.256  19.083  1.00  0.00     0.049 A 
ATOM     14  C   UNL     1      45.492 130.946  18.813  1.00  0.00     0.087 A 
ATOM     15  C   UNL     1      43.471 131.968  20.451  1.00  0.00     0.033 A 
ATOM     16  C   UNL     1      45.490 130.656  20.180  1.00  0.00     0.150 A 
ATOM     17  C   UNL     1      44.463 131.149  21.007  1.00  0.00     0.075 A 
ATOM     18  F   UNL     1      46.509 129.927  20.703  1.00  0.00    -0.205 F 
BRANCH  17  19
ATOM     19  N   UNL     1      44.444 130.881  22.418  1.00  0.00    -0.353 N 
ATOM     20  H   UNL     1      44.816 131.620  23.058  1.00  0.00     0.167 HD
BRANCH  19  21
ATOM     21  C   UNL     1      43.877 129.699  23.009  1.00  0.00     0.041 A 
ATOM     22  C   UNL     1      42.488 129.664  23.289  1.00  0.00     0.027 A 
ATOM     23  C   UNL     1      44.669 128.553  23.262  1.00  0.00     0.052 A 
ATOM     24  C   UNL     1      41.893 128.517  23.844  1.00  0.00     0.012 A 
ATOM     25  C   UNL     1      44.048 127.435  23.813  1.00  0.00     0.047 A 
ATOM     26  C   UNL     1      42.709 127.418  24.095  1.00  0.00    -0.001 A 
ATOM     27  N   UNL     1      44.617 126.260  24.131  1.00  0.00    -0.361 N 
ATOM     28  C   UNL     1      42.412 126.179  24.618  1.00  0.00     0.028 A 
ATOM     29  C   UNL     1      43.620 125.489  24.624  1.00  0.00     0.083 A 
ATOM     30  H   UNL     1      45.619 125.991  24.020  1.00  0.00     0.166 HD
ENDBRANCH  19  21
ENDBRANCH  17  19
ENDBRANCH   1  12
TORSDOF 6
ENDMDL
MODEL 2
REMARK VINA RESULT:      -7.1      2.373      8.445
REMARK SMILES CCn1[nH+]c[nH+]c1COc1ccc(Nc2ccc3cc[nH]c3c2)c(F)c1
REMARK SMILES IDX 9 1 8 2 7 3 3 4 4 5 5 6 6 7 2 10 1 11 10 12 11 13 26 14
REMARK SMILES IDX 12 15 24 16 13 17 25 18 14 19 15 21 16 22 23 23 17 24 22 25
REMARK SMILES IDX 18 26 21 27 19 28 20 29
REMARK H PARENT 4 8 6 9 14 20 21 30
ROOT
ATOM      1  O   UNL     1      42.398 131.568  21.578  1.00  0.00    -0.480 OA
ENDROOT
BRANCH   1   2
ATOM      2  C   UNL     1      43.279 131.343  22.674  1.00  0.00     0.364 C 
BRANCH   2   3
ATOM      3  C   UNL     1      42.879 130.083  23.376  1.00  0.00     0.347 A 
ATOM      4  N   UNL     1      43.565 128.921  23.345  1.00  0.00    -0.089 N 
ATOM      5  N   UNL     1      42.910 128.057  24.105  1.00  0.00    -0.067 N 
ATOM      6  C   UNL     1      41.843 128.702  24.612  1.00  0.00     0.656 A 
ATOM      7  N   UNL     1      41.799 129.977  24.176  1.00  0.00    -0.135 N 
ATOM      8  H   UNL     1      43.180 127.062  24.267  1.00  0.00     0.495 HD
ATOM      9  H   UNL     1      41.091 130.708  24.408  1.00  0.00     0.462 HD
BRANCH   4  10
ATOM     10  C   UNL     1      44.763 128.598  22.571  1.00  0.00     0.194 C 
ATOM     11  C   UNL     1      45.348 127.269  23.035  1.00  0.00     0.034 C 
ENDBRANCH   4  10
ENDBRANCH   2   3
ENDBRANCH   1   2
BRANCH   1  12
ATOM     12  C   UNL     1      42.813 131.740  20.249  1.00  0.00     0.123 A 
ATOM     13  C   UNL     1      44.141 131.444  19.925  1.00  0.00     0.049 A 
ATOM     14  C   UNL     1      41.946 132.201  19.240  1.00  0.00     0.087 A 
ATOM     15  C   UNL     1      44.602 131.594  18.614  1.00  0.00     0.033 A 
ATOM     16  C   UNL     1      42.405 132.352  17.928  1.00  0.00     0.150 A 
ATOM     17  C   UNL     1      43.735 132.026  17.602  1.00  0.00     0.075 A 
ATOM     18  F   UNL     1      41.563 132.849  16.987  1.00  0.00    -0.205 F 
BRANCH  17  19
ATOM     19  N   UNL     1      44.238 132.187  16.265  1.00  0.00    -0.353 N 
ATOM     20  H   UNL     1      43.931 133.030  15.728  1.00  0.00     0.167 HD
BRANCH  19  21
ATOM     21  C   UNL     1      45.196 131.307  15.651  1.00  0.00     0.041 A 
ATOM     22  C   UNL     1      45.141 129.919  15.932  1.00  0.00     0.027 A 
ATOM     23  C   UNL     1      46.153 131.795  14.729  1.00  0.00     0.052 A 
ATOM     24  C   UNL     1      46.045 129.025  15.332  1.00  0.00     0.012 A 
ATOM     25  C   UNL     1      47.034 130.882  14.153  1.00  0.00     0.047 A 
ATOM     26  C   UNL     1      46.982 129.547  14.446  1.00  0.00    -0.001 A 
ATOM     27  N   UNL     1      48.011 131.139  13.267  1.00  0.00    -0.361 N 
ATOM     28  C   UNL     1      47.971 128.925  13.715  1.00  0.00     0.028 A 
ATOM     29  C   UNL     1      48.587 129.945  12.997  1.00  0.00     0.083 A 
ATOM     30  H   UNL     1      48.273 132.066  12.865  1.00  0.00     0.166 HD
ENDBRANCH  19  21
ENDBRANCH  17  19
ENDBRANCH   1  12
TORSDOF 6
ENDMDL
MODEL 3
REMARK VINA RESULT:      -7.0      2.450      8.248
REMARK SMILES CCn1[nH+]c[nH+]c1COc1ccc(Nc2ccc3cc[nH]c3c2)c(F)c1
REMARK SMILES IDX 9 1 8 2 7 3 3 4 4 5 5 6 6 7 2 10 1 11 10 12 11 13 26 14
REMARK SMILES IDX 12 15 24 16 13 17 25 18 14 19 15 21 16 22 23 23 17 24 22 25
REMARK SMILES IDX 18 26 21 27 19 28 20 29
REMARK H PARENT 4 8 6 9 14 20 21 30
ROOT
ATOM      1  O   UNL     1      42.960 132.095  22.059  1.00  0.00    -0.480 OA
ENDROOT
BRANCH   1   2
ATOM      2  C   UNL     1      43.977 131.777  23.003  1.00  0.00     0.364 C 
BRANCH   2   3
ATOM      3  C   UNL     1      44.402 130.355  22.809  1.00  0.00     0.347 A 
ATOM      4  N   UNL     1      43.926 129.297  23.500  1.00  0.00    -0.089 N 
ATOM      5  N   UNL     1      44.523 128.216  23.024  1.00  0.00    -0.067 N 
ATOM      6  C   UNL     1      45.341 128.617  22.033  1.00  0.00     0.656 A 
ATOM      7  N   UNL     1      45.282 129.954  21.871  1.00  0.00    -0.135 N 
ATOM      8  H   UNL     1      44.380 127.241  23.368  1.00  0.00     0.495 HD
ATOM      9  H   UNL     1      45.802 130.537  21.178  1.00  0.00     0.462 HD
BRANCH   4  10
ATOM     10  C   UNL     1      42.992 129.297  24.625  1.00  0.00     0.194 C 
ATOM     11  C   UNL     1      41.568 129.079  24.127  1.00  0.00     0.034 C 
ENDBRANCH   4  10
ENDBRANCH   2   3
ENDBRANCH   1   2
BRANCH   1  12
ATOM     12  C   UNL     1      43.147 132.118  20.669  1.00  0.00     0.123 A 
ATOM     13  C   UNL     1      44.431 131.878  20.168  1.00  0.00     0.049 A 
ATOM     14  C   UNL     1      42.096 132.376  19.769  1.00  0.00     0.087 A 
ATOM     15  C   UNL     1      44.668 131.884  18.791  1.00  0.00     0.033 A 
ATOM     16  C   UNL     1      42.330 132.383  18.391  1.00  0.00     0.150 A 
ATOM     17  C   UNL     1      43.619 132.114  17.891  1.00  0.00     0.075 A 
ATOM     18  F   UNL     1      41.311 132.688  17.549  1.00  0.00    -0.205 F 
BRANCH  17  19
ATOM     19  N   UNL     1      43.892 132.130  16.480  1.00  0.00    -0.353 N 
ATOM     20  H   UNL     1      43.366 132.815  15.891  1.00  0.00     0.167 HD
BRANCH  19  21
ATOM     21  C   UNL     1      44.897 131.322  15.842  1.00  0.00     0.041 A 
ATOM     22  C   UNL     1      44.939 129.931  16.109  1.00  0.00     0.027 A 
ATOM     23  C   UNL     1      45.805 131.882  14.911  1.00  0.00     0.052 A 
ATOM     24  C   UNL     1      45.891 129.106  15.486  1.00  0.00     0.012 A 
ATOM     25  C   UNL     1      46.736 131.037  14.313  1.00  0.00     0.047 A 
ATOM     26  C   UNL     1      46.778 129.698  14.592  1.00  0.00    -0.001 A 
ATOM     27  N   UNL     1      47.679 131.367  13.415  1.00  0.00    -0.361 N 
ATOM     28  C   UNL     1      47.795 129.151  13.840  1.00  0.00     0.028 A 
ATOM     29  C   UNL     1      48.330 130.217  13.123  1.00  0.00     0.083 A 
ATOM     30  H   UNL     1      47.873 132.313  13.020  1.00  0.00     0.166 HD
ENDBRANCH  19  21
ENDBRANCH  17  19
ENDBRANCH   1  12
TORSDOF 6
ENDMDL
MODEL 4
REMARK VINA RESULT:      -6.9      1.615      2.080
REMARK SMILES CCn1[nH+]c[nH+]c1COc1ccc(Nc2ccc3cc[nH]c3c2)c(F)c1
REMARK SMILES IDX 9 1 8 2 7 3 3 4 4 5 5 6 6 7 2 10 1 11 10 12 11 13 26 14
REMARK SMILES IDX 12 15 24 16 13 17 25 18 14 19 15 21 16 22 23 23 17 24 22 25
REMARK SMILES IDX 18 26 21 27 19 28 20 29
REMARK H PARENT 4 8 6 9 14 20 21 30
ROOT
ATOM      1  O   UNL     1      45.228 131.880  18.133  1.00  0.00    -0.480 OA
ENDROOT
BRANCH   1   2
ATOM      2  C   UNL     1      44.593 131.421  16.944  1.00  0.00     0.364 C 
BRANCH   2   3
ATOM      3  C   UNL     1      45.593 130.694  16.101  1.00  0.00     0.347 A 
ATOM      4  N   UNL     1      45.709 130.801  14.760  1.00  0.00    -0.089 N 
ATOM      5  N   UNL     1      46.718 130.030  14.389  1.00  0.00    -0.067 N 
ATOM      6  C   UNL     1      47.226 129.475  15.505  1.00  0.00     0.656 A 
ATOM      7  N   UNL     1      46.544 129.877  16.597  1.00  0.00    -0.135 N 
ATOM      8  H   UNL     1      47.045 129.884  13.408  1.00  0.00     0.495 HD
ATOM      9  H   UNL     1      46.717 129.613  17.592  1.00  0.00     0.462 HD
BRANCH   4  10
ATOM     10  C   UNL     1      44.857 131.547  13.835  1.00  0.00     0.194 C 
ATOM     11  C   UNL     1      43.388 131.271  14.130  1.00  0.00     0.034 C 
ENDBRANCH   4  10
ENDBRANCH   2   3
ENDBRANCH   1   2
BRANCH   1  12
ATOM     12  C   UNL     1      44.899 131.447  19.425  1.00  0.00     0.123 A 
ATOM     13  C   UNL     1      45.694 130.461  20.018  1.00  0.00     0.049 A 
ATOM     14  C   UNL     1      43.801 131.964  20.140  1.00  0.00     0.087 A 
ATOM     15  C   UNL     1      45.411 130.000  21.306  1.00  0.00     0.033 A 
ATOM     16  C   UNL     1      43.517 131.505  21.429  1.00  0.00     0.150 A 
ATOM     17  C   UNL     1      44.337 130.532  22.031  1.00  0.00     0.075 A 
ATOM     18  F   UNL     1      42.422 131.982  22.073  1.00  0.00    -0.205 F 
BRANCH  17  19
ATOM     19  N   UNL     1      44.058 130.029  23.348  1.00  0.00    -0.353 N 
ATOM     20  H   UNL     1      44.462 130.548  24.161  1.00  0.00     0.167 HD
BRANCH  19  21
ATOM     21  C   UNL     1      43.198 128.910  23.621  1.00  0.00     0.041 A 
ATOM     22  C   UNL     1      41.840 129.145  23.951  1.00  0.00     0.027 A 
ATOM     23  C   UNL     1      43.669 127.579  23.509  1.00  0.00     0.052 A 
ATOM     24  C   UNL     1      40.962 128.075  24.201  1.00  0.00     0.012 A 
ATOM     25  C   UNL     1      42.774 126.543  23.764  1.00  0.00     0.047 A 
ATOM     26  C   UNL     1      41.469 126.782  24.099  1.00  0.00    -0.001 A 
ATOM     27  N   UNL     1      43.020 125.223  23.719  1.00  0.00    -0.361 N 
ATOM     28  C   UNL     1      40.857 125.561  24.277  1.00  0.00     0.028 A 
ATOM     29  C   UNL     1      41.851 124.618  24.032  1.00  0.00     0.083 A 
ATOM     30  H   UNL     1      43.924 124.755  23.488  1.00  0.00     0.166 HD
ENDBRANCH  19  21
ENDBRANCH  17  19
ENDBRANCH   1  12
TORSDOF 6
ENDMDL
MODEL 5
REMARK VINA RESULT:      -6.8      2.129      8.361
REMARK SMILES CCn1[nH+]c[nH+]c1COc1ccc(Nc2ccc3cc[nH]c3c2)c(F)c1
REMARK SMILES IDX 9 1 8 2 7 3 3 4 4 5 5 6 6 7 2 10 1 11 10 12 11 13 26 14
REMARK SMILES IDX 12 15 24 16 13 17 25 18 14 19 15 21 16 22 23 23 17 24 22 25
REMARK SMILES IDX 18 26 21 27 19 28 20 29
REMARK H PARENT 4 8 6 9 14 20 21 30
ROOT
ATOM      1  O   UNL     1      45.188 132.483  22.368  1.00  0.00    -0.480 OA
ENDROOT
BRANCH   1   2
ATOM      2  C   UNL     1      45.184 131.681  23.544  1.00  0.00     0.364 C 
BRANCH   2   3
ATOM      3  C   UNL     1      43.903 130.909  23.610  1.00  0.00     0.347 A 
ATOM      4  N   UNL     1      43.773 129.589  23.356  1.00  0.00    -0.089 N 
ATOM      5  N   UNL     1      42.501 129.276  23.544  1.00  0.00    -0.067 N 
ATOM      6  C   UNL     1      41.868 130.399  23.932  1.00  0.00     0.656 A 
ATOM      7  N   UNL     1      42.723 131.440  23.987  1.00  0.00    -0.135 N 
ATOM      8  H   UNL     1      42.080 128.330  23.408  1.00  0.00     0.495 HD
ATOM      9  H   UNL     1      42.513 132.425  24.260  1.00  0.00     0.462 HD
BRANCH   4  10
ATOM     10  C   UNL     1      44.793 128.655  22.881  1.00  0.00     0.194 C 
ATOM     11  C   UNL     1      44.281 127.223  22.978  1.00  0.00     0.034 C 
ENDBRANCH   4  10
ENDBRANCH   2   3
ENDBRANCH   1   2
BRANCH   1  12
ATOM     12  C   UNL     1      44.936 131.998  21.076  1.00  0.00     0.123 A 
ATOM     13  C   UNL     1      45.899 131.180  20.475  1.00  0.00     0.049 A 
ATOM     14  C   UNL     1      43.759 132.307  20.368  1.00  0.00     0.087 A 
ATOM     15  C   UNL     1      45.693 130.667  19.191  1.00  0.00     0.033 A 
ATOM     16  C   UNL     1      43.551 131.794  19.085  1.00  0.00     0.150 A 
ATOM     17  C   UNL     1      44.511 130.950  18.495  1.00  0.00     0.075 A 
ATOM     18  F   UNL     1      42.433 132.151  18.404  1.00  0.00    -0.205 F 
BRANCH  17  19
ATOM     19  N   UNL     1      44.330 130.422  17.171  1.00  0.00    -0.353 N 
ATOM     20  H   UNL     1      43.426 129.943  16.957  1.00  0.00     0.167 HD
BRANCH  19  21
ATOM     21  C   UNL     1      45.279 130.581  16.101  1.00  0.00     0.041 A 
ATOM     22  C   UNL     1      45.491 131.869  15.550  1.00  0.00     0.027 A 
ATOM     23  C   UNL     1      46.042 129.486  15.630  1.00  0.00     0.052 A 
ATOM     24  C   UNL     1      46.427 132.068  14.520  1.00  0.00     0.012 A 
ATOM     25  C   UNL     1      46.960 129.717  14.609  1.00  0.00     0.047 A 
ATOM     26  C   UNL     1      47.144 130.962  14.072  1.00  0.00    -0.001 A 
ATOM     27  N   UNL     1      47.771 128.821  14.022  1.00  0.00    -0.361 N 
ATOM     28  C   UNL     1      48.114 130.854  13.100  1.00  0.00     0.028 A 
ATOM     29  C   UNL     1      48.479 129.511  13.098  1.00  0.00     0.083 A 
ATOM     30  H   UNL     1      47.846 127.801  14.233  1.00  0.00     0.166 HD
ENDBRANCH  19  21
ENDBRANCH  17  19
ENDBRANCH   1  12
TORSDOF 6
ENDMDL
MODEL 6
REMARK VINA RESULT:      -6.2      1.081      1.857
REMARK SMILES CCn1[nH+]c[nH+]c1COc1ccc(Nc2ccc3cc[nH]c3c2)c(F)c1
REMARK SMILES IDX 9 1 8 2 7 3 3 4 4 5 5 6 6 7 2 10 1 11 10 12 11 13 26 14
REMARK SMILES IDX 12 15 24 16 13 17 25 18 14 19 15 21 16 22 23 23 17 24 22 25
REMARK SMILES IDX 18 26 21 27 19 28 20 29
REMARK H PARENT 4 8 6 9 14 20 21 30
ROOT
ATOM      1  O   UNL     1      44.691 132.325  17.868  1.00  0.00    -0.480 OA
ENDROOT
BRANCH   1   2
ATOM      2  C   UNL     1      44.318 131.674  16.658  1.00  0.00     0.364 C 
BRANCH   2   3
ATOM      3  C   UNL     1      45.519 131.556  15.772  1.00  0.00     0.347 A 
ATOM      4  N   UNL     1      46.202 130.417  15.530  1.00  0.00    -0.089 N 
ATOM      5  N   UNL     1      47.174 130.713  14.683  1.00  0.00    -0.067 N 
ATOM      6  C   UNL     1      47.067 132.025  14.396  1.00  0.00     0.656 A 
ATOM      7  N   UNL     1      46.034 132.580  15.061  1.00  0.00    -0.135 N 
ATOM      8  H   UNL     1      47.888 130.046  14.317  1.00  0.00     0.495 HD
ATOM      9  H   UNL     1      45.712 133.573  15.030  1.00  0.00     0.462 HD
BRANCH   4  10
ATOM     10  C   UNL     1      45.999 129.097  16.125  1.00  0.00     0.194 C 
ATOM     11  C   UNL     1      44.736 128.454  15.565  1.00  0.00     0.034 C 
ENDBRANCH   4  10
ENDBRANCH   2   3
ENDBRANCH   1   2
BRANCH   1  12
ATOM     12  C   UNL     1      44.661 131.723  19.134  1.00  0.00     0.123 A 
ATOM     13  C   UNL     1      43.756 132.215  20.082  1.00  0.00     0.049 A 
ATOM     14  C   UNL     1      45.507 130.654  19.483  1.00  0.00     0.087 A 
ATOM     15  C   UNL     1      43.685 131.646  21.356  1.00  0.00     0.033 A 
ATOM     16  C   UNL     1      45.436 130.083  20.757  1.00  0.00     0.150 A 
ATOM     17  C   UNL     1      44.505 130.563  21.698  1.00  0.00     0.075 A 
ATOM     18  F   UNL     1      46.300 129.088  21.084  1.00  0.00    -0.205 F 
BRANCH  17  19
ATOM     19  N   UNL     1      44.422 130.006  23.019  1.00  0.00    -0.353 N 
ATOM     20  H   UNL     1      44.921 130.507  23.790  1.00  0.00     0.167 HD
BRANCH  19  21
ATOM     21  C   UNL     1      43.635 128.853  23.363  1.00  0.00     0.041 A 
ATOM     22  C   UNL     1      42.258 129.017  23.658  1.00  0.00     0.027 A 
ATOM     23  C   UNL     1      44.196 127.553  23.355  1.00  0.00     0.052 A 
ATOM     24  C   UNL     1      41.451 127.910  23.974  1.00  0.00     0.012 A 
ATOM     25  C   UNL     1      43.369 126.479  23.673  1.00  0.00     0.047 A 
ATOM     26  C   UNL     1      42.046 126.652  23.974  1.00  0.00    -0.001 A 
ATOM     27  N   UNL     1      43.704 125.179  23.728  1.00  0.00    -0.361 N 
ATOM     28  C   UNL     1      41.515 125.407  24.233  1.00  0.00     0.028 A 
ATOM     29  C   UNL     1      42.573 124.520  24.070  1.00  0.00     0.083 A 
ATOM     30  H   UNL     1      44.642 124.759  23.543  1.00  0.00     0.166 HD
ENDBRANCH  19  21
ENDBRANCH  17  19
ENDBRANCH   1  12
TORSDOF 6
ENDMDL
MODEL 7
REMARK VINA RESULT:      -6.0      2.525      8.434
REMARK SMILES CCn1[nH+]c[nH+]c1COc1ccc(Nc2ccc3cc[nH]c3c2)c(F)c1
REMARK SMILES IDX 9 1 8 2 7 3 3 4 4 5 5 6 6 7 2 10 1 11 10 12 11 13 26 14
REMARK SMILES IDX 12 15 24 16 13 17 25 18 14 19 15 21 16 22 23 23 17 24 22 25
REMARK SMILES IDX 18 26 21 27 19 28 20 29
REMARK H PARENT 4 8 6 9 14 20 21 30
ROOT
ATOM      1  O   UNL     1      45.167 127.017  23.843  1.00  0.00    -0.480 OA
ENDROOT
BRANCH   1   2
ATOM      2  C   UNL     1      44.183 126.345  24.624  1.00  0.00     0.364 C 
BRANCH   2   3
ATOM      3  C   UNL     1      44.233 124.880  24.325  1.00  0.00     0.347 A 
ATOM      4  N   UNL     1      43.160 124.069  24.212  1.00  0.00    -0.089 N 
ATOM      5  N   UNL     1      43.609 122.859  23.918  1.00  0.00    -0.067 N 
ATOM      6  C   UNL     1      44.950 122.943  23.830  1.00  0.00     0.656 A 
ATOM      7  N   UNL     1      45.371 124.200  24.076  1.00  0.00    -0.135 N 
ATOM      8  H   UNL     1      43.022 122.007  23.785  1.00  0.00     0.495 HD
ATOM      9  H   UNL     1      46.352 124.558  24.073  1.00  0.00     0.462 HD
BRANCH   4  10
ATOM     10  C   UNL     1      41.753 124.393  24.442  1.00  0.00     0.194 C 
ATOM     11  C   UNL     1      41.048 124.656  23.117  1.00  0.00     0.034 C 
ENDBRANCH   4  10
ENDBRANCH   2   3
ENDBRANCH   1   2
BRANCH   1  12
ATOM     12  C   UNL     1      44.927 128.176  23.092  1.00  0.00     0.123 A 
ATOM     13  C   UNL     1      45.520 128.284  21.829  1.00  0.00     0.049 A 
ATOM     14  C   UNL     1      44.120 129.229  23.563  1.00  0.00     0.087 A 
ATOM     15  C   UNL     1      45.308 129.417  21.040  1.00  0.00     0.033 A 
ATOM     16  C   UNL     1      43.906 130.363  22.775  1.00  0.00     0.150 A 
ATOM     17  C   UNL     1      44.483 130.454  21.494  1.00  0.00     0.075 A 
ATOM     18  F   UNL     1      43.168 131.386  23.275  1.00  0.00    -0.205 F 
BRANCH  17  19
ATOM     19  N   UNL     1      44.293 131.615  20.669  1.00  0.00    -0.353 N 
ATOM     20  H   UNL     1      44.226 132.544  21.145  1.00  0.00     0.167 HD
BRANCH  19  21
ATOM     21  C   UNL     1      44.270 131.590  19.231  1.00  0.00     0.041 A 
ATOM     22  C   UNL     1      43.042 131.796  18.555  1.00  0.00     0.027 A 
ATOM     23  C   UNL     1      45.460 131.420  18.482  1.00  0.00     0.052 A 
ATOM     24  C   UNL     1      42.984 131.802  17.150  1.00  0.00     0.012 A 
ATOM     25  C   UNL     1      45.367 131.431  17.092  1.00  0.00     0.047 A 
ATOM     26  C   UNL     1      44.173 131.613  16.450  1.00  0.00    -0.001 A 
ATOM     27  N   UNL     1      46.366 131.283  16.206  1.00  0.00    -0.361 N 
ATOM     28  C   UNL     1      44.422 131.578  15.096  1.00  0.00     0.028 A 
ATOM     29  C   UNL     1      45.793 131.372  14.984  1.00  0.00     0.083 A 
ATOM     30  H   UNL     1      47.378 131.133  16.414  1.00  0.00     0.166 HD
ENDBRANCH  19  21
ENDBRANCH  17  19
ENDBRANCH   1  12
TORSDOF 6
ENDMDL
MODEL 8
REMARK VINA RESULT:      -5.3      4.109      8.327
REMARK SMILES CCn1[nH+]c[nH+]c1COc1ccc(Nc2ccc3cc[nH]c3c2)c(F)c1
REMARK SMILES IDX 9 1 8 2 7 3 3 4 4 5 5 6 6 7 2 10 1 11 10 12 11 13 26 14
REMARK SMILES IDX 12 15 24 16 13 17 25 18 14 19 15 21 16 22 23 23 17 24 22 25
REMARK SMILES IDX 18 26 21 27 19 28 20 29
REMARK H PARENT 4 8 6 9 14 20 21 30
ROOT
ATOM      1  O   UNL     1      46.302 132.673  22.419  1.00  0.00    -0.480 OA
ENDROOT
BRANCH   1   2
ATOM      2  C   UNL     1      46.548 134.043  22.724  1.00  0.00     0.364 C 
BRANCH   2   3
ATOM      3  C   UNL     1      48.014 134.244  22.941  1.00  0.00     0.347 A 
ATOM      4  N   UNL     1      48.791 135.118  22.266  1.00  0.00    -0.089 N 
ATOM      5  N   UNL     1      50.015 135.020  22.760  1.00  0.00    -0.067 N 
ATOM      6  C   UNL     1      49.974 134.104  23.746  1.00  0.00     0.656 A 
ATOM      7  N   UNL     1      48.730 133.603  23.887  1.00  0.00    -0.135 N 
ATOM      8  H   UNL     1      50.849 135.555  22.432  1.00  0.00     0.495 HD
ATOM      9  H   UNL     1      48.404 132.885  24.572  1.00  0.00     0.462 HD
BRANCH   4  10
ATOM     10  C   UNL     1      48.421 135.974  21.140  1.00  0.00     0.194 C 
ATOM     11  C   UNL     1      49.668 136.560  20.490  1.00  0.00     0.034 C 
ENDBRANCH   4  10
ENDBRANCH   2   3
ENDBRANCH   1   2
BRANCH   1  12
ATOM     12  C   UNL     1      45.752 132.215  21.214  1.00  0.00     0.123 A 
ATOM     13  C   UNL     1      46.577 131.503  20.336  1.00  0.00     0.049 A 
ATOM     14  C   UNL     1      44.411 132.448  20.857  1.00  0.00     0.087 A 
ATOM     15  C   UNL     1      46.075 131.020  19.125  1.00  0.00     0.033 A 
ATOM     16  C   UNL     1      43.907 131.966  19.646  1.00  0.00     0.150 A 
ATOM     17  C   UNL     1      44.734 131.227  18.779  1.00  0.00     0.075 A 
ATOM     18  F   UNL     1      42.625 132.252  19.303  1.00  0.00    -0.205 F 
BRANCH  17  19
ATOM     19  N   UNL     1      44.247 130.733  17.521  1.00  0.00    -0.353 N 
ATOM     20  H   UNL     1      43.251 130.417  17.475  1.00  0.00     0.167 HD
BRANCH  19  21
ATOM     21  C   UNL     1      45.016 130.720  16.305  1.00  0.00     0.041 A 
ATOM     22  C   UNL     1      44.640 131.576  15.240  1.00  0.00     0.027 A 
ATOM     23  C   UNL     1      46.171 129.911  16.177  1.00  0.00     0.052 A 
ATOM     24  C   UNL     1      45.381 131.609  14.045  1.00  0.00     0.012 A 
ATOM     25  C   UNL     1      46.882 129.968  14.981  1.00  0.00     0.047 A 
ATOM     26  C   UNL     1      46.499 130.785  13.952  1.00  0.00    -0.001 A 
ATOM     27  N   UNL     1      47.991 129.283  14.658  1.00  0.00    -0.361 N 
ATOM     28  C   UNL     1      47.405 130.612  12.928  1.00  0.00     0.028 A 
ATOM     29  C   UNL     1      48.315 129.673  13.403  1.00  0.00     0.083 A 
ATOM     30  H   UNL     1      48.503 128.592  15.250  1.00  0.00     0.166 HD
ENDBRANCH  19  21
ENDBRANCH  17  19
ENDBRANCH   1  12
TORSDOF 6
ENDMDL
MODEL 9
REMARK VINA RESULT:      -5.3      1.928      8.412
REMARK SMILES CCn1[nH+]c[nH+]c1COc1ccc(Nc2ccc3cc[nH]c3c2)c(F)c1
REMARK SMILES IDX 9 1 8 2 7 3 3 4 4 5 5 6 6 7 2 10 1 11 10 12 11 13 26 14
REMARK SMILES IDX 12 15 24 16 13 17 25 18 14 19 15 21 16 22 23 23 17 24 22 25
REMARK SMILES IDX 18 26 21 27 19 28 20 29
REMARK H PARENT 4 8 6 9 14 20 21 30
ROOT
ATOM      1  O   UNL     1      44.116 132.226  21.641  1.00  0.00    -0.480 OA
ENDROOT
BRANCH   1   2
ATOM      2  C   UNL     1      44.850 131.569  22.670  1.00  0.00     0.364 C 
BRANCH   2   3
ATOM      3  C   UNL     1      44.130 130.318  23.065  1.00  0.00     0.347 A 
ATOM      4  N   UNL     1      43.049 130.260  23.872  1.00  0.00    -0.089 N 
ATOM      5  N   UNL     1      42.690 128.990  23.959  1.00  0.00    -0.067 N 
ATOM      6  C   UNL     1      43.538 128.283  23.189  1.00  0.00     0.656 A 
ATOM      7  N   UNL     1      44.450 129.090  22.611  1.00  0.00    -0.135 N 
ATOM      8  H   UNL     1      41.898 128.618  24.528  1.00  0.00     0.495 HD
ATOM      9  H   UNL     1      45.223 128.820  21.962  1.00  0.00     0.462 HD
BRANCH   4  10
ATOM     10  C   UNL     1      42.407 131.352  24.603  1.00  0.00     0.194 C 
ATOM     11  C   UNL     1      41.342 132.013  23.735  1.00  0.00     0.034 C 
ENDBRANCH   4  10
ENDBRANCH   2   3
ENDBRANCH   1   2
BRANCH   1  12
ATOM     12  C   UNL     1      44.108 131.830  20.296  1.00  0.00     0.123 A 
ATOM     13  C   UNL     1      42.966 132.098  19.533  1.00  0.00     0.049 A 
ATOM     14  C   UNL     1      45.198 131.173  19.695  1.00  0.00     0.087 A 
ATOM     15  C   UNL     1      42.911 131.727  18.186  1.00  0.00     0.033 A 
ATOM     16  C   UNL     1      45.144 130.802  18.348  1.00  0.00     0.150 A 
ATOM     17  C   UNL     1      44.004 131.098  17.577  1.00  0.00     0.075 A 
ATOM     18  F   UNL     1      46.187 130.122  17.808  1.00  0.00    -0.205 F 
BRANCH  17  19
ATOM     19  N   UNL     1      43.915 130.714  16.195  1.00  0.00    -0.353 N 
ATOM     20  H   UNL     1      42.964 130.521  15.804  1.00  0.00     0.167 HD
BRANCH  19  21
ATOM     21  C   UNL     1      45.038 130.656  15.299  1.00  0.00     0.041 A 
ATOM     22  C   UNL     1      45.285 131.745  14.427  1.00  0.00     0.027 A 
ATOM     23  C   UNL     1      45.930 129.556  15.312  1.00  0.00     0.052 A 
ATOM     24  C   UNL     1      46.387 131.735  13.554  1.00  0.00     0.012 A 
ATOM     25  C   UNL     1      47.010 129.577  14.433  1.00  0.00     0.047 A 
ATOM     26  C   UNL     1      47.229 130.627  13.584  1.00  0.00    -0.001 A 
ATOM     27  N   UNL     1      47.961 128.639  14.286  1.00  0.00    -0.361 N 
ATOM     28  C   UNL     1      48.368 130.345  12.863  1.00  0.00     0.028 A 
ATOM     29  C   UNL     1      48.793 129.104  13.326  1.00  0.00     0.083 A 
ATOM     30  H   UNL     1      48.045 127.737  14.804  1.00  0.00     0.166 HD
ENDBRANCH  19  21
ENDBRANCH  17  19
ENDBRANCH   1  12
TORSDOF 6
ENDMDL


