MODEL 1
REMARK VINA RESULT:     -11.0      0.000      0.000
REMARK SMILES Cc1ccc(Nc2c(F)c(N)cc(-c3ccc4cc[nH]c4c3)c2F)cc1F
REMARK SMILES IDX 7 1 8 2 9 3 10 4 12 5 13 6 23 7 24 8 6 9 5 11 2 12 3 13
REMARK SMILES IDX 26 14 4 15 25 16 1 17 27 18 11 19 14 22 15 23 22 24 16 25
REMARK SMILES IDX 21 26 17 27 20 28 18 29 19 30
REMARK H PARENT 6 10 11 20 11 21 20 31
ROOT
ATOM      1  C   UNL     1      44.247 131.141  20.901  1.00  0.00     0.114 A 
ATOM      2  C   UNL     1      43.067 131.897  21.033  1.00  0.00     0.172 A 
ATOM      3  F   UNL     1      42.548 132.135  22.265  1.00  0.00    -0.202 F 
ATOM      4  C   UNL     1      42.445 132.440  19.899  1.00  0.00     0.071 A 
ATOM      5  C   UNL     1      43.010 132.238  18.634  1.00  0.00     0.040 A 
ATOM      6  C   UNL     1      44.197 131.502  18.488  1.00  0.00     0.022 A 
ATOM      7  C   UNL     1      44.819 130.966  19.631  1.00  0.00     0.157 A 
ATOM      8  F   UNL     1      45.989 130.285  19.518  1.00  0.00    -0.204 F 
ENDROOT
BRANCH   1   9
ATOM      9  N   UNL     1      44.910 130.600  22.055  1.00  0.00    -0.351 N 
ATOM     10  H   UNL     1      45.725 131.128  22.442  1.00  0.00     0.167 HD
BRANCH   9  11
ATOM     11  C   UNL     1      44.564 129.344  22.668  1.00  0.00     0.041 A 
ATOM     12  C   UNL     1      43.893 126.915  23.929  1.00  0.00    -0.015 A 
ATOM     13  C   UNL     1      43.344 128.125  24.381  1.00  0.00     0.008 A 
ATOM     14  C   UNL     1      44.807 126.930  22.863  1.00  0.00     0.128 A 
ATOM     15  C   UNL     1      43.679 129.329  23.755  1.00  0.00     0.026 A 
ATOM     16  C   UNL     1      45.141 128.135  22.238  1.00  0.00     0.065 A 
ATOM     17  C   UNL     1      43.556 125.626  24.621  1.00  0.00     0.047 C 
ATOM     18  F   UNL     1      45.382 125.778  22.434  1.00  0.00    -0.207 F 
ENDBRANCH   9  11
ENDBRANCH   1   9
BRANCH   4  19
ATOM     19  N   UNL     1      41.241 133.203  20.028  1.00  0.00    -0.396 N 
ATOM     20  H   UNL     1      41.243 134.145  20.479  1.00  0.00     0.156 HD
ATOM     21  H   UNL     1      40.332 132.830  19.675  1.00  0.00     0.156 HD
ENDBRANCH   4  19
BRANCH   6  22
ATOM     22  C   UNL     1      44.779 131.303  17.138  1.00  0.00    -0.013 A 
ATOM     23  C   UNL     1      44.139 131.853  15.996  1.00  0.00     0.009 A 
ATOM     24  C   UNL     1      45.966 130.550  16.976  1.00  0.00     0.035 A 
ATOM     25  C   UNL     1      44.675 131.666  14.710  1.00  0.00     0.011 A 
ATOM     26  C   UNL     1      46.470 130.384  15.687  1.00  0.00     0.046 A 
ATOM     27  C   UNL     1      45.846 130.923  14.595  1.00  0.00    -0.001 A 
ATOM     28  N   UNL     1      47.572 129.710  15.322  1.00  0.00    -0.361 N 
ATOM     29  C   UNL     1      46.586 130.578  13.485  1.00  0.00     0.028 A 
ATOM     30  C   UNL     1      47.648 129.825  13.977  1.00  0.00     0.083 A 
ATOM     31  H   UNL     1      48.236 129.198  15.946  1.00  0.00     0.166 HD
ENDBRANCH   6  22
TORSDOF 4
ENDMDL
MODEL 2
REMARK VINA RESULT:     -10.9      0.966      1.329
REMARK SMILES Cc1ccc(Nc2c(F)c(N)cc(-c3ccc4cc[nH]c4c3)c2F)cc1F
REMARK SMILES IDX 7 1 8 2 9 3 10 4 12 5 13 6 23 7 24 8 6 9 5 11 2 12 3 13
REMARK SMILES IDX 26 14 4 15 25 16 1 17 27 18 11 19 14 22 15 23 22 24 16 25
REMARK SMILES IDX 21 26 17 27 20 28 18 29 19 30
REMARK H PARENT 6 10 11 20 11 21 20 31
ROOT
ATOM      1  C   UNL     1      44.231 130.891  21.184  1.00  0.00     0.114 A 
ATOM      2  C   UNL     1      43.135 131.738  21.431  1.00  0.00     0.172 A 
ATOM      3  F   UNL     1      42.702 131.933  22.703  1.00  0.00    -0.202 F 
ATOM      4  C   UNL     1      42.513 132.416  20.373  1.00  0.00     0.071 A 
ATOM      5  C   UNL     1      42.994 132.256  19.068  1.00  0.00     0.040 A 
ATOM      6  C   UNL     1      44.099 131.428  18.807  1.00  0.00     0.022 A 
ATOM      7  C   UNL     1      44.722 130.757  19.876  1.00  0.00     0.157 A 
ATOM      8  F   UNL     1      45.816 129.983  19.653  1.00  0.00    -0.204 F 
ENDROOT
BRANCH   1   9
ATOM      9  N   UNL     1      44.895 130.210  22.261  1.00  0.00    -0.351 N 
ATOM     10  H   UNL     1      45.691 130.699  22.731  1.00  0.00     0.167 HD
BRANCH   9  11
ATOM     11  C   UNL     1      44.578 128.871  22.686  1.00  0.00     0.041 A 
ATOM     12  C   UNL     1      43.971 126.230  23.457  1.00  0.00    -0.015 A 
ATOM     13  C   UNL     1      45.083 126.494  22.642  1.00  0.00     0.008 A 
ATOM     14  C   UNL     1      43.144 127.292  23.858  1.00  0.00     0.128 A 
ATOM     15  C   UNL     1      45.381 127.805  22.259  1.00  0.00     0.026 A 
ATOM     16  C   UNL     1      43.445 128.602  23.475  1.00  0.00     0.065 A 
ATOM     17  C   UNL     1      43.633 124.819  23.843  1.00  0.00     0.047 C 
ATOM     18  F   UNL     1      42.042 127.058  24.614  1.00  0.00    -0.207 F 
ENDBRANCH   9  11
ENDBRANCH   1   9
BRANCH   4  19
ATOM     19  N   UNL     1      41.394 133.274  20.619  1.00  0.00    -0.396 N 
ATOM     20  H   UNL     1      40.890 133.258  21.533  1.00  0.00     0.156 HD
ATOM     21  H   UNL     1      41.056 133.935  19.883  1.00  0.00     0.156 HD
ENDBRANCH   4  19
BRANCH   6  22
ATOM     22  C   UNL     1      44.593 131.275  17.417  1.00  0.00    -0.013 A 
ATOM     23  C   UNL     1      43.823 131.760  16.327  1.00  0.00     0.009 A 
ATOM     24  C   UNL     1      45.827 130.630  17.165  1.00  0.00     0.035 A 
ATOM     25  C   UNL     1      44.275 131.616  15.004  1.00  0.00     0.011 A 
ATOM     26  C   UNL     1      46.246 130.505  15.841  1.00  0.00     0.046 A 
ATOM     27  C   UNL     1      45.496 130.980  14.800  1.00  0.00    -0.001 A 
ATOM     28  N   UNL     1      47.373 129.930  15.393  1.00  0.00    -0.361 N 
ATOM     29  C   UNL     1      46.178 130.697  13.637  1.00  0.00     0.028 A 
ATOM     30  C   UNL     1      47.337 130.045  14.046  1.00  0.00     0.083 A 
ATOM     31  H   UNL     1      48.125 129.483  15.964  1.00  0.00     0.166 HD
ENDBRANCH   6  22
TORSDOF 4
ENDMDL
MODEL 3
REMARK VINA RESULT:     -10.5      1.452      1.948
REMARK SMILES Cc1ccc(Nc2c(F)c(N)cc(-c3ccc4cc[nH]c4c3)c2F)cc1F
REMARK SMILES IDX 7 1 8 2 9 3 10 4 12 5 13 6 23 7 24 8 6 9 5 11 2 12 3 13
REMARK SMILES IDX 26 14 4 15 25 16 1 17 27 18 11 19 14 22 15 23 22 24 16 25
REMARK SMILES IDX 21 26 17 27 20 28 18 29 19 30
REMARK H PARENT 6 10 11 20 11 21 20 31
ROOT
ATOM      1  C   UNL     1      44.396 131.139  20.406  1.00  0.00     0.114 A 
ATOM      2  C   UNL     1      43.217 131.883  20.217  1.00  0.00     0.172 A 
ATOM      3  F   UNL     1      42.497 132.300  21.290  1.00  0.00    -0.202 F 
ATOM      4  C   UNL     1      42.802 132.233  18.923  1.00  0.00     0.071 A 
ATOM      5  C   UNL     1      43.573 131.848  17.820  1.00  0.00     0.040 A 
ATOM      6  C   UNL     1      44.762 131.120  17.994  1.00  0.00     0.022 A 
ATOM      7  C   UNL     1      45.175 130.780  19.295  1.00  0.00     0.157 A 
ATOM      8  F   UNL     1      46.342 130.111  19.491  1.00  0.00    -0.204 F 
ENDROOT
BRANCH   1   9
ATOM      9  N   UNL     1      44.847 130.794  21.726  1.00  0.00    -0.351 N 
ATOM     10  H   UNL     1      45.600 131.381  22.153  1.00  0.00     0.167 HD
BRANCH   9  11
ATOM     11  C   UNL     1      44.376 129.654  22.469  1.00  0.00     0.041 A 
ATOM     12  C   UNL     1      43.470 127.384  23.869  1.00  0.00    -0.015 A 
ATOM     13  C   UNL     1      44.651 127.328  23.114  1.00  0.00     0.008 A 
ATOM     14  C   UNL     1      42.725 128.574  23.893  1.00  0.00     0.128 A 
ATOM     15  C   UNL     1      45.098 128.454  22.418  1.00  0.00     0.026 A 
ATOM     16  C   UNL     1      43.174 129.700  23.198  1.00  0.00     0.065 A 
ATOM     17  C   UNL     1      42.973 126.165  24.591  1.00  0.00     0.047 C 
ATOM     18  F   UNL     1      41.559 128.642  24.584  1.00  0.00    -0.207 F 
ENDBRANCH   9  11
ENDBRANCH   1   9
BRANCH   4  19
ATOM     19  N   UNL     1      41.600 132.985  18.725  1.00  0.00    -0.396 N 
ATOM     20  H   UNL     1      41.058 133.362  19.534  1.00  0.00     0.156 HD
ATOM     21  H   UNL     1      41.238 133.168  17.762  1.00  0.00     0.156 HD
ENDBRANCH   4  19
BRANCH   6  22
ATOM     22  C   UNL     1      45.564 130.725  16.811  1.00  0.00    -0.013 A 
ATOM     23  C   UNL     1      45.954 129.372  16.631  1.00  0.00     0.009 A 
ATOM     24  C   UNL     1      45.961 131.696  15.860  1.00  0.00     0.035 A 
ATOM     25  C   UNL     1      46.721 128.984  15.519  1.00  0.00     0.011 A 
ATOM     26  C   UNL     1      46.720 131.277  14.769  1.00  0.00     0.046 A 
ATOM     27  C   UNL     1      47.086 129.968  14.606  1.00  0.00    -0.001 A 
ATOM     28  N   UNL     1      47.195 132.033  13.766  1.00  0.00    -0.361 N 
ATOM     29  C   UNL     1      47.825 129.888  13.445  1.00  0.00     0.028 A 
ATOM     30  C   UNL     1      47.870 131.188  12.954  1.00  0.00     0.083 A 
ATOM     31  H   UNL     1      47.071 133.062  13.637  1.00  0.00     0.166 HD
ENDBRANCH   6  22
TORSDOF 4
ENDMDL
MODEL 4
REMARK VINA RESULT:     -10.1      1.250      1.564
REMARK SMILES Cc1ccc(Nc2c(F)c(N)cc(-c3ccc4cc[nH]c4c3)c2F)cc1F
REMARK SMILES IDX 7 1 8 2 9 3 10 4 12 5 13 6 23 7 24 8 6 9 5 11 2 12 3 13
REMARK SMILES IDX 26 14 4 15 25 16 1 17 27 18 11 19 14 22 15 23 22 24 16 25
REMARK SMILES IDX 21 26 17 27 20 28 18 29 19 30
REMARK H PARENT 6 10 11 20 11 21 20 31
ROOT
ATOM      1  C   UNL     1      44.207 131.408  20.224  1.00  0.00     0.114 A 
ATOM      2  C   UNL     1      42.917 131.968  20.167  1.00  0.00     0.172 A 
ATOM      3  F   UNL     1      42.242 132.235  21.314  1.00  0.00    -0.202 F 
ATOM      4  C   UNL     1      42.341 132.290  18.930  1.00  0.00     0.071 A 
ATOM      5  C   UNL     1      43.060 132.063  17.750  1.00  0.00     0.040 A 
ATOM      6  C   UNL     1      44.355 131.522  17.792  1.00  0.00     0.022 A 
ATOM      7  C   UNL     1      44.929 131.208  19.038  1.00  0.00     0.157 A 
ATOM      8  F   UNL     1      46.196 130.721  19.105  1.00  0.00    -0.204 F 
ENDROOT
BRANCH   1   9
ATOM      9  N   UNL     1      44.820 131.095  21.486  1.00  0.00    -0.351 N 
ATOM     10  H   UNL     1      45.605 131.705  21.811  1.00  0.00     0.167 HD
BRANCH   9  11
ATOM     11  C   UNL     1      44.468 129.958  22.295  1.00  0.00     0.041 A 
ATOM     12  C   UNL     1      43.793 127.691  23.826  1.00  0.00    -0.015 A 
ATOM     13  C   UNL     1      44.925 127.677  22.997  1.00  0.00     0.008 A 
ATOM     14  C   UNL     1      42.980 128.836  23.860  1.00  0.00     0.128 A 
ATOM     15  C   UNL     1      45.258 128.801  22.237  1.00  0.00     0.026 A 
ATOM     16  C   UNL     1      43.315 129.960  23.100  1.00  0.00     0.065 A 
ATOM     17  C   UNL     1      43.420 126.473  24.620  1.00  0.00     0.047 C 
ATOM     18  F   UNL     1      41.859 128.861  24.624  1.00  0.00    -0.207 F 
ENDBRANCH   9  11
ENDBRANCH   1   9
BRANCH   4  19
ATOM     19  N   UNL     1      41.027 132.854  18.866  1.00  0.00    -0.396 N 
ATOM     20  H   UNL     1      40.771 133.546  18.127  1.00  0.00     0.156 HD
ATOM     21  H   UNL     1      40.297 132.586  19.563  1.00  0.00     0.156 HD
ENDBRANCH   4  19
BRANCH   6  22
ATOM     22  C   UNL     1      45.100 131.293  16.529  1.00  0.00    -0.013 A 
ATOM     23  C   UNL     1      44.748 132.006  15.353  1.00  0.00     0.009 A 
ATOM     24  C   UNL     1      46.154 130.350  16.482  1.00  0.00     0.035 A 
ATOM     25  C   UNL     1      45.439 131.794  14.147  1.00  0.00     0.011 A 
ATOM     26  C   UNL     1      46.819 130.165  15.272  1.00  0.00     0.046 A 
ATOM     27  C   UNL     1      46.472 130.862  14.146  1.00  0.00    -0.001 A 
ATOM     28  N   UNL     1      47.835 129.326  15.018  1.00  0.00    -0.361 N 
ATOM     29  C   UNL     1      47.308 130.449  13.131  1.00  0.00     0.028 A 
ATOM     30  C   UNL     1      48.139 129.496  13.711  1.00  0.00     0.083 A 
ATOM     31  H   UNL     1      48.299 128.673  15.690  1.00  0.00     0.166 HD
ENDBRANCH   6  22
TORSDOF 4
ENDMDL
MODEL 5
REMARK VINA RESULT:      -9.2      1.286      1.624
REMARK SMILES Cc1ccc(Nc2c(F)c(N)cc(-c3ccc4cc[nH]c4c3)c2F)cc1F
REMARK SMILES IDX 7 1 8 2 9 3 10 4 12 5 13 6 23 7 24 8 6 9 5 11 2 12 3 13
REMARK SMILES IDX 26 14 4 15 25 16 1 17 27 18 11 19 14 22 15 23 22 24 16 25
REMARK SMILES IDX 21 26 17 27 20 28 18 29 19 30
REMARK H PARENT 6 10 11 20 11 21 20 31
ROOT
ATOM      1  C   UNL     1      44.174 131.805  20.021  1.00  0.00     0.114 A 
ATOM      2  C   UNL     1      42.927 132.393  19.739  1.00  0.00     0.172 A 
ATOM      3  F   UNL     1      42.165 132.885  20.749  1.00  0.00    -0.202 F 
ATOM      4  C   UNL     1      42.484 132.509  18.413  1.00  0.00     0.071 A 
ATOM      5  C   UNL     1      43.294 132.049  17.368  1.00  0.00     0.040 A 
ATOM      6  C   UNL     1      44.550 131.478  17.632  1.00  0.00     0.022 A 
ATOM      7  C   UNL     1      44.990 131.371  18.964  1.00  0.00     0.157 A 
ATOM      8  F   UNL     1      46.218 130.858  19.241  1.00  0.00    -0.204 F 
ENDROOT
BRANCH   1   9
ATOM      9  N   UNL     1      44.653 131.702  21.372  1.00  0.00    -0.351 N 
ATOM     10  H   UNL     1      45.116 132.540  21.791  1.00  0.00     0.167 HD
BRANCH   9  11
ATOM     11  C   UNL     1      44.594 130.497  22.158  1.00  0.00     0.041 A 
ATOM     12  C   UNL     1      44.483 128.178  23.754  1.00  0.00    -0.015 A 
ATOM     13  C   UNL     1      43.784 129.334  24.132  1.00  0.00     0.008 A 
ATOM     14  C   UNL     1      45.267 128.198  22.589  1.00  0.00     0.128 A 
ATOM     15  C   UNL     1      43.841 130.484  23.341  1.00  0.00     0.026 A 
ATOM     16  C   UNL     1      45.322 129.350  21.797  1.00  0.00     0.065 A 
ATOM     17  C   UNL     1      44.447 126.952  24.620  1.00  0.00     0.047 C 
ATOM     18  F   UNL     1      45.984 127.106  22.222  1.00  0.00    -0.207 F 
ENDBRANCH   9  11
ENDBRANCH   1   9
BRANCH   4  19
ATOM     19  N   UNL     1      41.213 133.100  18.122  1.00  0.00    -0.396 N 
ATOM     20  H   UNL     1      40.822 133.863  18.718  1.00  0.00     0.156 HD
ATOM     21  H   UNL     1      40.648 132.775  17.305  1.00  0.00     0.156 HD
ENDBRANCH   4  19
BRANCH   6  22
ATOM     22  C   UNL     1      45.393 131.000  16.509  1.00  0.00    -0.013 A 
ATOM     23  C   UNL     1      45.524 129.609  16.256  1.00  0.00     0.009 A 
ATOM     24  C   UNL     1      46.086 131.924  15.692  1.00  0.00     0.035 A 
ATOM     25  C   UNL     1      46.325 129.140  15.201  1.00  0.00     0.011 A 
ATOM     26  C   UNL     1      46.871 131.426  14.654  1.00  0.00     0.046 A 
ATOM     27  C   UNL     1      46.985 130.083  14.418  1.00  0.00    -0.001 A 
ATOM     28  N   UNL     1      47.602 132.128  13.774  1.00  0.00    -0.361 N 
ATOM     29  C   UNL     1      47.826 129.924  13.338  1.00  0.00     0.028 A 
ATOM     30  C   UNL     1      48.188 131.215  12.967  1.00  0.00     0.083 A 
ATOM     31  H   UNL     1      47.702 133.167  13.721  1.00  0.00     0.166 HD
ENDBRANCH   6  22
TORSDOF 4
ENDMDL
MODEL 6
REMARK VINA RESULT:      -9.2      1.277      1.734
REMARK SMILES Cc1ccc(Nc2c(F)c(N)cc(-c3ccc4cc[nH]c4c3)c2F)cc1F
REMARK SMILES IDX 7 1 8 2 9 3 10 4 12 5 13 6 23 7 24 8 6 9 5 11 2 12 3 13
REMARK SMILES IDX 26 14 4 15 25 16 1 17 27 18 11 19 14 22 15 23 22 24 16 25
REMARK SMILES IDX 21 26 17 27 20 28 18 29 19 30
REMARK H PARENT 6 10 11 20 11 21 20 31
ROOT
ATOM      1  C   UNL     1      44.502 131.112  19.989  1.00  0.00     0.114 A 
ATOM      2  C   UNL     1      43.224 131.686  19.858  1.00  0.00     0.172 A 
ATOM      3  F   UNL     1      42.462 131.905  20.960  1.00  0.00    -0.202 F 
ATOM      4  C   UNL     1      42.749 132.072  18.596  1.00  0.00     0.071 A 
ATOM      5  C   UNL     1      43.557 131.894  17.466  1.00  0.00     0.040 A 
ATOM      6  C   UNL     1      44.843 131.340  17.584  1.00  0.00     0.022 A 
ATOM      7  C   UNL     1      45.315 130.963  18.855  1.00  0.00     0.157 A 
ATOM      8  F   UNL     1      46.570 130.462  18.998  1.00  0.00    -0.204 F 
ENDROOT
BRANCH   1   9
ATOM      9  N   UNL     1      45.013 130.736  21.279  1.00  0.00    -0.351 N 
ATOM     10  H   UNL     1      45.487 131.472  21.849  1.00  0.00     0.167 HD
BRANCH   9  11
ATOM     11  C   UNL     1      44.972 129.395  21.802  1.00  0.00     0.041 A 
ATOM     12  C   UNL     1      44.881 126.749  22.765  1.00  0.00    -0.015 A 
ATOM     13  C   UNL     1      45.539 127.044  21.562  1.00  0.00     0.008 A 
ATOM     14  C   UNL     1      44.238 127.780  23.469  1.00  0.00     0.128 A 
ATOM     15  C   UNL     1      45.583 128.357  21.085  1.00  0.00     0.026 A 
ATOM     16  C   UNL     1      44.283 129.093  22.990  1.00  0.00     0.065 A 
ATOM     17  C   UNL     1      44.808 125.334  23.262  1.00  0.00     0.047 C 
ATOM     18  F   UNL     1      43.561 127.514  24.614  1.00  0.00    -0.207 F 
ENDBRANCH   9  11
ENDBRANCH   1   9
BRANCH   4  19
ATOM     19  N   UNL     1      41.447 132.650  18.456  1.00  0.00    -0.396 N 
ATOM     20  H   UNL     1      41.077 132.931  17.521  1.00  0.00     0.156 HD
ATOM     21  H   UNL     1      40.840 132.806  19.292  1.00  0.00     0.156 HD
ENDBRANCH   4  19
BRANCH   6  22
ATOM     22  C   UNL     1      45.683 131.164  16.374  1.00  0.00    -0.013 A 
ATOM     23  C   UNL     1      45.945 132.268  15.520  1.00  0.00     0.009 A 
ATOM     24  C   UNL     1      46.215 129.893  16.053  1.00  0.00     0.035 A 
ATOM     25  C   UNL     1      46.733 132.115  14.366  1.00  0.00     0.011 A 
ATOM     26  C   UNL     1      46.992 129.776  14.902  1.00  0.00     0.046 A 
ATOM     27  C   UNL     1      47.241 130.849  14.089  1.00  0.00    -0.001 A 
ATOM     28  N   UNL     1      47.582 128.669  14.424  1.00  0.00    -0.361 N 
ATOM     29  C   UNL     1      48.027 130.404  13.048  1.00  0.00     0.028 A 
ATOM     30  C   UNL     1      48.217 129.048  13.291  1.00  0.00     0.083 A 
ATOM     31  H   UNL     1      47.557 127.710  14.839  1.00  0.00     0.166 HD
ENDBRANCH   6  22
TORSDOF 4
ENDMDL
MODEL 7
REMARK VINA RESULT:      -8.7      1.050      1.241
REMARK SMILES Cc1ccc(Nc2c(F)c(N)cc(-c3ccc4cc[nH]c4c3)c2F)cc1F
REMARK SMILES IDX 7 1 8 2 9 3 10 4 12 5 13 6 23 7 24 8 6 9 5 11 2 12 3 13
REMARK SMILES IDX 26 14 4 15 25 16 1 17 27 18 11 19 14 22 15 23 22 24 16 25
REMARK SMILES IDX 21 26 17 27 20 28 18 29 19 30
REMARK H PARENT 6 10 11 20 11 21 20 31
ROOT
ATOM      1  C   UNL     1      43.917 131.719  19.936  1.00  0.00     0.114 A 
ATOM      2  C   UNL     1      42.608 132.180  19.705  1.00  0.00     0.172 A 
ATOM      3  F   UNL     1      41.804 132.494  20.753  1.00  0.00    -0.202 F 
ATOM      4  C   UNL     1      42.141 132.355  18.394  1.00  0.00     0.071 A 
ATOM      5  C   UNL     1      42.989 132.081  17.314  1.00  0.00     0.040 A 
ATOM      6  C   UNL     1      44.304 131.638  17.528  1.00  0.00     0.022 A 
ATOM      7  C   UNL     1      44.767 131.472  18.847  1.00  0.00     0.157 A 
ATOM      8  F   UNL     1      46.048 131.082  19.079  1.00  0.00    -0.204 F 
ENDROOT
BRANCH   1   9
ATOM      9  N   UNL     1      44.418 131.558  21.274  1.00  0.00    -0.351 N 
ATOM     10  H   UNL     1      45.024 132.317  21.662  1.00  0.00     0.167 HD
BRANCH   9  11
ATOM     11  C   UNL     1      44.192 130.390  22.085  1.00  0.00     0.041 A 
ATOM     12  C   UNL     1      43.740 128.145  23.725  1.00  0.00    -0.015 A 
ATOM     13  C   UNL     1      42.922 129.280  23.834  1.00  0.00     0.008 A 
ATOM     14  C   UNL     1      44.808 128.151  22.813  1.00  0.00     0.128 A 
ATOM     15  C   UNL     1      43.149 130.394  23.021  1.00  0.00     0.026 A 
ATOM     16  C   UNL     1      45.033 129.266  22.000  1.00  0.00     0.065 A 
ATOM     17  C   UNL     1      43.515 126.960  24.620  1.00  0.00     0.047 C 
ATOM     18  F   UNL     1      45.637 127.081  22.717  1.00  0.00    -0.207 F 
ENDBRANCH   9  11
ENDBRANCH   1   9
BRANCH   4  19
ATOM     19  N   UNL     1      40.808 132.817  18.154  1.00  0.00    -0.396 N 
ATOM     20  H   UNL     1      40.075 132.180  17.770  1.00  0.00     0.156 HD
ATOM     21  H   UNL     1      40.543 133.808  18.355  1.00  0.00     0.156 HD
ENDBRANCH   4  19
BRANCH   6  22
ATOM     22  C   UNL     1      45.186 131.356  16.369  1.00  0.00    -0.013 A 
ATOM     23  C   UNL     1      45.151 132.196  15.224  1.00  0.00     0.009 A 
ATOM     24  C   UNL     1      46.055 130.240  16.387  1.00  0.00     0.035 A 
ATOM     25  C   UNL     1      45.975 131.937  14.115  1.00  0.00     0.011 A 
ATOM     26  C   UNL     1      46.859 130.013  15.271  1.00  0.00     0.046 A 
ATOM     27  C   UNL     1      46.818 130.832  14.176  1.00  0.00    -0.001 A 
ATOM     28  N   UNL     1      47.742 129.018  15.090  1.00  0.00    -0.361 N 
ATOM     29  C   UNL     1      47.718 130.338  13.257  1.00  0.00     0.028 A 
ATOM     30  C   UNL     1      48.270 129.212  13.860  1.00  0.00     0.083 A 
ATOM     31  H   UNL     1      47.974 128.250  15.758  1.00  0.00     0.166 HD
ENDBRANCH   6  22
TORSDOF 4
ENDMDL


