REMARK SMILES Cc1ccc([NH2+]c2cccc(N)c2Oc2ncc(C=O)cc2C)cc1
REMARK SMILES IDX 7 1 8 2 9 3 10 4 11 5 13 6 6 7 5 10 2 11 3 12 25 13 4 14
REMARK SMILES IDX 24 15 1 16 14 17 15 18 16 19 22 20 17 21 21 22 18 23 23 24
REMARK SMILES IDX 19 25 20 26 12 27
REMARK H PARENT 6 8 6 9 12 28 12 29
ROOT
ATOM      1  C   UNL     1       0.654   1.856  -2.523  1.00  0.00     0.179 A 
ATOM      2  C   UNL     1       0.147   2.287  -3.762  1.00  0.00     0.072 A 
ATOM      3  C   UNL     1      -0.075   1.375  -4.794  1.00  0.00     0.009 A 
ATOM      4  C   UNL     1       0.208   0.022  -4.607  1.00  0.00     0.030 A 
ATOM      5  C   UNL     1       0.712  -0.435  -3.383  1.00  0.00     0.081 A 
ATOM      6  C   UNL     1       0.927   0.481  -2.333  1.00  0.00     0.213 A 
ENDROOT
BRANCH   1   7
ATOM      7  N   UNL     1       0.866   2.813  -1.458  1.00  0.00    -0.278 N 
ATOM      8  H   UNL     1       1.848   2.706  -1.111  1.00  0.00     0.358 HD
ATOM      9  H   UNL     1       0.771   3.794  -1.811  1.00  0.00     0.358 HD
BRANCH   7  10
ATOM     10  C   UNL     1      -0.087   2.624  -0.388  1.00  0.00     0.134 A 
ATOM     11  C   UNL     1      -1.934   2.138   1.685  1.00  0.00    -0.051 A 
ATOM     12  C   UNL     1      -0.559   2.163   1.956  1.00  0.00     0.009 A 
ATOM     13  C   UNL     1      -2.386   2.422   0.388  1.00  0.00     0.009 A 
ATOM     14  C   UNL     1       0.357   2.410   0.930  1.00  0.00     0.068 A 
ATOM     15  C   UNL     1      -1.471   2.668  -0.640  1.00  0.00     0.068 A 
ATOM     16  C   UNL     1      -2.915   1.869   2.787  1.00  0.00     0.044 C 
ENDBRANCH   7  10
ENDBRANCH   1   7
BRANCH   6  17
ATOM     17  O   UNL     1       1.403   0.032  -1.097  1.00  0.00    -0.430 OA
BRANCH  17  18
ATOM     18  C   UNL     1       0.572  -0.587  -0.155  1.00  0.00     0.222 A 
ATOM     19  N   UNL     1      -0.758  -0.740  -0.408  1.00  0.00    -0.221 NA
ATOM     20  C   UNL     1       1.101  -1.012   1.075  1.00  0.00     0.012 A 
ATOM     21  C   UNL     1      -1.612  -1.267   0.506  1.00  0.00     0.126 A 
ATOM     22  C   UNL     1       0.229  -1.536   2.040  1.00  0.00     0.022 A 
ATOM     23  C   UNL     1      -1.139  -1.666   1.764  1.00  0.00     0.033 A 
ATOM     24  C   UNL     1       2.557  -0.827   1.389  1.00  0.00     0.050 C 
BRANCH  23  25
ATOM     25  C   UNL     1      -2.049  -2.204   2.791  1.00  0.00     0.261 C 
ATOM     26  O   UNL     1      -3.284  -2.314   2.571  1.00  0.00    -0.298 OA
ENDBRANCH  23  25
ENDBRANCH  17  18
ENDBRANCH   6  17
BRANCH   5  27
ATOM     27  N   UNL     1       1.009  -1.826  -3.216  1.00  0.00    -0.396 N 
ATOM     28  H   UNL     1       1.427  -2.193  -2.333  1.00  0.00     0.156 HD
ATOM     29  H   UNL     1       0.832  -2.504  -3.990  1.00  0.00     0.156 HD
ENDBRANCH   5  27
TORSDOF 6


