REMARK SMILES CC(C)(C)COC(=O)N(c1ccc2cc[nH]c2c1)c1c2o[n-]cc-2cc(-n2nc3ccccc3n2)c1=O
REMARK SMILES IDX 6 1 5 2 2 3 1 4 3 5 4 6 7 7 8 8 9 9 10 10 11 11 18 12 12 13
REMARK SMILES IDX 17 14 13 15 16 16 14 17 15 18 19 20 20 21 36 22 21 23 24 24
REMARK SMILES IDX 26 25 22 26 23 27 25 28 37 29 27 30 28 31 35 32 29 33 34 34
REMARK SMILES IDX 30 35 33 36 31 37 32 38
REMARK H PARENT 16 19
ROOT
ATOM      1  O   UNL     1       2.534   1.947   0.221  1.00  0.00    -0.448 OA
ENDROOT
BRANCH   1   2
ATOM      2  C   UNL     1       3.276   2.973  -0.432  1.00  0.00     0.241 C 
BRANCH   2   3
ATOM      3  C   UNL     1       3.860   3.961   0.602  1.00  0.00    -0.004 C 
ATOM      4  C   UNL     1       4.796   3.216   1.576  1.00  0.00     0.014 C 
ATOM      5  C   UNL     1       4.663   5.048  -0.137  1.00  0.00     0.014 C 
ATOM      6  C   UNL     1       2.719   4.628   1.396  1.00  0.00     0.014 C 
ENDBRANCH   2   3
ENDBRANCH   1   2
BRANCH   1   7
ATOM      7  C   UNL     1       1.927   0.890  -0.464  1.00  0.00     0.419 C 
ATOM      8  O   UNL     1       1.986   0.834  -1.723  1.00  0.00    -0.224 OA
BRANCH   7   9
ATOM      9  N   UNL     1       1.236  -0.136   0.275  1.00  0.00    -0.239 N 
BRANCH   9  10
ATOM     10  C   UNL     1       1.465  -0.283   1.690  1.00  0.00     0.055 A 
ATOM     11  C   UNL     1       0.369  -0.480   2.572  1.00  0.00     0.027 A 
ATOM     12  C   UNL     1       2.780  -0.235   2.211  1.00  0.00     0.053 A 
ATOM     13  C   UNL     1       0.575  -0.607   3.957  1.00  0.00     0.012 A 
ATOM     14  C   UNL     1       2.946  -0.360   3.588  1.00  0.00     0.047 A 
ATOM     15  C   UNL     1       1.882  -0.536   4.429  1.00  0.00    -0.000 A 
ATOM     16  N   UNL     1       4.099  -0.321   4.276  1.00  0.00    -0.361 N 
ATOM     17  C   UNL     1       2.380  -0.612   5.712  1.00  0.00     0.028 A 
ATOM     18  C   UNL     1       3.758  -0.474   5.576  1.00  0.00     0.083 A 
ATOM     19  H   UNL     1       5.061  -0.194   3.890  1.00  0.00     0.166 HD
ENDBRANCH   9  10
BRANCH   9  20
ATOM     20  C   UNL     1       0.341  -1.040  -0.400  1.00  0.00     0.144 A 
ATOM     21  C   UNL     1       0.506  -2.416  -0.289  1.00  0.00     0.141 A 
ATOM     22  C   UNL     1      -0.741  -0.577  -1.195  1.00  0.00     0.233 A 
ATOM     23  O   UNL     1       1.401  -3.106   0.372  1.00  0.00    -0.555 OA
ATOM     24  C   UNL     1      -0.353  -3.326  -0.959  1.00  0.00     0.000 A 
ATOM     25  C   UNL     1      -1.609  -1.496  -1.878  1.00  0.00     0.136 A 
ATOM     26  N   UNL     1       1.206  -4.389   0.198  1.00  0.00    -0.513 NA
ATOM     27  C   UNL     1       0.135  -4.563  -0.617  1.00  0.00    -0.098 A 
ATOM     28  C   UNL     1      -1.399  -2.893  -1.754  1.00  0.00     0.044 A 
ATOM     29  O   UNL     1      -0.936   0.664  -1.290  1.00  0.00    -0.285 OA
BRANCH  25  30
ATOM     30  N   UNL     1      -2.701  -1.024  -2.697  1.00  0.00    -0.146 N 
ATOM     31  N   UNL     1      -3.127   0.240  -2.722  1.00  0.00    -0.148 NA
ATOM     32  N   UNL     1      -3.402  -1.816  -3.510  1.00  0.00    -0.148 NA
ATOM     33  C   UNL     1      -4.144   0.247  -3.596  1.00  0.00     0.113 A 
ATOM     34  C   UNL     1      -4.312  -1.012  -4.078  1.00  0.00     0.113 A 
ATOM     35  C   UNL     1      -4.944   1.310  -4.002  1.00  0.00     0.032 A 
ATOM     36  C   UNL     1      -5.291  -1.324  -5.015  1.00  0.00     0.032 A 
ATOM     37  C   UNL     1      -5.949   1.038  -4.950  1.00  0.00     0.002 A 
ATOM     38  C   UNL     1      -6.121  -0.273  -5.456  1.00  0.00     0.002 A 
ENDBRANCH  25  30
ENDBRANCH   9  20
ENDBRANCH   7   9
ENDBRANCH   1   7
TORSDOF 7


