REMARK SMILES C=Cc1ccc(-c2cc(C=O)c(N)c3ccoc23)nc1
REMARK SMILES IDX 7 1 8 2 9 3 12 4 14 5 15 6 16 7 17 8 18 9 6 10 3 11 4 12
REMARK SMILES IDX 20 13 5 14 19 15 2 16 1 17 10 18 11 19 13 20
REMARK H PARENT 13 21 13 22
ROOT
ATOM      1  C   UNL     1      -0.761  -0.235  -0.071  1.00  0.00     0.044 A 
ATOM      2  C   UNL     1      -1.092  -0.494   1.279  1.00  0.00     0.028 A 
ATOM      3  C   UNL     1      -1.904   0.395   2.028  1.00  0.00     0.039 A 
ATOM      4  C   UNL     1      -2.368   1.601   1.427  1.00  0.00     0.053 A 
ATOM      5  C   UNL     1      -2.029   1.824   0.087  1.00  0.00     0.045 A 
ATOM      6  C   UNL     1      -2.323   2.872  -0.761  1.00  0.00     0.053 A 
ATOM      7  C   UNL     1      -1.705   2.545  -1.960  1.00  0.00     0.196 A 
ATOM      8  O   UNL     1      -1.077   1.391  -1.851  1.00  0.00    -0.464 OA
ATOM      9  C   UNL     1      -1.256   0.947  -0.629  1.00  0.00     0.145 A 
ENDROOT
BRANCH   1  10
ATOM     10  C   UNL     1       0.088  -1.159  -0.864  1.00  0.00     0.074 A 
ATOM     11  C   UNL     1       1.708  -2.837  -2.415  1.00  0.00    -0.008 A 
ATOM     12  C   UNL     1       0.906  -3.373  -1.398  1.00  0.00     0.012 A 
ATOM     13  C   UNL     1       1.678  -1.446  -2.620  1.00  0.00     0.119 A 
ATOM     14  C   UNL     1       0.092  -2.543  -0.626  1.00  0.00     0.030 A 
ATOM     15  N   UNL     1       0.879  -0.658  -1.853  1.00  0.00    -0.255 NA
BRANCH  11  16
ATOM     16  C   UNL     1       2.564  -3.755  -3.208  1.00  0.00     0.002 C 
ATOM     17  C   UNL     1       3.147  -3.429  -4.363  1.00  0.00     0.009 C 
ENDBRANCH  11  16
ENDBRANCH   1  10
BRANCH   3  18
ATOM     18  C   UNL     1      -2.259  -0.008   3.406  1.00  0.00     0.262 C 
ATOM     19  O   UNL     1      -3.306   0.406   3.969  1.00  0.00    -0.298 OA
ENDBRANCH   3  18
BRANCH   4  20
ATOM     20  N   UNL     1      -3.098   2.596   2.159  1.00  0.00    -0.398 N 
ATOM     21  H   UNL     1      -3.055   2.655   3.199  1.00  0.00     0.156 HD
ATOM     22  H   UNL     1      -3.583   3.377   1.665  1.00  0.00     0.156 HD
ENDBRANCH   4  20
TORSDOF 4


