REMARK SMILES CC(=O)[N-]c1cc(F)c(-c2ccc(C)cc2)cc1C=O
REMARK SMILES IDX 5 1 6 2 7 3 8 4 9 5 17 6 18 7 4 8 2 9 1 10 3 11 19 12 20 13
REMARK SMILES IDX 10 14 11 15 16 16 12 17 15 18 13 19 14 20
REMARK H PARENT
ROOT
ATOM      1  C   UNL     1       0.620   1.521  -1.891  1.00  0.00    -0.121 A 
ATOM      2  C   UNL     1       0.547   2.061  -0.596  1.00  0.00     0.024 A 
ATOM      3  C   UNL     1       0.367   1.235   0.514  1.00  0.00     0.129 A 
ATOM      4  F   UNL     1       0.334   1.796   1.750  1.00  0.00    -0.206 F 
ATOM      5  C   UNL     1       0.273  -0.157   0.354  1.00  0.00     0.018 A 
ATOM      6  C   UNL     1       0.381  -0.704  -0.935  1.00  0.00     0.022 A 
ATOM      7  C   UNL     1       0.561   0.117  -2.061  1.00  0.00     0.000 A 
ENDROOT
BRANCH   1   8
ATOM      8  N   UNL     1       0.837   2.381  -3.021  1.00  0.00    -0.626 NA
BRANCH   8   9
ATOM      9  C   UNL     1       0.309   3.702  -3.204  1.00  0.00     0.051 C 
ATOM     10  C   UNL     1      -0.909   4.179  -2.475  1.00  0.00     0.065 C 
ATOM     11  O   UNL     1       0.868   4.472  -4.028  1.00  0.00    -0.321 OA
ENDBRANCH   8   9
ENDBRANCH   1   8
BRANCH   7  12
ATOM     12  C   UNL     1       0.662  -0.535  -3.388  1.00  0.00     0.258 C 
ATOM     13  O   UNL     1       0.792   0.129  -4.449  1.00  0.00    -0.298 OA
ENDBRANCH   7  12
BRANCH   5  14
ATOM     14  C   UNL     1       0.076  -1.048   1.523  1.00  0.00    -0.015 A 
ATOM     15  C   UNL     1      -0.907  -0.760   2.485  1.00  0.00     0.009 A 
ATOM     16  C   UNL     1       0.867  -2.200   1.679  1.00  0.00     0.009 A 
ATOM     17  C   UNL     1      -1.094  -1.606   3.582  1.00  0.00     0.004 A 
ATOM     18  C   UNL     1       0.679  -3.045   2.777  1.00  0.00     0.004 A 
ATOM     19  C   UNL     1      -0.312  -2.761   3.728  1.00  0.00    -0.051 A 
ATOM     20  C   UNL     1      -0.486  -3.646   4.926  1.00  0.00     0.044 C 
ENDBRANCH   5  14
TORSDOF 4


