REMARK SMILES C[C@@H]1CC[C@@H](c2ccc3[nH+]cccc3c2)[C@H](F)N1c1nc[nH+]c2c1CCC2
REMARK SMILES IDX 1 1 2 2 3 3 4 4 5 5 16 6 17 7 18 8 19 9 20 10 24 11 21 12
REMARK SMILES IDX 23 13 25 14 22 15 27 16 26 17 6 19 7 20 15 21 8 22 14 23
REMARK SMILES IDX 9 24 13 25 10 26 12 27 11 28
REMARK H PARENT 22 18 10 29
ROOT
ATOM      1  C   UNL     1       2.229  -1.202  -3.063  1.00  0.00     0.031 C 
ATOM      2  C   UNL     1       1.672  -1.028  -1.639  1.00  0.00     0.085 C 
ATOM      3  C   UNL     1       0.385  -1.863  -1.496  1.00  0.00     0.026 C 
ATOM      4  C   UNL     1      -0.272  -1.639  -0.133  1.00  0.00     0.015 C 
ATOM      5  C   UNL     1      -0.578  -0.147   0.073  1.00  0.00     0.074 C 
ATOM      6  C   UNL     1       0.710   0.687  -0.046  1.00  0.00     0.273 C 
ATOM      7  F   UNL     1       0.383   2.033   0.024  1.00  0.00    -0.223 F 
ATOM      8  N   UNL     1       1.399   0.389  -1.312  1.00  0.00    -0.302 N 
ENDROOT
BRANCH   8   9
ATOM      9  C   UNL     1       2.231   1.421  -1.860  1.00  0.00     0.252 A 
ATOM     10  N   UNL     1       3.537   1.530  -1.484  1.00  0.00    -0.030 NA
ATOM     11  C   UNL     1       1.726   2.329  -2.790  1.00  0.00     0.063 A 
ATOM     12  C   UNL     1       4.341   2.503  -2.003  1.00  0.00     0.451 A 
ATOM     13  C   UNL     1       2.546   3.293  -3.299  1.00  0.00     0.110 A 
ATOM     14  C   UNL     1       0.360   2.399  -3.359  1.00  0.00     0.046 C 
ATOM     15  N   UNL     1       3.845   3.389  -2.915  1.00  0.00    -0.247 N 
ATOM     16  C   UNL     1       1.861   4.162  -4.280  1.00  0.00     0.081 C 
ATOM     17  C   UNL     1       0.428   3.592  -4.335  1.00  0.00     0.014 C 
ATOM     18  H   UNL     1       4.462   4.132  -3.314  1.00  0.00     0.311 HD
ENDBRANCH   8   9
BRANCH   5  19
ATOM     19  C   UNL     1      -1.278   0.094   1.398  1.00  0.00    -0.039 A 
ATOM     20  C   UNL     1      -2.568   0.654   1.416  1.00  0.00     0.011 A 
ATOM     21  C   UNL     1      -0.656  -0.229   2.620  1.00  0.00     0.019 A 
ATOM     22  C   UNL     1      -3.228   0.887   2.625  1.00  0.00     0.080 A 
ATOM     23  C   UNL     1      -1.314   0.003   3.836  1.00  0.00     0.047 A 
ATOM     24  C   UNL     1      -2.610   0.565   3.841  1.00  0.00     0.210 A 
ATOM     25  C   UNL     1      -0.707  -0.314   5.058  1.00  0.00     0.021 A 
ATOM     26  N   UNL     1      -3.249   0.790   5.027  1.00  0.00    -0.211 N 
ATOM     27  C   UNL     1      -1.385  -0.073   6.253  1.00  0.00     0.071 A 
ATOM     28  C   UNL     1      -2.665   0.484   6.218  1.00  0.00     0.306 A 
ATOM     29  H   UNL     1      -4.208   1.206   5.036  1.00  0.00     0.453 HD
ENDBRANCH   5  19
TORSDOF 2


