REMARK SMILES CC[C@@H](/[NH+]=C(\S)N(c1ccc2cc[nH]c2c1)c1cccc2cnoc12)c1ccccc1
REMARK SMILES IDX 5 1 6 2 7 4 8 5 9 6 16 7 10 8 15 9 11 10 14 11 12 12 13 13
REMARK SMILES IDX 17 15 18 16 25 17 19 18 24 19 21 20 20 21 23 22 22 23 4 24
REMARK SMILES IDX 3 26 26 27 27 28 31 29 28 30 30 31 29 32 2 33 1 34
REMARK H PARENT 6 3 14 14 4 25
ROOT
ATOM      1  C   UNL     1       0.636  -0.489   1.096  1.00  0.00     0.314 C 
ENDROOT
BRANCH   1   2
ATOM      2  S   UNL     1       0.742  -2.287   1.206  1.00  0.00    -0.055 SA
ATOM      3  H   UNL     1       1.746  -2.234   2.189  1.00  0.00     0.116 HD
ENDBRANCH   1   2
BRANCH   1   4
ATOM      4  N   UNL     1      -0.348   0.193   1.898  1.00  0.00    -0.184 N 
BRANCH   4   5
ATOM      5  C   UNL     1      -0.473  -0.115   3.301  1.00  0.00     0.136 A 
ATOM      6  C   UNL     1      -1.757  -0.253   3.892  1.00  0.00     0.053 A 
ATOM      7  C   UNL     1       0.683  -0.274   4.101  1.00  0.00     0.079 A 
ATOM      8  C   UNL     1      -1.892  -0.551   5.259  1.00  0.00     0.015 A 
ATOM      9  C   UNL     1       0.512  -0.569   5.451  1.00  0.00     0.050 A 
ATOM     10  C   UNL     1      -0.730  -0.703   6.009  1.00  0.00    -0.000 A 
ATOM     11  N   UNL     1       1.471  -0.756   6.373  1.00  0.00    -0.361 N 
ATOM     12  C   UNL     1      -0.554  -0.989   7.345  1.00  0.00     0.028 A 
ATOM     13  C   UNL     1       0.824  -1.014   7.532  1.00  0.00     0.083 A 
ATOM     14  H   UNL     1       2.505  -0.713   6.228  1.00  0.00     0.166 HD
ENDBRANCH   4   5
BRANCH   4  15
ATOM     15  C   UNL     1      -1.214   1.171   1.290  1.00  0.00     0.179 A 
ATOM     16  C   UNL     1      -1.488   2.406   1.921  1.00  0.00     0.056 A 
ATOM     17  C   UNL     1      -1.819   0.943   0.049  1.00  0.00     0.213 A 
ATOM     18  C   UNL     1      -2.330   3.360   1.303  1.00  0.00     0.005 A 
ATOM     19  O   UNL     1      -1.752  -0.116  -0.720  1.00  0.00    -0.352 OA
ATOM     20  C   UNL     1      -2.628   1.867  -0.541  1.00  0.00     0.046 A 
ATOM     21  C   UNL     1      -2.913   3.093   0.050  1.00  0.00     0.014 A 
ATOM     22  N   UNL     1      -2.474   0.059  -1.795  1.00  0.00    -0.087 NA
ATOM     23  C   UNL     1      -3.036   1.289  -1.719  1.00  0.00     0.167 A 
ENDBRANCH   4  15
ENDBRANCH   1   4
BRANCH   1  24
ATOM     24  N   UNL     1       1.405   0.197   0.291  1.00  0.00    -0.261 N 
ATOM     25  H   UNL     1       1.297   1.238   0.274  1.00  0.00     0.306 HD
BRANCH  24  26
ATOM     26  C   UNL     1       2.408  -0.401  -0.603  1.00  0.00     0.204 C 
BRANCH  26  27
ATOM     27  C   UNL     1       1.725  -0.980  -1.827  1.00  0.00    -0.004 A 
ATOM     28  C   UNL     1       0.857  -0.192  -2.604  1.00  0.00     0.008 A 
ATOM     29  C   UNL     1       1.969  -2.311  -2.210  1.00  0.00     0.008 A 
ATOM     30  C   UNL     1       0.236  -0.730  -3.735  1.00  0.00     0.000 A 
ATOM     31  C   UNL     1       1.345  -2.844  -3.342  1.00  0.00     0.000 A 
ATOM     32  C   UNL     1       0.479  -2.056  -4.103  1.00  0.00     0.000 A 
ENDBRANCH  26  27
BRANCH  26  33
ATOM     33  C   UNL     1       3.458   0.657  -1.004  1.00  0.00     0.051 C 
ATOM     34  C   UNL     1       4.620   0.057  -1.797  1.00  0.00     0.009 C 
ENDBRANCH  26  33
ENDBRANCH  24  26
ENDBRANCH   1  24
TORSDOF 8


