REMARK SMILES Cn1c[nH+]c2cc(-c3ccc4cc[nH]c4c3)cnc21
REMARK SMILES IDX 1 1 2 2 3 3 4 4 5 5 6 6 7 7 17 8 18 9 19 10 8 12 9 13 16 14
REMARK SMILES IDX 10 15 15 16 11 17 14 18 12 19 13 20
REMARK H PARENT 4 11 14 21
ROOT
ATOM      1  C   UNL     1       3.665  -0.231   3.897  1.00  0.00     0.298 C 
ATOM      2  N   UNL     1       3.001   0.684   2.978  1.00  0.00    -0.217 N 
ATOM      3  C   UNL     1       3.247   2.009   2.809  1.00  0.00     0.404 A 
ATOM      4  N   UNL     1       2.524   2.543   1.791  1.00  0.00    -0.242 N 
ATOM      5  C   UNL     1       1.819   1.507   1.305  1.00  0.00     0.192 A 
ATOM      6  C   UNL     1       0.938   1.471   0.232  1.00  0.00     0.068 A 
ATOM      7  C   UNL     1       0.357   0.222  -0.094  1.00  0.00     0.005 A 
ATOM      8  C   UNL     1       0.703  -0.922   0.682  1.00  0.00     0.124 A 
ATOM      9  N   UNL     1       1.581  -0.823   1.726  1.00  0.00    -0.213 NA
ATOM     10  C   UNL     1       2.114   0.389   2.015  1.00  0.00     0.268 A 
ATOM     11  H   UNL     1       2.534   3.530   1.450  1.00  0.00     0.312 HD
ENDROOT
BRANCH   7  12
ATOM     12  C   UNL     1      -0.595   0.107  -1.228  1.00  0.00    -0.015 A 
ATOM     13  C   UNL     1      -0.559  -1.026  -2.086  1.00  0.00     0.009 A 
ATOM     14  C   UNL     1      -1.546   1.128  -1.467  1.00  0.00     0.035 A 
ATOM     15  C   UNL     1      -1.456  -1.144  -3.163  1.00  0.00     0.011 A 
ATOM     16  C   UNL     1      -2.419   0.978  -2.543  1.00  0.00     0.046 A 
ATOM     17  C   UNL     1      -2.374  -0.119  -3.360  1.00  0.00    -0.001 A 
ATOM     18  N   UNL     1      -3.388   1.823  -2.932  1.00  0.00    -0.361 N 
ATOM     19  C   UNL     1      -3.357   0.035  -4.313  1.00  0.00     0.028 A 
ATOM     20  C   UNL     1      -3.964   1.251  -4.014  1.00  0.00     0.083 A 
ATOM     21  H   UNL     1      -3.646   2.734  -2.492  1.00  0.00     0.166 HD
ENDBRANCH   7  12
TORSDOF 1


