REMARK SMILES CN/C=C(/O)N1CCC[C@H](Cc2cc3ccccc3[nH]2)C1
REMARK SMILES IDX 6 1 7 2 8 3 9 4 10 5 21 6 4 7 5 8 3 10 2 11 1 13 11 14 12 15
REMARK SMILES IDX 13 16 20 17 14 18 19 19 15 20 18 21 16 22 17 23
REMARK H PARENT 5 9 2 12 20 24
ROOT
ATOM      1  N   UNL     1       0.891  -3.403  -0.880  1.00  0.00    -0.342 N 
ATOM      2  C   UNL     1       2.333  -3.282  -0.648  1.00  0.00     0.119 C 
ATOM      3  C   UNL     1       2.734  -1.807  -0.579  1.00  0.00     0.022 C 
ATOM      4  C   UNL     1       1.870  -1.051   0.436  1.00  0.00     0.007 C 
ATOM      5  C   UNL     1       0.371  -1.192   0.096  1.00  0.00     0.014 C 
ATOM      6  C   UNL     1      -0.014  -2.682   0.025  1.00  0.00     0.123 C 
ENDROOT
BRANCH   1   7
ATOM      7  C   UNL     1       0.405  -4.566  -1.567  1.00  0.00     0.203 C 
BRANCH   7   8
ATOM      8  O   UNL     1       0.880  -5.821  -1.182  1.00  0.00    -0.494 OA
ATOM      9  H   UNL     1       0.573  -6.675  -1.635  1.00  0.00     0.295 HD
ENDBRANCH   7   8
BRANCH   7  10
ATOM     10  C   UNL     1      -0.484  -4.467  -2.567  1.00  0.00     0.144 C 
BRANCH  10  11
ATOM     11  N   UNL     1      -0.933  -3.202  -3.071  1.00  0.00    -0.390 N 
ATOM     12  H   UNL     1      -0.507  -2.308  -2.741  1.00  0.00     0.159 HD
ATOM     13  C   UNL     1      -1.960  -3.143  -4.101  1.00  0.00     0.139 C 
ENDBRANCH  10  11
ENDBRANCH   7  10
ENDBRANCH   1   7
BRANCH   5  14
ATOM     14  C   UNL     1      -0.516  -0.465   1.127  1.00  0.00     0.059 C 
BRANCH  14  15
ATOM     15  C   UNL     1      -0.324   1.022   1.072  1.00  0.00     0.016 A 
ATOM     16  C   UNL     1       0.419   1.770   1.983  1.00  0.00     0.031 A 
ATOM     17  N   UNL     1      -0.812   1.805   0.080  1.00  0.00    -0.358 N 
ATOM     18  C   UNL     1       0.361   3.062   1.509  1.00  0.00    -0.000 A 
ATOM     19  C   UNL     1      -0.388   3.048   0.361  1.00  0.00     0.046 A 
ATOM     20  C   UNL     1       0.924   4.236   2.005  1.00  0.00     0.010 A 
ATOM     21  C   UNL     1      -0.627   4.210  -0.372  1.00  0.00     0.026 A 
ATOM     22  C   UNL     1       0.698   5.425   1.288  1.00  0.00     0.001 A 
ATOM     23  C   UNL     1      -0.074   5.412   0.105  1.00  0.00     0.002 A 
ATOM     24  H   UNL     1      -1.387   1.502  -0.738  1.00  0.00     0.166 HD
ENDBRANCH  14  15
ENDBRANCH   5  14
TORSDOF 6


