MODEL 1
REMARK VINA RESULT:      -9.5      0.000      0.000
REMARK SMILES [H]/N=c1/c([NH2+]c2ccc3c(c2)nnn3C)cccn1C(=S)Nc1ccccc1
REMARK SMILES IDX 3 1 4 2 16 3 17 4 18 5 19 6 2 7 1 8 5 9 6 12 7 13 11 14 8 15
REMARK SMILES IDX 10 16 9 17 12 18 14 19 13 20 15 21 20 22 22 23 21 24 23 26
REMARK SMILES IDX 24 27 28 28 25 29 27 30 26 31
REMARK H PARENT 5 10 5 11 22 25
ROOT
ATOM      1  C   UNL     1      44.736 131.301  19.279  1.00  0.00     0.194 A 
ATOM      2  C   UNL     1      44.164 131.493  20.560  1.00  0.00     0.177 A 
ATOM      3  C   UNL     1      42.878 132.046  20.649  1.00  0.00     0.074 A 
ATOM      4  C   UNL     1      42.182 132.390  19.497  1.00  0.00     0.025 A 
ATOM      5  C   UNL     1      42.768 132.180  18.252  1.00  0.00     0.096 A 
ATOM      6  N   UNL     1      44.018 131.641  18.150  1.00  0.00    -0.274 N 
ENDROOT
BRANCH   1   7
ATOM      7  N   UNL     1      45.940 130.816  19.192  1.00  0.00    -0.279 NA
ATOM      8  H   UNL     1      46.789 131.376  18.960  1.00  0.00     0.190 HD
ENDBRANCH   1   7
BRANCH   2   9
ATOM      9  N   UNL     1      44.893 131.177  21.769  1.00  0.00    -0.278 N 
ATOM     10  H   UNL     1      45.907 131.028  21.551  1.00  0.00     0.358 HD
ATOM     11  H   UNL     1      44.854 131.977  22.442  1.00  0.00     0.358 HD
BRANCH   9  12
ATOM     12  C   UNL     1      44.354 129.980  22.367  1.00  0.00     0.137 A 
ATOM     13  C   UNL     1      43.101 130.015  23.045  1.00  0.00     0.070 A 
ATOM     14  C   UNL     1      45.058 128.753  22.263  1.00  0.00     0.100 A 
ATOM     15  C   UNL     1      42.553 128.847  23.612  1.00  0.00     0.036 A 
ATOM     16  C   UNL     1      44.482 127.625  22.837  1.00  0.00     0.119 A 
ATOM     17  C   UNL     1      43.286 127.672  23.482  1.00  0.00     0.089 A 
ATOM     18  N   UNL     1      44.943 126.362  22.861  1.00  0.00    -0.130 NA
ATOM     19  N   UNL     1      43.017 126.430  23.908  1.00  0.00    -0.248 N 
ATOM     20  N   UNL     1      44.025 125.655  23.520  1.00  0.00    -0.066 NA
ATOM     21  C   UNL     1      41.834 125.965  24.619  1.00  0.00     0.176 C 
ENDBRANCH   9  12
ENDBRANCH   2   9
BRANCH   6  22
ATOM     22  C   UNL     1      44.538 131.434  16.828  1.00  0.00     0.183 C 
ATOM     23  N   UNL     1      45.960 131.469  16.617  1.00  0.00    -0.332 N 
ATOM     24  S   UNL     1      43.493 131.433  15.560  1.00  0.00    -0.040 S 
ATOM     25  H   UNL     1      46.548 131.908  17.361  1.00  0.00     0.169 HD
BRANCH  23  26
ATOM     26  C   UNL     1      46.626 130.958  15.451  1.00  0.00     0.040 A 
ATOM     27  C   UNL     1      47.051 129.620  15.430  1.00  0.00     0.026 A 
ATOM     28  C   UNL     1      46.796 131.750  14.301  1.00  0.00     0.026 A 
ATOM     29  C   UNL     1      47.675 129.094  14.295  1.00  0.00     0.002 A 
ATOM     30  C   UNL     1      47.419 131.219  13.167  1.00  0.00     0.002 A 
ATOM     31  C   UNL     1      47.863 129.895  13.165  1.00  0.00     0.000 A 
ENDBRANCH  23  26
ENDBRANCH   6  22
TORSDOF 5
ENDMDL
MODEL 2
REMARK VINA RESULT:      -9.5      0.367      1.000
REMARK SMILES [H]/N=c1/c([NH2+]c2ccc3c(c2)nnn3C)cccn1C(=S)Nc1ccccc1
REMARK SMILES IDX 3 1 4 2 16 3 17 4 18 5 19 6 2 7 1 8 5 9 6 12 7 13 11 14 8 15
REMARK SMILES IDX 10 16 9 17 12 18 14 19 13 20 15 21 20 22 22 23 21 24 23 26
REMARK SMILES IDX 24 27 28 28 25 29 27 30 26 31
REMARK H PARENT 5 10 5 11 22 25
ROOT
ATOM      1  C   UNL     1      44.565 131.474  19.051  1.00  0.00     0.194 A 
ATOM      2  C   UNL     1      43.923 131.655  20.301  1.00  0.00     0.177 A 
ATOM      3  C   UNL     1      42.572 132.031  20.316  1.00  0.00     0.074 A 
ATOM      4  C   UNL     1      41.881 132.213  19.125  1.00  0.00     0.025 A 
ATOM      5  C   UNL     1      42.538 132.019  17.913  1.00  0.00     0.096 A 
ATOM      6  N   UNL     1      43.853 131.651  17.883  1.00  0.00    -0.274 N 
ENDROOT
BRANCH   1   7
ATOM      7  N   UNL     1      45.826 131.155  19.031  1.00  0.00    -0.279 NA
ATOM      8  H   UNL     1      46.193 130.182  19.120  1.00  0.00     0.190 HD
ENDBRANCH   1   7
BRANCH   2   9
ATOM      9  N   UNL     1      44.640 131.507  21.549  1.00  0.00    -0.278 N 
ATOM     10  H   UNL     1      45.673 131.519  21.375  1.00  0.00     0.358 HD
ATOM     11  H   UNL     1      44.442 132.314  22.184  1.00  0.00     0.358 HD
BRANCH   9  12
ATOM     12  C   UNL     1      44.277 130.261  22.178  1.00  0.00     0.137 A 
ATOM     13  C   UNL     1      43.122 130.183  23.008  1.00  0.00     0.070 A 
ATOM     14  C   UNL     1      45.056 129.097  21.953  1.00  0.00     0.100 A 
ATOM     15  C   UNL     1      42.744 128.966  23.608  1.00  0.00     0.036 A 
ATOM     16  C   UNL     1      44.648 127.917  22.565  1.00  0.00     0.119 A 
ATOM     17  C   UNL     1      43.544 127.856  23.356  1.00  0.00     0.089 A 
ATOM     18  N   UNL     1      45.205 126.695  22.497  1.00  0.00    -0.130 NA
ATOM     19  N   UNL     1      43.429 126.590  23.779  1.00  0.00    -0.248 N 
ATOM     20  N   UNL     1      44.437 125.905  23.247  1.00  0.00    -0.066 NA
ATOM     21  C   UNL     1      42.386 126.019  24.621  1.00  0.00     0.176 C 
ENDBRANCH   9  12
ENDBRANCH   2   9
BRANCH   6  22
ATOM     22  C   UNL     1      44.447 131.447  16.592  1.00  0.00     0.183 C 
ATOM     23  N   UNL     1      45.880 131.433  16.471  1.00  0.00    -0.332 N 
ATOM     24  S   UNL     1      43.484 131.504  15.261  1.00  0.00    -0.040 S 
ATOM     25  H   UNL     1      46.436 131.838  17.258  1.00  0.00     0.169 HD
BRANCH  23  26
ATOM     26  C   UNL     1      46.599 130.917  15.339  1.00  0.00     0.040 A 
ATOM     27  C   UNL     1      46.939 131.780  14.286  1.00  0.00     0.026 A 
ATOM     28  C   UNL     1      47.034 129.579  15.298  1.00  0.00     0.026 A 
ATOM     29  C   UNL     1      47.665 131.305  13.189  1.00  0.00     0.002 A 
ATOM     30  C   UNL     1      47.760 129.109  14.200  1.00  0.00     0.002 A 
ATOM     31  C   UNL     1      48.071 129.969  13.144  1.00  0.00     0.000 A 
ENDBRANCH  23  26
ENDBRANCH   6  22
TORSDOF 5
ENDMDL
MODEL 3
REMARK VINA RESULT:      -8.7      1.089      1.559
REMARK SMILES [H]/N=c1/c([NH2+]c2ccc3c(c2)nnn3C)cccn1C(=S)Nc1ccccc1
REMARK SMILES IDX 3 1 4 2 16 3 17 4 18 5 19 6 2 7 1 8 5 9 6 12 7 13 11 14 8 15
REMARK SMILES IDX 10 16 9 17 12 18 14 19 13 20 15 21 20 22 22 23 21 24 23 26
REMARK SMILES IDX 24 27 28 28 25 29 27 30 26 31
REMARK H PARENT 5 10 5 11 22 25
ROOT
ATOM      1  C   UNL     1      44.334 131.108  20.509  1.00  0.00     0.194 A 
ATOM      2  C   UNL     1      43.915 131.234  21.856  1.00  0.00     0.177 A 
ATOM      3  C   UNL     1      42.777 132.004  22.139  1.00  0.00     0.074 A 
ATOM      4  C   UNL     1      42.076 132.623  21.111  1.00  0.00     0.025 A 
ATOM      5  C   UNL     1      42.508 132.472  19.797  1.00  0.00     0.096 A 
ATOM      6  N   UNL     1      43.613 131.724  19.506  1.00  0.00    -0.274 N 
ENDROOT
BRANCH   1   7
ATOM      7  N   UNL     1      45.405 130.419  20.244  1.00  0.00    -0.279 NA
ATOM      8  H   UNL     1      45.427 129.563  19.648  1.00  0.00     0.190 HD
ENDBRANCH   1   7
BRANCH   2   9
ATOM      9  N   UNL     1      44.657 130.628  22.940  1.00  0.00    -0.278 N 
ATOM     10  H   UNL     1      45.656 130.487  22.659  1.00  0.00     0.358 HD
ATOM     11  H   UNL     1      44.675 131.262  23.772  1.00  0.00     0.358 HD
BRANCH   9  12
ATOM     12  C   UNL     1      44.075 129.353  23.281  1.00  0.00     0.137 A 
ATOM     13  C   UNL     1      42.783 129.288  23.878  1.00  0.00     0.070 A 
ATOM     14  C   UNL     1      44.776 128.153  23.000  1.00  0.00     0.100 A 
ATOM     15  C   UNL     1      42.194 128.048  24.193  1.00  0.00     0.036 A 
ATOM     16  C   UNL     1      44.159 126.951  23.327  1.00  0.00     0.119 A 
ATOM     17  C   UNL     1      42.926 126.902  23.897  1.00  0.00     0.089 A 
ATOM     18  N   UNL     1      44.609 125.695  23.151  1.00  0.00    -0.130 NA
ATOM     19  N   UNL     1      42.623 125.609  24.077  1.00  0.00    -0.248 N 
ATOM     20  N   UNL     1      43.648 124.898  23.616  1.00  0.00    -0.066 NA
ATOM     21  C   UNL     1      41.395 125.045  24.622  1.00  0.00     0.176 C 
ENDBRANCH   9  12
ENDBRANCH   2   9
BRANCH   6  22
ATOM     22  C   UNL     1      43.976 131.600  18.123  1.00  0.00     0.183 C 
ATOM     23  N   UNL     1      45.365 131.499  17.766  1.00  0.00    -0.332 N 
ATOM     24  S   UNL     1      42.822 131.844  16.979  1.00  0.00    -0.040 S 
ATOM     25  H   UNL     1      46.070 131.791  18.480  1.00  0.00     0.169 HD
BRANCH  23  26
ATOM     26  C   UNL     1      45.850 131.041  16.493  1.00  0.00     0.040 A 
ATOM     27  C   UNL     1      46.212 131.980  15.515  1.00  0.00     0.026 A 
ATOM     28  C   UNL     1      46.039 129.671  16.233  1.00  0.00     0.026 A 
ATOM     29  C   UNL     1      46.715 131.557  14.280  1.00  0.00     0.002 A 
ATOM     30  C   UNL     1      46.543 129.252  14.998  1.00  0.00     0.002 A 
ATOM     31  C   UNL     1      46.876 130.193  14.021  1.00  0.00     0.000 A 
ENDBRANCH  23  26
ENDBRANCH   6  22
TORSDOF 5
ENDMDL
MODEL 4
REMARK VINA RESULT:      -8.6      1.356      1.760
REMARK SMILES [H]/N=c1/c([NH2+]c2ccc3c(c2)nnn3C)cccn1C(=S)Nc1ccccc1
REMARK SMILES IDX 3 1 4 2 16 3 17 4 18 5 19 6 2 7 1 8 5 9 6 12 7 13 11 14 8 15
REMARK SMILES IDX 10 16 9 17 12 18 14 19 13 20 15 21 20 22 22 23 21 24 23 26
REMARK SMILES IDX 24 27 28 28 25 29 27 30 26 31
REMARK H PARENT 5 10 5 11 22 25
ROOT
ATOM      1  C   UNL     1      44.460 130.700  20.832  1.00  0.00     0.194 A 
ATOM      2  C   UNL     1      44.129 130.703  22.209  1.00  0.00     0.177 A 
ATOM      3  C   UNL     1      43.065 131.508  22.644  1.00  0.00     0.074 A 
ATOM      4  C   UNL     1      42.351 132.279  21.735  1.00  0.00     0.025 A 
ATOM      5  C   UNL     1      42.697 132.246  20.387  1.00  0.00     0.096 A 
ATOM      6  N   UNL     1      43.728 131.466  19.948  1.00  0.00    -0.274 N 
ENDROOT
BRANCH   1   7
ATOM      7  N   UNL     1      45.464 129.978  20.427  1.00  0.00    -0.279 NA
ATOM      8  H   UNL     1      45.545 128.946  20.562  1.00  0.00     0.190 HD
ENDBRANCH   1   7
BRANCH   2   9
ATOM      9  N   UNL     1      44.888 129.937  23.172  1.00  0.00    -0.278 N 
ATOM     10  H   UNL     1      45.889 129.868  22.871  1.00  0.00     0.358 HD
ATOM     11  H   UNL     1      44.895 130.418  24.101  1.00  0.00     0.358 HD
BRANCH   9  12
ATOM     12  C   UNL     1      44.335 128.610  23.289  1.00  0.00     0.137 A 
ATOM     13  C   UNL     1      43.018 128.421  23.798  1.00  0.00     0.070 A 
ATOM     14  C   UNL     1      45.090 127.484  22.873  1.00  0.00     0.100 A 
ATOM     15  C   UNL     1      42.457 127.132  23.894  1.00  0.00     0.036 A 
ATOM     16  C   UNL     1      44.500 126.230  22.986  1.00  0.00     0.119 A 
ATOM     17  C   UNL     1      43.243 126.064  23.474  1.00  0.00     0.089 A 
ATOM     18  N   UNL     1      45.002 125.028  22.651  1.00  0.00    -0.130 NA
ATOM     19  N   UNL     1      42.977 124.751  23.444  1.00  0.00    -0.248 N 
ATOM     20  N   UNL     1      44.048 124.145  22.941  1.00  0.00    -0.066 NA
ATOM     21  C   UNL     1      41.744 124.078  23.831  1.00  0.00     0.176 C 
ENDBRANCH   9  12
ENDBRANCH   2   9
BRANCH   6  22
ATOM     22  C   UNL     1      44.001 131.472  18.539  1.00  0.00     0.183 C 
ATOM     23  N   UNL     1      45.363 131.383  18.086  1.00  0.00    -0.332 N 
ATOM     24  S   UNL     1      42.784 131.847  17.500  1.00  0.00    -0.040 S 
ATOM     25  H   UNL     1      46.117 131.591  18.778  1.00  0.00     0.169 HD
BRANCH  23  26
ATOM     26  C   UNL     1      45.758 131.043  16.746  1.00  0.00     0.040 A 
ATOM     27  C   UNL     1      45.770 129.696  16.352  1.00  0.00     0.026 A 
ATOM     28  C   UNL     1      46.062 132.039  15.800  1.00  0.00     0.026 A 
ATOM     29  C   UNL     1      46.123 129.345  15.045  1.00  0.00     0.002 A 
ATOM     30  C   UNL     1      46.413 131.684  14.494  1.00  0.00     0.002 A 
ATOM     31  C   UNL     1      46.449 130.339  14.118  1.00  0.00     0.000 A 
ENDBRANCH  23  26
ENDBRANCH   6  22
TORSDOF 5
ENDMDL
MODEL 5
REMARK VINA RESULT:      -7.3      1.800      3.043
REMARK SMILES [H]/N=c1/c([NH2+]c2ccc3c(c2)nnn3C)cccn1C(=S)Nc1ccccc1
REMARK SMILES IDX 3 1 4 2 16 3 17 4 18 5 19 6 2 7 1 8 5 9 6 12 7 13 11 14 8 15
REMARK SMILES IDX 10 16 9 17 12 18 14 19 13 20 15 21 20 22 22 23 21 24 23 26
REMARK SMILES IDX 24 27 28 28 25 29 27 30 26 31
REMARK H PARENT 5 10 5 11 22 25
ROOT
ATOM      1  C   UNL     1      44.295 130.456  21.603  1.00  0.00     0.194 A 
ATOM      2  C   UNL     1      44.150 130.224  22.993  1.00  0.00     0.177 A 
ATOM      3  C   UNL     1      43.172 130.942  23.698  1.00  0.00     0.074 A 
ATOM      4  C   UNL     1      42.362 131.857  23.037  1.00  0.00     0.025 A 
ATOM      5  C   UNL     1      42.524 132.056  21.670  1.00  0.00     0.096 A 
ATOM      6  N   UNL     1      43.470 131.362  20.970  1.00  0.00    -0.274 N 
ENDROOT
BRANCH   1   7
ATOM      7  N   UNL     1      45.219 129.814  20.950  1.00  0.00    -0.279 NA
ATOM      8  H   UNL     1      45.101 129.417  19.992  1.00  0.00     0.190 HD
ENDBRANCH   1   7
BRANCH   2   9
ATOM      9  N   UNL     1      45.012 129.303  23.701  1.00  0.00    -0.278 N 
ATOM     10  H   UNL     1      45.998 129.398  23.361  1.00  0.00     0.358 HD
ATOM     11  H   UNL     1      45.033 129.531  24.722  1.00  0.00     0.358 HD
BRANCH   9  12
ATOM     12  C   UNL     1      44.564 127.949  23.489  1.00  0.00     0.137 A 
ATOM     13  C   UNL     1      45.466 126.961  23.000  1.00  0.00     0.070 A 
ATOM     14  C   UNL     1      43.227 127.586  23.790  1.00  0.00     0.100 A 
ATOM     15  C   UNL     1      45.047 125.629  22.812  1.00  0.00     0.036 A 
ATOM     16  C   UNL     1      42.854 126.262  23.589  1.00  0.00     0.119 A 
ATOM     17  C   UNL     1      43.724 125.329  23.121  1.00  0.00     0.089 A 
ATOM     18  N   UNL     1      41.662 125.678  23.809  1.00  0.00    -0.130 NA
ATOM     19  N   UNL     1      43.058 124.167  23.048  1.00  0.00    -0.248 N 
ATOM     20  N   UNL     1      41.820 124.398  23.472  1.00  0.00    -0.066 NA
ATOM     21  C   UNL     1      43.570 122.867  22.638  1.00  0.00     0.176 C 
ENDBRANCH   9  12
ENDBRANCH   2   9
BRANCH   6  22
ATOM     22  C   UNL     1      43.554 131.609  19.558  1.00  0.00     0.183 C 
ATOM     23  N   UNL     1      44.800 131.387  18.877  1.00  0.00    -0.332 N 
ATOM     24  S   UNL     1      42.310 132.387  18.817  1.00  0.00    -0.040 S 
ATOM     25  H   UNL     1      45.665 131.320  19.461  1.00  0.00     0.169 HD
BRANCH  23  26
ATOM     26  C   UNL     1      44.943 131.266  17.452  1.00  0.00     0.040 A 
ATOM     27  C   UNL     1      46.126 130.728  16.922  1.00  0.00     0.026 A 
ATOM     28  C   UNL     1      43.893 131.608  16.581  1.00  0.00     0.026 A 
ATOM     29  C   UNL     1      46.275 130.574  15.540  1.00  0.00     0.002 A 
ATOM     30  C   UNL     1      44.045 131.451  15.200  1.00  0.00     0.002 A 
ATOM     31  C   UNL     1      45.236 130.940  14.679  1.00  0.00     0.000 A 
ENDBRANCH  23  26
ENDBRANCH   6  22
TORSDOF 5
ENDMDL
MODEL 6
REMARK VINA RESULT:      -7.1      1.077      1.257
REMARK SMILES [H]/N=c1/c([NH2+]c2ccc3c(c2)nnn3C)cccn1C(=S)Nc1ccccc1
REMARK SMILES IDX 3 1 4 2 16 3 17 4 18 5 19 6 2 7 1 8 5 9 6 12 7 13 11 14 8 15
REMARK SMILES IDX 10 16 9 17 12 18 14 19 13 20 15 21 20 22 22 23 21 24 23 26
REMARK SMILES IDX 24 27 28 28 25 29 27 30 26 31
REMARK H PARENT 5 10 5 11 22 25
ROOT
ATOM      1  C   UNL     1      44.296 131.913  18.296  1.00  0.00     0.194 A 
ATOM      2  C   UNL     1      43.544 132.212  19.458  1.00  0.00     0.177 A 
ATOM      3  C   UNL     1      42.157 132.379  19.339  1.00  0.00     0.074 A 
ATOM      4  C   UNL     1      41.538 132.246  18.102  1.00  0.00     0.025 A 
ATOM      5  C   UNL     1      42.304 131.943  16.980  1.00  0.00     0.096 A 
ATOM      6  N   UNL     1      43.655 131.776  17.081  1.00  0.00    -0.274 N 
ENDROOT
BRANCH   1   7
ATOM      7  N   UNL     1      45.587 131.786  18.395  1.00  0.00    -0.279 NA
ATOM      8  H   UNL     1      46.069 131.023  18.920  1.00  0.00     0.190 HD
ENDBRANCH   1   7
BRANCH   2   9
ATOM      9  N   UNL     1      44.179 132.392  20.745  1.00  0.00    -0.278 N 
ATOM     10  H   UNL     1      45.205 132.563  20.621  1.00  0.00     0.358 HD
ATOM     11  H   UNL     1      43.799 133.239  21.227  1.00  0.00     0.358 HD
BRANCH   9  12
ATOM     12  C   UNL     1      43.988 131.214  21.556  1.00  0.00     0.137 A 
ATOM     13  C   UNL     1      42.842 131.096  22.394  1.00  0.00     0.070 A 
ATOM     14  C   UNL     1      44.928 130.154  21.504  1.00  0.00     0.100 A 
ATOM     15  C   UNL     1      42.632 129.940  23.172  1.00  0.00     0.036 A 
ATOM     16  C   UNL     1      44.683 129.032  22.288  1.00  0.00     0.119 A 
ATOM     17  C   UNL     1      43.586 128.932  23.084  1.00  0.00     0.089 A 
ATOM     18  N   UNL     1      45.410 127.906  22.401  1.00  0.00    -0.130 NA
ATOM     19  N   UNL     1      43.646 127.740  23.693  1.00  0.00    -0.248 N 
ATOM     20  N   UNL     1      44.750 127.135  23.264  1.00  0.00    -0.066 NA
ATOM     21  C   UNL     1      42.682 127.156  24.617  1.00  0.00     0.176 C 
ENDBRANCH   9  12
ENDBRANCH   2   9
BRANCH   6  22
ATOM     22  C   UNL     1      44.367 131.440  15.880  1.00  0.00     0.183 C 
ATOM     23  N   UNL     1      45.800 131.548  15.858  1.00  0.00    -0.332 N 
ATOM     24  S   UNL     1      43.512 131.203  14.496  1.00  0.00    -0.040 S 
ATOM     25  H   UNL     1      46.254 132.118  16.607  1.00  0.00     0.169 HD
BRANCH  23  26
ATOM     26  C   UNL     1      46.650 130.940  14.870  1.00  0.00     0.040 A 
ATOM     27  C   UNL     1      47.090 129.621  15.057  1.00  0.00     0.026 A 
ATOM     28  C   UNL     1      46.991 131.616  13.684  1.00  0.00     0.026 A 
ATOM     29  C   UNL     1      47.893 129.000  14.096  1.00  0.00     0.002 A 
ATOM     30  C   UNL     1      47.793 130.992  12.724  1.00  0.00     0.002 A 
ATOM     31  C   UNL     1      48.248 129.688  12.932  1.00  0.00     0.000 A 
ENDBRANCH  23  26
ENDBRANCH   6  22
TORSDOF 5
ENDMDL
MODEL 7
REMARK VINA RESULT:      -6.7      2.959      8.215
REMARK SMILES [H]/N=c1/c([NH2+]c2ccc3c(c2)nnn3C)cccn1C(=S)Nc1ccccc1
REMARK SMILES IDX 3 1 4 2 16 3 17 4 18 5 19 6 2 7 1 8 5 9 6 12 7 13 11 14 8 15
REMARK SMILES IDX 10 16 9 17 12 18 14 19 13 20 15 21 20 22 22 23 21 24 23 26
REMARK SMILES IDX 24 27 28 28 25 29 27 30 26 31
REMARK H PARENT 5 10 5 11 22 25
ROOT
ATOM      1  C   UNL     1      44.464 129.289  22.508  1.00  0.00     0.194 A 
ATOM      2  C   UNL     1      44.562 130.672  22.214  1.00  0.00     0.177 A 
ATOM      3  C   UNL     1      43.564 131.534  22.691  1.00  0.00     0.074 A 
ATOM      4  C   UNL     1      42.507 131.036  23.442  1.00  0.00     0.025 A 
ATOM      5  C   UNL     1      42.444 129.674  23.721  1.00  0.00     0.096 A 
ATOM      6  N   UNL     1      43.410 128.822  23.265  1.00  0.00    -0.274 N 
ENDROOT
BRANCH   1   7
ATOM      7  N   UNL     1      45.371 128.481  22.044  1.00  0.00    -0.279 NA
ATOM      8  H   UNL     1      45.646 128.412  21.039  1.00  0.00     0.190 HD
ENDBRANCH   1   7
BRANCH   2   9
ATOM      9  N   UNL     1      45.636 131.199  21.401  1.00  0.00    -0.278 N 
ATOM     10  H   UNL     1      45.842 132.189  21.673  1.00  0.00     0.358 HD
ATOM     11  H   UNL     1      46.518 130.662  21.565  1.00  0.00     0.358 HD
BRANCH   9  12
ATOM     12  C   UNL     1      45.263 131.156  20.008  1.00  0.00     0.137 A 
ATOM     13  C   UNL     1      44.181 131.950  19.529  1.00  0.00     0.070 A 
ATOM     14  C   UNL     1      45.987 130.342  19.102  1.00  0.00     0.100 A 
ATOM     15  C   UNL     1      43.823 131.936  18.166  1.00  0.00     0.036 A 
ATOM     16  C   UNL     1      45.600 130.356  17.766  1.00  0.00     0.119 A 
ATOM     17  C   UNL     1      44.566 131.118  17.321  1.00  0.00     0.089 A 
ATOM     18  N   UNL     1      46.131 129.689  16.726  1.00  0.00    -0.130 NA
ATOM     19  N   UNL     1      44.460 130.909  16.002  1.00  0.00    -0.248 N 
ATOM     20  N   UNL     1      45.415 130.049  15.662  1.00  0.00    -0.066 NA
ATOM     21  C   UNL     1      43.524 131.525  15.071  1.00  0.00     0.176 C 
ENDBRANCH   9  12
ENDBRANCH   2   9
BRANCH   6  22
ATOM     22  C   UNL     1      43.282 127.437  23.619  1.00  0.00     0.183 C 
ATOM     23  N   UNL     1      42.063 126.741  23.310  1.00  0.00    -0.332 N 
ATOM     24  S   UNL     1      44.418 126.765  24.598  1.00  0.00    -0.040 S 
ATOM     25  H   UNL     1      41.219 127.317  23.092  1.00  0.00     0.169 HD
BRANCH  23  26
ATOM     26  C   UNL     1      41.920 125.310  23.294  1.00  0.00     0.040 A 
ATOM     27  C   UNL     1      42.863 124.531  22.607  1.00  0.00     0.026 A 
ATOM     28  C   UNL     1      40.894 124.671  24.015  1.00  0.00     0.026 A 
ATOM     29  C   UNL     1      42.760 123.136  22.603  1.00  0.00     0.002 A 
ATOM     30  C   UNL     1      40.795 123.277  24.010  1.00  0.00     0.002 A 
ATOM     31  C   UNL     1      41.723 122.510  23.301  1.00  0.00     0.000 A 
ENDBRANCH  23  26
ENDBRANCH   6  22
TORSDOF 5
ENDMDL


