REMARK SMILES CC(C)(C)c1cccc(/N=C(/O)NC(=O)c2ccc(-c3cc(F)cc(F)c3O)cc2)c1
REMARK SMILES IDX 11 1 13 2 14 4 15 5 12 6 10 8 9 9 8 10 31 11 7 12 5 13 6 14
REMARK SMILES IDX 2 15 1 16 3 17 4 18 16 19 17 20 30 21 18 22 29 23 19 24
REMARK SMILES IDX 20 25 21 26 27 27 22 28 25 29 24 30 23 31 26 32 28 33
REMARK H PARENT 13 3 12 7 28 34
ROOT
ATOM      1  C   UNL     1       0.283   4.062  -0.610  1.00  0.00     0.294 C 
ATOM      2  N   UNL     1      -0.498   2.863  -0.430  1.00  0.00    -0.276 N 
ATOM      3  H   UNL     1      -0.038   1.989  -0.098  1.00  0.00     0.175 HD
ATOM      4  C   UNL     1      -1.875   2.763  -0.827  1.00  0.00     0.259 C 
ATOM      5  O   UNL     1      -2.324   3.528  -1.725  1.00  0.00    -0.269 OA
ENDROOT
BRANCH   1   6
ATOM      6  O   UNL     1      -0.339   5.308  -0.656  1.00  0.00    -0.480 OA
ATOM      7  H   UNL     1      -1.323   5.428  -0.449  1.00  0.00     0.296 HD
ENDBRANCH   1   6
BRANCH   1   8
ATOM      8  N   UNL     1       1.578   4.021  -0.743  1.00  0.00    -0.198 NA
BRANCH   8   9
ATOM      9  C   UNL     1       2.404   2.853  -0.647  1.00  0.00     0.069 A 
ATOM     10  C   UNL     1       2.476   2.123   0.544  1.00  0.00     0.028 A 
ATOM     11  C   UNL     1       3.230   2.507  -1.723  1.00  0.00     0.032 A 
ATOM     12  C   UNL     1       3.325   1.021   0.637  1.00  0.00     0.003 A 
ATOM     13  C   UNL     1       4.099   1.393  -1.653  1.00  0.00    -0.040 A 
ATOM     14  C   UNL     1       4.125   0.653  -0.447  1.00  0.00     0.004 A 
BRANCH  13  15
ATOM     15  C   UNL     1       4.975   1.034  -2.872  1.00  0.00    -0.013 C 
ATOM     16  C   UNL     1       5.906   2.220  -3.205  1.00  0.00     0.016 C 
ATOM     17  C   UNL     1       4.070   0.736  -4.087  1.00  0.00     0.016 C 
ATOM     18  C   UNL     1       5.866  -0.209  -2.633  1.00  0.00     0.016 C 
ENDBRANCH  13  15
ENDBRANCH   8   9
ENDBRANCH   1   8
BRANCH   4  19
ATOM     19  C   UNL     1      -2.763   1.732  -0.236  1.00  0.00     0.040 A 
ATOM     20  C   UNL     1      -2.446   1.122   0.991  1.00  0.00     0.014 A 
ATOM     21  C   UNL     1      -3.954   1.365  -0.887  1.00  0.00     0.014 A 
ATOM     22  C   UNL     1      -3.290   0.154   1.542  1.00  0.00     0.010 A 
ATOM     23  C   UNL     1      -4.797   0.396  -0.336  1.00  0.00     0.010 A 
ATOM     24  C   UNL     1      -4.468  -0.225   0.879  1.00  0.00    -0.014 A 
BRANCH  24  25
ATOM     25  C   UNL     1      -5.369  -1.248   1.465  1.00  0.00     0.029 A 
ATOM     26  C   UNL     1      -6.745  -0.978   1.577  1.00  0.00     0.052 A 
ATOM     27  C   UNL     1      -4.872  -2.493   1.908  1.00  0.00     0.159 A 
ATOM     28  C   UNL     1      -7.609  -1.923   2.135  1.00  0.00     0.127 A 
ATOM     29  C   UNL     1      -5.750  -3.435   2.471  1.00  0.00     0.168 A 
ATOM     30  C   UNL     1      -7.112  -3.147   2.583  1.00  0.00     0.082 A 
ATOM     31  F   UNL     1      -8.933  -1.649   2.245  1.00  0.00    -0.207 F 
ATOM     32  F   UNL     1      -5.286  -4.634   2.905  1.00  0.00    -0.203 F 
BRANCH  27  33
ATOM     33  O   UNL     1      -3.516  -2.795   1.769  1.00  0.00    -0.504 OA
ATOM     34  H   UNL     1      -3.129  -3.681   2.071  1.00  0.00     0.293 HD
ENDBRANCH  27  33
ENDBRANCH  24  25
ENDBRANCH   4  19
TORSDOF 7


