MODEL 1
REMARK VINA RESULT:     -10.4      0.000      0.000
REMARK SMILES NNc1ccccc1-c1[nH]c2ccccc2[nH+]1
REMARK SMILES IDX 3 1 4 2 5 3 6 4 7 5 8 6 2 7 1 9 9 12 10 13 17 14 11 15 16 16
REMARK SMILES IDX 12 17 15 18 13 19 14 20
REMARK H PARENT 2 8 1 10 1 11 10 21 17 22
ROOT
ATOM      1  C   UNL     1      43.725 131.697  18.990  1.00  0.00     0.064 A 
ATOM      2  C   UNL     1      43.277 131.909  20.308  1.00  0.00     0.028 A 
ATOM      3  C   UNL     1      44.048 131.498  21.398  1.00  0.00     0.002 A 
ATOM      4  C   UNL     1      45.273 130.869  21.192  1.00  0.00     0.001 A 
ATOM      5  C   UNL     1      45.742 130.663  19.894  1.00  0.00     0.019 A 
ATOM      6  C   UNL     1      44.991 131.087  18.785  1.00  0.00     0.088 A 
ENDROOT
BRANCH   1   7
ATOM      7  N   UNL     1      42.878 132.036  17.870  1.00  0.00    -0.323 N 
ATOM      8  H   UNL     1      43.141 131.740  16.906  1.00  0.00     0.181 HD
BRANCH   7   9
ATOM      9  N   UNL     1      41.679 132.754  18.013  1.00  0.00    -0.250 NA
ATOM     10  H   UNL     1      41.121 132.633  17.137  1.00  0.00     0.143 HD
ATOM     11  H   UNL     1      41.917 133.766  18.125  1.00  0.00     0.143 HD
ENDBRANCH   7   9
ENDBRANCH   1   7
BRANCH   6  12
ATOM     12  C   UNL     1      45.575 130.917  17.437  1.00  0.00     0.287 A 
ATOM     13  N   UNL     1      45.629 131.906  16.507  1.00  0.00    -0.236 N 
ATOM     14  N   UNL     1      46.185 129.776  17.025  1.00  0.00    -0.236 N 
ATOM     15  C   UNL     1      46.283 131.350  15.475  1.00  0.00     0.172 A 
ATOM     16  C   UNL     1      46.618 130.064  15.787  1.00  0.00     0.172 A 
ATOM     17  C   UNL     1      46.622 131.925  14.253  1.00  0.00     0.056 A 
ATOM     18  C   UNL     1      47.316 129.247  14.902  1.00  0.00     0.056 A 
ATOM     19  C   UNL     1      47.327 131.127  13.331  1.00  0.00     0.005 A 
ATOM     20  C   UNL     1      47.672 129.794  13.654  1.00  0.00     0.005 A 
ATOM     21  H   UNL     1      45.276 132.886  16.584  1.00  0.00     0.312 HD
ATOM     22  H   UNL     1      46.296 128.878  17.548  1.00  0.00     0.312 HD
ENDBRANCH   6  12
TORSDOF 3
ENDMDL
MODEL 2
REMARK VINA RESULT:     -10.2      0.175      1.427
REMARK SMILES NNc1ccccc1-c1[nH]c2ccccc2[nH+]1
REMARK SMILES IDX 3 1 4 2 5 3 6 4 7 5 8 6 2 7 1 9 9 12 10 13 17 14 11 15 16 16
REMARK SMILES IDX 12 17 15 18 13 19 14 20
REMARK H PARENT 2 8 1 10 1 11 10 21 17 22
ROOT
ATOM      1  C   UNL     1      43.640 131.716  19.082  1.00  0.00     0.064 A 
ATOM      2  C   UNL     1      43.133 131.916  20.381  1.00  0.00     0.028 A 
ATOM      3  C   UNL     1      43.864 131.517  21.502  1.00  0.00     0.002 A 
ATOM      4  C   UNL     1      45.108 130.910  21.346  1.00  0.00     0.001 A 
ATOM      5  C   UNL     1      45.635 130.716  20.069  1.00  0.00     0.019 A 
ATOM      6  C   UNL     1      44.923 131.129  18.930  1.00  0.00     0.088 A 
ENDROOT
BRANCH   1   7
ATOM      7  N   UNL     1      42.834 132.041  17.929  1.00  0.00    -0.323 N 
ATOM      8  H   UNL     1      43.123 131.718  16.981  1.00  0.00     0.181 HD
BRANCH   7   9
ATOM      9  N   UNL     1      41.644 132.783  18.016  1.00  0.00    -0.250 NA
ATOM     10  H   UNL     1      41.722 133.601  17.370  1.00  0.00     0.143 HD
ATOM     11  H   UNL     1      41.551 133.135  18.997  1.00  0.00     0.143 HD
ENDBRANCH   7   9
ENDBRANCH   1   7
BRANCH   6  12
ATOM     12  C   UNL     1      45.567 130.972  17.607  1.00  0.00     0.287 A 
ATOM     13  N   UNL     1      46.141 129.818  17.179  1.00  0.00    -0.236 N 
ATOM     14  N   UNL     1      45.577 131.946  16.661  1.00  0.00    -0.236 N 
ATOM     15  C   UNL     1      46.536 130.095  15.926  1.00  0.00     0.172 A 
ATOM     16  C   UNL     1      46.196 131.379  15.614  1.00  0.00     0.172 A 
ATOM     17  C   UNL     1      47.178 129.259  15.016  1.00  0.00     0.056 A 
ATOM     18  C   UNL     1      46.474 131.935  14.368  1.00  0.00     0.056 A 
ATOM     19  C   UNL     1      47.478 129.788  13.746  1.00  0.00     0.005 A 
ATOM     20  C   UNL     1      47.128 131.120  13.423  1.00  0.00     0.005 A 
ATOM     21  H   UNL     1      46.228 128.911  17.689  1.00  0.00     0.312 HD
ATOM     22  H   UNL     1      45.192 132.915  16.728  1.00  0.00     0.312 HD
ENDBRANCH   6  12
TORSDOF 3
ENDMDL
MODEL 3
REMARK VINA RESULT:      -9.5      0.914      1.028
REMARK SMILES NNc1ccccc1-c1[nH]c2ccccc2[nH+]1
REMARK SMILES IDX 3 1 4 2 5 3 6 4 7 5 8 6 2 7 1 9 9 12 10 13 17 14 11 15 16 16
REMARK SMILES IDX 12 17 15 18 13 19 14 20
REMARK H PARENT 2 8 1 10 1 11 10 21 17 22
ROOT
ATOM      1  C   UNL     1      43.083 131.658  19.815  1.00  0.00     0.064 A 
ATOM      2  C   UNL     1      42.666 131.911  21.137  1.00  0.00     0.028 A 
ATOM      3  C   UNL     1      43.564 131.801  22.201  1.00  0.00     0.002 A 
ATOM      4  C   UNL     1      44.887 131.436  21.967  1.00  0.00     0.001 A 
ATOM      5  C   UNL     1      45.324 131.196  20.664  1.00  0.00     0.019 A 
ATOM      6  C   UNL     1      44.442 131.320  19.578  1.00  0.00     0.088 A 
ENDROOT
BRANCH   1   7
ATOM      7  N   UNL     1      42.126 131.677  18.734  1.00  0.00    -0.323 N 
ATOM      8  H   UNL     1      41.744 130.783  18.358  1.00  0.00     0.181 HD
BRANCH   7   9
ATOM      9  N   UNL     1      41.661 132.867  18.150  1.00  0.00    -0.250 NA
ATOM     10  H   UNL     1      42.061 133.670  18.687  1.00  0.00     0.143 HD
ATOM     11  H   UNL     1      40.619 132.887  18.237  1.00  0.00     0.143 HD
ENDBRANCH   7   9
ENDBRANCH   1   7
BRANCH   6  12
ATOM     12  C   UNL     1      44.981 131.134  18.213  1.00  0.00     0.287 A 
ATOM     13  N   UNL     1      44.717 131.971  17.176  1.00  0.00    -0.236 N 
ATOM     14  N   UNL     1      45.855 130.149  17.882  1.00  0.00    -0.236 N 
ATOM     15  C   UNL     1      45.443 131.475  16.162  1.00  0.00     0.172 A 
ATOM     16  C   UNL     1      46.130 130.375  16.588  1.00  0.00     0.172 A 
ATOM     17  C   UNL     1      45.551 131.954  14.859  1.00  0.00     0.056 A 
ATOM     18  C   UNL     1      46.977 129.661  15.745  1.00  0.00     0.056 A 
ATOM     19  C   UNL     1      46.398 131.256  13.977  1.00  0.00     0.005 A 
ATOM     20  C   UNL     1      47.107 130.114  14.418  1.00  0.00     0.005 A 
ATOM     21  H   UNL     1      44.116 132.825  17.172  1.00  0.00     0.312 HD
ATOM     22  H   UNL     1      46.231 129.388  18.492  1.00  0.00     0.312 HD
ENDBRANCH   6  12
TORSDOF 3
ENDMDL
MODEL 4
REMARK VINA RESULT:      -9.4      1.538      2.711
REMARK SMILES NNc1ccccc1-c1[nH]c2ccccc2[nH+]1
REMARK SMILES IDX 3 1 4 2 5 3 6 4 7 5 8 6 2 7 1 9 9 12 10 13 17 14 11 15 16 16
REMARK SMILES IDX 12 17 15 18 13 19 14 20
REMARK H PARENT 2 8 1 10 1 11 10 21 17 22
ROOT
ATOM      1  C   UNL     1      44.479 131.612  19.494  1.00  0.00     0.064 A 
ATOM      2  C   UNL     1      43.511 131.892  20.479  1.00  0.00     0.028 A 
ATOM      3  C   UNL     1      42.209 132.245  20.119  1.00  0.00     0.002 A 
ATOM      4  C   UNL     1      41.851 132.327  18.776  1.00  0.00     0.001 A 
ATOM      5  C   UNL     1      42.790 132.038  17.785  1.00  0.00     0.019 A 
ATOM      6  C   UNL     1      44.100 131.662  18.126  1.00  0.00     0.088 A 
ENDROOT
BRANCH   1   7
ATOM      7  N   UNL     1      45.847 131.345  19.873  1.00  0.00    -0.323 N 
ATOM      8  H   UNL     1      46.535 132.125  19.931  1.00  0.00     0.181 HD
BRANCH   7   9
ATOM      9  N   UNL     1      46.312 130.057  20.186  1.00  0.00    -0.250 NA
ATOM     10  H   UNL     1      47.012 129.779  19.461  1.00  0.00     0.143 HD
ATOM     11  H   UNL     1      45.501 129.399  20.143  1.00  0.00     0.143 HD
ENDBRANCH   7   9
ENDBRANCH   1   7
BRANCH   6  12
ATOM     12  C   UNL     1      45.029 131.289  17.037  1.00  0.00     0.287 A 
ATOM     13  N   UNL     1      45.512 130.033  16.855  1.00  0.00    -0.236 N 
ATOM     14  N   UNL     1      45.427 132.150  16.066  1.00  0.00    -0.236 N 
ATOM     15  C   UNL     1      46.251 130.125  15.738  1.00  0.00     0.172 A 
ATOM     16  C   UNL     1      46.200 131.403  15.262  1.00  0.00     0.172 A 
ATOM     17  C   UNL     1      46.970 129.124  15.090  1.00  0.00     0.056 A 
ATOM     18  C   UNL     1      46.868 131.787  14.102  1.00  0.00     0.056 A 
ATOM     19  C   UNL     1      47.661 129.477  13.914  1.00  0.00     0.005 A 
ATOM     20  C   UNL     1      47.610 130.802  13.423  1.00  0.00     0.005 A 
ATOM     21  H   UNL     1      45.327 129.179  17.428  1.00  0.00     0.312 HD
ATOM     22  H   UNL     1      45.189 133.163  15.964  1.00  0.00     0.312 HD
ENDBRANCH   6  12
TORSDOF 3
ENDMDL
MODEL 5
REMARK VINA RESULT:      -9.3      1.508      2.294
REMARK SMILES NNc1ccccc1-c1[nH]c2ccccc2[nH+]1
REMARK SMILES IDX 3 1 4 2 5 3 6 4 7 5 8 6 2 7 1 9 9 12 10 13 17 14 11 15 16 16
REMARK SMILES IDX 12 17 15 18 13 19 14 20
REMARK H PARENT 2 8 1 10 1 11 10 21 17 22
ROOT
ATOM      1  C   UNL     1      44.673 131.483  19.544  1.00  0.00     0.064 A 
ATOM      2  C   UNL     1      43.795 131.745  20.614  1.00  0.00     0.028 A 
ATOM      3  C   UNL     1      42.472 132.123  20.376  1.00  0.00     0.002 A 
ATOM      4  C   UNL     1      42.004 132.247  19.070  1.00  0.00     0.001 A 
ATOM      5  C   UNL     1      42.851 131.976  17.996  1.00  0.00     0.019 A 
ATOM      6  C   UNL     1      44.181 131.576  18.215  1.00  0.00     0.088 A 
ENDROOT
BRANCH   1   7
ATOM      7  N   UNL     1      46.064 131.190  19.798  1.00  0.00    -0.323 N 
ATOM      8  H   UNL     1      46.598 130.578  19.145  1.00  0.00     0.181 HD
BRANCH   7   9
ATOM      9  N   UNL     1      46.761 131.708  20.903  1.00  0.00    -0.250 NA
ATOM     10  H   UNL     1      46.783 132.750  20.815  1.00  0.00     0.143 HD
ATOM     11  H   UNL     1      47.741 131.345  20.868  1.00  0.00     0.143 HD
ENDBRANCH   7   9
ENDBRANCH   1   7
BRANCH   6  12
ATOM     12  C   UNL     1      45.009 131.223  17.041  1.00  0.00     0.287 A 
ATOM     13  N   UNL     1      45.393 132.116  16.093  1.00  0.00    -0.236 N 
ATOM     14  N   UNL     1      45.532 129.986  16.840  1.00  0.00    -0.236 N 
ATOM     15  C   UNL     1      46.168 131.400  15.264  1.00  0.00     0.172 A 
ATOM     16  C   UNL     1      46.252 130.114  15.714  1.00  0.00     0.172 A 
ATOM     17  C   UNL     1      46.834 131.825  14.117  1.00  0.00     0.056 A 
ATOM     18  C   UNL     1      47.005 129.147  15.053  1.00  0.00     0.056 A 
ATOM     19  C   UNL     1      47.604 130.873  13.420  1.00  0.00     0.005 A 
ATOM     20  C   UNL     1      47.688 129.540  13.887  1.00  0.00     0.005 A 
ATOM     21  H   UNL     1      45.167 133.134  16.034  1.00  0.00     0.312 HD
ATOM     22  H   UNL     1      45.406 129.129  17.424  1.00  0.00     0.312 HD
ENDBRANCH   6  12
TORSDOF 3
ENDMDL
MODEL 6
REMARK VINA RESULT:      -8.9      1.361      5.880
REMARK SMILES NNc1ccccc1-c1[nH]c2ccccc2[nH+]1
REMARK SMILES IDX 3 1 4 2 5 3 6 4 7 5 8 6 2 7 1 9 9 12 10 13 17 14 11 15 16 16
REMARK SMILES IDX 12 17 15 18 13 19 14 20
REMARK H PARENT 2 8 1 10 1 11 10 21 17 22
ROOT
ATOM      1  C   UNL     1      46.418 129.580  14.994  1.00  0.00     0.064 A 
ATOM      2  C   UNL     1      47.330 129.334  13.949  1.00  0.00     0.028 A 
ATOM      3  C   UNL     1      47.907 130.391  13.241  1.00  0.00     0.002 A 
ATOM      4  C   UNL     1      47.582 131.706  13.561  1.00  0.00     0.001 A 
ATOM      5  C   UNL     1      46.693 131.973  14.603  1.00  0.00     0.019 A 
ATOM      6  C   UNL     1      46.118 130.924  15.340  1.00  0.00     0.088 A 
ENDROOT
BRANCH   1   7
ATOM      7  N   UNL     1      45.753 128.480  15.654  1.00  0.00    -0.323 N 
ATOM      8  H   UNL     1      46.232 127.965  16.422  1.00  0.00     0.181 HD
BRANCH   7   9
ATOM      9  N   UNL     1      44.456 128.061  15.313  1.00  0.00    -0.250 NA
ATOM     10  H   UNL     1      43.778 128.760  15.693  1.00  0.00     0.143 HD
ATOM     11  H   UNL     1      44.282 127.138  15.772  1.00  0.00     0.143 HD
ENDBRANCH   7   9
ENDBRANCH   1   7
BRANCH   6  12
ATOM     12  C   UNL     1      45.247 131.267  16.485  1.00  0.00     0.287 A 
ATOM     13  N   UNL     1      43.925 131.555  16.368  1.00  0.00    -0.236 N 
ATOM     14  N   UNL     1      45.668 131.252  17.776  1.00  0.00    -0.236 N 
ATOM     15  C   UNL     1      43.517 131.741  17.634  1.00  0.00     0.172 A 
ATOM     16  C   UNL     1      44.570 131.559  18.483  1.00  0.00     0.172 A 
ATOM     17  C   UNL     1      42.242 132.054  18.096  1.00  0.00     0.056 A 
ATOM     18  C   UNL     1      44.434 131.679  19.864  1.00  0.00     0.056 A 
ATOM     19  C   UNL     1      42.067 132.186  19.487  1.00  0.00     0.005 A 
ATOM     20  C   UNL     1      43.159 131.999  20.367  1.00  0.00     0.005 A 
ATOM     21  H   UNL     1      43.345 131.591  15.500  1.00  0.00     0.312 HD
ATOM     22  H   UNL     1      46.627 131.048  18.140  1.00  0.00     0.312 HD
ENDBRANCH   6  12
TORSDOF 3
ENDMDL
MODEL 7
REMARK VINA RESULT:      -8.8      1.359      5.964
REMARK SMILES NNc1ccccc1-c1[nH]c2ccccc2[nH+]1
REMARK SMILES IDX 3 1 4 2 5 3 6 4 7 5 8 6 2 7 1 9 9 12 10 13 17 14 11 15 16 16
REMARK SMILES IDX 12 17 15 18 13 19 14 20
REMARK H PARENT 2 8 1 10 1 11 10 21 17 22
ROOT
ATOM      1  C   UNL     1      46.293 129.587  15.043  1.00  0.00     0.064 A 
ATOM      2  C   UNL     1      47.192 129.411  13.972  1.00  0.00     0.028 A 
ATOM      3  C   UNL     1      47.757 130.514  13.327  1.00  0.00     0.002 A 
ATOM      4  C   UNL     1      47.434 131.805  13.735  1.00  0.00     0.001 A 
ATOM      5  C   UNL     1      46.558 132.001  14.804  1.00  0.00     0.019 A 
ATOM      6  C   UNL     1      45.995 130.905  15.478  1.00  0.00     0.088 A 
ENDROOT
BRANCH   1   7
ATOM      7  N   UNL     1      45.639 128.445  15.638  1.00  0.00    -0.323 N 
ATOM      8  H   UNL     1      46.102 127.920  16.410  1.00  0.00     0.181 HD
BRANCH   7   9
ATOM      9  N   UNL     1      44.372 127.995  15.228  1.00  0.00    -0.250 NA
ATOM     10  H   UNL     1      43.664 128.704  15.523  1.00  0.00     0.143 HD
ATOM     11  H   UNL     1      44.173 127.094  15.720  1.00  0.00     0.143 HD
ENDBRANCH   7   9
ENDBRANCH   1   7
BRANCH   6  12
ATOM     12  C   UNL     1      45.138 131.171  16.655  1.00  0.00     0.287 A 
ATOM     13  N   UNL     1      45.589 131.160  17.935  1.00  0.00    -0.236 N 
ATOM     14  N   UNL     1      43.831 131.530  16.562  1.00  0.00    -0.236 N 
ATOM     15  C   UNL     1      44.517 131.508  18.663  1.00  0.00     0.172 A 
ATOM     16  C   UNL     1      43.456 131.730  17.835  1.00  0.00     0.172 A 
ATOM     17  C   UNL     1      44.420 131.659  20.044  1.00  0.00     0.056 A 
ATOM     18  C   UNL     1      42.209 132.119  18.319  1.00  0.00     0.056 A 
ATOM     19  C   UNL     1      43.173 132.049  20.570  1.00  0.00     0.005 A 
ATOM     20  C   UNL     1      42.073 132.278  19.711  1.00  0.00     0.005 A 
ATOM     21  H   UNL     1      46.555 130.960  18.279  1.00  0.00     0.312 HD
ATOM     22  H   UNL     1      43.248 131.628  15.700  1.00  0.00     0.312 HD
ENDBRANCH   6  12
TORSDOF 3
ENDMDL
MODEL 8
REMARK VINA RESULT:      -8.5      1.547      5.778
REMARK SMILES NNc1ccccc1-c1[nH]c2ccccc2[nH+]1
REMARK SMILES IDX 3 1 4 2 5 3 6 4 7 5 8 6 2 7 1 9 9 12 10 13 17 14 11 15 16 16
REMARK SMILES IDX 12 17 15 18 13 19 14 20
REMARK H PARENT 2 8 1 10 1 11 10 21 17 22
ROOT
ATOM      1  C   UNL     1      45.267 131.300  14.594  1.00  0.00     0.064 A 
ATOM      2  C   UNL     1      46.044 130.882  13.496  1.00  0.00     0.028 A 
ATOM      3  C   UNL     1      47.167 130.074  13.684  1.00  0.00     0.002 A 
ATOM      4  C   UNL     1      47.534 129.672  14.966  1.00  0.00     0.001 A 
ATOM      5  C   UNL     1      46.769 130.061  16.065  1.00  0.00     0.019 A 
ATOM      6  C   UNL     1      45.624 130.858  15.895  1.00  0.00     0.088 A 
ENDROOT
BRANCH   1   7
ATOM      7  N   UNL     1      44.167 132.216  14.401  1.00  0.00    -0.323 N 
ATOM      8  H   UNL     1      44.274 133.222  14.647  1.00  0.00     0.181 HD
BRANCH   7   9
ATOM      9  N   UNL     1      42.927 131.815  13.874  1.00  0.00    -0.250 NA
ATOM     10  H   UNL     1      42.349 132.672  13.716  1.00  0.00     0.143 HD
ATOM     11  H   UNL     1      42.451 131.213  14.585  1.00  0.00     0.143 HD
ENDBRANCH   7   9
ENDBRANCH   1   7
BRANCH   6  12
ATOM     12  C   UNL     1      44.806 131.172  17.087  1.00  0.00     0.287 A 
ATOM     13  N   UNL     1      45.258 131.066  18.363  1.00  0.00    -0.236 N 
ATOM     14  N   UNL     1      43.545 131.673  17.018  1.00  0.00    -0.236 N 
ATOM     15  C   UNL     1      44.233 131.501  19.111  1.00  0.00     0.172 A 
ATOM     16  C   UNL     1      43.198 131.867  18.299  1.00  0.00     0.172 A 
ATOM     17  C   UNL     1      44.158 131.612  20.497  1.00  0.00     0.056 A 
ATOM     18  C   UNL     1      42.003 132.369  18.807  1.00  0.00     0.056 A 
ATOM     19  C   UNL     1      42.962 132.115  21.047  1.00  0.00     0.005 A 
ATOM     20  C   UNL     1      41.890 132.491  20.205  1.00  0.00     0.005 A 
ATOM     21  H   UNL     1      46.199 130.751  18.692  1.00  0.00     0.312 HD
ATOM     22  H   UNL     1      42.973 131.865  16.164  1.00  0.00     0.312 HD
ENDBRANCH   6  12
TORSDOF 3
ENDMDL
MODEL 9
REMARK VINA RESULT:      -8.4      1.780      2.917
REMARK SMILES NNc1ccccc1-c1[nH]c2ccccc2[nH+]1
REMARK SMILES IDX 3 1 4 2 5 3 6 4 7 5 8 6 2 7 1 9 9 12 10 13 17 14 11 15 16 16
REMARK SMILES IDX 12 17 15 18 13 19 14 20
REMARK H PARENT 2 8 1 10 1 11 10 21 17 22
ROOT
ATOM      1  C   UNL     1      44.604 131.257  20.789  1.00  0.00     0.064 A 
ATOM      2  C   UNL     1      43.935 131.451  22.014  1.00  0.00     0.028 A 
ATOM      3  C   UNL     1      42.672 132.046  22.049  1.00  0.00     0.002 A 
ATOM      4  C   UNL     1      42.059 132.459  20.869  1.00  0.00     0.001 A 
ATOM      5  C   UNL     1      42.697 132.262  19.645  1.00  0.00     0.019 A 
ATOM      6  C   UNL     1      43.960 131.647  19.586  1.00  0.00     0.088 A 
ENDROOT
BRANCH   1   7
ATOM      7  N   UNL     1      45.950 130.733  20.771  1.00  0.00    -0.323 N 
ATOM      8  H   UNL     1      46.110 129.703  20.771  1.00  0.00     0.181 HD
BRANCH   7   9
ATOM      9  N   UNL     1      47.088 131.557  20.744  1.00  0.00    -0.250 NA
ATOM     10  H   UNL     1      47.025 132.225  21.546  1.00  0.00     0.143 HD
ATOM     11  H   UNL     1      47.075 132.099  19.850  1.00  0.00     0.143 HD
ENDBRANCH   7   9
ENDBRANCH   1   7
BRANCH   6  12
ATOM     12  C   UNL     1      44.553 131.390  18.255  1.00  0.00     0.287 A 
ATOM     13  N   UNL     1      45.623 130.580  18.050  1.00  0.00    -0.236 N 
ATOM     14  N   UNL     1      44.035 131.879  17.099  1.00  0.00    -0.236 N 
ATOM     15  C   UNL     1      45.783 130.581  16.717  1.00  0.00     0.172 A 
ATOM     16  C   UNL     1      44.825 131.366  16.143  1.00  0.00     0.172 A 
ATOM     17  C   UNL     1      46.735 129.905  15.958  1.00  0.00     0.056 A 
ATOM     18  C   UNL     1      44.743 131.543  14.764  1.00  0.00     0.056 A 
ATOM     19  C   UNL     1      46.684 130.062  14.560  1.00  0.00     0.005 A 
ATOM     20  C   UNL     1      45.693 130.877  13.966  1.00  0.00     0.005 A 
ATOM     21  H   UNL     1      46.177 130.048  18.757  1.00  0.00     0.312 HD
ATOM     22  H   UNL     1      43.211 132.510  16.977  1.00  0.00     0.312 HD
ENDBRANCH   6  12
TORSDOF 3
ENDMDL


