MODEL 1
REMARK VINA RESULT:      -7.2      0.000      0.000
REMARK SMILES C=C[C@@H](Oc1nc[nH+]c(C)c1C)c1ccc2[nH]c(-c3c[nH+]c4oc[nH+]c4c3)cc2c1
REMARK SMILES IDX 3 1 2 2 1 3 4 4 5 5 6 6 11 7 7 8 9 9 8 10 12 11 10 12 13 14
REMARK SMILES IDX 14 15 30 16 15 17 29 18 16 19 28 20 17 21 18 22 19 24 20 25
REMARK SMILES IDX 27 26 21 27 26 28 22 29 25 30 23 31 24 32
REMARK H PARENT 8 13 17 23 21 33 25 34
ROOT
ATOM      1  C   UNL     1      43.730 131.157  24.086  1.00  0.00     0.230 C 
ENDROOT
BRANCH   1   2
ATOM      2  C   UNL     1      42.895 132.296  24.606  1.00  0.00     0.014 C 
ATOM      3  C   UNL     1      41.855 132.773  23.915  1.00  0.00     0.008 C 
ENDBRANCH   1   2
BRANCH   1   4
ATOM      4  O   UNL     1      43.226 129.931  24.616  1.00  0.00    -0.447 OA
BRANCH   4   5
ATOM      5  C   UNL     1      43.335 128.698  23.957  1.00  0.00     0.335 A 
ATOM      6  N   UNL     1      44.496 128.355  23.338  1.00  0.00    -0.010 NA
ATOM      7  C   UNL     1      42.243 127.812  23.932  1.00  0.00     0.080 A 
ATOM      8  C   UNL     1      44.633 127.168  22.700  1.00  0.00     0.453 A 
ATOM      9  C   UNL     1      42.416 126.565  23.290  1.00  0.00     0.108 A 
ATOM     10  N   UNL     1      43.602 126.284  22.677  1.00  0.00    -0.247 N 
ATOM     11  C   UNL     1      40.950 128.168  24.624  1.00  0.00     0.057 C 
ATOM     12  C   UNL     1      41.305 125.550  23.240  1.00  0.00     0.093 C 
ATOM     13  H   UNL     1      43.739 125.375  22.181  1.00  0.00     0.311 HD
ENDBRANCH   4   5
ENDBRANCH   1   4
BRANCH   1  14
ATOM     14  C   UNL     1      43.683 131.133  22.575  1.00  0.00    -0.003 A 
ATOM     15  C   UNL     1      42.435 131.081  21.898  1.00  0.00     0.010 A 
ATOM     16  C   UNL     1      44.882 131.178  21.829  1.00  0.00     0.018 A 
ATOM     17  C   UNL     1      42.382 131.063  20.492  1.00  0.00     0.027 A 
ATOM     18  C   UNL     1      44.791 131.156  20.440  1.00  0.00     0.000 A 
ATOM     19  C   UNL     1      43.587 131.102  19.794  1.00  0.00     0.046 A 
ATOM     20  C   UNL     1      45.776 131.181  19.479  1.00  0.00     0.037 A 
ATOM     21  N   UNL     1      43.756 131.094  18.461  1.00  0.00    -0.354 N 
ATOM     22  C   UNL     1      45.098 131.142  18.258  1.00  0.00     0.053 A 
ATOM     23  H   UNL     1      43.000 131.037  17.745  1.00  0.00     0.167 HD
BRANCH  22  24
ATOM     24  C   UNL     1      45.736 131.148  16.919  1.00  0.00     0.069 A 
ATOM     25  C   UNL     1      45.642 132.292  16.073  1.00  0.00     0.320 A 
ATOM     26  C   UNL     1      46.454 130.017  16.459  1.00  0.00     0.107 A 
ATOM     27  N   UNL     1      46.231 132.300  14.836  1.00  0.00    -0.173 N 
ATOM     28  C   UNL     1      47.025 130.092  15.196  1.00  0.00     0.320 A 
ATOM     29  C   UNL     1      46.907 131.200  14.429  1.00  0.00     0.449 A 
ATOM     30  N   UNL     1      47.742 129.176  14.529  1.00  0.00    -0.171 N 
ATOM     31  O   UNL     1      47.529 131.019  13.291  1.00  0.00    -0.349 OA
ATOM     32  C   UNL     1      48.033 129.793  13.356  1.00  0.00     0.526 A 
ATOM     33  H   UNL     1      46.162 133.140  14.221  1.00  0.00     0.457 HD
ATOM     34  H   UNL     1      48.015 128.216  14.836  1.00  0.00     0.457 HD
ENDBRANCH  22  24
ENDBRANCH   1  14
TORSDOF 5
ENDMDL
MODEL 2
REMARK VINA RESULT:      -4.7      1.238      2.099
REMARK SMILES C=C[C@@H](Oc1nc[nH+]c(C)c1C)c1ccc2[nH]c(-c3c[nH+]c4oc[nH+]c4c3)cc2c1
REMARK SMILES IDX 3 1 2 2 1 3 4 4 5 5 6 6 11 7 7 8 9 9 8 10 12 11 10 12 13 14
REMARK SMILES IDX 14 15 30 16 15 17 29 18 16 19 28 20 17 21 18 22 19 24 20 25
REMARK SMILES IDX 27 26 21 27 26 28 22 29 25 30 23 31 24 32
REMARK H PARENT 8 13 17 23 21 33 25 34
ROOT
ATOM      1  C   UNL     1      43.344 131.307  23.042  1.00  0.00     0.230 C 
ENDROOT
BRANCH   1   2
ATOM      2  C   UNL     1      41.883 131.158  23.370  1.00  0.00     0.014 C 
ATOM      3  C   UNL     1      41.468 130.927  24.619  1.00  0.00     0.008 C 
ENDBRANCH   1   2
BRANCH   1   4
ATOM      4  O   UNL     1      44.061 130.205  23.601  1.00  0.00    -0.447 OA
BRANCH   4   5
ATOM      5  C   UNL     1      43.578 128.889  23.609  1.00  0.00     0.335 A 
ATOM      6  N   UNL     1      42.460 128.576  24.316  1.00  0.00    -0.010 NA
ATOM      7  C   UNL     1      44.247 127.887  22.884  1.00  0.00     0.080 A 
ATOM      8  C   UNL     1      41.966 127.316  24.337  1.00  0.00     0.453 A 
ATOM      9  C   UNL     1      43.697 126.585  22.890  1.00  0.00     0.108 A 
ATOM     10  N   UNL     1      42.579 126.332  23.630  1.00  0.00    -0.247 N 
ATOM     11  C   UNL     1      45.482 128.215  22.081  1.00  0.00     0.057 C 
ATOM     12  C   UNL     1      44.339 125.461  22.121  1.00  0.00     0.093 C 
ATOM     13  H   UNL     1      42.172 125.370  23.661  1.00  0.00     0.311 HD
ENDBRANCH   4   5
ENDBRANCH   1   4
BRANCH   1  14
ATOM     14  C   UNL     1      43.534 131.349  21.543  1.00  0.00    -0.003 A 
ATOM     15  C   UNL     1      42.529 131.907  20.709  1.00  0.00     0.010 A 
ATOM     16  C   UNL     1      44.722 130.846  20.966  1.00  0.00     0.018 A 
ATOM     17  C   UNL     1      42.699 131.955  19.313  1.00  0.00     0.027 A 
ATOM     18  C   UNL     1      44.855 130.908  19.581  1.00  0.00     0.000 A 
ATOM     19  C   UNL     1      43.882 131.444  18.783  1.00  0.00     0.046 A 
ATOM     20  C   UNL     1      45.881 130.494  18.762  1.00  0.00     0.037 A 
ATOM     21  N   UNL     1      44.239 131.393  17.489  1.00  0.00    -0.354 N 
ATOM     22  C   UNL     1      45.466 130.812  17.466  1.00  0.00     0.053 A 
ATOM     23  H   UNL     1      43.667 131.717  16.679  1.00  0.00     0.167 HD
BRANCH  22  24
ATOM     24  C   UNL     1      46.241 130.554  16.227  1.00  0.00     0.069 A 
ATOM     25  C   UNL     1      46.883 129.298  16.020  1.00  0.00     0.320 A 
ATOM     26  C   UNL     1      46.354 131.552  15.228  1.00  0.00     0.107 A 
ATOM     27  N   UNL     1      47.599 129.057  14.877  1.00  0.00    -0.173 N 
ATOM     28  C   UNL     1      47.095 131.241  14.095  1.00  0.00     0.320 A 
ATOM     29  C   UNL     1      47.686 130.034  13.944  1.00  0.00     0.449 A 
ATOM     30  N   UNL     1      47.358 131.993  13.018  1.00  0.00    -0.171 N 
ATOM     31  O   UNL     1      48.321 129.993  12.800  1.00  0.00    -0.349 OA
ATOM     32  C   UNL     1      48.120 131.180  12.242  1.00  0.00     0.526 A 
ATOM     33  H   UNL     1      48.065 128.135  14.727  1.00  0.00     0.457 HD
ATOM     34  H   UNL     1      47.052 132.971  12.819  1.00  0.00     0.457 HD
ENDBRANCH  22  24
ENDBRANCH   1  14
TORSDOF 5
ENDMDL


