MODEL 1
REMARK VINA RESULT:      -3.8      0.000      0.000
REMARK SMILES C/C(O)=[N+](/C)[C@@H](C)C(=O)N(c1cn2ccccc2n1)c1cc2ccccc2[nH]1
REMARK SMILES IDX 6 1 7 2 4 3 5 4 2 5 1 6 3 7 8 9 9 10 10 11 11 12 19 13 12 14
REMARK SMILES IDX 18 15 13 16 17 17 14 18 16 19 15 20 20 21 21 22 28 23 22 24
REMARK SMILES IDX 27 25 23 26 26 27 24 28 25 29
REMARK H PARENT 3 8 28 30
ROOT
ATOM      1  C   UNL     1      46.081 124.921  23.267  1.00  0.00     0.349 C 
ATOM      2  C   UNL     1      45.938 123.864  24.372  1.00  0.00     0.098 C 
ENDROOT
BRANCH   1   3
ATOM      3  N   UNL     1      47.485 124.957  22.776  1.00  0.00    -0.194 N 
ATOM      4  C   UNL     1      48.406 125.957  23.347  1.00  0.00     0.437 C 
BRANCH   3   5
ATOM      5  C   UNL     1      47.954 124.127  21.865  1.00  0.00     0.331 C 
ATOM      6  C   UNL     1      49.188 123.287  22.083  1.00  0.00     0.172 C 
BRANCH   5   7
ATOM      7  O   UNL     1      47.293 124.005  20.638  1.00  0.00    -0.464 OA
ATOM      8  H   UNL     1      47.781 123.749  19.789  1.00  0.00     0.299 HD
ENDBRANCH   5   7
ENDBRANCH   3   5
ENDBRANCH   1   3
BRANCH   1   9
ATOM      9  C   UNL     1      45.631 126.289  23.740  1.00  0.00     0.302 C 
ATOM     10  O   UNL     1      46.300 126.901  24.618  1.00  0.00    -0.266 OA
BRANCH   9  11
ATOM     11  N   UNL     1      44.474 126.928  23.170  1.00  0.00    -0.243 N 
BRANCH  11  12
ATOM     12  C   UNL     1      43.181 126.310  23.301  1.00  0.00     0.160 A 
ATOM     13  N   UNL     1      42.926 125.019  22.969  1.00  0.00    -0.211 NA
ATOM     14  C   UNL     1      42.032 126.932  23.772  1.00  0.00     0.140 A 
ATOM     15  C   UNL     1      41.614 124.888  23.252  1.00  0.00     0.139 A 
ATOM     16  N   UNL     1      41.057 126.013  23.732  1.00  0.00    -0.305 N 
ATOM     17  C   UNL     1      40.855 123.731  23.087  1.00  0.00     0.048 A 
ATOM     18  C   UNL     1      39.751 126.114  24.085  1.00  0.00     0.093 A 
ATOM     19  C   UNL     1      39.497 123.786  23.439  1.00  0.00     0.005 A 
ATOM     20  C   UNL     1      38.939 124.979  23.940  1.00  0.00     0.018 A 
ENDBRANCH  11  12
BRANCH  11  21
ATOM     21  C   UNL     1      44.602 128.211  22.531  1.00  0.00     0.120 A 
ATOM     22  C   UNL     1      45.226 128.435  21.304  1.00  0.00     0.056 A 
ATOM     23  N   UNL     1      44.105 129.361  23.049  1.00  0.00    -0.341 N 
ATOM     24  C   UNL     1      45.089 129.789  21.085  1.00  0.00     0.002 A 
ATOM     25  C   UNL     1      44.409 130.315  22.154  1.00  0.00     0.047 A 
ATOM     26  C   UNL     1      45.512 130.581  20.021  1.00  0.00     0.010 A 
ATOM     27  C   UNL     1      44.102 131.673  22.228  1.00  0.00     0.027 A 
ATOM     28  C   UNL     1      45.218 131.956  20.069  1.00  0.00     0.001 A 
ATOM     29  C   UNL     1      44.516 132.500  21.169  1.00  0.00     0.002 A 
ATOM     30  H   UNL     1      43.570 129.480  23.937  1.00  0.00     0.168 HD
ENDBRANCH  11  21
ENDBRANCH   9  11
ENDBRANCH   1   9
TORSDOF 7
ENDMDL
MODEL 2
REMARK VINA RESULT:      -3.5      3.697      6.895
REMARK SMILES C/C(O)=[N+](/C)[C@@H](C)C(=O)N(c1cn2ccccc2n1)c1cc2ccccc2[nH]1
REMARK SMILES IDX 6 1 7 2 4 3 5 4 2 5 1 6 3 7 8 9 9 10 10 11 11 12 19 13 12 14
REMARK SMILES IDX 18 15 13 16 17 17 14 18 16 19 15 20 20 21 21 22 28 23 22 24
REMARK SMILES IDX 27 25 23 26 26 27 24 28 25 29
REMARK H PARENT 3 8 28 30
ROOT
ATOM      1  C   UNL     1      42.576 131.898  20.804  1.00  0.00     0.349 C 
ATOM      2  C   UNL     1      42.005 132.881  19.771  1.00  0.00     0.098 C 
ENDROOT
BRANCH   1   3
ATOM      3  N   UNL     1      42.041 132.214  22.156  1.00  0.00    -0.194 N 
ATOM      4  C   UNL     1      40.978 133.229  22.274  1.00  0.00     0.437 C 
BRANCH   3   5
ATOM      5  C   UNL     1      42.459 131.619  23.256  1.00  0.00     0.331 C 
ATOM      6  C   UNL     1      43.306 132.316  24.290  1.00  0.00     0.172 C 
BRANCH   5   7
ATOM      7  O   UNL     1      42.110 130.285  23.493  1.00  0.00    -0.464 OA
ATOM      8  H   UNL     1      41.720 129.981  24.376  1.00  0.00     0.299 HD
ENDBRANCH   5   7
ENDBRANCH   3   5
ENDBRANCH   1   3
BRANCH   1   9
ATOM      9  C   UNL     1      44.092 131.900  20.799  1.00  0.00     0.302 C 
ATOM     10  O   UNL     1      44.720 132.879  21.289  1.00  0.00    -0.266 OA
BRANCH   9  11
ATOM     11  N   UNL     1      44.834 130.778  20.287  1.00  0.00    -0.243 N 
BRANCH  11  12
ATOM     12  C   UNL     1      45.071 129.635  21.129  1.00  0.00     0.160 A 
ATOM     13  N   UNL     1      44.584 129.515  22.390  1.00  0.00    -0.211 NA
ATOM     14  C   UNL     1      45.817 128.516  20.782  1.00  0.00     0.140 A 
ATOM     15  C   UNL     1      45.051 128.311  22.780  1.00  0.00     0.139 A 
ATOM     16  N   UNL     1      45.789 127.696  21.840  1.00  0.00    -0.305 N 
ATOM     17  C   UNL     1      44.827 127.711  24.017  1.00  0.00     0.048 A 
ATOM     18  C   UNL     1      46.359 126.476  22.011  1.00  0.00     0.093 A 
ATOM     19  C   UNL     1      45.398 126.447  24.242  1.00  0.00     0.005 A 
ATOM     20  C   UNL     1      46.166 125.824  23.238  1.00  0.00     0.018 A 
ENDBRANCH  11  12
BRANCH  11  21
ATOM     21  C   UNL     1      45.278 130.774  18.918  1.00  0.00     0.120 A 
ATOM     22  C   UNL     1      45.933 129.714  18.292  1.00  0.00     0.056 A 
ATOM     23  N   UNL     1      45.088 131.809  18.065  1.00  0.00    -0.341 N 
ATOM     24  C   UNL     1      46.141 130.146  17.000  1.00  0.00     0.002 A 
ATOM     25  C   UNL     1      45.619 131.411  16.897  1.00  0.00     0.047 A 
ATOM     26  C   UNL     1      46.745 129.510  15.920  1.00  0.00     0.010 A 
ATOM     27  C   UNL     1      45.663 132.124  15.701  1.00  0.00     0.027 A 
ATOM     28  C   UNL     1      46.806 130.207  14.699  1.00  0.00     0.001 A 
ATOM     29  C   UNL     1      46.268 131.509  14.589  1.00  0.00     0.002 A 
ATOM     30  H   UNL     1      44.603 132.714  18.258  1.00  0.00     0.168 HD
ENDBRANCH  11  21
ENDBRANCH   9  11
ENDBRANCH   1   9
TORSDOF 7
ENDMDL
MODEL 3
REMARK VINA RESULT:      -3.4      4.731      8.589
REMARK SMILES C/C(O)=[N+](/C)[C@@H](C)C(=O)N(c1cn2ccccc2n1)c1cc2ccccc2[nH]1
REMARK SMILES IDX 6 1 7 2 4 3 5 4 2 5 1 6 3 7 8 9 9 10 10 11 11 12 19 13 12 14
REMARK SMILES IDX 18 15 13 16 17 17 14 18 16 19 15 20 20 21 21 22 28 23 22 24
REMARK SMILES IDX 27 25 23 26 26 27 24 28 25 29
REMARK H PARENT 3 8 28 30
ROOT
ATOM      1  C   UNL     1      44.607 130.728  22.622  1.00  0.00     0.349 C 
ATOM      2  C   UNL     1      44.564 129.193  22.621  1.00  0.00     0.098 C 
ENDROOT
BRANCH   1   3
ATOM      3  N   UNL     1      43.735 131.260  23.704  1.00  0.00    -0.194 N 
ATOM      4  C   UNL     1      44.291 132.269  24.625  1.00  0.00     0.437 C 
BRANCH   3   5
ATOM      5  C   UNL     1      42.481 130.888  23.871  1.00  0.00     0.331 C 
ATOM      6  C   UNL     1      42.092 129.482  24.255  1.00  0.00     0.172 C 
BRANCH   5   7
ATOM      7  O   UNL     1      41.455 131.821  23.691  1.00  0.00    -0.464 OA
ATOM      8  H   UNL     1      41.427 132.440  22.891  1.00  0.00     0.299 HD
ENDBRANCH   5   7
ENDBRANCH   3   5
ENDBRANCH   1   3
BRANCH   1   9
ATOM      9  C   UNL     1      44.220 131.300  21.273  1.00  0.00     0.302 C 
ATOM     10  O   UNL     1      43.004 131.346  20.937  1.00  0.00    -0.266 OA
BRANCH   9  11
ATOM     11  N   UNL     1      45.213 131.838  20.382  1.00  0.00    -0.243 N 
BRANCH  11  12
ATOM     12  C   UNL     1      46.233 132.712  20.895  1.00  0.00     0.160 A 
ATOM     13  N   UNL     1      47.200 132.316  21.761  1.00  0.00    -0.211 NA
ATOM     14  C   UNL     1      46.373 134.060  20.588  1.00  0.00     0.140 A 
ATOM     15  C   UNL     1      47.911 133.445  21.958  1.00  0.00     0.139 A 
ATOM     16  N   UNL     1      47.439 134.498  21.271  1.00  0.00    -0.305 N 
ATOM     17  C   UNL     1      49.030 133.571  22.779  1.00  0.00     0.048 A 
ATOM     18  C   UNL     1      47.996 135.735  21.315  1.00  0.00     0.093 A 
ATOM     19  C   UNL     1      49.642 134.833  22.857  1.00  0.00     0.005 A 
ATOM     20  C   UNL     1      49.126 135.921  22.125  1.00  0.00     0.018 A 
ENDBRANCH  11  12
BRANCH  11  21
ATOM     21  C   UNL     1      45.223 131.448  18.996  1.00  0.00     0.120 A 
ATOM     22  C   UNL     1      44.477 132.057  17.988  1.00  0.00     0.056 A 
ATOM     23  N   UNL     1      45.987 130.442  18.505  1.00  0.00    -0.341 N 
ATOM     24  C   UNL     1      44.818 131.376  16.840  1.00  0.00     0.002 A 
ATOM     25  C   UNL     1      45.730 130.411  17.187  1.00  0.00     0.047 A 
ATOM     26  C   UNL     1      44.392 131.545  15.526  1.00  0.00     0.010 A 
ATOM     27  C   UNL     1      46.281 129.551  16.238  1.00  0.00     0.027 A 
ATOM     28  C   UNL     1      44.930 130.691  14.546  1.00  0.00     0.001 A 
ATOM     29  C   UNL     1      45.870 129.697  14.901  1.00  0.00     0.002 A 
ATOM     30  H   UNL     1      46.659 129.838  19.028  1.00  0.00     0.168 HD
ENDBRANCH  11  21
ENDBRANCH   9  11
ENDBRANCH   1   9
TORSDOF 7
ENDMDL
MODEL 4
REMARK VINA RESULT:      -3.3      4.550      8.764
REMARK SMILES C/C(O)=[N+](/C)[C@@H](C)C(=O)N(c1cn2ccccc2n1)c1cc2ccccc2[nH]1
REMARK SMILES IDX 6 1 7 2 4 3 5 4 2 5 1 6 3 7 8 9 9 10 10 11 11 12 19 13 12 14
REMARK SMILES IDX 18 15 13 16 17 17 14 18 16 19 15 20 20 21 21 22 28 23 22 24
REMARK SMILES IDX 27 25 23 26 26 27 24 28 25 29
REMARK H PARENT 3 8 28 30
ROOT
ATOM      1  C   UNL     1      43.431 131.198  21.777  1.00  0.00     0.349 C 
ATOM      2  C   UNL     1      42.477 132.148  21.038  1.00  0.00     0.098 C 
ENDROOT
BRANCH   1   3
ATOM      3  N   UNL     1      42.777 130.677  23.008  1.00  0.00    -0.194 N 
ATOM      4  C   UNL     1      42.180 131.641  23.951  1.00  0.00     0.437 C 
BRANCH   3   5
ATOM      5  C   UNL     1      42.689 129.392  23.292  1.00  0.00     0.331 C 
ATOM      6  C   UNL     1      43.892 128.543  23.618  1.00  0.00     0.172 C 
BRANCH   5   7
ATOM      7  O   UNL     1      41.434 128.772  23.296  1.00  0.00    -0.464 OA
ATOM      8  H   UNL     1      41.332 127.769  23.217  1.00  0.00     0.299 HD
ENDBRANCH   5   7
ENDBRANCH   3   5
ENDBRANCH   1   3
BRANCH   1   9
ATOM      9  C   UNL     1      44.752 131.870  22.100  1.00  0.00     0.302 C 
ATOM     10  O   UNL     1      45.110 132.003  23.302  1.00  0.00    -0.266 OA
BRANCH   9  11
ATOM     11  N   UNL     1      45.631 132.318  21.053  1.00  0.00    -0.243 N 
BRANCH  11  12
ATOM     12  C   UNL     1      46.687 133.247  21.357  1.00  0.00     0.160 A 
ATOM     13  N   UNL     1      46.836 134.447  20.741  1.00  0.00    -0.211 NA
ATOM     14  C   UNL     1      47.686 133.053  22.302  1.00  0.00     0.140 A 
ATOM     15  C   UNL     1      47.933 134.958  21.336  1.00  0.00     0.139 A 
ATOM     16  N   UNL     1      48.459 134.147  22.270  1.00  0.00    -0.305 N 
ATOM     17  C   UNL     1      48.512 136.194  21.057  1.00  0.00     0.048 A 
ATOM     18  C   UNL     1      49.563 134.455  22.997  1.00  0.00     0.093 A 
ATOM     19  C   UNL     1      49.657 136.557  21.784  1.00  0.00     0.005 A 
ATOM     20  C   UNL     1      50.188 135.688  22.758  1.00  0.00     0.018 A 
ENDBRANCH  11  12
BRANCH  11  21
ATOM     21  C   UNL     1      45.494 131.788  19.722  1.00  0.00     0.120 A 
ATOM     22  C   UNL     1      46.028 130.577  19.283  1.00  0.00     0.056 A 
ATOM     23  N   UNL     1      44.801 132.407  18.735  1.00  0.00    -0.341 N 
ATOM     24  C   UNL     1      45.630 130.475  17.968  1.00  0.00     0.002 A 
ATOM     25  C   UNL     1      44.892 131.593  17.671  1.00  0.00     0.047 A 
ATOM     26  C   UNL     1      45.864 129.477  17.026  1.00  0.00     0.010 A 
ATOM     27  C   UNL     1      44.334 131.786  16.408  1.00  0.00     0.027 A 
ATOM     28  C   UNL     1      45.314 129.645  15.742  1.00  0.00     0.001 A 
ATOM     29  C   UNL     1      44.552 130.795  15.434  1.00  0.00     0.002 A 
ATOM     30  H   UNL     1      44.278 133.309  18.793  1.00  0.00     0.168 HD
ENDBRANCH  11  21
ENDBRANCH   9  11
ENDBRANCH   1   9
TORSDOF 7
ENDMDL
MODEL 5
REMARK VINA RESULT:      -3.2      3.968      7.889
REMARK SMILES C/C(O)=[N+](/C)[C@@H](C)C(=O)N(c1cn2ccccc2n1)c1cc2ccccc2[nH]1
REMARK SMILES IDX 6 1 7 2 4 3 5 4 2 5 1 6 3 7 8 9 9 10 10 11 11 12 19 13 12 14
REMARK SMILES IDX 18 15 13 16 17 17 14 18 16 19 15 20 20 21 21 22 28 23 22 24
REMARK SMILES IDX 27 25 23 26 26 27 24 28 25 29
REMARK H PARENT 3 8 28 30
ROOT
ATOM      1  C   UNL     1      46.038 132.676  22.996  1.00  0.00     0.349 C 
ATOM      2  C   UNL     1      44.841 132.800  23.951  1.00  0.00     0.098 C 
ENDROOT
BRANCH   1   3
ATOM      3  N   UNL     1      46.992 133.794  23.227  1.00  0.00    -0.194 N 
ATOM      4  C   UNL     1      46.832 134.616  24.441  1.00  0.00     0.437 C 
BRANCH   3   5
ATOM      5  C   UNL     1      47.986 134.078  22.408  1.00  0.00     0.331 C 
ATOM      6  C   UNL     1      48.255 135.474  21.906  1.00  0.00     0.172 C 
BRANCH   5   7
ATOM      7  O   UNL     1      48.837 133.055  21.977  1.00  0.00    -0.464 OA
ATOM      8  H   UNL     1      48.490 132.232  21.503  1.00  0.00     0.299 HD
ENDBRANCH   5   7
ENDBRANCH   3   5
ENDBRANCH   1   3
BRANCH   1   9
ATOM      9  C   UNL     1      45.594 132.623  21.547  1.00  0.00     0.302 C 
ATOM     10  O   UNL     1      45.826 133.602  20.784  1.00  0.00    -0.266 OA
BRANCH   9  11
ATOM     11  N   UNL     1      44.952 131.453  21.009  1.00  0.00    -0.243 N 
BRANCH  11  12
ATOM     12  C   UNL     1      44.977 131.215  19.590  1.00  0.00     0.160 A 
ATOM     13  N   UNL     1      45.903 130.438  18.972  1.00  0.00    -0.211 NA
ATOM     14  C   UNL     1      44.078 131.735  18.667  1.00  0.00     0.140 A 
ATOM     15  C   UNL     1      45.537 130.506  17.676  1.00  0.00     0.139 A 
ATOM     16  N   UNL     1      44.454 131.273  17.467  1.00  0.00    -0.305 N 
ATOM     17  C   UNL     1      46.176 129.870  16.614  1.00  0.00     0.048 A 
ATOM     18  C   UNL     1      43.907 131.484  16.243  1.00  0.00     0.093 A 
ATOM     19  C   UNL     1      45.647 130.059  15.327  1.00  0.00     0.005 A 
ATOM     20  C   UNL     1      44.509 130.868  15.137  1.00  0.00     0.018 A 
ENDBRANCH  11  12
BRANCH  11  21
ATOM     21  C   UNL     1      44.347 130.494  21.894  1.00  0.00     0.120 A 
ATOM     22  C   UNL     1      43.038 130.559  22.371  1.00  0.00     0.056 A 
ATOM     23  N   UNL     1      44.985 129.390  22.354  1.00  0.00    -0.341 N 
ATOM     24  C   UNL     1      42.896 129.434  23.154  1.00  0.00     0.002 A 
ATOM     25  C   UNL     1      44.086 128.753  23.122  1.00  0.00     0.047 A 
ATOM     26  C   UNL     1      41.803 128.970  23.882  1.00  0.00     0.010 A 
ATOM     27  C   UNL     1      44.262 127.556  23.814  1.00  0.00     0.027 A 
ATOM     28  C   UNL     1      41.952 127.765  24.592  1.00  0.00     0.001 A 
ATOM     29  C   UNL     1      43.176 127.060  24.559  1.00  0.00     0.002 A 
ATOM     30  H   UNL     1      45.958 129.079  22.137  1.00  0.00     0.168 HD
ENDBRANCH  11  21
ENDBRANCH   9  11
ENDBRANCH   1   9
TORSDOF 7
ENDMDL
MODEL 6
REMARK VINA RESULT:      -2.8      4.042      7.401
REMARK SMILES C/C(O)=[N+](/C)[C@@H](C)C(=O)N(c1cn2ccccc2n1)c1cc2ccccc2[nH]1
REMARK SMILES IDX 6 1 7 2 4 3 5 4 2 5 1 6 3 7 8 9 9 10 10 11 11 12 19 13 12 14
REMARK SMILES IDX 18 15 13 16 17 17 14 18 16 19 15 20 20 21 21 22 28 23 22 24
REMARK SMILES IDX 27 25 23 26 26 27 24 28 25 29
REMARK H PARENT 3 8 28 30
ROOT
ATOM      1  C   UNL     1      44.740 130.020  22.573  1.00  0.00     0.349 C 
ATOM      2  C   UNL     1      44.922 128.648  21.908  1.00  0.00     0.098 C 
ENDROOT
BRANCH   1   3
ATOM      3  N   UNL     1      43.736 129.926  23.667  1.00  0.00    -0.194 N 
ATOM      4  C   UNL     1      43.610 131.056  24.607  1.00  0.00     0.437 C 
BRANCH   3   5
ATOM      5  C   UNL     1      42.938 128.889  23.830  1.00  0.00     0.331 C 
ATOM      6  C   UNL     1      43.345 127.660  24.604  1.00  0.00     0.172 C 
BRANCH   5   7
ATOM      7  O   UNL     1      41.657 128.910  23.269  1.00  0.00    -0.464 OA
ATOM      8  H   UNL     1      41.405 128.322  22.484  1.00  0.00     0.299 HD
ENDBRANCH   5   7
ENDBRANCH   3   5
ENDBRANCH   1   3
BRANCH   1   9
ATOM      9  C   UNL     1      44.354 131.085  21.565  1.00  0.00     0.302 C 
ATOM     10  O   UNL     1      43.182 131.552  21.563  1.00  0.00    -0.266 OA
BRANCH   9  11
ATOM     11  N   UNL     1      45.318 131.609  20.634  1.00  0.00    -0.243 N 
BRANCH  11  12
ATOM     12  C   UNL     1      45.240 131.245  19.245  1.00  0.00     0.160 A 
ATOM     13  N   UNL     1      44.352 131.787  18.373  1.00  0.00    -0.211 NA
ATOM     14  C   UNL     1      46.041 130.306  18.608  1.00  0.00     0.140 A 
ATOM     15  C   UNL     1      44.642 131.156  17.216  1.00  0.00     0.139 A 
ATOM     16  N   UNL     1      45.644 130.269  17.329  1.00  0.00    -0.305 N 
ATOM     17  C   UNL     1      44.004 131.360  15.994  1.00  0.00     0.048 A 
ATOM     18  C   UNL     1      46.106 129.521  16.296  1.00  0.00     0.093 A 
ATOM     19  C   UNL     1      44.447 130.608  14.894  1.00  0.00     0.005 A 
ATOM     20  C   UNL     1      45.501 129.684  15.041  1.00  0.00     0.018 A 
ENDBRANCH  11  12
BRANCH  11  21
ATOM     21  C   UNL     1      46.315 132.546  21.082  1.00  0.00     0.120 A 
ATOM     22  C   UNL     1      46.341 133.902  20.761  1.00  0.00     0.056 A 
ATOM     23  N   UNL     1      47.345 132.212  21.898  1.00  0.00    -0.341 N 
ATOM     24  C   UNL     1      47.445 134.396  21.421  1.00  0.00     0.002 A 
ATOM     25  C   UNL     1      48.026 133.353  22.097  1.00  0.00     0.047 A 
ATOM     26  C   UNL     1      47.966 135.686  21.473  1.00  0.00     0.010 A 
ATOM     27  C   UNL     1      49.168 133.532  22.875  1.00  0.00     0.027 A 
ATOM     28  C   UNL     1      49.120 135.897  22.250  1.00  0.00     0.001 A 
ATOM     29  C   UNL     1      49.718 134.824  22.949  1.00  0.00     0.002 A 
ATOM     30  H   UNL     1      47.552 131.277  22.313  1.00  0.00     0.168 HD
ENDBRANCH  11  21
ENDBRANCH   9  11
ENDBRANCH   1   9
TORSDOF 7
ENDMDL
MODEL 7
REMARK VINA RESULT:      -2.8      4.544      7.671
REMARK SMILES C/C(O)=[N+](/C)[C@@H](C)C(=O)N(c1cn2ccccc2n1)c1cc2ccccc2[nH]1
REMARK SMILES IDX 6 1 7 2 4 3 5 4 2 5 1 6 3 7 8 9 9 10 10 11 11 12 19 13 12 14
REMARK SMILES IDX 18 15 13 16 17 17 14 18 16 19 15 20 20 21 21 22 28 23 22 24
REMARK SMILES IDX 27 25 23 26 26 27 24 28 25 29
REMARK H PARENT 3 8 28 30
ROOT
ATOM      1  C   UNL     1      43.140 130.968  21.647  1.00  0.00     0.349 C 
ATOM      2  C   UNL     1      42.804 132.377  21.137  1.00  0.00     0.098 C 
ENDROOT
BRANCH   1   3
ATOM      3  N   UNL     1      42.853 130.873  23.104  1.00  0.00    -0.194 N 
ATOM      4  C   UNL     1      42.401 132.084  23.813  1.00  0.00     0.437 C 
BRANCH   3   5
ATOM      5  C   UNL     1      42.965 129.753  23.792  1.00  0.00     0.331 C 
ATOM      6  C   UNL     1      41.933 128.655  23.739  1.00  0.00     0.172 C 
BRANCH   5   7
ATOM      7  O   UNL     1      44.083 129.557  24.611  1.00  0.00    -0.464 OA
ATOM      8  H   UNL     1      44.035 129.010  25.461  1.00  0.00     0.299 HD
ENDBRANCH   5   7
ENDBRANCH   3   5
ENDBRANCH   1   3
BRANCH   1   9
ATOM      9  C   UNL     1      44.578 130.592  21.346  1.00  0.00     0.302 C 
ATOM     10  O   UNL     1      45.084 129.567  21.882  1.00  0.00    -0.266 OA
BRANCH   9  11
ATOM     11  N   UNL     1      45.367 131.358  20.418  1.00  0.00    -0.243 N 
BRANCH  11  12
ATOM     12  C   UNL     1      45.194 131.162  19.003  1.00  0.00     0.160 A 
ATOM     13  N   UNL     1      45.927 130.288  18.268  1.00  0.00    -0.211 NA
ATOM     14  C   UNL     1      44.275 131.826  18.201  1.00  0.00     0.140 A 
ATOM     15  C   UNL     1      45.427 130.444  17.026  1.00  0.00     0.139 A 
ATOM     16  N   UNL     1      44.442 131.355  16.958  1.00  0.00    -0.305 N 
ATOM     17  C   UNL     1      45.846 129.760  15.886  1.00  0.00     0.048 A 
ATOM     18  C   UNL     1      43.791 131.676  15.811  1.00  0.00     0.093 A 
ATOM     19  C   UNL     1      45.202 130.058  14.673  1.00  0.00     0.005 A 
ATOM     20  C   UNL     1      44.171 131.018  14.632  1.00  0.00     0.018 A 
ENDBRANCH  11  12
BRANCH  11  21
ATOM     21  C   UNL     1      46.276 132.363  20.904  1.00  0.00     0.120 A 
ATOM     22  C   UNL     1      46.190 133.725  20.620  1.00  0.00     0.056 A 
ATOM     23  N   UNL     1      47.321 132.094  21.724  1.00  0.00    -0.341 N 
ATOM     24  C   UNL     1      47.241 134.292  21.308  1.00  0.00     0.002 A 
ATOM     25  C   UNL     1      47.901 133.283  21.962  1.00  0.00     0.047 A 
ATOM     26  C   UNL     1      47.650 135.619  21.402  1.00  0.00     0.010 A 
ATOM     27  C   UNL     1      49.015 133.535  22.760  1.00  0.00     0.027 A 
ATOM     28  C   UNL     1      48.774 135.904  22.199  1.00  0.00     0.001 A 
ATOM     29  C   UNL     1      49.454 134.866  22.876  1.00  0.00     0.002 A 
ATOM     30  H   UNL     1      47.603 131.168  22.116  1.00  0.00     0.168 HD
ENDBRANCH  11  21
ENDBRANCH   9  11
ENDBRANCH   1   9
TORSDOF 7
ENDMDL
MODEL 8
REMARK VINA RESULT:      -2.7      1.785      5.591
REMARK SMILES C/C(O)=[N+](/C)[C@@H](C)C(=O)N(c1cn2ccccc2n1)c1cc2ccccc2[nH]1
REMARK SMILES IDX 6 1 7 2 4 3 5 4 2 5 1 6 3 7 8 9 9 10 10 11 11 12 19 13 12 14
REMARK SMILES IDX 18 15 13 16 17 17 14 18 16 19 15 20 20 21 21 22 28 23 22 24
REMARK SMILES IDX 27 25 23 26 26 27 24 28 25 29
REMARK H PARENT 3 8 28 30
ROOT
ATOM      1  C   UNL     1      43.257 128.814  23.370  1.00  0.00     0.349 C 
ATOM      2  C   UNL     1      41.866 128.410  22.858  1.00  0.00     0.098 C 
ENDROOT
BRANCH   1   3
ATOM      3  N   UNL     1      43.476 130.270  23.152  1.00  0.00    -0.194 N 
ATOM      4  C   UNL     1      43.576 131.152  24.330  1.00  0.00     0.437 C 
BRANCH   3   5
ATOM      5  C   UNL     1      43.602 130.811  21.956  1.00  0.00     0.331 C 
ATOM      6  C   UNL     1      42.420 131.124  21.073  1.00  0.00     0.172 C 
BRANCH   5   7
ATOM      7  O   UNL     1      44.877 131.116  21.469  1.00  0.00    -0.464 OA
ATOM      8  H   UNL     1      45.308 130.584  20.723  1.00  0.00     0.299 HD
ENDBRANCH   5   7
ENDBRANCH   3   5
ENDBRANCH   1   3
BRANCH   1   9
ATOM      9  C   UNL     1      44.353 127.991  22.723  1.00  0.00     0.302 C 
ATOM     10  O   UNL     1      45.256 128.565  22.053  1.00  0.00    -0.266 OA
BRANCH   9  11
ATOM     11  N   UNL     1      44.412 126.564  22.898  1.00  0.00    -0.243 N 
BRANCH  11  12
ATOM     12  C   UNL     1      43.194 125.814  23.053  1.00  0.00     0.160 A 
ATOM     13  N   UNL     1      42.300 126.026  24.052  1.00  0.00    -0.211 NA
ATOM     14  C   UNL     1      42.767 124.785  22.223  1.00  0.00     0.140 A 
ATOM     15  C   UNL     1      41.342 125.112  23.798  1.00  0.00     0.139 A 
ATOM     16  N   UNL     1      41.596 124.360  22.714  1.00  0.00    -0.305 N 
ATOM     17  C   UNL     1      40.182 124.917  24.546  1.00  0.00     0.048 A 
ATOM     18  C   UNL     1      40.771 123.378  22.270  1.00  0.00     0.093 A 
ATOM     19  C   UNL     1      39.296 123.912  24.126  1.00  0.00     0.005 A 
ATOM     20  C   UNL     1      39.588 123.138  22.984  1.00  0.00     0.018 A 
ENDBRANCH  11  12
BRANCH  11  21
ATOM     21  C   UNL     1      45.680 125.885  22.852  1.00  0.00     0.120 A 
ATOM     22  C   UNL     1      45.846 124.509  22.706  1.00  0.00     0.056 A 
ATOM     23  N   UNL     1      46.875 126.521  22.925  1.00  0.00    -0.341 N 
ATOM     24  C   UNL     1      47.211 124.321  22.692  1.00  0.00     0.002 A 
ATOM     25  C   UNL     1      47.800 125.553  22.825  1.00  0.00     0.047 A 
ATOM     26  C   UNL     1      47.963 123.156  22.567  1.00  0.00     0.010 A 
ATOM     27  C   UNL     1      49.186 125.703  22.838  1.00  0.00     0.027 A 
ATOM     28  C   UNL     1      49.365 123.276  22.578  1.00  0.00     0.001 A 
ATOM     29  C   UNL     1      49.974 124.544  22.713  1.00  0.00     0.002 A 
ATOM     30  H   UNL     1      47.046 127.548  23.009  1.00  0.00     0.168 HD
ENDBRANCH  11  21
ENDBRANCH   9  11
ENDBRANCH   1   9
TORSDOF 7
ENDMDL
MODEL 9
REMARK VINA RESULT:      -2.4      3.569      6.562
REMARK SMILES C/C(O)=[N+](/C)[C@@H](C)C(=O)N(c1cn2ccccc2n1)c1cc2ccccc2[nH]1
REMARK SMILES IDX 6 1 7 2 4 3 5 4 2 5 1 6 3 7 8 9 9 10 10 11 11 12 19 13 12 14
REMARK SMILES IDX 18 15 13 16 17 17 14 18 16 19 15 20 20 21 21 22 28 23 22 24
REMARK SMILES IDX 27 25 23 26 26 27 24 28 25 29
REMARK H PARENT 3 8 28 30
ROOT
ATOM      1  C   UNL     1      43.959 132.294  22.121  1.00  0.00     0.349 C 
ATOM      2  C   UNL     1      44.074 132.110  23.641  1.00  0.00     0.098 C 
ENDROOT
BRANCH   1   3
ATOM      3  N   UNL     1      42.809 131.508  21.598  1.00  0.00    -0.194 N 
ATOM      4  C   UNL     1      42.379 130.309  22.341  1.00  0.00     0.437 C 
BRANCH   3   5
ATOM      5  C   UNL     1      42.140 131.840  20.511  1.00  0.00     0.331 C 
ATOM      6  C   UNL     1      42.006 133.265  20.038  1.00  0.00     0.172 C 
BRANCH   5   7
ATOM      7  O   UNL     1      41.523 130.841  19.750  1.00  0.00    -0.464 OA
ATOM      8  H   UNL     1      42.021 130.328  19.033  1.00  0.00     0.299 HD
ENDBRANCH   5   7
ENDBRANCH   3   5
ENDBRANCH   1   3
BRANCH   1   9
ATOM      9  C   UNL     1      45.247 131.919  21.413  1.00  0.00     0.302 C 
ATOM     10  O   UNL     1      46.253 132.676  21.499  1.00  0.00    -0.266 OA
BRANCH   9  11
ATOM     11  N   UNL     1      45.358 130.686  20.680  1.00  0.00    -0.243 N 
BRANCH  11  12
ATOM     12  C   UNL     1      45.372 129.433  21.388  1.00  0.00     0.160 A 
ATOM     13  N   UNL     1      44.712 129.220  22.554  1.00  0.00    -0.211 NA
ATOM     14  C   UNL     1      46.050 128.287  20.991  1.00  0.00     0.140 A 
ATOM     15  C   UNL     1      45.008 127.935  22.838  1.00  0.00     0.139 A 
ATOM     16  N   UNL     1      45.803 127.357  21.923  1.00  0.00    -0.305 N 
ATOM     17  C   UNL     1      44.565 127.222  23.951  1.00  0.00     0.048 A 
ATOM     18  C   UNL     1      46.229 126.071  22.002  1.00  0.00     0.093 A 
ATOM     19  C   UNL     1      44.979 125.886  24.076  1.00  0.00     0.005 A 
ATOM     20  C   UNL     1      45.813 125.305  23.101  1.00  0.00     0.018 A 
ENDBRANCH  11  12
BRANCH  11  21
ATOM     21  C   UNL     1      45.389 130.704  19.241  1.00  0.00     0.120 A 
ATOM     22  C   UNL     1      44.660 131.579  18.436  1.00  0.00     0.056 A 
ATOM     23  N   UNL     1      46.159 129.874  18.496  1.00  0.00    -0.341 N 
ATOM     24  C   UNL     1      45.018 131.248  17.147  1.00  0.00     0.002 A 
ATOM     25  C   UNL     1      45.922 130.219  17.219  1.00  0.00     0.047 A 
ATOM     26  C   UNL     1      44.613 131.786  15.929  1.00  0.00     0.010 A 
ATOM     27  C   UNL     1      46.486 129.659  16.074  1.00  0.00     0.027 A 
ATOM     28  C   UNL     1      45.164 131.241  14.755  1.00  0.00     0.001 A 
ATOM     29  C   UNL     1      46.097 130.181  14.827  1.00  0.00     0.002 A 
ATOM     30  H   UNL     1      46.821 129.142  18.836  1.00  0.00     0.168 HD
ENDBRANCH  11  21
ENDBRANCH   9  11
ENDBRANCH   1   9
TORSDOF 7
ENDMDL


