MODEL 1
REMARK VINA RESULT:      -5.5      0.000      0.000
REMARK SMILES C[C@H](Cn1cccc1CNC(=O)c1ccc2cc[nH]c2c1N)OCCC#N
REMARK SMILES IDX 3 1 2 2 1 3 23 4 24 5 25 6 26 7 27 8 4 9 5 10 8 11 6 12 7 13
REMARK SMILES IDX 9 14 10 15 11 16 12 18 13 19 14 20 21 21 15 22 20 23 16 24
REMARK SMILES IDX 19 25 17 26 18 27 22 29
REMARK H PARENT 10 17 19 28 22 30 22 31
ROOT
ATOM      1  C   UNL     1      44.815 128.112  21.842  1.00  0.00     0.153 C 
ENDROOT
BRANCH   1   2
ATOM      2  C   UNL     1      45.371 126.694  22.063  1.00  0.00     0.135 C 
ATOM      3  C   UNL     1      46.139 126.634  23.384  1.00  0.00     0.040 C 
BRANCH   2   4
ATOM      4  O   UNL     1      44.296 125.770  22.124  1.00  0.00    -0.376 OA
BRANCH   4   5
ATOM      5  C   UNL     1      44.565 124.699  23.013  1.00  0.00     0.176 C 
BRANCH   5   6
ATOM      6  C   UNL     1      43.327 123.823  23.213  1.00  0.00     0.148 C 
BRANCH   6   7
ATOM      7  C   UNL     1      43.036 123.044  22.003  1.00  0.00     0.065 C 
ATOM      8  N   UNL     1      42.808 122.428  21.049  1.00  0.00    -0.198 NA
ENDBRANCH   6   7
ENDBRANCH   5   6
ENDBRANCH   4   5
ENDBRANCH   2   4
ENDBRANCH   1   2
BRANCH   1   9
ATOM      9  N   UNL     1      43.866 128.475  22.900  1.00  0.00    -0.347 N 
ATOM     10  C   UNL     1      43.243 127.599  23.713  1.00  0.00     0.086 A 
ATOM     11  C   UNL     1      43.471 129.713  23.280  1.00  0.00     0.037 A 
ATOM     12  C   UNL     1      42.456 128.276  24.624  1.00  0.00     0.020 A 
ATOM     13  C   UNL     1      42.603 129.622  24.351  1.00  0.00     0.025 A 
BRANCH  11  14
ATOM     14  C   UNL     1      43.917 131.005  22.654  1.00  0.00     0.170 C 
BRANCH  14  15
ATOM     15  N   UNL     1      43.910 130.888  21.199  1.00  0.00    -0.346 N 
ATOM     16  C   UNL     1      44.872 131.561  20.370  1.00  0.00     0.253 C 
ATOM     17  H   UNL     1      43.232 130.221  20.768  1.00  0.00     0.164 HD
ATOM     18  O   UNL     1      45.648 132.414  20.880  1.00  0.00    -0.269 OA
BRANCH  16  19
ATOM     19  C   UNL     1      44.938 131.283  18.916  1.00  0.00     0.064 A 
ATOM     20  C   UNL     1      46.032 130.527  18.417  1.00  0.00     0.017 A 
ATOM     21  C   UNL     1      43.923 131.728  18.015  1.00  0.00     0.069 A 
ATOM     22  C   UNL     1      46.134 130.210  17.056  1.00  0.00     0.011 A 
ATOM     23  C   UNL     1      44.062 131.383  16.661  1.00  0.00     0.070 A 
ATOM     24  C   UNL     1      45.129 130.654  16.208  1.00  0.00     0.002 A 
ATOM     25  N   UNL     1      43.254 131.710  15.634  1.00  0.00    -0.359 N 
ATOM     26  C   UNL     1      44.990 130.505  14.846  1.00  0.00     0.028 A 
ATOM     27  C   UNL     1      43.817 131.174  14.527  1.00  0.00     0.083 A 
ATOM     28  H   UNL     1      42.373 132.268  15.660  1.00  0.00     0.166 HD
BRANCH  21  29
ATOM     29  N   UNL     1      42.826 132.546  18.448  1.00  0.00    -0.396 N 
ATOM     30  H   UNL     1      42.572 133.432  17.962  1.00  0.00     0.156 HD
ATOM     31  H   UNL     1      42.191 132.240  19.217  1.00  0.00     0.156 HD
ENDBRANCH  21  29
ENDBRANCH  16  19
ENDBRANCH  14  15
ENDBRANCH  11  14
ENDBRANCH   1   9
TORSDOF 10
ENDMDL
MODEL 2
REMARK VINA RESULT:      -5.4      2.379      3.870
REMARK SMILES C[C@H](Cn1cccc1CNC(=O)c1ccc2cc[nH]c2c1N)OCCC#N
REMARK SMILES IDX 3 1 2 2 1 3 23 4 24 5 25 6 26 7 27 8 4 9 5 10 8 11 6 12 7 13
REMARK SMILES IDX 9 14 10 15 11 16 12 18 13 19 14 20 21 21 15 22 20 23 16 24
REMARK SMILES IDX 19 25 17 26 18 27 22 29
REMARK H PARENT 10 17 19 28 22 30 22 31
ROOT
ATOM      1  C   UNL     1      43.057 130.672  22.803  1.00  0.00     0.153 C 
ENDROOT
BRANCH   1   2
ATOM      2  C   UNL     1      43.539 129.283  23.256  1.00  0.00     0.135 C 
ATOM      3  C   UNL     1      44.225 129.386  24.618  1.00  0.00     0.040 C 
BRANCH   2   4
ATOM      4  O   UNL     1      42.425 128.412  23.378  1.00  0.00    -0.376 OA
BRANCH   4   5
ATOM      5  C   UNL     1      42.816 127.051  23.434  1.00  0.00     0.176 C 
BRANCH   5   6
ATOM      6  C   UNL     1      44.213 126.853  22.843  1.00  0.00     0.148 C 
BRANCH   6   7
ATOM      7  C   UNL     1      44.903 125.733  23.495  1.00  0.00     0.065 C 
ATOM      8  N   UNL     1      45.446 124.849  24.009  1.00  0.00    -0.198 NA
ENDBRANCH   6   7
ENDBRANCH   5   6
ENDBRANCH   4   5
ENDBRANCH   2   4
ENDBRANCH   1   2
BRANCH   1   9
ATOM      9  N   UNL     1      44.155 131.442  22.211  1.00  0.00    -0.347 N 
ATOM     10  C   UNL     1      45.206 131.940  22.892  1.00  0.00     0.086 A 
ATOM     11  C   UNL     1      44.345 131.762  20.909  1.00  0.00     0.037 A 
ATOM     12  C   UNL     1      46.077 132.570  22.025  1.00  0.00     0.020 A 
ATOM     13  C   UNL     1      45.532 132.454  20.762  1.00  0.00     0.025 A 
BRANCH  11  14
ATOM     14  C   UNL     1      43.422 131.406  19.776  1.00  0.00     0.170 C 
BRANCH  14  15
ATOM     15  N   UNL     1      44.195 131.017  18.601  1.00  0.00    -0.346 N 
ATOM     16  C   UNL     1      43.818 131.408  17.271  1.00  0.00     0.253 C 
ATOM     17  H   UNL     1      45.096 130.513  18.756  1.00  0.00     0.164 HD
ATOM     18  O   UNL     1      42.702 131.961  17.075  1.00  0.00    -0.269 OA
BRANCH  16  19
ATOM     19  C   UNL     1      44.718 131.140  16.124  1.00  0.00     0.064 A 
ATOM     20  C   UNL     1      44.336 131.606  14.837  1.00  0.00     0.017 A 
ATOM     21  C   UNL     1      45.961 130.456  16.282  1.00  0.00     0.069 A 
ATOM     22  C   UNL     1      45.158 131.405  13.720  1.00  0.00     0.011 A 
ATOM     23  C   UNL     1      46.756 130.283  15.138  1.00  0.00     0.070 A 
ATOM     24  C   UNL     1      46.362 130.741  13.909  1.00  0.00     0.002 A 
ATOM     25  N   UNL     1      47.943 129.652  15.039  1.00  0.00    -0.359 N 
ATOM     26  C   UNL     1      47.335 130.397  12.998  1.00  0.00     0.028 A 
ATOM     27  C   UNL     1      48.298 129.723  13.736  1.00  0.00     0.083 A 
ATOM     28  H   UNL     1      48.491 129.189  15.796  1.00  0.00     0.166 HD
BRANCH  21  29
ATOM     29  N   UNL     1      46.374 129.910  17.544  1.00  0.00    -0.396 N 
ATOM     30  H   UNL     1      46.767 130.507  18.302  1.00  0.00     0.156 HD
ATOM     31  H   UNL     1      46.218 128.905  17.777  1.00  0.00     0.156 HD
ENDBRANCH  21  29
ENDBRANCH  16  19
ENDBRANCH  14  15
ENDBRANCH  11  14
ENDBRANCH   1   9
TORSDOF 10
ENDMDL
MODEL 3
REMARK VINA RESULT:      -4.9      1.232      1.625
REMARK SMILES C[C@H](Cn1cccc1CNC(=O)c1ccc2cc[nH]c2c1N)OCCC#N
REMARK SMILES IDX 3 1 2 2 1 3 23 4 24 5 25 6 26 7 27 8 4 9 5 10 8 11 6 12 7 13
REMARK SMILES IDX 9 14 10 15 11 16 12 18 13 19 14 20 21 21 15 22 20 23 16 24
REMARK SMILES IDX 19 25 17 26 18 27 22 29
REMARK H PARENT 10 17 19 28 22 30 22 31
ROOT
ATOM      1  C   UNL     1      44.612 128.689  23.375  1.00  0.00     0.153 C 
ENDROOT
BRANCH   1   2
ATOM      2  C   UNL     1      44.677 128.103  21.954  1.00  0.00     0.135 C 
ATOM      3  C   UNL     1      46.031 128.421  21.319  1.00  0.00     0.040 C 
BRANCH   2   4
ATOM      4  O   UNL     1      44.531 126.693  22.018  1.00  0.00    -0.376 OA
BRANCH   4   5
ATOM      5  C   UNL     1      45.462 126.100  22.906  1.00  0.00     0.176 C 
BRANCH   5   6
ATOM      6  C   UNL     1      44.962 124.743  23.405  1.00  0.00     0.148 C 
BRANCH   6   7
ATOM      7  C   UNL     1      43.495 124.701  23.429  1.00  0.00     0.065 C 
ATOM      8  N   UNL     1      42.338 124.667  23.448  1.00  0.00    -0.198 NA
ENDBRANCH   6   7
ENDBRANCH   5   6
ENDBRANCH   4   5
ENDBRANCH   2   4
ENDBRANCH   1   2
BRANCH   1   9
ATOM      9  N   UNL     1      43.631 129.777  23.451  1.00  0.00    -0.347 N 
ATOM     10  C   UNL     1      42.367 129.649  23.901  1.00  0.00     0.086 A 
ATOM     11  C   UNL     1      43.805 131.082  23.133  1.00  0.00     0.037 A 
ATOM     12  C   UNL     1      41.732 130.875  23.883  1.00  0.00     0.020 A 
ATOM     13  C   UNL     1      42.647 131.789  23.398  1.00  0.00     0.025 A 
BRANCH  11  14
ATOM     14  C   UNL     1      45.069 131.692  22.593  1.00  0.00     0.170 C 
BRANCH  14  15
ATOM     15  N   UNL     1      45.231 131.348  21.184  1.00  0.00    -0.346 N 
ATOM     16  C   UNL     1      44.214 131.618  20.206  1.00  0.00     0.253 C 
ATOM     17  H   UNL     1      46.157 130.974  20.879  1.00  0.00     0.164 HD
ATOM     18  O   UNL     1      43.075 132.009  20.581  1.00  0.00    -0.269 OA
BRANCH  16  19
ATOM     19  C   UNL     1      44.483 131.411  18.764  1.00  0.00     0.064 A 
ATOM     20  C   UNL     1      45.720 130.829  18.380  1.00  0.00     0.017 A 
ATOM     21  C   UNL     1      43.525 131.751  17.760  1.00  0.00     0.069 A 
ATOM     22  C   UNL     1      46.019 130.585  17.032  1.00  0.00     0.011 A 
ATOM     23  C   UNL     1      43.863 131.484  16.424  1.00  0.00     0.070 A 
ATOM     24  C   UNL     1      45.065 130.924  16.082  1.00  0.00     0.002 A 
ATOM     25  N   UNL     1      43.140 131.741  15.317  1.00  0.00    -0.359 N 
ATOM     26  C   UNL     1      45.105 130.812  14.710  1.00  0.00     0.028 A 
ATOM     27  C   UNL     1      43.894 131.331  14.272  1.00  0.00     0.083 A 
ATOM     28  H   UNL     1      42.194 132.174  15.252  1.00  0.00     0.166 HD
BRANCH  21  29
ATOM     29  N   UNL     1      42.284 132.397  18.081  1.00  0.00    -0.396 N 
ATOM     30  H   UNL     1      41.601 131.979  18.748  1.00  0.00     0.156 HD
ATOM     31  H   UNL     1      42.057 133.348  17.719  1.00  0.00     0.156 HD
ENDBRANCH  21  29
ENDBRANCH  16  19
ENDBRANCH  14  15
ENDBRANCH  11  14
ENDBRANCH   1   9
TORSDOF 10
ENDMDL
MODEL 4
REMARK VINA RESULT:      -4.9      1.483      1.907
REMARK SMILES C[C@H](Cn1cccc1CNC(=O)c1ccc2cc[nH]c2c1N)OCCC#N
REMARK SMILES IDX 3 1 2 2 1 3 23 4 24 5 25 6 26 7 27 8 4 9 5 10 8 11 6 12 7 13
REMARK SMILES IDX 9 14 10 15 11 16 12 18 13 19 14 20 21 21 15 22 20 23 16 24
REMARK SMILES IDX 19 25 17 26 18 27 22 29
REMARK H PARENT 10 17 19 28 22 30 22 31
ROOT
ATOM      1  C   UNL     1      42.389 128.651  22.585  1.00  0.00     0.153 C 
ENDROOT
BRANCH   1   2
ATOM      2  C   UNL     1      43.227 127.534  23.230  1.00  0.00     0.135 C 
ATOM      3  C   UNL     1      43.832 128.028  24.545  1.00  0.00     0.040 C 
BRANCH   2   4
ATOM      4  O   UNL     1      42.394 126.419  23.509  1.00  0.00    -0.376 OA
BRANCH   4   5
ATOM      5  C   UNL     1      43.062 125.435  24.280  1.00  0.00     0.176 C 
BRANCH   5   6
ATOM      6  C   UNL     1      42.332 124.093  24.214  1.00  0.00     0.148 C 
BRANCH   6   7
ATOM      7  C   UNL     1      41.529 123.993  22.989  1.00  0.00     0.065 C 
ATOM      8  N   UNL     1      40.895 123.914  22.024  1.00  0.00    -0.198 NA
ENDBRANCH   6   7
ENDBRANCH   5   6
ENDBRANCH   4   5
ENDBRANCH   2   4
ENDBRANCH   1   2
BRANCH   1   9
ATOM      9  N   UNL     1      42.916 129.974  22.935  1.00  0.00    -0.347 N 
ATOM     10  C   UNL     1      42.227 130.933  23.584  1.00  0.00     0.086 A 
ATOM     11  C   UNL     1      44.161 130.461  22.721  1.00  0.00     0.037 A 
ATOM     12  C   UNL     1      43.034 132.034  23.796  1.00  0.00     0.020 A 
ATOM     13  C   UNL     1      44.266 131.733  23.250  1.00  0.00     0.025 A 
BRANCH  11  14
ATOM     14  C   UNL     1      45.280 129.732  22.030  1.00  0.00     0.170 C 
BRANCH  14  15
ATOM     15  N   UNL     1      45.085 129.765  20.584  1.00  0.00    -0.346 N 
ATOM     16  C   UNL     1      45.301 130.955  19.808  1.00  0.00     0.253 C 
ATOM     17  H   UNL     1      44.867 128.865  20.102  1.00  0.00     0.164 HD
ATOM     18  O   UNL     1      45.502 132.054  20.392  1.00  0.00    -0.269 OA
BRANCH  16  19
ATOM     19  C   UNL     1      45.259 130.906  18.327  1.00  0.00     0.064 A 
ATOM     20  C   UNL     1      46.273 130.185  17.642  1.00  0.00     0.017 A 
ATOM     21  C   UNL     1      44.217 131.534  17.579  1.00  0.00     0.069 A 
ATOM     22  C   UNL     1      46.270 130.081  16.244  1.00  0.00     0.011 A 
ATOM     23  C   UNL     1      44.250 131.400  16.182  1.00  0.00     0.070 A 
ATOM     24  C   UNL     1      45.241 130.701  15.548  1.00  0.00     0.002 A 
ATOM     25  N   UNL     1      43.399 131.922  15.278  1.00  0.00    -0.359 N 
ATOM     26  C   UNL     1      45.009 130.773  14.192  1.00  0.00     0.028 A 
ATOM     27  C   UNL     1      43.859 131.540  14.065  1.00  0.00     0.083 A 
ATOM     28  H   UNL     1      42.556 132.511  15.452  1.00  0.00     0.166 HD
BRANCH  21  29
ATOM     29  N   UNL     1      43.200 132.327  18.210  1.00  0.00    -0.396 N 
ATOM     30  H   UNL     1      43.059 133.332  17.976  1.00  0.00     0.156 HD
ATOM     31  H   UNL     1      42.511 131.902  18.867  1.00  0.00     0.156 HD
ENDBRANCH  21  29
ENDBRANCH  16  19
ENDBRANCH  14  15
ENDBRANCH  11  14
ENDBRANCH   1   9
TORSDOF 10
ENDMDL
MODEL 5
REMARK VINA RESULT:      -4.8      4.719      7.981
REMARK SMILES C[C@H](Cn1cccc1CNC(=O)c1ccc2cc[nH]c2c1N)OCCC#N
REMARK SMILES IDX 3 1 2 2 1 3 23 4 24 5 25 6 26 7 27 8 4 9 5 10 8 11 6 12 7 13
REMARK SMILES IDX 9 14 10 15 11 16 12 18 13 19 14 20 21 21 15 22 20 23 16 24
REMARK SMILES IDX 19 25 17 26 18 27 22 29
REMARK H PARENT 10 17 19 28 22 30 22 31
ROOT
ATOM      1  C   UNL     1      45.532 130.410  18.371  1.00  0.00     0.153 C 
ENDROOT
BRANCH   1   2
ATOM      2  C   UNL     1      45.446 130.594  16.846  1.00  0.00     0.135 C 
ATOM      3  C   UNL     1      45.467 132.083  16.497  1.00  0.00     0.040 C 
BRANCH   2   4
ATOM      4  O   UNL     1      46.564 129.973  16.231  1.00  0.00    -0.376 OA
BRANCH   4   5
ATOM      5  C   UNL     1      46.251 129.466  14.945  1.00  0.00     0.176 C 
BRANCH   5   6
ATOM      6  C   UNL     1      45.945 130.599  13.964  1.00  0.00     0.148 C 
BRANCH   6   7
ATOM      7  C   UNL     1      47.136 130.947  13.179  1.00  0.00     0.065 C 
ATOM      8  N   UNL     1      48.074 131.220  12.558  1.00  0.00    -0.198 NA
ENDBRANCH   6   7
ENDBRANCH   5   6
ENDBRANCH   4   5
ENDBRANCH   2   4
ENDBRANCH   1   2
BRANCH   1   9
ATOM      9  N   UNL     1      44.575 131.281  19.061  1.00  0.00    -0.347 N 
ATOM     10  C   UNL     1      43.449 131.780  18.513  1.00  0.00     0.086 A 
ATOM     11  C   UNL     1      44.610 131.709  20.345  1.00  0.00     0.037 A 
ATOM     12  C   UNL     1      42.755 132.519  19.450  1.00  0.00     0.020 A 
ATOM     13  C   UNL     1      43.490 132.472  20.617  1.00  0.00     0.025 A 
BRANCH  11  14
ATOM     14  C   UNL     1      45.687 131.392  21.345  1.00  0.00     0.170 C 
BRANCH  14  15
ATOM     15  N   UNL     1      46.715 132.427  21.322  1.00  0.00    -0.346 N 
ATOM     16  C   UNL     1      46.961 133.290  22.444  1.00  0.00     0.253 C 
ATOM     17  H   UNL     1      47.342 132.472  20.488  1.00  0.00     0.164 HD
ATOM     18  O   UNL     1      46.167 133.281  23.424  1.00  0.00    -0.269 OA
BRANCH  16  19
ATOM     19  C   UNL     1      48.122 134.211  22.446  1.00  0.00     0.064 A 
ATOM     20  C   UNL     1      49.245 133.888  23.254  1.00  0.00     0.017 A 
ATOM     21  C   UNL     1      48.152 135.390  21.641  1.00  0.00     0.069 A 
ATOM     22  C   UNL     1      50.382 134.707  23.275  1.00  0.00     0.011 A 
ATOM     23  C   UNL     1      49.313 136.178  21.689  1.00  0.00     0.070 A 
ATOM     24  C   UNL     1      50.381 135.843  22.478  1.00  0.00     0.002 A 
ATOM     25  N   UNL     1      49.558 137.336  21.045  1.00  0.00    -0.359 N 
ATOM     26  C   UNL     1      51.342 136.817  22.325  1.00  0.00     0.028 A 
ATOM     27  C   UNL     1      50.794 137.726  21.430  1.00  0.00     0.083 A 
ATOM     28  H   UNL     1      48.934 137.851  20.386  1.00  0.00     0.166 HD
BRANCH  21  29
ATOM     29  N   UNL     1      47.026 135.802  20.852  1.00  0.00    -0.396 N 
ATOM     30  H   UNL     1      46.641 136.769  20.902  1.00  0.00     0.156 HD
ATOM     31  H   UNL     1      46.603 135.170  20.139  1.00  0.00     0.156 HD
ENDBRANCH  21  29
ENDBRANCH  16  19
ENDBRANCH  14  15
ENDBRANCH  11  14
ENDBRANCH   1   9
TORSDOF 10
ENDMDL
MODEL 6
REMARK VINA RESULT:      -4.7      3.997      6.600
REMARK SMILES C[C@H](Cn1cccc1CNC(=O)c1ccc2cc[nH]c2c1N)OCCC#N
REMARK SMILES IDX 3 1 2 2 1 3 23 4 24 5 25 6 26 7 27 8 4 9 5 10 8 11 6 12 7 13
REMARK SMILES IDX 9 14 10 15 11 16 12 18 13 19 14 20 21 21 15 22 20 23 16 24
REMARK SMILES IDX 19 25 17 26 18 27 22 29
REMARK H PARENT 10 17 19 28 22 30 22 31
ROOT
ATOM      1  C   UNL     1      46.363 131.986  21.206  1.00  0.00     0.153 C 
ENDROOT
BRANCH   1   2
ATOM      2  C   UNL     1      46.726 133.308  21.902  1.00  0.00     0.135 C 
ATOM      3  C   UNL     1      45.948 133.440  23.211  1.00  0.00     0.040 C 
BRANCH   2   4
ATOM      4  O   UNL     1      48.114 133.319  22.201  1.00  0.00    -0.376 OA
BRANCH   4   5
ATOM      5  C   UNL     1      48.761 134.468  21.683  1.00  0.00     0.176 C 
BRANCH   5   6
ATOM      6  C   UNL     1      47.788 135.643  21.562  1.00  0.00     0.148 C 
BRANCH   6   7
ATOM      7  C   UNL     1      48.308 136.660  20.640  1.00  0.00     0.065 C 
ATOM      8  N   UNL     1      48.719 137.462  19.913  1.00  0.00    -0.198 NA
ENDBRANCH   6   7
ENDBRANCH   5   6
ENDBRANCH   4   5
ENDBRANCH   2   4
ENDBRANCH   1   2
BRANCH   1   9
ATOM      9  N   UNL     1      45.011 131.552  21.572  1.00  0.00    -0.347 N 
ATOM     10  C   UNL     1      44.680 130.948  22.731  1.00  0.00     0.086 A 
ATOM     11  C   UNL     1      43.865 131.701  20.866  1.00  0.00     0.037 A 
ATOM     12  C   UNL     1      43.319 130.719  22.773  1.00  0.00     0.020 A 
ATOM     13  C   UNL     1      42.799 131.200  21.588  1.00  0.00     0.025 A 
BRANCH  11  14
ATOM     14  C   UNL     1      43.750 132.333  19.506  1.00  0.00     0.170 C 
BRANCH  14  15
ATOM     15  N   UNL     1      44.600 131.629  18.551  1.00  0.00    -0.346 N 
ATOM     16  C   UNL     1      44.228 131.457  17.174  1.00  0.00     0.253 C 
ATOM     17  H   UNL     1      45.545 131.324  18.874  1.00  0.00     0.164 HD
ATOM     18  O   UNL     1      43.065 131.767  16.798  1.00  0.00    -0.269 OA
BRANCH  16  19
ATOM     19  C   UNL     1      45.189 130.890  16.200  1.00  0.00     0.064 A 
ATOM     20  C   UNL     1      45.303 129.477  16.101  1.00  0.00     0.017 A 
ATOM     21  C   UNL     1      45.977 131.719  15.344  1.00  0.00     0.069 A 
ATOM     22  C   UNL     1      46.175 128.883  15.178  1.00  0.00     0.011 A 
ATOM     23  C   UNL     1      46.832 131.082  14.432  1.00  0.00     0.070 A 
ATOM     24  C   UNL     1      46.923 129.717  14.359  1.00  0.00     0.002 A 
ATOM     25  N   UNL     1      47.681 131.650  13.553  1.00  0.00    -0.359 N 
ATOM     26  C   UNL     1      47.856 129.406  13.395  1.00  0.00     0.028 A 
ATOM     27  C   UNL     1      48.304 130.631  12.919  1.00  0.00     0.083 A 
ATOM     28  H   UNL     1      47.848 132.665  13.383  1.00  0.00     0.166 HD
BRANCH  21  29
ATOM     29  N   UNL     1      45.951 133.151  15.439  1.00  0.00    -0.396 N 
ATOM     30  H   UNL     1      45.613 133.641  16.294  1.00  0.00     0.156 HD
ATOM     31  H   UNL     1      46.347 133.752  14.685  1.00  0.00     0.156 HD
ENDBRANCH  21  29
ENDBRANCH  16  19
ENDBRANCH  14  15
ENDBRANCH  11  14
ENDBRANCH   1   9
TORSDOF 10
ENDMDL
MODEL 7
REMARK VINA RESULT:      -4.6      1.853      2.410
REMARK SMILES C[C@H](Cn1cccc1CNC(=O)c1ccc2cc[nH]c2c1N)OCCC#N
REMARK SMILES IDX 3 1 2 2 1 3 23 4 24 5 25 6 26 7 27 8 4 9 5 10 8 11 6 12 7 13
REMARK SMILES IDX 9 14 10 15 11 16 12 18 13 19 14 20 21 21 15 22 20 23 16 24
REMARK SMILES IDX 19 25 17 26 18 27 22 29
REMARK H PARENT 10 17 19 28 22 30 22 31
ROOT
ATOM      1  C   UNL     1      44.747 130.183  21.659  1.00  0.00     0.153 C 
ENDROOT
BRANCH   1   2
ATOM      2  C   UNL     1      44.453 128.674  21.618  1.00  0.00     0.135 C 
ATOM      3  C   UNL     1      45.753 127.884  21.768  1.00  0.00     0.040 C 
BRANCH   2   4
ATOM      4  O   UNL     1      43.592 128.331  22.693  1.00  0.00    -0.376 OA
BRANCH   4   5
ATOM      5  C   UNL     1      43.864 127.037  23.202  1.00  0.00     0.176 C 
BRANCH   5   6
ATOM      6  C   UNL     1      42.722 126.541  24.090  1.00  0.00     0.148 C 
BRANCH   6   7
ATOM      7  C   UNL     1      42.114 125.327  23.533  1.00  0.00     0.065 C 
ATOM      8  N   UNL     1      41.634 124.369  23.094  1.00  0.00    -0.198 NA
ENDBRANCH   6   7
ENDBRANCH   5   6
ENDBRANCH   4   5
ENDBRANCH   2   4
ENDBRANCH   1   2
BRANCH   1   9
ATOM      9  N   UNL     1      43.880 130.862  22.628  1.00  0.00    -0.347 N 
ATOM     10  C   UNL     1      43.833 130.588  23.947  1.00  0.00     0.086 A 
ATOM     11  C   UNL     1      43.018 131.883  22.407  1.00  0.00     0.037 A 
ATOM     12  C   UNL     1      42.948 131.442  24.576  1.00  0.00     0.020 A 
ATOM     13  C   UNL     1      42.431 132.268  23.597  1.00  0.00     0.025 A 
BRANCH  11  14
ATOM     14  C   UNL     1      42.745 132.526  21.076  1.00  0.00     0.170 C 
BRANCH  14  15
ATOM     15  N   UNL     1      43.696 132.043  20.080  1.00  0.00    -0.346 N 
ATOM     16  C   UNL     1      43.280 131.556  18.794  1.00  0.00     0.253 C 
ATOM     17  H   UNL     1      44.714 132.145  20.290  1.00  0.00     0.164 HD
ATOM     18  O   UNL     1      42.054 131.373  18.563  1.00  0.00    -0.269 OA
BRANCH  16  19
ATOM     19  C   UNL     1      44.281 131.235  17.750  1.00  0.00     0.064 A 
ATOM     20  C   UNL     1      45.484 130.588  18.138  1.00  0.00     0.017 A 
ATOM     21  C   UNL     1      44.057 131.533  16.371  1.00  0.00     0.069 A 
ATOM     22  C   UNL     1      46.456 130.237  17.190  1.00  0.00     0.011 A 
ATOM     23  C   UNL     1      45.053 131.158  15.456  1.00  0.00     0.070 A 
ATOM     24  C   UNL     1      46.205 130.536  15.859  1.00  0.00     0.002 A 
ATOM     25  N   UNL     1      45.075 131.356  14.124  1.00  0.00    -0.359 N 
ATOM     26  C   UNL     1      46.983 130.324  14.742  1.00  0.00     0.028 A 
ATOM     27  C   UNL     1      46.249 130.847  13.687  1.00  0.00     0.083 A 
ATOM     28  H   UNL     1      44.350 131.814  13.529  1.00  0.00     0.166 HD
BRANCH  21  29
ATOM     29  N   UNL     1      42.889 132.239  15.926  1.00  0.00    -0.396 N 
ATOM     30  H   UNL     1      42.431 132.971  16.509  1.00  0.00     0.156 HD
ATOM     31  H   UNL     1      42.505 132.102  14.966  1.00  0.00     0.156 HD
ENDBRANCH  21  29
ENDBRANCH  16  19
ENDBRANCH  14  15
ENDBRANCH  11  14
ENDBRANCH   1   9
TORSDOF 10
ENDMDL
MODEL 8
REMARK VINA RESULT:      -4.5      1.976      2.402
REMARK SMILES C[C@H](Cn1cccc1CNC(=O)c1ccc2cc[nH]c2c1N)OCCC#N
REMARK SMILES IDX 3 1 2 2 1 3 23 4 24 5 25 6 26 7 27 8 4 9 5 10 8 11 6 12 7 13
REMARK SMILES IDX 9 14 10 15 11 16 12 18 13 19 14 20 21 21 15 22 20 23 16 24
REMARK SMILES IDX 19 25 17 26 18 27 22 29
REMARK H PARENT 10 17 19 28 22 30 22 31
ROOT
ATOM      1  C   UNL     1      45.248 127.826  22.690  1.00  0.00     0.153 C 
ENDROOT
BRANCH   1   2
ATOM      2  C   UNL     1      45.424 126.426  23.303  1.00  0.00     0.135 C 
ATOM      3  C   UNL     1      44.155 126.020  24.052  1.00  0.00     0.040 C 
BRANCH   2   4
ATOM      4  O   UNL     1      45.657 125.483  22.268  1.00  0.00    -0.376 OA
BRANCH   4   5
ATOM      5  C   UNL     1      45.359 124.160  22.676  1.00  0.00     0.176 C 
BRANCH   5   6
ATOM      6  C   UNL     1      46.586 123.481  23.288  1.00  0.00     0.148 C 
BRANCH   6   7
ATOM      7  C   UNL     1      47.796 123.793  22.516  1.00  0.00     0.065 C 
ATOM      8  N   UNL     1      48.749 124.037  21.906  1.00  0.00    -0.198 NA
ENDBRANCH   6   7
ENDBRANCH   5   6
ENDBRANCH   4   5
ENDBRANCH   2   4
ENDBRANCH   1   2
BRANCH   1   9
ATOM      9  N   UNL     1      43.927 128.378  23.011  1.00  0.00    -0.347 N 
ATOM     10  C   UNL     1      42.864 127.655  23.415  1.00  0.00     0.086 A 
ATOM     11  C   UNL     1      43.539 129.676  23.004  1.00  0.00     0.037 A 
ATOM     12  C   UNL     1      41.796 128.489  23.678  1.00  0.00     0.020 A 
ATOM     13  C   UNL     1      42.225 129.776  23.420  1.00  0.00     0.025 A 
BRANCH  11  14
ATOM     14  C   UNL     1      44.403 130.846  22.624  1.00  0.00     0.170 C 
BRANCH  14  15
ATOM     15  N   UNL     1      44.176 131.207  21.228  1.00  0.00    -0.346 N 
ATOM     16  C   UNL     1      44.977 130.680  20.159  1.00  0.00     0.253 C 
ATOM     17  H   UNL     1      43.345 131.800  21.009  1.00  0.00     0.164 HD
ATOM     18  O   UNL     1      46.016 130.017  20.425  1.00  0.00    -0.269 OA
BRANCH  16  19
ATOM     19  C   UNL     1      44.609 130.935  18.746  1.00  0.00     0.064 A 
ATOM     20  C   UNL     1      43.357 131.546  18.470  1.00  0.00     0.017 A 
ATOM     21  C   UNL     1      45.485 130.611  17.666  1.00  0.00     0.069 A 
ATOM     22  C   UNL     1      42.966 131.837  17.155  1.00  0.00     0.011 A 
ATOM     23  C   UNL     1      45.057 130.924  16.367  1.00  0.00     0.070 A 
ATOM     24  C   UNL     1      43.843 131.513  16.129  1.00  0.00     0.002 A 
ATOM     25  N   UNL     1      45.694 130.691  15.203  1.00  0.00    -0.359 N 
ATOM     26  C   UNL     1      43.707 131.666  14.767  1.00  0.00     0.028 A 
ATOM     27  C   UNL     1      44.874 131.144  14.227  1.00  0.00     0.083 A 
ATOM     28  H   UNL     1      46.626 130.245  15.057  1.00  0.00     0.166 HD
BRANCH  21  29
ATOM     29  N   UNL     1      46.735 129.937  17.877  1.00  0.00    -0.396 N 
ATOM     30  H   UNL     1      47.263 129.495  17.095  1.00  0.00     0.156 HD
ATOM     31  H   UNL     1      47.201 129.938  18.810  1.00  0.00     0.156 HD
ENDBRANCH  21  29
ENDBRANCH  16  19
ENDBRANCH  14  15
ENDBRANCH  11  14
ENDBRANCH   1   9
TORSDOF 10
ENDMDL
MODEL 9
REMARK VINA RESULT:      -4.3      3.639      5.676
REMARK SMILES C[C@H](Cn1cccc1CNC(=O)c1ccc2cc[nH]c2c1N)OCCC#N
REMARK SMILES IDX 3 1 2 2 1 3 23 4 24 5 25 6 26 7 27 8 4 9 5 10 8 11 6 12 7 13
REMARK SMILES IDX 9 14 10 15 11 16 12 18 13 19 14 20 21 21 15 22 20 23 16 24
REMARK SMILES IDX 19 25 17 26 18 27 22 29
REMARK H PARENT 10 17 19 28 22 30 22 31
ROOT
ATOM      1  C   UNL     1      47.612 124.282  22.882  1.00  0.00     0.153 C 
ENDROOT
BRANCH   1   2
ATOM      2  C   UNL     1      47.897 122.978  22.117  1.00  0.00     0.135 C 
ATOM      3  C   UNL     1      48.006 123.264  20.619  1.00  0.00     0.040 C 
BRANCH   2   4
ATOM      4  O   UNL     1      49.129 122.429  22.561  1.00  0.00    -0.376 OA
BRANCH   4   5
ATOM      5  C   UNL     1      50.182 122.675  21.645  1.00  0.00     0.176 C 
BRANCH   5   6
ATOM      6  C   UNL     1      50.818 124.044  21.890  1.00  0.00     0.148 C 
BRANCH   6   7
ATOM      7  C   UNL     1      51.821 124.346  20.861  1.00  0.00     0.065 C 
ATOM      8  N   UNL     1      52.611 124.586  20.049  1.00  0.00    -0.198 NA
ENDBRANCH   6   7
ENDBRANCH   5   6
ENDBRANCH   4   5
ENDBRANCH   2   4
ENDBRANCH   1   2
BRANCH   1   9
ATOM      9  N   UNL     1      46.193 124.385  23.237  1.00  0.00    -0.347 N 
ATOM     10  C   UNL     1      45.247 123.482  22.909  1.00  0.00     0.086 A 
ATOM     11  C   UNL     1      45.582 125.347  23.968  1.00  0.00     0.037 A 
ATOM     12  C   UNL     1      44.029 123.860  23.440  1.00  0.00     0.020 A 
ATOM     13  C   UNL     1      44.241 125.045  24.116  1.00  0.00     0.025 A 
BRANCH  11  14
ATOM     14  C   UNL     1      46.251 126.558  24.555  1.00  0.00     0.170 C 
BRANCH  14  15
ATOM     15  N   UNL     1      45.563 127.771  24.125  1.00  0.00    -0.346 N 
ATOM     16  C   UNL     1      45.411 128.118  22.739  1.00  0.00     0.253 C 
ATOM     17  H   UNL     1      45.094 128.350  24.858  1.00  0.00     0.164 HD
ATOM     18  O   UNL     1      46.028 127.457  21.860  1.00  0.00    -0.269 OA
BRANCH  16  19
ATOM     19  C   UNL     1      44.562 129.264  22.338  1.00  0.00     0.064 A 
ATOM     20  C   UNL     1      43.455 129.609  23.157  1.00  0.00     0.017 A 
ATOM     21  C   UNL     1      44.843 130.041  21.173  1.00  0.00     0.069 A 
ATOM     22  C   UNL     1      42.632 130.699  22.843  1.00  0.00     0.011 A 
ATOM     23  C   UNL     1      43.997 131.128  20.899  1.00  0.00     0.070 A 
ATOM     24  C   UNL     1      42.935 131.437  21.707  1.00  0.00     0.002 A 
ATOM     25  N   UNL     1      44.048 131.978  19.856  1.00  0.00    -0.359 N 
ATOM     26  C   UNL     1      42.293 132.527  21.162  1.00  0.00     0.028 A 
ATOM     27  C   UNL     1      43.012 132.832  20.014  1.00  0.00     0.083 A 
ATOM     28  H   UNL     1      44.733 131.990  19.068  1.00  0.00     0.166 HD
BRANCH  21  29
ATOM     29  N   UNL     1      45.910 129.705  20.274  1.00  0.00    -0.396 N 
ATOM     30  H   UNL     1      46.555 130.428  19.888  1.00  0.00     0.156 HD
ATOM     31  H   UNL     1      46.130 128.714  20.038  1.00  0.00     0.156 HD
ENDBRANCH  21  29
ENDBRANCH  16  19
ENDBRANCH  14  15
ENDBRANCH  11  14
ENDBRANCH   1   9
TORSDOF 10
ENDMDL


