REMARK SMILES Cc1ccc(-c2cc(F)c3ncccc3c2)c(F)[nH+]1
REMARK SMILES IDX 6 1 7 2 8 3 9 4 10 5 11 6 12 7 13 8 14 9 15 10 16 11 5 12
REMARK SMILES IDX 2 13 3 14 19 15 4 16 17 17 1 18 18 20
REMARK H PARENT 19 19
ROOT
ATOM      1  C   UNL     1       0.253   0.865  -0.388  1.00  0.00    -0.005 A 
ATOM      2  C   UNL     1       0.506   2.247  -0.447  1.00  0.00     0.050 A 
ATOM      3  C   UNL     1      -0.332   3.095  -1.178  1.00  0.00     0.150 A 
ATOM      4  F   UNL     1      -0.067   4.425  -1.223  1.00  0.00    -0.205 F 
ATOM      5  C   UNL     1      -1.434   2.571  -1.862  1.00  0.00     0.106 A 
ATOM      6  N   UNL     1      -2.253   3.393  -2.574  1.00  0.00    -0.253 NA
ATOM      7  C   UNL     1      -3.332   2.916  -3.250  1.00  0.00     0.112 A 
ATOM      8  C   UNL     1      -3.627   1.550  -3.228  1.00  0.00     0.021 A 
ATOM      9  C   UNL     1      -2.806   0.681  -2.507  1.00  0.00     0.012 A 
ATOM     10  C   UNL     1      -1.697   1.184  -1.814  1.00  0.00     0.004 A 
ATOM     11  C   UNL     1      -0.853   0.339  -1.081  1.00  0.00     0.019 A 
ENDROOT
BRANCH   1  12
ATOM     12  C   UNL     1       1.149  -0.032   0.381  1.00  0.00     0.086 A 
ATOM     13  C   UNL     1       2.852  -1.708   1.826  1.00  0.00     0.179 A 
ATOM     14  C   UNL     1       2.453  -2.072   0.534  1.00  0.00     0.075 A 
ATOM     15  N   UNL     1       2.382  -0.551   2.377  1.00  0.00    -0.183 N 
ATOM     16  C   UNL     1       1.605  -1.231  -0.186  1.00  0.00     0.025 A 
ATOM     17  C   UNL     1       1.555   0.286   1.691  1.00  0.00     0.366 A 
ATOM     18  C   UNL     1       3.732  -2.622   2.626  1.00  0.00     0.123 C 
ATOM     19  H   UNL     1       2.654  -0.295   3.352  1.00  0.00     0.456 HD
ATOM     20  F   UNL     1       1.096   1.408   2.302  1.00  0.00    -0.136 F 
ENDBRANCH   1  12
TORSDOF 1


