REMARK SMILES C=CC(=O)N1CCC[C@@H](c2ccc3ccc(C)c(F)c3n2)[C@@H]1F
REMARK SMILES IDX 5 1 6 2 7 3 8 4 9 5 22 6 23 7 3 8 4 9 2 10 1 11 10 12 11 13
REMARK SMILES IDX 21 14 12 15 20 16 13 17 18 18 14 19 16 20 15 21 19 22 17 23
REMARK H PARENT
ROOT
ATOM      1  N   UNL     1       0.096  -1.315   0.836  1.00  0.00    -0.308 N 
ATOM      2  C   UNL     1       1.289  -2.084   1.207  1.00  0.00     0.123 C 
ATOM      3  C   UNL     1       2.545  -1.298   0.832  1.00  0.00     0.022 C 
ATOM      4  C   UNL     1       2.510   0.099   1.467  1.00  0.00     0.017 C 
ATOM      5  C   UNL     1       1.236   0.881   1.082  1.00  0.00     0.093 C 
ATOM      6  C   UNL     1      -0.038   0.051   1.369  1.00  0.00     0.274 C 
ATOM      7  F   UNL     1      -0.241  -0.015   2.737  1.00  0.00    -0.223 F 
ENDROOT
BRANCH   1   8
ATOM      8  C   UNL     1      -0.832  -1.843  -0.134  1.00  0.00     0.248 C 
ATOM      9  O   UNL     1      -0.396  -2.528  -1.099  1.00  0.00    -0.270 OA
BRANCH   8  10
ATOM     10  C   UNL     1      -2.286  -1.608  -0.048  1.00  0.00     0.063 C 
ATOM     11  C   UNL     1      -2.914  -1.384   1.104  1.00  0.00     0.014 C 
ENDBRANCH   8  10
ENDBRANCH   1   8
BRANCH   5  12
ATOM     12  C   UNL     1       1.311   1.373  -0.351  1.00  0.00     0.049 A 
ATOM     13  C   UNL     1       2.066   2.517  -0.656  1.00  0.00     0.025 A 
ATOM     14  N   UNL     1       0.691   0.694  -1.357  1.00  0.00    -0.249 NA
ATOM     15  C   UNL     1       2.161   2.952  -1.978  1.00  0.00     0.012 A 
ATOM     16  C   UNL     1       0.758   1.098  -2.654  1.00  0.00     0.106 A 
ATOM     17  C   UNL     1       1.505   2.246  -2.993  1.00  0.00     0.003 A 
ATOM     18  C   UNL     1       0.089   0.379  -3.654  1.00  0.00     0.152 A 
ATOM     19  C   UNL     1       1.582   2.659  -4.330  1.00  0.00     0.011 A 
ATOM     20  C   UNL     1       0.159   0.801  -4.993  1.00  0.00    -0.013 A 
ATOM     21  C   UNL     1       0.916   1.937  -5.324  1.00  0.00     0.007 A 
ATOM     22  F   UNL     1      -0.633  -0.723  -3.325  1.00  0.00    -0.204 F 
ATOM     23  C   UNL     1      -0.542   0.018  -6.066  1.00  0.00     0.047 C 
ENDBRANCH   5  12
TORSDOF 3


