REMARK SMILES O=C([N-][C@H]1C[C@H]1c1ccccc1)NCCc1ccc(-c2c[nH+]c3ccnn3c2)cc1
REMARK SMILES IDX 14 1 13 2 2 3 1 4 3 6 4 7 5 8 6 9 7 10 8 11 12 12 9 13 11 14
REMARK SMILES IDX 10 15 15 16 16 17 17 18 30 19 18 20 29 21 19 22 20 23 21 24
REMARK SMILES IDX 28 25 22 26 27 27 23 28 26 29 24 30 25 31
REMARK H PARENT 13 5 22 32
ROOT
ATOM      1  C   UNL     1      -3.447  -2.662   0.157  1.00  0.00     0.006 C 
ENDROOT
BRANCH   1   2
ATOM      2  N   UNL     1      -3.455  -1.801  -1.025  1.00  0.00    -0.449 N 
ATOM      3  C   UNL     1      -3.182  -0.397  -0.964  1.00  0.00     0.153 C 
ATOM      4  O   UNL     1      -3.218   0.216   0.138  1.00  0.00    -0.299 OA
ATOM      5  H   UNL     1      -3.478  -2.259  -1.964  1.00  0.00     0.024 HD
BRANCH   3   6
ATOM      6  N   UNL     1      -2.847   0.301  -2.163  1.00  0.00    -0.427 NA
BRANCH   6   7
ATOM      7  C   UNL     1      -2.536   1.726  -2.199  1.00  0.00     0.002 C 
ATOM      8  C   UNL     1      -1.177   2.061  -1.612  1.00  0.00     0.012 C 
ATOM      9  C   UNL     1      -1.381   2.110  -3.126  1.00  0.00     0.022 C 
BRANCH   9  10
ATOM     10  C   UNL     1      -0.700   0.999  -3.887  1.00  0.00    -0.045 A 
ATOM     11  C   UNL     1       0.675   0.763  -3.724  1.00  0.00     0.004 A 
ATOM     12  C   UNL     1      -1.418   0.246  -4.831  1.00  0.00     0.004 A 
ATOM     13  C   UNL     1       1.306  -0.257  -4.443  1.00  0.00     0.000 A 
ATOM     14  C   UNL     1      -0.784  -0.772  -5.549  1.00  0.00     0.000 A 
ATOM     15  C   UNL     1       0.575  -1.028  -5.350  1.00  0.00     0.000 A 
ENDBRANCH   9  10
ENDBRANCH   6   7
ENDBRANCH   3   6
ENDBRANCH   1   2
BRANCH   1  16
ATOM     16  C   UNL     1      -2.117  -3.415   0.265  1.00  0.00     0.034 C 
BRANCH  16  17
ATOM     17  C   UNL     1      -0.961  -2.471   0.477  1.00  0.00    -0.048 A 
ATOM     18  C   UNL     1      -0.190  -2.034  -0.611  1.00  0.00     0.004 A 
ATOM     19  C   UNL     1      -0.677  -1.983   1.760  1.00  0.00     0.004 A 
ATOM     20  C   UNL     1       0.863  -1.136  -0.415  1.00  0.00     0.009 A 
ATOM     21  C   UNL     1       0.375  -1.085   1.957  1.00  0.00     0.009 A 
ATOM     22  C   UNL     1       1.157  -0.651   0.872  1.00  0.00    -0.011 A 
BRANCH  22  23
ATOM     23  C   UNL     1       2.272   0.304   1.083  1.00  0.00     0.063 A 
ATOM     24  C   UNL     1       2.514   1.360   0.169  1.00  0.00     0.210 A 
ATOM     25  C   UNL     1       3.124   0.188   2.200  1.00  0.00     0.245 A 
ATOM     26  N   UNL     1       3.544   2.234   0.369  1.00  0.00    -0.245 N 
ATOM     27  N   UNL     1       4.126   1.089   2.335  1.00  0.00    -0.104 N 
ATOM     28  C   UNL     1       4.333   2.074   1.458  1.00  0.00     0.306 A 
ATOM     29  N   UNL     1       5.023   1.144   3.304  1.00  0.00    -0.086 NA
ATOM     30  C   UNL     1       5.414   2.828   1.851  1.00  0.00     0.125 A 
ATOM     31  C   UNL     1       5.822   2.203   3.027  1.00  0.00     0.167 A 
ATOM     32  H   UNL     1       3.715   3.013  -0.306  1.00  0.00     0.312 HD
ENDBRANCH  22  23
ENDBRANCH  16  17
ENDBRANCH   1  16
TORSDOF 7


