MODEL 1
REMARK VINA RESULT:      -6.5      0.000      0.000
REMARK SMILES C=Cc1cc(-c2cccc3ncoc23)cc(O/C(S)=[NH+]/[C@H](C)CC)c1F
REMARK SMILES IDX 18 1 19 2 17 4 16 5 15 6 25 7 5 8 3 9 4 10 26 11 6 12 7 13
REMARK SMILES IDX 14 14 8 15 13 16 10 17 9 18 12 19 11 20 2 21 1 22 20 23
REMARK SMILES IDX 21 25 22 26 23 27 24 28
REMARK H PARENT 19 3 20 24
ROOT
ATOM      1  C   UNL     1      45.444 130.558  18.129  1.00  0.00     0.401 C 
ENDROOT
BRANCH   1   2
ATOM      2  S   UNL     1      43.954 131.559  18.023  1.00  0.00    -0.031 SA
ATOM      3  H   UNL     1      43.497 131.109  19.275  1.00  0.00     0.118 HD
ENDBRANCH   1   2
BRANCH   1   4
ATOM      4  O   UNL     1      46.102 130.519  19.367  1.00  0.00    -0.397 OA
BRANCH   4   5
ATOM      5  C   UNL     1      45.481 130.251  20.597  1.00  0.00     0.171 A 
ATOM      6  C   UNL     1      45.375 128.942  21.098  1.00  0.00     0.059 A 
ATOM      7  C   UNL     1      44.919 131.313  21.315  1.00  0.00     0.173 A 
ATOM      8  C   UNL     1      44.735 128.692  22.320  1.00  0.00    -0.010 A 
ATOM      9  C   UNL     1      44.292 131.083  22.557  1.00  0.00     0.014 A 
ATOM     10  C   UNL     1      44.195 129.769  23.041  1.00  0.00     0.020 A 
ATOM     11  F   UNL     1      44.956 132.556  20.771  1.00  0.00    -0.202 F 
BRANCH   8  12
ATOM     12  C   UNL     1      44.644 127.307  22.843  1.00  0.00     0.027 A 
ATOM     13  C   UNL     1      43.526 126.877  23.600  1.00  0.00     0.013 A 
ATOM     14  C   UNL     1      45.655 126.362  22.624  1.00  0.00     0.162 A 
ATOM     15  C   UNL     1      43.452 125.554  24.093  1.00  0.00     0.003 A 
ATOM     16  O   UNL     1      46.789 126.497  21.988  1.00  0.00    -0.443 OA
ATOM     17  C   UNL     1      45.580 125.088  23.101  1.00  0.00     0.110 A 
ATOM     18  C   UNL     1      44.492 124.640  23.843  1.00  0.00     0.032 A 
ATOM     19  C   UNL     1      47.396 125.325  22.070  1.00  0.00     0.309 A 
ATOM     20  N   UNL     1      46.683 124.399  22.760  1.00  0.00    -0.217 NA
ENDBRANCH   8  12
BRANCH   9  21
ATOM     21  C   UNL     1      43.692 132.173  23.360  1.00  0.00     0.003 C 
ATOM     22  C   UNL     1      44.066 132.458  24.607  1.00  0.00     0.009 C 
ENDBRANCH   9  21
ENDBRANCH   4   5
ENDBRANCH   1   4
BRANCH   1  23
ATOM     23  N   UNL     1      45.930 129.920  17.094  1.00  0.00    -0.202 N 
ATOM     24  H   UNL     1      45.878 128.876  17.088  1.00  0.00     0.450 HD
BRANCH  23  25
ATOM     25  C   UNL     1      46.532 130.569  15.919  1.00  0.00     0.259 C 
ATOM     26  C   UNL     1      45.690 131.792  15.529  1.00  0.00     0.087 C 
BRANCH  25  27
ATOM     27  C   UNL     1      46.622 129.554  14.759  1.00  0.00     0.072 C 
ATOM     28  C   UNL     1      47.838 129.780  13.859  1.00  0.00     0.011 C 
ENDBRANCH  25  27
ENDBRANCH  23  25
ENDBRANCH   1  23
TORSDOF 8
ENDMDL
MODEL 2
REMARK VINA RESULT:      -4.5      2.319      7.021
REMARK SMILES C=Cc1cc(-c2cccc3ncoc23)cc(O/C(S)=[NH+]/[C@H](C)CC)c1F
REMARK SMILES IDX 18 1 19 2 17 4 16 5 15 6 25 7 5 8 3 9 4 10 26 11 6 12 7 13
REMARK SMILES IDX 14 14 8 15 13 16 10 17 9 18 12 19 11 20 2 21 1 22 20 23
REMARK SMILES IDX 21 25 22 26 23 27 24 28
REMARK H PARENT 19 3 20 24
ROOT
ATOM      1  C   UNL     1      45.421 128.263  21.974  1.00  0.00     0.401 C 
ENDROOT
BRANCH   1   2
ATOM      2  S   UNL     1      44.056 128.429  23.134  1.00  0.00    -0.031 SA
ATOM      3  H   UNL     1      43.099 128.244  22.120  1.00  0.00     0.118 HD
ENDBRANCH   1   2
BRANCH   1   4
ATOM      4  O   UNL     1      45.869 129.434  21.344  1.00  0.00    -0.397 OA
BRANCH   4   5
ATOM      5  C   UNL     1      45.079 130.263  20.533  1.00  0.00     0.171 A 
ATOM      6  C   UNL     1      45.222 130.278  19.135  1.00  0.00     0.059 A 
ATOM      7  C   UNL     1      44.159 131.124  21.142  1.00  0.00     0.173 A 
ATOM      8  C   UNL     1      44.436 131.127  18.343  1.00  0.00    -0.010 A 
ATOM      9  C   UNL     1      43.344 131.968  20.360  1.00  0.00     0.014 A 
ATOM     10  C   UNL     1      43.501 131.969  18.965  1.00  0.00     0.020 A 
ATOM     11  F   UNL     1      44.099 131.156  22.498  1.00  0.00    -0.202 F 
BRANCH   8  12
ATOM     12  C   UNL     1      44.588 131.121  16.867  1.00  0.00     0.027 A 
ATOM     13  C   UNL     1      43.622 131.724  16.025  1.00  0.00     0.013 A 
ATOM     14  C   UNL     1      45.683 130.515  16.236  1.00  0.00     0.162 A 
ATOM     15  C   UNL     1      43.780 131.710  14.620  1.00  0.00     0.003 A 
ATOM     16  O   UNL     1      46.692 129.876  16.765  1.00  0.00    -0.443 OA
ATOM     17  C   UNL     1      45.831 130.504  14.881  1.00  0.00     0.110 A 
ATOM     18  C   UNL     1      44.899 131.093  14.032  1.00  0.00     0.032 A 
ATOM     19  C   UNL     1      47.448 129.484  15.753  1.00  0.00     0.309 A 
ATOM     20  N   UNL     1      46.955 129.850  14.542  1.00  0.00    -0.217 NA
ENDBRANCH   8  12
BRANCH   9  21
ATOM     21  C   UNL     1      42.348 132.889  20.955  1.00  0.00     0.003 C 
ATOM     22  C   UNL     1      41.209 133.227  20.352  1.00  0.00     0.009 C 
ENDBRANCH   9  21
ENDBRANCH   4   5
ENDBRANCH   1   4
BRANCH   1  23
ATOM     23  N   UNL     1      45.956 127.104  21.687  1.00  0.00    -0.202 N 
ATOM     24  H   UNL     1      46.349 126.964  20.729  1.00  0.00     0.450 HD
BRANCH  23  25
ATOM     25  C   UNL     1      46.065 125.978  22.628  1.00  0.00     0.259 C 
ATOM     26  C   UNL     1      46.747 126.459  23.917  1.00  0.00     0.087 C 
BRANCH  25  27
ATOM     27  C   UNL     1      46.855 124.828  21.967  1.00  0.00     0.072 C 
ATOM     28  C   UNL     1      46.098 123.499  21.978  1.00  0.00     0.011 C 
ENDBRANCH  25  27
ENDBRANCH  23  25
ENDBRANCH   1  23
TORSDOF 8
ENDMDL
MODEL 3
REMARK VINA RESULT:      -4.5      4.021      7.144
REMARK SMILES C=Cc1cc(-c2cccc3ncoc23)cc(O/C(S)=[NH+]/[C@H](C)CC)c1F
REMARK SMILES IDX 18 1 19 2 17 4 16 5 15 6 25 7 5 8 3 9 4 10 26 11 6 12 7 13
REMARK SMILES IDX 14 14 8 15 13 16 10 17 9 18 12 19 11 20 2 21 1 22 20 23
REMARK SMILES IDX 21 25 22 26 23 27 24 28
REMARK H PARENT 19 3 20 24
ROOT
ATOM      1  C   UNL     1      48.452 124.537  23.245  1.00  0.00     0.401 C 
ENDROOT
BRANCH   1   2
ATOM      2  S   UNL     1      49.276 123.078  23.898  1.00  0.00    -0.031 SA
ATOM      3  H   UNL     1      48.319 122.216  23.332  1.00  0.00     0.118 HD
ENDBRANCH   1   2
BRANCH   1   4
ATOM      4  O   UNL     1      47.405 125.075  24.008  1.00  0.00    -0.397 OA
BRANCH   4   5
ATOM      5  C   UNL     1      46.230 125.631  23.480  1.00  0.00     0.171 A 
ATOM      6  C   UNL     1      45.931 126.996  23.628  1.00  0.00     0.059 A 
ATOM      7  C   UNL     1      45.317 124.790  22.832  1.00  0.00     0.173 A 
ATOM      8  C   UNL     1      44.742 127.529  23.109  1.00  0.00    -0.010 A 
ATOM      9  C   UNL     1      44.128 125.313  22.285  1.00  0.00     0.014 A 
ATOM     10  C   UNL     1      43.846 126.679  22.441  1.00  0.00     0.020 A 
ATOM     11  F   UNL     1      45.585 123.460  22.779  1.00  0.00    -0.202 F 
BRANCH   8  12
ATOM     12  C   UNL     1      44.447 128.976  23.259  1.00  0.00     0.027 A 
ATOM     13  C   UNL     1      43.898 129.495  24.457  1.00  0.00     0.013 A 
ATOM     14  C   UNL     1      44.688 129.893  22.227  1.00  0.00     0.162 A 
ATOM     15  C   UNL     1      43.622 130.876  24.585  1.00  0.00     0.003 A 
ATOM     16  O   UNL     1      45.161 129.682  21.028  1.00  0.00    -0.443 OA
ATOM     17  C   UNL     1      44.420 131.223  22.355  1.00  0.00     0.110 A 
ATOM     18  C   UNL     1      43.885 131.759  23.522  1.00  0.00     0.032 A 
ATOM     19  C   UNL     1      45.188 130.863  20.433  1.00  0.00     0.309 A 
ATOM     20  N   UNL     1      44.731 131.871  21.220  1.00  0.00    -0.217 NA
ENDBRANCH   8  12
BRANCH   9  21
ATOM     21  C   UNL     1      43.137 124.468  21.580  1.00  0.00     0.003 C 
ATOM     22  C   UNL     1      41.980 124.086  22.120  1.00  0.00     0.009 C 
ENDBRANCH   9  21
ENDBRANCH   4   5
ENDBRANCH   1   4
BRANCH   1  23
ATOM     23  N   UNL     1      48.774 125.061  22.090  1.00  0.00    -0.202 N 
ATOM     24  H   UNL     1      48.004 125.346  21.444  1.00  0.00     0.450 HD
BRANCH  23  25
ATOM     25  C   UNL     1      50.153 125.303  21.637  1.00  0.00     0.259 C 
ATOM     26  C   UNL     1      50.612 124.128  20.762  1.00  0.00     0.087 C 
BRANCH  25  27
ATOM     27  C   UNL     1      51.074 125.487  22.863  1.00  0.00     0.072 C 
ATOM     28  C   UNL     1      52.129 126.576  22.660  1.00  0.00     0.011 C 
ENDBRANCH  25  27
ENDBRANCH  23  25
ENDBRANCH   1  23
TORSDOF 8
ENDMDL
MODEL 4
REMARK VINA RESULT:      -4.0      2.364      3.516
REMARK SMILES C=Cc1cc(-c2cccc3ncoc23)cc(O/C(S)=[NH+]/[C@H](C)CC)c1F
REMARK SMILES IDX 18 1 19 2 17 4 16 5 15 6 25 7 5 8 3 9 4 10 26 11 6 12 7 13
REMARK SMILES IDX 14 14 8 15 13 16 10 17 9 18 12 19 11 20 2 21 1 22 20 23
REMARK SMILES IDX 21 25 22 26 23 27 24 28
REMARK H PARENT 19 3 20 24
ROOT
ATOM      1  C   UNL     1      45.844 130.709  20.171  1.00  0.00     0.401 C 
ENDROOT
BRANCH   1   2
ATOM      2  S   UNL     1      45.961 132.351  20.893  1.00  0.00    -0.031 SA
ATOM      3  H   UNL     1      46.051 131.832  22.198  1.00  0.00     0.118 HD
ENDBRANCH   1   2
BRANCH   1   4
ATOM      4  O   UNL     1      46.213 129.626  20.983  1.00  0.00    -0.397 OA
BRANCH   4   5
ATOM      5  C   UNL     1      45.335 128.903  21.805  1.00  0.00     0.171 A 
ATOM      6  C   UNL     1      45.354 127.498  21.845  1.00  0.00     0.059 A 
ATOM      7  C   UNL     1      44.392 129.603  22.566  1.00  0.00     0.173 A 
ATOM      8  C   UNL     1      44.456 126.793  22.658  1.00  0.00    -0.010 A 
ATOM      9  C   UNL     1      43.496 128.911  23.407  1.00  0.00     0.014 A 
ATOM     10  C   UNL     1      43.530 127.508  23.434  1.00  0.00     0.020 A 
ATOM     11  F   UNL     1      44.334 130.954  22.445  1.00  0.00    -0.202 F 
BRANCH   8  12
ATOM     12  C   UNL     1      44.497 125.310  22.702  1.00  0.00     0.027 A 
ATOM     13  C   UNL     1      45.665 124.617  23.107  1.00  0.00     0.013 A 
ATOM     14  C   UNL     1      43.394 124.525  22.340  1.00  0.00     0.162 A 
ATOM     15  C   UNL     1      45.690 123.204  23.144  1.00  0.00     0.003 A 
ATOM     16  O   UNL     1      42.217 124.900  21.913  1.00  0.00    -0.443 OA
ATOM     17  C   UNL     1      43.423 123.163  22.377  1.00  0.00     0.110 A 
ATOM     18  C   UNL     1      44.555 122.460  22.774  1.00  0.00     0.032 A 
ATOM     19  C   UNL     1      41.535 123.788  21.697  1.00  0.00     0.309 A 
ATOM     20  N   UNL     1      42.244 122.662  21.970  1.00  0.00    -0.217 NA
ENDBRANCH   8  12
BRANCH   9  21
ATOM     21  C   UNL     1      42.489 129.606  24.240  1.00  0.00     0.003 C 
ATOM     22  C   UNL     1      42.217 130.906  24.133  1.00  0.00     0.009 C 
ENDBRANCH   9  21
ENDBRANCH   4   5
ENDBRANCH   1   4
BRANCH   1  23
ATOM     23  N   UNL     1      45.472 130.517  18.931  1.00  0.00    -0.202 N 
ATOM     24  H   UNL     1      46.112 129.984  18.300  1.00  0.00     0.450 HD
BRANCH  23  25
ATOM     25  C   UNL     1      44.200 130.983  18.358  1.00  0.00     0.259 C 
ATOM     26  C   UNL     1      44.481 131.763  17.065  1.00  0.00     0.087 C 
BRANCH  25  27
ATOM     27  C   UNL     1      43.457 131.856  19.393  1.00  0.00     0.072 C 
ATOM     28  C   UNL     1      42.050 132.252  18.940  1.00  0.00     0.011 C 
ENDBRANCH  25  27
ENDBRANCH  23  25
ENDBRANCH   1  23
TORSDOF 8
ENDMDL
MODEL 5
REMARK VINA RESULT:      -3.9      3.988      6.530
REMARK SMILES C=Cc1cc(-c2cccc3ncoc23)cc(O/C(S)=[NH+]/[C@H](C)CC)c1F
REMARK SMILES IDX 18 1 19 2 17 4 16 5 15 6 25 7 5 8 3 9 4 10 26 11 6 12 7 13
REMARK SMILES IDX 14 14 8 15 13 16 10 17 9 18 12 19 11 20 2 21 1 22 20 23
REMARK SMILES IDX 21 25 22 26 23 27 24 28
REMARK H PARENT 19 3 20 24
ROOT
ATOM      1  C   UNL     1      44.782 131.735  18.294  1.00  0.00     0.401 C 
ENDROOT
BRANCH   1   2
ATOM      2  S   UNL     1      42.991 131.842  18.416  1.00  0.00    -0.031 SA
ATOM      3  H   UNL     1      42.816 130.628  17.727  1.00  0.00     0.118 HD
ENDBRANCH   1   2
BRANCH   1   4
ATOM      4  O   UNL     1      45.463 131.160  19.377  1.00  0.00    -0.397 OA
BRANCH   4   5
ATOM      5  C   UNL     1      45.657 131.778  20.622  1.00  0.00     0.171 A 
ATOM      6  C   UNL     1      46.821 132.513  20.905  1.00  0.00     0.059 A 
ATOM      7  C   UNL     1      44.684 131.616  21.615  1.00  0.00     0.173 A 
ATOM      8  C   UNL     1      47.005 133.108  22.162  1.00  0.00    -0.010 A 
ATOM      9  C   UNL     1      44.842 132.226  22.877  1.00  0.00     0.014 A 
ATOM     10  C   UNL     1      46.011 132.957  23.141  1.00  0.00     0.020 A 
ATOM     11  F   UNL     1      43.610 130.830  21.349  1.00  0.00    -0.202 F 
BRANCH   8  12
ATOM     12  C   UNL     1      48.232 133.894  22.441  1.00  0.00     0.027 A 
ATOM     13  C   UNL     1      49.193 133.450  23.382  1.00  0.00     0.013 A 
ATOM     14  C   UNL     1      48.496 135.110  21.798  1.00  0.00     0.162 A 
ATOM     15  C   UNL     1      50.357 134.210  23.639  1.00  0.00     0.003 A 
ATOM     16  O   UNL     1      47.777 135.753  20.916  1.00  0.00    -0.443 OA
ATOM     17  C   UNL     1      49.620 135.840  22.048  1.00  0.00     0.110 A 
ATOM     18  C   UNL     1      50.581 135.424  22.965  1.00  0.00     0.032 A 
ATOM     19  C   UNL     1      48.451 136.853  20.626  1.00  0.00     0.309 A 
ATOM     20  N   UNL     1      49.619 136.963  21.310  1.00  0.00    -0.217 NA
ENDBRANCH   8  12
BRANCH   9  21
ATOM     21  C   UNL     1      43.836 132.095  23.956  1.00  0.00     0.003 C 
ATOM     22  C   UNL     1      43.619 130.963  24.625  1.00  0.00     0.009 C 
ENDBRANCH   9  21
ENDBRANCH   4   5
ENDBRANCH   1   4
BRANCH   1  23
ATOM     23  N   UNL     1      45.440 132.204  17.265  1.00  0.00    -0.202 N 
ATOM     24  H   UNL     1      45.791 133.188  17.309  1.00  0.00     0.450 HD
BRANCH  23  25
ATOM     25  C   UNL     1      45.745 131.437  16.046  1.00  0.00     0.259 C 
ATOM     26  C   UNL     1      44.604 131.618  15.035  1.00  0.00     0.087 C 
BRANCH  25  27
ATOM     27  C   UNL     1      45.947 129.950  16.410  1.00  0.00     0.072 C 
ATOM     28  C   UNL     1      45.485 128.997  15.306  1.00  0.00     0.011 C 
ENDBRANCH  25  27
ENDBRANCH  23  25
ENDBRANCH   1  23
TORSDOF 8
ENDMDL


