MODEL 1
REMARK VINA RESULT:      -7.0      0.000      0.000
REMARK SMILES Cc1cc(NN)c([O-])c([O-])c1F
REMARK SMILES IDX 5 1 4 3 2 4 3 5 11 6 9 7 7 8 1 9 12 10 10 11 8 12 6 13
REMARK H PARENT 5 2 6 14 6 15
ROOT
ATOM      1  N   UNL     1      45.798 130.288  18.376  1.00  0.00    -0.325 N 
ATOM      2  H   UNL     1      46.154 129.396  18.786  1.00  0.00     0.181 HD
ENDROOT
BRANCH   1   3
ATOM      3  C   UNL     1      45.789 130.464  16.945  1.00  0.00     0.040 A 
ATOM      4  C   UNL     1      46.835 130.182  14.753  1.00  0.00    -0.014 A 
ATOM      5  C   UNL     1      46.850 129.998  16.144  1.00  0.00     0.032 A 
ATOM      6  C   UNL     1      45.735 130.815  14.152  1.00  0.00     0.117 A 
ATOM      7  C   UNL     1      44.677 131.279  14.936  1.00  0.00    -0.078 A 
ATOM      8  C   UNL     1      44.700 131.109  16.326  1.00  0.00    -0.089 A 
ATOM      9  C   UNL     1      47.959 129.659  13.906  1.00  0.00     0.047 C 
ATOM     10  F   UNL     1      45.691 130.979  12.804  1.00  0.00    -0.207 F 
ATOM     11  O   UNL     1      43.596 131.912  14.333  1.00  0.00    -0.871 OA
ATOM     12  O   UNL     1      43.637 131.582  17.087  1.00  0.00    -0.871 OA
ENDBRANCH   1   3
BRANCH   1  13
ATOM     13  N   UNL     1      45.345 131.273  19.271  1.00  0.00    -0.250 NA
ATOM     14  H   UNL     1      45.978 132.100  19.190  1.00  0.00     0.143 HD
ATOM     15  H   UNL     1      45.413 130.886  20.240  1.00  0.00     0.143 HD
ENDBRANCH   1  13
TORSDOF 2
ENDMDL
MODEL 2
REMARK VINA RESULT:      -6.8      2.606      3.702
REMARK SMILES Cc1cc(NN)c([O-])c([O-])c1F
REMARK SMILES IDX 5 1 4 3 2 4 3 5 11 6 9 7 7 8 1 9 12 10 10 11 8 12 6 13
REMARK H PARENT 5 2 6 14 6 15
ROOT
ATOM      1  N   UNL     1      47.665 129.772  15.310  1.00  0.00    -0.325 N 
ATOM      2  H   UNL     1      48.566 129.988  15.791  1.00  0.00     0.181 HD
ENDROOT
BRANCH   1   3
ATOM      3  C   UNL     1      46.439 130.363  15.788  1.00  0.00     0.040 A 
ATOM      4  C   UNL     1      44.976 131.051  17.622  1.00  0.00    -0.014 A 
ATOM      5  C   UNL     1      46.175 130.483  17.167  1.00  0.00     0.032 A 
ATOM      6  C   UNL     1      44.040 131.528  16.690  1.00  0.00     0.117 A 
ATOM      7  C   UNL     1      44.292 131.414  15.321  1.00  0.00    -0.078 A 
ATOM      8  C   UNL     1      45.482 130.834  14.867  1.00  0.00    -0.089 A 
ATOM      9  C   UNL     1      44.716 131.200  19.093  1.00  0.00     0.047 C 
ATOM     10  F   UNL     1      42.884 132.104  17.112  1.00  0.00    -0.207 F 
ATOM     11  O   UNL     1      43.356 131.882  14.405  1.00  0.00    -0.871 OA
ATOM     12  O   UNL     1      45.711 130.728  13.499  1.00  0.00    -0.871 OA
ENDBRANCH   1   3
BRANCH   1  13
ATOM     13  N   UNL     1      47.716 128.904  14.205  1.00  0.00    -0.250 NA
ATOM     14  H   UNL     1      47.708 129.484  13.337  1.00  0.00     0.143 HD
ATOM     15  H   UNL     1      46.857 128.307  14.223  1.00  0.00     0.143 HD
ENDBRANCH   1  13
TORSDOF 2
ENDMDL
MODEL 3
REMARK VINA RESULT:      -6.3      3.055      3.951
REMARK SMILES Cc1cc(NN)c([O-])c([O-])c1F
REMARK SMILES IDX 5 1 4 3 2 4 3 5 11 6 9 7 7 8 1 9 12 10 10 11 8 12 6 13
REMARK H PARENT 5 2 6 14 6 15
ROOT
ATOM      1  N   UNL     1      45.225 131.091  21.669  1.00  0.00    -0.325 N 
ATOM      2  H   UNL     1      46.126 131.535  21.958  1.00  0.00     0.181 HD
ENDROOT
BRANCH   1   3
ATOM      3  C   UNL     1      44.747 131.259  20.319  1.00  0.00     0.040 A 
ATOM      4  C   UNL     1      45.073 131.085  17.902  1.00  0.00    -0.014 A 
ATOM      5  C   UNL     1      45.545 130.910  19.212  1.00  0.00     0.032 A 
ATOM      6  C   UNL     1      43.780 131.591  17.696  1.00  0.00     0.117 A 
ATOM      7  C   UNL     1      42.980 131.939  18.786  1.00  0.00    -0.078 A 
ATOM      8  C   UNL     1      43.457 131.778  20.093  1.00  0.00    -0.089 A 
ATOM      9  C   UNL     1      45.921 130.684  16.730  1.00  0.00     0.047 C 
ATOM     10  F   UNL     1      43.296 131.743  16.435  1.00  0.00    -0.207 F 
ATOM     11  O   UNL     1      41.703 132.446  18.572  1.00  0.00    -0.871 OA
ATOM     12  O   UNL     1      42.644 132.135  21.163  1.00  0.00    -0.871 OA
ENDBRANCH   1   3
BRANCH   1  13
ATOM     13  N   UNL     1      44.533 130.347  22.640  1.00  0.00    -0.250 NA
ATOM     14  H   UNL     1      43.857 130.986  23.116  1.00  0.00     0.143 HD
ATOM     15  H   UNL     1      45.228 130.003  23.341  1.00  0.00     0.143 HD
ENDBRANCH   1  13
TORSDOF 2
ENDMDL
MODEL 4
REMARK VINA RESULT:      -6.3      3.664      4.943
REMARK SMILES Cc1cc(NN)c([O-])c([O-])c1F
REMARK SMILES IDX 5 1 4 3 2 4 3 5 11 6 9 7 7 8 1 9 12 10 10 11 8 12 6 13
REMARK H PARENT 5 2 6 14 6 15
ROOT
ATOM      1  N   UNL     1      46.236 130.312  17.091  1.00  0.00    -0.325 N 
ATOM      2  H   UNL     1      47.184 130.745  17.023  1.00  0.00     0.181 HD
ENDROOT
BRANCH   1   3
ATOM      3  C   UNL     1      45.288 130.815  18.055  1.00  0.00     0.040 A 
ATOM      4  C   UNL     1      44.614 131.236  20.367  1.00  0.00    -0.014 A 
ATOM      5  C   UNL     1      45.548 130.751  19.438  1.00  0.00     0.032 A 
ATOM      6  C   UNL     1      43.419 131.813  19.909  1.00  0.00     0.117 A 
ATOM      7  C   UNL     1      43.152 131.882  18.539  1.00  0.00    -0.078 A 
ATOM      8  C   UNL     1      44.077 131.385  17.613  1.00  0.00    -0.089 A 
ATOM      9  C   UNL     1      44.912 131.188  21.838  1.00  0.00     0.047 C 
ATOM     10  F   UNL     1      42.515 132.310  20.792  1.00  0.00    -0.207 F 
ATOM     11  O   UNL     1      41.963 132.448  18.095  1.00  0.00    -0.871 OA
ATOM     12  O   UNL     1      43.789 131.461  16.255  1.00  0.00    -0.871 OA
ENDBRANCH   1   3
BRANCH   1  13
ATOM     13  N   UNL     1      45.949 129.248  16.219  1.00  0.00    -0.250 NA
ATOM     14  H   UNL     1      44.970 129.366  15.876  1.00  0.00     0.143 HD
ATOM     15  H   UNL     1      46.015 128.357  16.762  1.00  0.00     0.143 HD
ENDBRANCH   1  13
TORSDOF 2
ENDMDL
MODEL 5
REMARK VINA RESULT:      -6.1      3.257      3.984
REMARK SMILES Cc1cc(NN)c([O-])c([O-])c1F
REMARK SMILES IDX 5 1 4 3 2 4 3 5 11 6 9 7 7 8 1 9 12 10 10 11 8 12 6 13
REMARK H PARENT 5 2 6 14 6 15
ROOT
ATOM      1  N   UNL     1      41.786 132.516  18.613  1.00  0.00    -0.325 N 
ATOM      2  H   UNL     1      40.903 132.284  18.104  1.00  0.00     0.181 HD
ENDROOT
BRANCH   1   3
ATOM      3  C   UNL     1      43.031 131.924  18.191  1.00  0.00     0.040 A 
ATOM      4  C   UNL     1      44.538 131.153  16.427  1.00  0.00    -0.014 A 
ATOM      5  C   UNL     1      43.327 131.738  16.826  1.00  0.00     0.032 A 
ATOM      6  C   UNL     1      45.476 130.773  17.400  1.00  0.00     0.117 A 
ATOM      7  C   UNL     1      45.193 130.955  18.756  1.00  0.00    -0.078 A 
ATOM      8  C   UNL     1      43.978 131.524  19.155  1.00  0.00    -0.089 A 
ATOM      9  C   UNL     1      44.855 130.983  14.969  1.00  0.00     0.047 C 
ATOM     10  F   UNL     1      46.665 130.229  17.032  1.00  0.00    -0.207 F 
ATOM     11  O   UNL     1      46.125 130.568  19.713  1.00  0.00    -0.871 OA
ATOM     12  O   UNL     1      43.717 131.693  20.510  1.00  0.00    -0.871 OA
ENDBRANCH   1   3
BRANCH   1  13
ATOM     13  N   UNL     1      41.690 133.409  19.695  1.00  0.00    -0.250 NA
ATOM     14  H   UNL     1      42.586 133.365  20.230  1.00  0.00     0.143 HD
ATOM     15  H   UNL     1      40.909 133.087  20.311  1.00  0.00     0.143 HD
ENDBRANCH   1  13
TORSDOF 2
ENDMDL
MODEL 6
REMARK VINA RESULT:      -6.1      1.991      2.662
REMARK SMILES Cc1cc(NN)c([O-])c([O-])c1F
REMARK SMILES IDX 5 1 4 3 2 4 3 5 11 6 9 7 7 8 1 9 12 10 10 11 8 12 6 13
REMARK H PARENT 5 2 6 14 6 15
ROOT
ATOM      1  N   UNL     1      46.123 130.568  19.969  1.00  0.00    -0.325 N 
ATOM      2  H   UNL     1      46.553 129.624  20.086  1.00  0.00     0.181 HD
ENDROOT
BRANCH   1   3
ATOM      3  C   UNL     1      45.410 130.884  18.755  1.00  0.00     0.040 A 
ATOM      4  C   UNL     1      45.270 130.940  16.316  1.00  0.00    -0.014 A 
ATOM      5  C   UNL     1      45.969 130.621  17.490  1.00  0.00     0.032 A 
ATOM      6  C   UNL     1      43.988 131.503  16.406  1.00  0.00     0.117 A 
ATOM      7  C   UNL     1      43.423 131.767  17.657  1.00  0.00    -0.078 A 
ATOM      8  C   UNL     1      44.128 131.462  18.828  1.00  0.00    -0.089 A 
ATOM      9  C   UNL     1      45.864 130.631  14.971  1.00  0.00     0.047 C 
ATOM     10  F   UNL     1      43.286 131.795  15.281  1.00  0.00    -0.207 F 
ATOM     11  O   UNL     1      42.155 132.332  17.736  1.00  0.00    -0.871 OA
ATOM     12  O   UNL     1      43.547 131.736  20.062  1.00  0.00    -0.871 OA
ENDBRANCH   1   3
BRANCH   1  13
ATOM     13  N   UNL     1      46.275 131.482  21.027  1.00  0.00    -0.250 NA
ATOM     14  H   UNL     1      45.345 131.600  21.488  1.00  0.00     0.143 HD
ATOM     15  H   UNL     1      46.573 132.398  20.622  1.00  0.00     0.143 HD
ENDBRANCH   1  13
TORSDOF 2
ENDMDL
MODEL 7
REMARK VINA RESULT:      -6.0      3.333      4.465
REMARK SMILES Cc1cc(NN)c([O-])c([O-])c1F
REMARK SMILES IDX 5 1 4 3 2 4 3 5 11 6 9 7 7 8 1 9 12 10 10 11 8 12 6 13
REMARK H PARENT 5 2 6 14 6 15
ROOT
ATOM      1  N   UNL     1      46.072 130.839  15.732  1.00  0.00    -0.325 N 
ATOM      2  H   UNL     1      46.401 129.871  15.520  1.00  0.00     0.181 HD
ENDROOT
BRANCH   1   3
ATOM      3  C   UNL     1      45.314 131.088  16.934  1.00  0.00     0.040 A 
ATOM      4  C   UNL     1      45.119 131.100  19.371  1.00  0.00    -0.014 A 
ATOM      5  C   UNL     1      45.869 130.862  18.209  1.00  0.00     0.032 A 
ATOM      6  C   UNL     1      43.810 131.593  19.260  1.00  0.00     0.117 A 
ATOM      7  C   UNL     1      43.250 131.822  18.000  1.00  0.00    -0.078 A 
ATOM      8  C   UNL     1      43.993 131.570  16.841  1.00  0.00    -0.089 A 
ATOM      9  C   UNL     1      45.730 130.882  20.725  1.00  0.00     0.047 C 
ATOM     10  F   UNL     1      43.078 131.854  20.374  1.00  0.00    -0.207 F 
ATOM     11  O   UNL     1      41.949 132.303  17.900  1.00  0.00    -0.871 OA
ATOM     12  O   UNL     1      43.415 131.802  15.597  1.00  0.00    -0.871 OA
ENDBRANCH   1   3
BRANCH   1  13
ATOM     13  N   UNL     1      46.401 131.849  14.812  1.00  0.00    -0.250 NA
ATOM     14  H   UNL     1      45.988 131.591  13.888  1.00  0.00     0.143 HD
ATOM     15  H   UNL     1      47.442 131.878  14.722  1.00  0.00     0.143 HD
ENDBRANCH   1  13
TORSDOF 2
ENDMDL
MODEL 8
REMARK VINA RESULT:      -5.9      4.051      5.554
REMARK SMILES Cc1cc(NN)c([O-])c([O-])c1F
REMARK SMILES IDX 5 1 4 3 2 4 3 5 11 6 9 7 7 8 1 9 12 10 10 11 8 12 6 13
REMARK H PARENT 5 2 6 14 6 15
ROOT
ATOM      1  N   UNL     1      43.976 131.430  15.783  1.00  0.00    -0.325 N 
ATOM      2  H   UNL     1      43.197 130.921  15.306  1.00  0.00     0.181 HD
ENDROOT
BRANCH   1   3
ATOM      3  C   UNL     1      43.994 131.520  17.223  1.00  0.00     0.040 A 
ATOM      4  C   UNL     1      42.949 132.174  19.333  1.00  0.00    -0.014 A 
ATOM      5  C   UNL     1      42.916 132.084  17.933  1.00  0.00     0.032 A 
ATOM      6  C   UNL     1      44.058 131.674  20.033  1.00  0.00     0.117 A 
ATOM      7  C   UNL     1      45.131 131.112  19.338  1.00  0.00    -0.078 A 
ATOM      8  C   UNL     1      45.105 131.035  17.940  1.00  0.00    -0.089 A 
ATOM      9  C   UNL     1      41.783 132.753  20.083  1.00  0.00     0.047 C 
ATOM     10  F   UNL     1      44.095 131.730  21.390  1.00  0.00    -0.207 F 
ATOM     11  O   UNL     1      46.229 130.625  20.039  1.00  0.00    -0.871 OA
ATOM     12  O   UNL     1      46.187 130.474  17.268  1.00  0.00    -0.871 OA
ENDBRANCH   1   3
BRANCH   1  13
ATOM     13  N   UNL     1      44.969 131.999  14.968  1.00  0.00    -0.250 NA
ATOM     14  H   UNL     1      44.572 132.117  14.009  1.00  0.00     0.143 HD
ATOM     15  H   UNL     1      45.773 131.332  14.924  1.00  0.00     0.143 HD
ENDBRANCH   1  13
TORSDOF 2
ENDMDL
MODEL 9
REMARK VINA RESULT:      -5.9      3.203      4.367
REMARK SMILES Cc1cc(NN)c([O-])c([O-])c1F
REMARK SMILES IDX 5 1 4 3 2 4 3 5 11 6 9 7 7 8 1 9 12 10 10 11 8 12 6 13
REMARK H PARENT 5 2 6 14 6 15
ROOT
ATOM      1  N   UNL     1      46.365 129.718  16.189  1.00  0.00    -0.325 N 
ATOM      2  H   UNL     1      47.367 129.985  16.065  1.00  0.00     0.181 HD
ENDROOT
BRANCH   1   3
ATOM      3  C   UNL     1      45.562 130.394  17.178  1.00  0.00     0.040 A 
ATOM      4  C   UNL     1      45.169 131.109  19.482  1.00  0.00    -0.014 A 
ATOM      5  C   UNL     1      45.963 130.456  18.527  1.00  0.00     0.032 A 
ATOM      6  C   UNL     1      43.974 131.728  19.082  1.00  0.00     0.117 A 
ATOM      7  C   UNL     1      43.568 131.673  17.747  1.00  0.00    -0.078 A 
ATOM      8  C   UNL     1      44.353 131.009  16.796  1.00  0.00    -0.089 A 
ATOM      9  C   UNL     1      45.618 131.193  20.913  1.00  0.00     0.047 C 
ATOM     10  F   UNL     1      43.206 132.387  19.988  1.00  0.00    -0.207 F 
ATOM     11  O   UNL     1      42.379 132.283  17.361  1.00  0.00    -0.871 OA
ATOM     12  O   UNL     1      43.927 130.964  15.473  1.00  0.00    -0.871 OA
ENDBRANCH   1   3
BRANCH   1  13
ATOM     13  N   UNL     1      45.863 128.698  15.362  1.00  0.00    -0.250 NA
ATOM     14  H   UNL     1      45.354 129.147  14.568  1.00  0.00     0.143 HD
ATOM     15  H   UNL     1      45.187 128.131  15.922  1.00  0.00     0.143 HD
ENDBRANCH   1  13
TORSDOF 2
ENDMDL


