REMARK SMILES Cc1ccc(-c2ccc(O)cc2)c2c[nH][nH+]c12
REMARK SMILES IDX 6 1 7 2 8 3 9 4 11 5 12 6 5 7 2 8 3 9 17 10 4 11 16 12 13 13
REMARK SMILES IDX 15 14 14 15 1 16 10 19
REMARK H PARENT 16 17 15 18 10 20
ROOT
ATOM      1  C   UNL     1       0.176   1.193  -0.872  1.00  0.00    -0.017 A 
ATOM      2  C   UNL     1      -0.585   1.929   0.053  1.00  0.00     0.012 A 
ATOM      3  C   UNL     1      -0.917   3.262  -0.207  1.00  0.00     0.047 A 
ATOM      4  C   UNL     1      -0.501   3.873  -1.394  1.00  0.00     0.115 A 
ATOM      5  C   UNL     1       0.250   3.143  -2.325  1.00  0.00     0.047 A 
ATOM      6  C   UNL     1       0.583   1.809  -2.067  1.00  0.00     0.012 A 
ENDROOT
BRANCH   1   7
ATOM      7  C   UNL     1       0.522  -0.223  -0.606  1.00  0.00    -0.003 A 
ATOM      8  C   UNL     1       1.177  -2.960  -0.096  1.00  0.00     0.024 A 
ATOM      9  C   UNL     1       0.641  -2.566  -1.341  1.00  0.00     0.011 A 
ATOM     10  C   UNL     1       1.379  -1.959   0.859  1.00  0.00     0.239 A 
ATOM     11  C   UNL     1       0.319  -1.214  -1.593  1.00  0.00     0.010 A 
ATOM     12  N   UNL     1       1.910  -2.073   2.089  1.00  0.00    -0.126 N 
ATOM     13  C   UNL     1       1.064  -0.646   0.616  1.00  0.00     0.078 A 
ATOM     14  N   UNL     1       1.947  -0.863   2.630  1.00  0.00    -0.174 N 
ATOM     15  C   UNL     1       1.442   0.038   1.757  1.00  0.00     0.163 A 
ATOM     16  C   UNL     1       1.540  -4.389   0.181  1.00  0.00     0.052 C 
ATOM     17  H   UNL     1       2.254  -2.943   2.553  1.00  0.00     0.488 HD
ATOM     18  H   UNL     1       2.324  -0.652   3.580  1.00  0.00     0.238 HD
ENDBRANCH   1   7
BRANCH   4  19
ATOM     19  O   UNL     1      -0.839   5.202  -1.639  1.00  0.00    -0.508 OA
ATOM     20  H   UNL     1      -0.552   5.672  -2.490  1.00  0.00     0.293 HD
ENDBRANCH   4  19
TORSDOF 2


