REMARK SMILES O/C(=C/C[C@@H]1CCC[C@@H]2C=c3ccccc3=C[C@@]12F)c1ccccc1
REMARK SMILES IDX 3 1 2 2 1 3 20 5 21 6 25 7 22 8 24 9 23 10 4 11 5 12 6 13
REMARK SMILES IDX 18 14 7 15 17 16 9 17 8 18 16 19 10 20 15 21 11 22 14 23
REMARK SMILES IDX 12 24 13 25 19 26
REMARK H PARENT 1 4
ROOT
ATOM      1  C   UNL     1       0.961   1.777  -2.567  1.00  0.00     0.020 C 
ENDROOT
BRANCH   1   2
ATOM      2  C   UNL     1       1.744   0.729  -2.871  1.00  0.00     0.118 C 
BRANCH   2   3
ATOM      3  O   UNL     1       2.271   0.646  -4.158  1.00  0.00    -0.508 OA
ATOM      4  H   UNL     1       2.867  -0.126  -4.433  1.00  0.00     0.293 HD
ENDBRANCH   2   3
BRANCH   2   5
ATOM      5  C   UNL     1       2.052  -0.345  -1.904  1.00  0.00     0.016 A 
ATOM      6  C   UNL     1       2.836  -0.085  -0.768  1.00  0.00     0.012 A 
ATOM      7  C   UNL     1       1.589  -1.649  -2.139  1.00  0.00     0.012 A 
ATOM      8  C   UNL     1       3.111  -1.107   0.145  1.00  0.00     0.001 A 
ATOM      9  C   UNL     1       1.865  -2.668  -1.222  1.00  0.00     0.001 A 
ATOM     10  C   UNL     1       2.621  -2.397  -0.079  1.00  0.00     0.000 A 
ENDBRANCH   2   5
ENDBRANCH   1   2
BRANCH   1  11
ATOM     11  C   UNL     1       0.245   1.951  -1.250  1.00  0.00     0.038 C 
BRANCH  11  12
ATOM     12  C   UNL     1      -0.958   0.976  -1.112  1.00  0.00     0.035 C 
ATOM     13  C   UNL     1      -2.109   1.457  -2.036  1.00  0.00     0.007 C 
ATOM     14  C   UNL     1      -1.457   0.856   0.358  1.00  0.00     0.139 C 
ATOM     15  C   UNL     1      -3.368   0.590  -1.911  1.00  0.00     0.001 C 
ATOM     16  C   UNL     1      -0.431   0.245   1.297  1.00  0.00     0.023 C 
ATOM     17  C   UNL     1      -2.720  -0.036   0.425  1.00  0.00     0.054 C 
ATOM     18  C   UNL     1      -3.846   0.515  -0.458  1.00  0.00     0.011 C 
ATOM     19  C   UNL     1      -0.816  -0.251   2.493  1.00  0.00    -0.020 A 
ATOM     20  C   UNL     1      -3.141  -0.206   1.864  1.00  0.00    -0.011 C 
ATOM     21  C   UNL     1       0.150  -0.610   3.450  1.00  0.00     0.008 A 
ATOM     22  C   UNL     1      -2.198  -0.394   2.810  1.00  0.00    -0.022 A 
ATOM     23  C   UNL     1      -0.241  -1.026   4.724  1.00  0.00     0.001 A 
ATOM     24  C   UNL     1      -2.571  -0.782   4.108  1.00  0.00     0.008 A 
ATOM     25  C   UNL     1      -1.595  -1.095   5.058  1.00  0.00     0.001 A 
ATOM     26  F   UNL     1      -1.768   2.123   0.834  1.00  0.00    -0.238 F 
ENDBRANCH  11  12
ENDBRANCH   1  11
TORSDOF 5


