REMARK SMILES C/C(O)=N\c1cc(C)cc(-n2nc3ccccc3n2)c1[O-]
REMARK SMILES IDX 2 1 1 2 3 3 4 5 5 6 6 7 20 8 7 9 10 10 9 11 21 12 8 13 11 14
REMARK SMILES IDX 12 15 19 16 13 17 18 18 14 19 17 20 15 21 16 22
REMARK H PARENT 3 4
ROOT
ATOM      1  C   UNL     1       2.191   0.517  -3.022  1.00  0.00     0.182 C 
ATOM      2  C   UNL     1       1.855  -0.648  -3.906  1.00  0.00     0.111 C 
ENDROOT
BRANCH   1   3
ATOM      3  O   UNL     1       3.148   1.425  -3.467  1.00  0.00    -0.497 OA
ATOM      4  H   UNL     1       3.407   2.229  -2.908  1.00  0.00     0.294 HD
ENDBRANCH   1   3
BRANCH   1   5
ATOM      5  N   UNL     1       1.618   0.718  -1.867  1.00  0.00    -0.219 NA
BRANCH   5   6
ATOM      6  C   UNL     1       0.666  -0.139  -1.216  1.00  0.00     0.061 A 
ATOM      7  C   UNL     1       0.934  -1.503  -1.027  1.00  0.00     0.031 A 
ATOM      8  C   UNL     1      -0.505   0.419  -0.683  1.00  0.00    -0.054 A 
ATOM      9  C   UNL     1       0.021  -2.319  -0.350  1.00  0.00    -0.047 A 
ATOM     10  C   UNL     1      -1.447  -0.395  -0.013  1.00  0.00     0.080 A 
ATOM     11  C   UNL     1      -1.173  -1.768   0.133  1.00  0.00     0.033 A 
ATOM     12  O   UNL     1      -0.725   1.785  -0.836  1.00  0.00    -0.870 OA
ATOM     13  C   UNL     1       0.291  -3.788  -0.197  1.00  0.00     0.044 C 
BRANCH  10  14
ATOM     14  N   UNL     1      -2.675   0.148   0.519  1.00  0.00    -0.151 N 
ATOM     15  N   UNL     1      -3.564  -0.579   1.198  1.00  0.00    -0.148 NA
ATOM     16  N   UNL     1      -3.052   1.420   0.386  1.00  0.00    -0.148 NA
ATOM     17  C   UNL     1      -4.548   0.276   1.510  1.00  0.00     0.113 A 
ATOM     18  C   UNL     1      -4.234   1.501   1.012  1.00  0.00     0.113 A 
ATOM     19  C   UNL     1      -5.723   0.040   2.216  1.00  0.00     0.032 A 
ATOM     20  C   UNL     1      -5.066   2.604   1.174  1.00  0.00     0.032 A 
ATOM     21  C   UNL     1      -6.595   1.131   2.403  1.00  0.00     0.002 A 
ATOM     22  C   UNL     1      -6.268   2.408   1.884  1.00  0.00     0.002 A 
ENDBRANCH  10  14
ENDBRANCH   5   6
ENDBRANCH   1   5
TORSDOF 4


