REMARK SMILES CNCCC[N-]C(=O)Sc1cccc(-c2ccc3c(c2)CC3)c1
REMARK SMILES IDX 5 1 4 2 3 3 2 4 1 5 6 7 7 8 8 9 9 10 10 11 11 12 23 13 12 14
REMARK SMILES IDX 14 15 13 16 15 17 16 18 20 19 17 20 19 21 18 22 21 23 22 24
REMARK H PARENT 2 6
ROOT
ATOM      1  C   UNL     1       1.257  -0.720   4.703  1.00  0.00    -0.116 C 
ENDROOT
BRANCH   1   2
ATOM      2  C   UNL     1       2.243  -0.912   3.543  1.00  0.00    -0.004 C 
BRANCH   2   3
ATOM      3  C   UNL     1       1.869  -0.089   2.306  1.00  0.00     0.079 C 
BRANCH   3   4
ATOM      4  N   UNL     1       2.909  -0.231   1.280  1.00  0.00    -0.320 NA
ATOM      5  C   UNL     1       2.483   0.413   0.036  1.00  0.00     0.101 C 
ATOM      6  H   UNL     1       3.767   0.268   1.613  1.00  0.00     0.122 HD
ENDBRANCH   3   4
ENDBRANCH   2   3
ENDBRANCH   1   2
BRANCH   1   7
ATOM      7  N   UNL     1      -0.053  -1.274   4.374  1.00  0.00    -0.643 NA
BRANCH   7   8
ATOM      8  C   UNL     1      -1.113  -0.516   3.787  1.00  0.00     0.114 C 
ATOM      9  O   UNL     1      -1.028   0.736   3.677  1.00  0.00    -0.308 OA
BRANCH   8  10
ATOM     10  S   UNL     1      -2.567  -1.359   3.180  1.00  0.00    -0.071 SA
BRANCH  10  11
ATOM     11  C   UNL     1      -1.837  -1.609   1.561  1.00  0.00     0.014 A 
ATOM     12  C   UNL     1      -1.086  -2.760   1.302  1.00  0.00     0.015 A 
ATOM     13  C   UNL     1      -2.007  -0.645   0.559  1.00  0.00     0.024 A 
ATOM     14  C   UNL     1      -0.504  -2.947   0.048  1.00  0.00     0.002 A 
ATOM     15  C   UNL     1      -1.428  -0.825  -0.711  1.00  0.00    -0.017 A 
ATOM     16  C   UNL     1      -0.673  -1.988  -0.955  1.00  0.00     0.009 A 
BRANCH  15  17
ATOM     17  C   UNL     1      -1.607   0.197  -1.775  1.00  0.00    -0.018 A 
ATOM     18  C   UNL     1      -2.878   0.860  -1.926  1.00  0.00     0.009 A 
ATOM     19  C   UNL     1      -0.519   0.517  -2.640  1.00  0.00     0.012 A 
ATOM     20  C   UNL     1      -3.100   1.847  -2.917  1.00  0.00     0.004 A 
ATOM     21  C   UNL     1      -0.770   1.482  -3.593  1.00  0.00    -0.044 A 
ATOM     22  C   UNL     1      -2.022   2.128  -3.727  1.00  0.00    -0.044 A 
ATOM     23  C   UNL     1      -0.218   2.277  -4.725  1.00  0.00     0.040 C 
ATOM     24  C   UNL     1      -1.502   2.938  -4.864  1.00  0.00     0.040 C 
ENDBRANCH  15  17
ENDBRANCH  10  11
ENDBRANCH   8  10
ENDBRANCH   7   8
ENDBRANCH   1   7
TORSDOF 8


