MODEL 1
REMARK VINA RESULT:      -2.7      0.000      0.000
REMARK SMILES C=C[C@@H](Oc1nc[nH+]c(C)c1C)c1cc2[nH]ccc2cc1-c1c[nH+]c2c(c1)C(=O)NC2
REMARK SMILES IDX 3 1 2 2 1 3 4 4 5 5 6 6 11 7 7 8 9 9 8 10 12 11 10 12 13 14
REMARK SMILES IDX 14 15 21 16 15 17 20 18 16 19 19 20 17 21 18 22 22 24 23 25
REMARK SMILES IDX 27 26 24 27 26 28 25 29 28 30 31 31 30 32 29 34
REMARK H PARENT 8 13 16 23 24 33 30 35
ROOT
ATOM      1  C   UNL     1      45.041 130.259  20.803  1.00  0.00     0.231 C 
ENDROOT
BRANCH   1   2
ATOM      2  C   UNL     1      46.239 131.077  20.399  1.00  0.00     0.014 C 
ATOM      3  C   UNL     1      46.542 132.219  21.023  1.00  0.00     0.008 C 
ENDBRANCH   1   2
BRANCH   1   4
ATOM      4  O   UNL     1      45.329 129.551  22.009  1.00  0.00    -0.447 OA
BRANCH   4   5
ATOM      5  C   UNL     1      44.533 128.520  22.524  1.00  0.00     0.335 A 
ATOM      6  N   UNL     1      43.339 128.805  23.108  1.00  0.00    -0.010 NA
ATOM      7  C   UNL     1      44.978 127.188  22.459  1.00  0.00     0.080 A 
ATOM      8  C   UNL     1      42.563 127.829  23.638  1.00  0.00     0.453 A 
ATOM      9  C   UNL     1      44.147 126.184  23.005  1.00  0.00     0.108 A 
ATOM     10  N   UNL     1      42.967 126.535  23.592  1.00  0.00    -0.247 N 
ATOM     11  C   UNL     1      46.281 126.844  21.776  1.00  0.00     0.057 C 
ATOM     12  C   UNL     1      44.556 124.735  22.981  1.00  0.00     0.093 C 
ATOM     13  H   UNL     1      42.349 125.806  24.014  1.00  0.00     0.311 HD
ENDBRANCH   4   5
ENDBRANCH   1   4
BRANCH   1  14
ATOM     14  C   UNL     1      43.812 131.151  20.933  1.00  0.00     0.007 A 
ATOM     15  C   UNL     1      43.299 131.362  22.236  1.00  0.00     0.035 A 
ATOM     16  C   UNL     1      43.142 131.750  19.811  1.00  0.00    -0.004 A 
ATOM     17  C   UNL     1      42.179 132.172  22.391  1.00  0.00     0.046 A 
ATOM     18  C   UNL     1      42.014 132.573  20.023  1.00  0.00     0.019 A 
ATOM     19  N   UNL     1      41.560 132.495  23.537  1.00  0.00    -0.361 N 
ATOM     20  C   UNL     1      41.563 132.758  21.324  1.00  0.00    -0.000 A 
ATOM     21  C   UNL     1      40.532 133.302  23.187  1.00  0.00     0.083 A 
ATOM     22  C   UNL     1      40.501 133.489  21.809  1.00  0.00     0.028 A 
ATOM     23  H   UNL     1      41.816 132.191  24.503  1.00  0.00     0.166 HD
BRANCH  16  24
ATOM     24  C   UNL     1      43.608 131.581  18.421  1.00  0.00     0.047 A 
ATOM     25  C   UNL     1      42.833 132.044  17.330  1.00  0.00     0.315 A 
ATOM     26  C   UNL     1      44.847 130.959  18.171  1.00  0.00     0.035 A 
ATOM     27  N   UNL     1      43.262 131.857  16.045  1.00  0.00    -0.212 N 
ATOM     28  C   UNL     1      45.234 130.797  16.848  1.00  0.00     0.109 A 
ATOM     29  C   UNL     1      44.447 131.237  15.814  1.00  0.00     0.211 A 
ATOM     30  C   UNL     1      46.382 130.154  16.264  1.00  0.00     0.258 C 
ATOM     31  C   UNL     1      45.053 130.904  14.482  1.00  0.00     0.225 C 
ATOM     32  N   UNL     1      46.292 130.211  14.844  1.00  0.00    -0.342 N 
ATOM     33  H   UNL     1      42.676 132.186  15.246  1.00  0.00     0.453 HD
ATOM     34  O   UNL     1      47.324 129.604  16.891  1.00  0.00    -0.269 OA
ATOM     35  H   UNL     1      46.988 129.814  14.174  1.00  0.00     0.164 HD
ENDBRANCH  16  24
ENDBRANCH   1  14
TORSDOF 5
ENDMDL
MODEL 2
REMARK VINA RESULT:      -2.6      1.589      2.204
REMARK SMILES C=C[C@@H](Oc1nc[nH+]c(C)c1C)c1cc2[nH]ccc2cc1-c1c[nH+]c2c(c1)C(=O)NC2
REMARK SMILES IDX 3 1 2 2 1 3 4 4 5 5 6 6 11 7 7 8 9 9 8 10 12 11 10 12 13 14
REMARK SMILES IDX 14 15 21 16 15 17 20 18 16 19 19 20 17 21 18 22 22 24 23 25
REMARK SMILES IDX 27 26 24 27 26 28 25 29 28 30 31 31 30 32 29 34
REMARK H PARENT 8 13 16 23 24 33 30 35
ROOT
ATOM      1  C   UNL     1      45.425 129.978  20.537  1.00  0.00     0.231 C 
ENDROOT
BRANCH   1   2
ATOM      2  C   UNL     1      46.738 130.636  20.207  1.00  0.00     0.014 C 
ATOM      3  C   UNL     1      47.148 131.729  20.856  1.00  0.00     0.008 C 
ENDBRANCH   1   2
BRANCH   1   4
ATOM      4  O   UNL     1      45.417 129.586  21.910  1.00  0.00    -0.447 OA
BRANCH   4   5
ATOM      5  C   UNL     1      45.038 128.316  22.362  1.00  0.00     0.335 A 
ATOM      6  N   UNL     1      45.732 127.215  21.966  1.00  0.00    -0.010 NA
ATOM      7  C   UNL     1      43.923 128.173  23.206  1.00  0.00     0.080 A 
ATOM      8  C   UNL     1      45.369 125.973  22.367  1.00  0.00     0.453 A 
ATOM      9  C   UNL     1      43.571 126.869  23.623  1.00  0.00     0.108 A 
ATOM     10  N   UNL     1      44.297 125.803  23.180  1.00  0.00    -0.247 N 
ATOM     11  C   UNL     1      43.164 129.385  23.692  1.00  0.00     0.057 C 
ATOM     12  C   UNL     1      42.386 126.632  24.522  1.00  0.00     0.093 C 
ATOM     13  H   UNL     1      44.040 124.832  23.468  1.00  0.00     0.311 HD
ENDBRANCH   4   5
ENDBRANCH   1   4
BRANCH   1  14
ATOM     14  C   UNL     1      44.267 130.906  20.191  1.00  0.00     0.007 A 
ATOM     15  C   UNL     1      43.504 131.420  21.267  1.00  0.00     0.035 A 
ATOM     16  C   UNL     1      43.900 131.252  18.844  1.00  0.00    -0.004 A 
ATOM     17  C   UNL     1      42.441 132.271  20.987  1.00  0.00     0.046 A 
ATOM     18  C   UNL     1      42.817 132.130  18.614  1.00  0.00     0.019 A 
ATOM     19  N   UNL     1      41.616 132.861  21.867  1.00  0.00    -0.361 N 
ATOM     20  C   UNL     1      42.113 132.615  19.708  1.00  0.00    -0.000 A 
ATOM     21  C   UNL     1      40.751 133.593  21.128  1.00  0.00     0.083 A 
ATOM     22  C   UNL     1      41.030 133.464  19.771  1.00  0.00     0.028 A 
ATOM     23  H   UNL     1      41.635 132.778  22.908  1.00  0.00     0.166 HD
BRANCH  16  24
ATOM     24  C   UNL     1      44.639 130.760  17.665  1.00  0.00     0.047 A 
ATOM     25  C   UNL     1      44.731 129.375  17.387  1.00  0.00     0.315 A 
ATOM     26  C   UNL     1      45.254 131.680  16.794  1.00  0.00     0.035 A 
ATOM     27  N   UNL     1      45.442 128.929  16.308  1.00  0.00    -0.212 N 
ATOM     28  C   UNL     1      45.961 131.172  15.712  1.00  0.00     0.109 A 
ATOM     29  C   UNL     1      46.050 129.822  15.486  1.00  0.00     0.211 A 
ATOM     30  C   UNL     1      46.745 131.825  14.696  1.00  0.00     0.258 C 
ATOM     31  C   UNL     1      46.905 129.519  14.290  1.00  0.00     0.225 C 
ATOM     32  N   UNL     1      47.316 130.849  13.832  1.00  0.00    -0.342 N 
ATOM     33  H   UNL     1      45.519 127.905  16.121  1.00  0.00     0.453 HD
ATOM     34  O   UNL     1      46.925 133.065  14.580  1.00  0.00    -0.269 OA
ATOM     35  H   UNL     1      47.937 131.048  13.016  1.00  0.00     0.164 HD
ENDBRANCH  16  24
ENDBRANCH   1  14
TORSDOF 5
ENDMDL
MODEL 3
REMARK VINA RESULT:      -2.4      2.121      3.484
REMARK SMILES C=C[C@@H](Oc1nc[nH+]c(C)c1C)c1cc2[nH]ccc2cc1-c1c[nH+]c2c(c1)C(=O)NC2
REMARK SMILES IDX 3 1 2 2 1 3 4 4 5 5 6 6 11 7 7 8 9 9 8 10 12 11 10 12 13 14
REMARK SMILES IDX 14 15 21 16 15 17 20 18 16 19 19 20 17 21 18 22 22 24 23 25
REMARK SMILES IDX 27 26 24 27 26 28 25 29 28 30 31 31 30 32 29 34
REMARK H PARENT 8 13 16 23 24 33 30 35
ROOT
ATOM      1  C   UNL     1      43.820 130.729  22.307  1.00  0.00     0.231 C 
ENDROOT
BRANCH   1   2
ATOM      2  C   UNL     1      42.803 131.124  21.268  1.00  0.00     0.014 C 
ATOM      3  C   UNL     1      42.318 132.367  21.210  1.00  0.00     0.008 C 
ENDBRANCH   1   2
BRANCH   1   4
ATOM      4  O   UNL     1      44.263 129.394  22.060  1.00  0.00    -0.447 OA
BRANCH   4   5
ATOM      5  C   UNL     1      43.913 128.293  22.852  1.00  0.00     0.335 A 
ATOM      6  N   UNL     1      42.868 128.377  23.718  1.00  0.00    -0.010 NA
ATOM      7  C   UNL     1      44.659 127.104  22.773  1.00  0.00     0.080 A 
ATOM      8  C   UNL     1      42.527 127.336  24.515  1.00  0.00     0.453 A 
ATOM      9  C   UNL     1      44.278 126.025  23.603  1.00  0.00     0.108 A 
ATOM     10  N   UNL     1      43.229 126.177  24.461  1.00  0.00    -0.247 N 
ATOM     11  C   UNL     1      45.797 126.973  21.788  1.00  0.00     0.057 C 
ATOM     12  C   UNL     1      45.031 124.721  23.581  1.00  0.00     0.093 C 
ATOM     13  H   UNL     1      42.945 125.394  25.092  1.00  0.00     0.311 HD
ENDBRANCH   4   5
ENDBRANCH   1   4
BRANCH   1  14
ATOM     14  C   UNL     1      44.971 131.727  22.325  1.00  0.00     0.007 A 
ATOM     15  C   UNL     1      45.190 132.443  23.528  1.00  0.00     0.035 A 
ATOM     16  C   UNL     1      45.809 131.997  21.188  1.00  0.00    -0.004 A 
ATOM     17  C   UNL     1      46.233 133.361  23.579  1.00  0.00     0.046 A 
ATOM     18  C   UNL     1      46.862 132.932  21.296  1.00  0.00     0.019 A 
ATOM     19  N   UNL     1      46.600 134.119  24.625  1.00  0.00    -0.361 N 
ATOM     20  C   UNL     1      47.040 133.593  22.504  1.00  0.00    -0.000 A 
ATOM     21  C   UNL     1      47.660 134.844  24.201  1.00  0.00     0.083 A 
ATOM     22  C   UNL     1      47.966 134.542  22.878  1.00  0.00     0.028 A 
ATOM     23  H   UNL     1      46.161 134.146  25.572  1.00  0.00     0.166 HD
BRANCH  16  24
ATOM     24  C   UNL     1      45.649 131.299  19.897  1.00  0.00     0.047 A 
ATOM     25  C   UNL     1      46.377 130.120  19.610  1.00  0.00     0.315 A 
ATOM     26  C   UNL     1      44.750 131.804  18.938  1.00  0.00     0.035 A 
ATOM     27  N   UNL     1      46.243 129.497  18.400  1.00  0.00    -0.212 N 
ATOM     28  C   UNL     1      44.650 131.131  17.727  1.00  0.00     0.109 A 
ATOM     29  C   UNL     1      45.389 130.004  17.473  1.00  0.00     0.211 A 
ATOM     30  C   UNL     1      43.894 131.420  16.537  1.00  0.00     0.258 C 
ATOM     31  C   UNL     1      45.147 129.488  16.085  1.00  0.00     0.225 C 
ATOM     32  N   UNL     1      44.177 130.443  15.541  1.00  0.00    -0.342 N 
ATOM     33  H   UNL     1      46.797 128.638  18.191  1.00  0.00     0.453 HD
ATOM     34  O   UNL     1      43.110 132.391  16.373  1.00  0.00    -0.269 OA
ATOM     35  H   UNL     1      43.771 130.419  14.580  1.00  0.00     0.164 HD
ENDBRANCH  16  24
ENDBRANCH   1  14
TORSDOF 5
ENDMDL
MODEL 4
REMARK VINA RESULT:      -2.1      2.185      6.799
REMARK SMILES C=C[C@@H](Oc1nc[nH+]c(C)c1C)c1cc2[nH]ccc2cc1-c1c[nH+]c2c(c1)C(=O)NC2
REMARK SMILES IDX 3 1 2 2 1 3 4 4 5 5 6 6 11 7 7 8 9 9 8 10 12 11 10 12 13 14
REMARK SMILES IDX 14 15 21 16 15 17 20 18 16 19 19 20 17 21 18 22 22 24 23 25
REMARK SMILES IDX 27 26 24 27 26 28 25 29 28 30 31 31 30 32 29 34
REMARK H PARENT 8 13 16 23 24 33 30 35
ROOT
ATOM      1  C   UNL     1      44.730 131.290  19.573  1.00  0.00     0.231 C 
ENDROOT
BRANCH   1   2
ATOM      2  C   UNL     1      43.296 131.722  19.415  1.00  0.00     0.014 C 
ATOM      3  C   UNL     1      42.699 132.492  20.329  1.00  0.00     0.008 C 
ENDBRANCH   1   2
BRANCH   1   4
ATOM      4  O   UNL     1      45.447 131.556  18.367  1.00  0.00    -0.447 OA
BRANCH   4   5
ATOM      5  C   UNL     1      45.453 130.705  17.254  1.00  0.00     0.335 A 
ATOM      6  N   UNL     1      45.147 129.388  17.399  1.00  0.00    -0.010 NA
ATOM      7  C   UNL     1      45.801 131.206  15.988  1.00  0.00     0.080 A 
ATOM      8  C   UNL     1      45.173 128.539  16.344  1.00  0.00     0.453 A 
ATOM      9  C   UNL     1      45.808 130.306  14.898  1.00  0.00     0.108 A 
ATOM     10  N   UNL     1      45.506 128.993  15.109  1.00  0.00    -0.247 N 
ATOM     11  C   UNL     1      46.103 132.673  15.796  1.00  0.00     0.057 C 
ATOM     12  C   UNL     1      46.177 130.763  13.511  1.00  0.00     0.093 C 
ATOM     13  H   UNL     1      45.523 128.312  14.317  1.00  0.00     0.311 HD
ENDBRANCH   4   5
ENDBRANCH   1   4
BRANCH   1  14
ATOM     14  C   UNL     1      45.357 131.972  20.782  1.00  0.00     0.007 A 
ATOM     15  C   UNL     1      46.245 133.047  20.533  1.00  0.00     0.035 A 
ATOM     16  C   UNL     1      45.118 131.562  22.140  1.00  0.00    -0.004 A 
ATOM     17  C   UNL     1      46.834 133.692  21.615  1.00  0.00     0.046 A 
ATOM     18  C   UNL     1      45.733 132.258  23.204  1.00  0.00     0.019 A 
ATOM     19  N   UNL     1      47.687 134.729  21.579  1.00  0.00    -0.361 N 
ATOM     20  C   UNL     1      46.584 133.314  22.902  1.00  0.00    -0.000 A 
ATOM     21  C   UNL     1      47.980 135.010  22.869  1.00  0.00     0.083 A 
ATOM     22  C   UNL     1      47.308 134.145  23.727  1.00  0.00     0.028 A 
ATOM     23  H   UNL     1      48.051 135.221  20.733  1.00  0.00     0.166 HD
BRANCH  16  24
ATOM     24  C   UNL     1      44.210 130.453  22.489  1.00  0.00     0.047 A 
ATOM     25  C   UNL     1      42.838 130.688  22.750  1.00  0.00     0.315 A 
ATOM     26  C   UNL     1      44.708 129.137  22.554  1.00  0.00     0.035 A 
ATOM     27  N   UNL     1      42.011 129.656  23.100  1.00  0.00    -0.212 N 
ATOM     28  C   UNL     1      43.824 128.127  22.911  1.00  0.00     0.109 A 
ATOM     29  C   UNL     1      42.505 128.394  23.181  1.00  0.00     0.211 A 
ATOM     30  C   UNL     1      44.024 126.719  23.130  1.00  0.00     0.258 C 
ATOM     31  C   UNL     1      41.766 127.154  23.591  1.00  0.00     0.225 C 
ATOM     32  N   UNL     1      42.800 126.118  23.536  1.00  0.00    -0.342 N 
ATOM     33  H   UNL     1      41.005 129.841  23.307  1.00  0.00     0.453 HD
ATOM     34  O   UNL     1      45.111 126.096  23.006  1.00  0.00    -0.269 OA
ATOM     35  H   UNL     1      42.666 125.109  23.769  1.00  0.00     0.164 HD
ENDBRANCH  16  24
ENDBRANCH   1  14
TORSDOF 5
ENDMDL
MODEL 5
REMARK VINA RESULT:      -2.1      2.254      7.021
REMARK SMILES C=C[C@@H](Oc1nc[nH+]c(C)c1C)c1cc2[nH]ccc2cc1-c1c[nH+]c2c(c1)C(=O)NC2
REMARK SMILES IDX 3 1 2 2 1 3 4 4 5 5 6 6 11 7 7 8 9 9 8 10 12 11 10 12 13 14
REMARK SMILES IDX 14 15 21 16 15 17 20 18 16 19 19 20 17 21 18 22 22 24 23 25
REMARK SMILES IDX 27 26 24 27 26 28 25 29 28 30 31 31 30 32 29 34
REMARK H PARENT 8 13 16 23 24 33 30 35
ROOT
ATOM      1  C   UNL     1      44.502 131.127  19.915  1.00  0.00     0.231 C 
ENDROOT
BRANCH   1   2
ATOM      2  C   UNL     1      43.503 132.042  19.257  1.00  0.00     0.014 C 
ATOM      3  C   UNL     1      42.240 131.657  19.055  1.00  0.00     0.008 C 
ENDBRANCH   1   2
BRANCH   1   4
ATOM      4  O   UNL     1      45.405 130.617  18.932  1.00  0.00    -0.447 OA
BRANCH   4   5
ATOM      5  C   UNL     1      45.565 131.167  17.653  1.00  0.00     0.335 A 
ATOM      6  N   UNL     1      45.427 132.506  17.463  1.00  0.00    -0.010 NA
ATOM      7  C   UNL     1      45.845 130.331  16.559  1.00  0.00     0.080 A 
ATOM      8  C   UNL     1      45.549 133.059  16.232  1.00  0.00     0.453 A 
ATOM      9  C   UNL     1      45.983 130.930  15.286  1.00  0.00     0.108 A 
ATOM     10  N   UNL     1      45.818 132.277  15.156  1.00  0.00    -0.247 N 
ATOM     11  C   UNL     1      46.045 128.847  16.754  1.00  0.00     0.057 C 
ATOM     12  C   UNL     1      46.276 130.102  14.062  1.00  0.00     0.093 C 
ATOM     13  H   UNL     1      45.902 132.733  14.219  1.00  0.00     0.311 HD
ENDBRANCH   4   5
ENDBRANCH   1   4
BRANCH   1  14
ATOM     14  C   UNL     1      45.223 131.857  21.041  1.00  0.00     0.007 A 
ATOM     15  C   UNL     1      46.234 132.778  20.675  1.00  0.00     0.035 A 
ATOM     16  C   UNL     1      44.953 131.632  22.436  1.00  0.00    -0.004 A 
ATOM     17  C   UNL     1      46.912 133.461  21.679  1.00  0.00     0.046 A 
ATOM     18  C   UNL     1      45.661 132.360  23.417  1.00  0.00     0.019 A 
ATOM     19  N   UNL     1      47.886 134.374  21.529  1.00  0.00    -0.361 N 
ATOM     20  C   UNL     1      46.632 133.262  23.000  1.00  0.00    -0.000 A 
ATOM     21  C   UNL     1      48.227 134.758  22.781  1.00  0.00     0.083 A 
ATOM     22  C   UNL     1      47.464 134.083  23.728  1.00  0.00     0.028 A 
ATOM     23  H   UNL     1      48.296 134.720  20.634  1.00  0.00     0.166 HD
BRANCH  16  24
ATOM     24  C   UNL     1      43.918 130.690  22.905  1.00  0.00     0.047 A 
ATOM     25  C   UNL     1      42.615 131.138  23.228  1.00  0.00     0.315 A 
ATOM     26  C   UNL     1      44.224 129.320  23.023  1.00  0.00     0.035 A 
ATOM     27  N   UNL     1      41.673 130.261  23.688  1.00  0.00    -0.212 N 
ATOM     28  C   UNL     1      43.229 128.472  23.493  1.00  0.00     0.109 A 
ATOM     29  C   UNL     1      41.984 128.945  23.820  1.00  0.00     0.211 A 
ATOM     30  C   UNL     1      43.239 127.064  23.789  1.00  0.00     0.258 C 
ATOM     31  C   UNL     1      41.102 127.853  24.349  1.00  0.00     0.225 C 
ATOM     32  N   UNL     1      41.970 126.673  24.300  1.00  0.00    -0.342 N 
ATOM     33  H   UNL     1      40.719 130.603  23.941  1.00  0.00     0.453 HD
ATOM     34  O   UNL     1      44.214 126.282  23.642  1.00  0.00    -0.269 OA
ATOM     35  H   UNL     1      41.707 125.709  24.604  1.00  0.00     0.164 HD
ENDBRANCH  16  24
ENDBRANCH   1  14
TORSDOF 5
ENDMDL
MODEL 6
REMARK VINA RESULT:      -2.0      2.196      7.046
REMARK SMILES C=C[C@@H](Oc1nc[nH+]c(C)c1C)c1cc2[nH]ccc2cc1-c1c[nH+]c2c(c1)C(=O)NC2
REMARK SMILES IDX 3 1 2 2 1 3 4 4 5 5 6 6 11 7 7 8 9 9 8 10 12 11 10 12 13 14
REMARK SMILES IDX 14 15 21 16 15 17 20 18 16 19 19 20 17 21 18 22 22 24 23 25
REMARK SMILES IDX 27 26 24 27 26 28 25 29 28 30 31 31 30 32 29 34
REMARK H PARENT 8 13 16 23 24 33 30 35
ROOT
ATOM      1  C   UNL     1      43.651 131.220  19.524  1.00  0.00     0.231 C 
ENDROOT
BRANCH   1   2
ATOM      2  C   UNL     1      42.284 131.674  19.964  1.00  0.00     0.014 C 
ATOM      3  C   UNL     1      42.128 132.494  21.007  1.00  0.00     0.008 C 
ENDBRANCH   1   2
BRANCH   1   4
ATOM      4  O   UNL     1      43.831 131.514  18.138  1.00  0.00    -0.447 OA
BRANCH   4   5
ATOM      5  C   UNL     1      44.839 130.955  17.342  1.00  0.00     0.335 A 
ATOM      6  N   UNL     1      45.823 130.208  17.910  1.00  0.00    -0.010 NA
ATOM      7  C   UNL     1      44.849 131.187  15.956  1.00  0.00     0.080 A 
ATOM      8  C   UNL     1      46.825 129.681  17.166  1.00  0.00     0.453 A 
ATOM      9  C   UNL     1      45.895 130.616  15.196  1.00  0.00     0.108 A 
ATOM     10  N   UNL     1      46.862 129.889  15.825  1.00  0.00    -0.247 N 
ATOM     11  C   UNL     1      43.743 131.978  15.298  1.00  0.00     0.057 C 
ATOM     12  C   UNL     1      45.981 130.823  13.707  1.00  0.00     0.093 C 
ATOM     13  H   UNL     1      47.651 129.473  15.280  1.00  0.00     0.311 HD
ENDBRANCH   4   5
ENDBRANCH   1   4
BRANCH   1  14
ATOM     14  C   UNL     1      44.725 131.858  20.396  1.00  0.00     0.007 A 
ATOM     15  C   UNL     1      45.269 133.090  19.959  1.00  0.00     0.035 A 
ATOM     16  C   UNL     1      45.228 131.261  21.604  1.00  0.00    -0.004 A 
ATOM     17  C   UNL     1      46.251 133.700  20.731  1.00  0.00     0.046 A 
ATOM     18  C   UNL     1      46.219 131.926  22.359  1.00  0.00     0.019 A 
ATOM     19  N   UNL     1      46.874 134.864  20.488  1.00  0.00    -0.361 N 
ATOM     20  C   UNL     1      46.705 133.140  21.890  1.00  0.00    -0.000 A 
ATOM     21  C   UNL     1      47.737 135.043  21.514  1.00  0.00     0.083 A 
ATOM     22  C   UNL     1      47.660 133.984  22.412  1.00  0.00     0.028 A 
ATOM     23  H   UNL     1      46.724 135.505  19.677  1.00  0.00     0.166 HD
BRANCH  16  24
ATOM     24  C   UNL     1      44.719 129.979  22.131  1.00  0.00     0.047 A 
ATOM     25  C   UNL     1      45.379 128.759  21.846  1.00  0.00     0.315 A 
ATOM     26  C   UNL     1      43.565 129.966  22.940  1.00  0.00     0.035 A 
ATOM     27  N   UNL     1      44.882 127.575  22.316  1.00  0.00    -0.212 N 
ATOM     28  C   UNL     1      43.106 128.736  23.392  1.00  0.00     0.109 A 
ATOM     29  C   UNL     1      43.757 127.571  23.077  1.00  0.00     0.211 A 
ATOM     30  C   UNL     1      41.944 128.378  24.162  1.00  0.00     0.258 C 
ATOM     31  C   UNL     1      43.045 126.374  23.637  1.00  0.00     0.225 C 
ATOM     32  N   UNL     1      41.892 126.965  24.322  1.00  0.00    -0.342 N 
ATOM     33  H   UNL     1      45.365 126.679  22.086  1.00  0.00     0.453 HD
ATOM     34  O   UNL     1      41.083 129.174  24.619  1.00  0.00    -0.269 OA
ATOM     35  H   UNL     1      41.148 126.437  24.830  1.00  0.00     0.164 HD
ENDBRANCH  16  24
ENDBRANCH   1  14
TORSDOF 5
ENDMDL
MODEL 7
REMARK VINA RESULT:      -1.2      3.411      6.776
REMARK SMILES C=C[C@@H](Oc1nc[nH+]c(C)c1C)c1cc2[nH]ccc2cc1-c1c[nH+]c2c(c1)C(=O)NC2
REMARK SMILES IDX 3 1 2 2 1 3 4 4 5 5 6 6 11 7 7 8 9 9 8 10 12 11 10 12 13 14
REMARK SMILES IDX 14 15 21 16 15 17 20 18 16 19 19 20 17 21 18 22 22 24 23 25
REMARK SMILES IDX 27 26 24 27 26 28 25 29 28 30 31 31 30 32 29 34
REMARK H PARENT 8 13 16 23 24 33 30 35
ROOT
ATOM      1  C   UNL     1      45.790 131.827  19.712  1.00  0.00     0.231 C 
ENDROOT
BRANCH   1   2
ATOM      2  C   UNL     1      46.436 130.492  19.448  1.00  0.00     0.014 C 
ATOM      3  C   UNL     1      45.871 129.354  19.861  1.00  0.00     0.008 C 
ENDBRANCH   1   2
BRANCH   1   4
ATOM      4  O   UNL     1      44.869 132.128  18.662  1.00  0.00    -0.447 OA
BRANCH   4   5
ATOM      5  C   UNL     1      45.044 131.739  17.328  1.00  0.00     0.335 A 
ATOM      6  N   UNL     1      46.282 131.415  16.868  1.00  0.00    -0.010 NA
ATOM      7  C   UNL     1      43.944 131.708  16.454  1.00  0.00     0.080 A 
ATOM      8  C   UNL     1      46.483 131.063  15.575  1.00  0.00     0.453 A 
ATOM      9  C   UNL     1      44.173 131.325  15.113  1.00  0.00     0.108 A 
ATOM     10  N   UNL     1      45.440 131.025  14.708  1.00  0.00    -0.247 N 
ATOM     11  C   UNL     1      42.554 132.023  16.954  1.00  0.00     0.057 C 
ATOM     12  C   UNL     1      43.048 131.273  14.113  1.00  0.00     0.093 C 
ATOM     13  H   UNL     1      45.628 130.754  13.716  1.00  0.00     0.311 HD
ENDBRANCH   4   5
ENDBRANCH   1   4
BRANCH   1  14
ATOM     14  C   UNL     1      45.127 131.831  21.084  1.00  0.00     0.007 A 
ATOM     15  C   UNL     1      44.015 130.975  21.270  1.00  0.00     0.035 A 
ATOM     16  C   UNL     1      45.551 132.674  22.169  1.00  0.00    -0.004 A 
ATOM     17  C   UNL     1      43.388 130.953  22.511  1.00  0.00     0.046 A 
ATOM     18  C   UNL     1      44.887 132.606  23.414  1.00  0.00     0.019 A 
ATOM     19  N   UNL     1      42.334 130.206  22.879  1.00  0.00    -0.361 N 
ATOM     20  C   UNL     1      43.811 131.737  23.544  1.00  0.00    -0.000 A 
ATOM     21  C   UNL     1      42.089 130.525  24.170  1.00  0.00     0.083 A 
ATOM     22  C   UNL     1      42.993 131.481  24.622  1.00  0.00     0.028 A 
ATOM     23  H   UNL     1      41.811 129.518  22.293  1.00  0.00     0.166 HD
BRANCH  16  24
ATOM     24  C   UNL     1      46.699 133.596  22.060  1.00  0.00     0.047 A 
ATOM     25  C   UNL     1      46.741 134.594  21.057  1.00  0.00     0.315 A 
ATOM     26  C   UNL     1      47.766 133.492  22.974  1.00  0.00     0.035 A 
ATOM     27  N   UNL     1      47.821 135.424  20.948  1.00  0.00    -0.212 N 
ATOM     28  C   UNL     1      48.837 134.363  22.819  1.00  0.00     0.109 A 
ATOM     29  C   UNL     1      48.855 135.303  21.820  1.00  0.00     0.211 A 
ATOM     30  C   UNL     1      50.086 134.471  23.525  1.00  0.00     0.258 C 
ATOM     31  C   UNL     1      50.135 136.087  21.826  1.00  0.00     0.225 C 
ATOM     32  N   UNL     1      50.877 135.502  22.946  1.00  0.00    -0.342 N 
ATOM     33  H   UNL     1      47.851 136.146  20.194  1.00  0.00     0.453 HD
ATOM     34  O   UNL     1      50.452 133.760  24.498  1.00  0.00    -0.269 OA
ATOM     35  H   UNL     1      51.833 135.784  23.258  1.00  0.00     0.164 HD
ENDBRANCH  16  24
ENDBRANCH   1  14
TORSDOF 5
ENDMDL
MODEL 8
REMARK VINA RESULT:      -1.1      1.826      6.940
REMARK SMILES C=C[C@@H](Oc1nc[nH+]c(C)c1C)c1cc2[nH]ccc2cc1-c1c[nH+]c2c(c1)C(=O)NC2
REMARK SMILES IDX 3 1 2 2 1 3 4 4 5 5 6 6 11 7 7 8 9 9 8 10 12 11 10 12 13 14
REMARK SMILES IDX 14 15 21 16 15 17 20 18 16 19 19 20 17 21 18 22 22 24 23 25
REMARK SMILES IDX 27 26 24 27 26 28 25 29 28 30 31 31 30 32 29 34
REMARK H PARENT 8 13 16 23 24 33 30 35
ROOT
ATOM      1  C   UNL     1      45.078 130.563  19.807  1.00  0.00     0.231 C 
ENDROOT
BRANCH   1   2
ATOM      2  C   UNL     1      46.072 131.670  20.037  1.00  0.00     0.014 C 
ATOM      3  C   UNL     1      46.690 131.814  21.213  1.00  0.00     0.008 C 
ENDBRANCH   1   2
BRANCH   1   4
ATOM      4  O   UNL     1      45.301 129.977  18.524  1.00  0.00    -0.447 OA
BRANCH   4   5
ATOM      5  C   UNL     1      44.963 130.591  17.311  1.00  0.00     0.335 A 
ATOM      6  N   UNL     1      43.792 131.272  17.193  1.00  0.00    -0.010 NA
ATOM      7  C   UNL     1      45.823 130.484  16.205  1.00  0.00     0.080 A 
ATOM      8  C   UNL     1      43.429 131.851  16.023  1.00  0.00     0.453 A 
ATOM      9  C   UNL     1      45.432 131.108  14.998  1.00  0.00     0.108 A 
ATOM     10  N   UNL     1      44.238 131.763  14.938  1.00  0.00    -0.247 N 
ATOM     11  C   UNL     1      47.149 129.769  16.326  1.00  0.00     0.057 C 
ATOM     12  C   UNL     1      46.295 131.032  13.766  1.00  0.00     0.093 C 
ATOM     13  H   UNL     1      43.928 132.216  14.048  1.00  0.00     0.311 HD
ENDBRANCH   4   5
ENDBRANCH   1   4
BRANCH   1  14
ATOM     14  C   UNL     1      45.156 129.540  20.933  1.00  0.00     0.007 A 
ATOM     15  C   UNL     1      46.098 128.492  20.794  1.00  0.00     0.035 A 
ATOM     16  C   UNL     1      44.310 129.570  22.096  1.00  0.00    -0.004 A 
ATOM     17  C   UNL     1      46.196 127.542  21.804  1.00  0.00     0.046 A 
ATOM     18  C   UNL     1      44.457 128.587  23.099  1.00  0.00     0.019 A 
ATOM     19  N   UNL     1      47.029 126.490  21.855  1.00  0.00    -0.361 N 
ATOM     20  C   UNL     1      45.408 127.591  22.916  1.00  0.00    -0.000 A 
ATOM     21  C   UNL     1      46.761 125.863  23.023  1.00  0.00     0.083 A 
ATOM     22  C   UNL     1      45.751 126.523  23.715  1.00  0.00     0.028 A 
ATOM     23  H   UNL     1      47.740 126.210  21.143  1.00  0.00     0.166 HD
BRANCH  16  24
ATOM     24  C   UNL     1      43.302 130.625  22.321  1.00  0.00     0.047 A 
ATOM     25  C   UNL     1      42.767 130.860  23.610  1.00  0.00     0.315 A 
ATOM     26  C   UNL     1      42.872 131.420  21.241  1.00  0.00     0.035 A 
ATOM     27  N   UNL     1      41.813 131.820  23.802  1.00  0.00    -0.212 N 
ATOM     28  C   UNL     1      41.903 132.383  21.492  1.00  0.00     0.109 A 
ATOM     29  C   UNL     1      41.388 132.567  22.750  1.00  0.00     0.211 A 
ATOM     30  C   UNL     1      41.214 133.292  20.615  1.00  0.00     0.258 C 
ATOM     31  C   UNL     1      40.324 133.626  22.760  1.00  0.00     0.225 C 
ATOM     32  N   UNL     1      40.265 134.049  21.358  1.00  0.00    -0.342 N 
ATOM     33  H   UNL     1      41.411 131.975  24.753  1.00  0.00     0.453 HD
ATOM     34  O   UNL     1      41.394 133.406  19.374  1.00  0.00    -0.269 OA
ATOM     35  H   UNL     1      39.624 134.774  20.966  1.00  0.00     0.164 HD
ENDBRANCH  16  24
ENDBRANCH   1  14
TORSDOF 5
ENDMDL
MODEL 9
REMARK VINA RESULT:      -1.1      1.388      1.599
REMARK SMILES C=C[C@@H](Oc1nc[nH+]c(C)c1C)c1cc2[nH]ccc2cc1-c1c[nH+]c2c(c1)C(=O)NC2
REMARK SMILES IDX 3 1 2 2 1 3 4 4 5 5 6 6 11 7 7 8 9 9 8 10 12 11 10 12 13 14
REMARK SMILES IDX 14 15 21 16 15 17 20 18 16 19 19 20 17 21 18 22 22 24 23 25
REMARK SMILES IDX 27 26 24 27 26 28 25 29 28 30 31 31 30 32 29 34
REMARK H PARENT 8 13 16 23 24 33 30 35
ROOT
ATOM      1  C   UNL     1      45.855 130.932  20.563  1.00  0.00     0.231 C 
ENDROOT
BRANCH   1   2
ATOM      2  C   UNL     1      46.701 131.758  21.495  1.00  0.00     0.014 C 
ATOM      3  C   UNL     1      47.330 132.857  21.070  1.00  0.00     0.008 C 
ENDBRANCH   1   2
BRANCH   1   4
ATOM      4  O   UNL     1      45.759 129.596  21.060  1.00  0.00    -0.447 OA
BRANCH   4   5
ATOM      5  C   UNL     1      45.113 129.247  22.253  1.00  0.00     0.335 A 
ATOM      6  N   UNL     1      44.572 130.211  23.045  1.00  0.00    -0.010 NA
ATOM      7  C   UNL     1      45.045 127.900  22.647  1.00  0.00     0.080 A 
ATOM      8  C   UNL     1      43.967 129.902  24.217  1.00  0.00     0.453 A 
ATOM      9  C   UNL     1      44.396 127.598  23.866  1.00  0.00     0.108 A 
ATOM     10  N   UNL     1      43.886 128.611  24.624  1.00  0.00    -0.247 N 
ATOM     11  C   UNL     1      45.601 126.809  21.763  1.00  0.00     0.057 C 
ATOM     12  C   UNL     1      44.287 126.180  24.362  1.00  0.00     0.093 C 
ATOM     13  H   UNL     1      43.418 128.405  25.535  1.00  0.00     0.311 HD
ENDBRANCH   4   5
ENDBRANCH   1   4
BRANCH   1  14
ATOM     14  C   UNL     1      44.489 131.580  20.375  1.00  0.00     0.007 A 
ATOM     15  C   UNL     1      43.710 131.801  21.537  1.00  0.00     0.035 A 
ATOM     16  C   UNL     1      43.949 131.941  19.092  1.00  0.00    -0.004 A 
ATOM     17  C   UNL     1      42.459 132.392  21.402  1.00  0.00     0.046 A 
ATOM     18  C   UNL     1      42.677 132.549  19.009  1.00  0.00     0.019 A 
ATOM     19  N   UNL     1      41.587 132.689  22.379  1.00  0.00    -0.361 N 
ATOM     20  C   UNL     1      41.964 132.756  20.183  1.00  0.00    -0.000 A 
ATOM     21  C   UNL     1      40.521 133.251  21.765  1.00  0.00     0.083 A 
ATOM     22  C   UNL     1      40.720 133.310  20.390  1.00  0.00     0.028 A 
ATOM     23  H   UNL     1      41.705 132.523  23.404  1.00  0.00     0.166 HD
BRANCH  16  24
ATOM     24  C   UNL     1      44.692 131.745  17.832  1.00  0.00     0.047 A 
ATOM     25  C   UNL     1      45.326 132.831  17.182  1.00  0.00     0.315 A 
ATOM     26  C   UNL     1      44.783 130.457  17.269  1.00  0.00     0.035 A 
ATOM     27  N   UNL     1      45.987 132.642  16.000  1.00  0.00    -0.212 N 
ATOM     28  C   UNL     1      45.469 130.322  16.069  1.00  0.00     0.109 A 
ATOM     29  C   UNL     1      46.051 131.400  15.454  1.00  0.00     0.211 A 
ATOM     30  C   UNL     1      45.681 129.182  15.217  1.00  0.00     0.258 C 
ATOM     31  C   UNL     1      46.687 131.013  14.151  1.00  0.00     0.225 C 
ATOM     32  N   UNL     1      46.413 129.576  14.062  1.00  0.00    -0.342 N 
ATOM     33  H   UNL     1      46.437 133.452  15.518  1.00  0.00     0.453 HD
ATOM     34  O   UNL     1      45.275 128.010  15.431  1.00  0.00    -0.269 OA
ATOM     35  H   UNL     1      46.695 128.949  13.277  1.00  0.00     0.164 HD
ENDBRANCH  16  24
ENDBRANCH   1  14
TORSDOF 5
ENDMDL


