MODEL 1
REMARK VINA RESULT:     -10.1      0.000      0.000
REMARK SMILES O=C1NCc2[nH+]cc(-c3ccc4[nH]ccc4c3)cc21
REMARK SMILES IDX 1 1 2 2 3 3 4 4 5 5 6 6 7 7 8 8 18 9 19 10 9 13 10 14 17 15
REMARK SMILES IDX 11 16 16 17 12 18 15 19 13 20 14 21
REMARK H PARENT 3 11 6 12 13 22
ROOT
ATOM      1  O   UNL     1      41.495 132.933  19.984  1.00  0.00    -0.269 OA
ATOM      2  C   UNL     1      42.395 132.280  20.573  1.00  0.00     0.258 C 
ATOM      3  N   UNL     1      42.387 131.982  21.965  1.00  0.00    -0.342 N 
ATOM      4  C   UNL     1      43.591 131.212  22.285  1.00  0.00     0.225 C 
ATOM      5  C   UNL     1      44.284 131.098  20.958  1.00  0.00     0.211 A 
ATOM      6  N   UNL     1      45.461 130.475  20.698  1.00  0.00    -0.212 N 
ATOM      7  C   UNL     1      45.959 130.467  19.425  1.00  0.00     0.315 A 
ATOM      8  C   UNL     1      45.258 131.104  18.366  1.00  0.00     0.046 A 
ATOM      9  C   UNL     1      44.034 131.747  18.653  1.00  0.00     0.035 A 
ATOM     10  C   UNL     1      43.576 131.724  19.964  1.00  0.00     0.109 A 
ATOM     11  H   UNL     1      41.645 132.265  22.643  1.00  0.00     0.164 HD
ATOM     12  H   UNL     1      45.985 130.000  21.466  1.00  0.00     0.453 HD
ENDROOT
BRANCH   8  13
ATOM     13  C   UNL     1      45.801 131.095  16.985  1.00  0.00    -0.012 A 
ATOM     14  C   UNL     1      45.625 132.221  16.134  1.00  0.00     0.011 A 
ATOM     15  C   UNL     1      46.502 129.963  16.501  1.00  0.00     0.019 A 
ATOM     16  C   UNL     1      46.135 132.222  14.824  1.00  0.00     0.027 A 
ATOM     17  C   UNL     1      46.993 130.001  15.199  1.00  0.00    -0.000 A 
ATOM     18  C   UNL     1      46.818 131.089  14.389  1.00  0.00     0.045 A 
ATOM     19  C   UNL     1      47.701 129.062  14.480  1.00  0.00     0.028 A 
ATOM     20  N   UNL     1      47.381 130.886  13.186  1.00  0.00    -0.361 N 
ATOM     21  C   UNL     1      47.923 129.648  13.237  1.00  0.00     0.083 A 
ATOM     22  H   UNL     1      47.399 131.546  12.377  1.00  0.00     0.166 HD
ENDBRANCH   8  13
TORSDOF 1
ENDMDL
MODEL 2
REMARK VINA RESULT:      -9.0      1.621      2.423
REMARK SMILES O=C1NCc2[nH+]cc(-c3ccc4[nH]ccc4c3)cc21
REMARK SMILES IDX 1 1 2 2 3 3 4 4 5 5 6 6 7 7 8 8 18 9 19 10 9 13 10 14 17 15
REMARK SMILES IDX 11 16 16 17 12 18 15 19 13 20 14 21
REMARK H PARENT 3 11 6 12 13 22
ROOT
ATOM      1  O   UNL     1      44.822 131.052  22.028  1.00  0.00    -0.269 OA
ATOM      2  C   UNL     1      43.890 131.546  21.341  1.00  0.00     0.258 C 
ATOM      3  N   UNL     1      42.736 132.172  21.890  1.00  0.00    -0.342 N 
ATOM      4  C   UNL     1      41.879 132.620  20.790  1.00  0.00     0.225 C 
ATOM      5  C   UNL     1      42.643 132.195  19.571  1.00  0.00     0.211 A 
ATOM      6  N   UNL     1      42.282 132.369  18.274  1.00  0.00    -0.212 N 
ATOM      7  C   UNL     1      43.097 131.915  17.275  1.00  0.00     0.315 A 
ATOM      8  C   UNL     1      44.321 131.261  17.575  1.00  0.00     0.046 A 
ATOM      9  C   UNL     1      44.684 131.089  18.929  1.00  0.00     0.035 A 
ATOM     10  C   UNL     1      43.817 131.570  19.903  1.00  0.00     0.109 A 
ATOM     11  H   UNL     1      42.535 132.292  22.908  1.00  0.00     0.164 HD
ATOM     12  H   UNL     1      41.385 132.850  18.038  1.00  0.00     0.453 HD
ENDROOT
BRANCH   8  13
ATOM     13  C   UNL     1      45.204 130.769  16.488  1.00  0.00    -0.012 A 
ATOM     14  C   UNL     1      45.385 129.373  16.284  1.00  0.00     0.011 A 
ATOM     15  C   UNL     1      45.876 131.686  15.644  1.00  0.00     0.019 A 
ATOM     16  C   UNL     1      46.219 128.897  15.257  1.00  0.00     0.027 A 
ATOM     17  C   UNL     1      46.693 131.177  14.638  1.00  0.00    -0.000 A 
ATOM     18  C   UNL     1      46.859 129.833  14.450  1.00  0.00     0.045 A 
ATOM     19  C   UNL     1      47.450 131.823  13.685  1.00  0.00     0.028 A 
ATOM     20  N   UNL     1      47.690 129.593  13.422  1.00  0.00    -0.361 N 
ATOM     21  C   UNL     1      48.054 130.807  12.950  1.00  0.00     0.083 A 
ATOM     22  H   UNL     1      47.993 128.662  13.058  1.00  0.00     0.166 HD
ENDBRANCH   8  13
TORSDOF 1
ENDMDL
MODEL 3
REMARK VINA RESULT:      -8.9      2.023      6.895
REMARK SMILES O=C1NCc2[nH+]cc(-c3ccc4[nH]ccc4c3)cc21
REMARK SMILES IDX 1 1 2 2 3 3 4 4 5 5 6 6 7 7 8 8 18 9 19 10 9 13 10 14 17 15
REMARK SMILES IDX 11 16 16 17 12 18 15 19 13 20 14 21
REMARK H PARENT 3 11 6 12 13 22
ROOT
ATOM      1  O   UNL     1      43.525 131.753  14.049  1.00  0.00    -0.269 OA
ATOM      2  C   UNL     1      44.577 131.263  14.534  1.00  0.00     0.258 C 
ATOM      3  N   UNL     1      45.663 130.772  13.756  1.00  0.00    -0.342 N 
ATOM      4  C   UNL     1      46.704 130.282  14.662  1.00  0.00     0.225 C 
ATOM      5  C   UNL     1      46.117 130.535  16.020  1.00  0.00     0.211 A 
ATOM      6  N   UNL     1      46.681 130.256  17.223  1.00  0.00    -0.212 N 
ATOM      7  C   UNL     1      46.005 130.549  18.375  1.00  0.00     0.315 A 
ATOM      8  C   UNL     1      44.717 131.144  18.330  1.00  0.00     0.046 A 
ATOM      9  C   UNL     1      44.144 131.429  17.071  1.00  0.00     0.035 A 
ATOM     10  C   UNL     1      44.876 131.110  15.934  1.00  0.00     0.109 A 
ATOM     11  H   UNL     1      45.710 130.764  12.712  1.00  0.00     0.164 HD
ATOM     12  H   UNL     1      47.629 129.821  17.270  1.00  0.00     0.453 HD
ENDROOT
BRANCH   8  13
ATOM     13  C   UNL     1      43.985 131.460  19.583  1.00  0.00    -0.012 A 
ATOM     14  C   UNL     1      42.786 132.224  19.543  1.00  0.00     0.011 A 
ATOM     15  C   UNL     1      44.475 131.003  20.830  1.00  0.00     0.019 A 
ATOM     16  C   UNL     1      42.085 132.528  20.723  1.00  0.00     0.027 A 
ATOM     17  C   UNL     1      43.754 131.324  21.978  1.00  0.00    -0.000 A 
ATOM     18  C   UNL     1      42.602 132.059  21.928  1.00  0.00     0.045 A 
ATOM     19  C   UNL     1      43.989 131.016  23.300  1.00  0.00     0.028 A 
ATOM     20  N   UNL     1      42.093 132.234  23.158  1.00  0.00    -0.361 N 
ATOM     21  C   UNL     1      42.938 131.598  24.001  1.00  0.00     0.083 A 
ATOM     22  H   UNL     1      41.224 132.753  23.415  1.00  0.00     0.166 HD
ENDBRANCH   8  13
TORSDOF 1
ENDMDL
MODEL 4
REMARK VINA RESULT:      -8.1      1.638      2.100
REMARK SMILES O=C1NCc2[nH+]cc(-c3ccc4[nH]ccc4c3)cc21
REMARK SMILES IDX 1 1 2 2 3 3 4 4 5 5 6 6 7 7 8 8 18 9 19 10 9 13 10 14 17 15
REMARK SMILES IDX 11 16 16 17 12 18 15 19 13 20 14 21
REMARK H PARENT 3 11 6 12 13 22
ROOT
ATOM      1  O   UNL     1      45.561 130.850  21.943  1.00  0.00    -0.269 OA
ATOM      2  C   UNL     1      44.466 131.299  21.517  1.00  0.00     0.258 C 
ATOM      3  N   UNL     1      43.391 131.714  22.353  1.00  0.00    -0.342 N 
ATOM      4  C   UNL     1      42.289 132.174  21.505  1.00  0.00     0.225 C 
ATOM      5  C   UNL     1      42.828 131.984  20.117  1.00  0.00     0.211 A 
ATOM      6  N   UNL     1      42.196 132.257  18.947  1.00  0.00    -0.212 N 
ATOM      7  C   UNL     1      42.832 132.021  17.760  1.00  0.00     0.315 A 
ATOM      8  C   UNL     1      44.150 131.493  17.734  1.00  0.00     0.046 A 
ATOM      9  C   UNL     1      44.795 131.216  18.959  1.00  0.00     0.035 A 
ATOM     10  C   UNL     1      44.101 131.475  20.135  1.00  0.00     0.109 A 
ATOM     11  H   UNL     1      43.390 131.694  23.397  1.00  0.00     0.164 HD
ATOM     12  H   UNL     1      41.228 132.648  18.952  1.00  0.00     0.453 HD
ENDROOT
BRANCH   8  13
ATOM     13  C   UNL     1      44.838 131.236  16.444  1.00  0.00    -0.012 A 
ATOM     14  C   UNL     1      44.250 131.654  15.218  1.00  0.00     0.011 A 
ATOM     15  C   UNL     1      46.089 130.573  16.422  1.00  0.00     0.019 A 
ATOM     16  C   UNL     1      44.894 131.415  13.991  1.00  0.00     0.027 A 
ATOM     17  C   UNL     1      46.697 130.355  15.188  1.00  0.00    -0.000 A 
ATOM     18  C   UNL     1      46.122 130.761  14.016  1.00  0.00     0.045 A 
ATOM     19  C   UNL     1      47.894 129.749  14.872  1.00  0.00     0.028 A 
ATOM     20  N   UNL     1      46.898 130.440  12.967  1.00  0.00    -0.361 N 
ATOM     21  C   UNL     1      47.982 129.821  13.485  1.00  0.00     0.083 A 
ATOM     22  H   UNL     1      46.706 130.628  11.958  1.00  0.00     0.166 HD
ENDBRANCH   8  13
TORSDOF 1
ENDMDL
MODEL 5
REMARK VINA RESULT:      -8.0      2.370      6.990
REMARK SMILES O=C1NCc2[nH+]cc(-c3ccc4[nH]ccc4c3)cc21
REMARK SMILES IDX 1 1 2 2 3 3 4 4 5 5 6 6 7 7 8 8 18 9 19 10 9 13 10 14 17 15
REMARK SMILES IDX 11 16 16 17 12 18 15 19 13 20 14 21
REMARK H PARENT 3 11 6 12 13 22
ROOT
ATOM      1  O   UNL     1      47.402 128.083  14.684  1.00  0.00    -0.269 OA
ATOM      2  C   UNL     1      47.316 129.304  14.394  1.00  0.00     0.258 C 
ATOM      3  N   UNL     1      47.888 129.892  13.231  1.00  0.00    -0.342 N 
ATOM      4  C   UNL     1      47.583 131.325  13.232  1.00  0.00     0.225 C 
ATOM      5  C   UNL     1      46.790 131.501  14.494  1.00  0.00     0.211 A 
ATOM      6  N   UNL     1      46.261 132.653  14.977  1.00  0.00    -0.212 N 
ATOM      7  C   UNL     1      45.563 132.641  16.152  1.00  0.00     0.315 A 
ATOM      8  C   UNL     1      45.383 131.434  16.879  1.00  0.00     0.046 A 
ATOM      9  C   UNL     1      45.939 130.243  16.363  1.00  0.00     0.035 A 
ATOM     10  C   UNL     1      46.638 130.314  15.164  1.00  0.00     0.109 A 
ATOM     11  H   UNL     1      48.434 129.385  12.498  1.00  0.00     0.164 HD
ATOM     12  H   UNL     1      46.383 133.548  14.451  1.00  0.00     0.453 HD
ENDROOT
BRANCH   8  13
ATOM     13  C   UNL     1      44.626 131.424  18.156  1.00  0.00    -0.012 A 
ATOM     14  C   UNL     1      43.258 131.811  18.185  1.00  0.00     0.011 A 
ATOM     15  C   UNL     1      45.261 131.027  19.358  1.00  0.00     0.019 A 
ATOM     16  C   UNL     1      42.533 131.805  19.390  1.00  0.00     0.027 A 
ATOM     17  C   UNL     1      44.511 131.033  20.531  1.00  0.00    -0.000 A 
ATOM     18  C   UNL     1      43.195 131.407  20.548  1.00  0.00     0.045 A 
ATOM     19  C   UNL     1      44.860 130.698  21.821  1.00  0.00     0.028 A 
ATOM     20  N   UNL     1      42.692 131.328  21.790  1.00  0.00    -0.361 N 
ATOM     21  C   UNL     1      43.706 130.895  22.573  1.00  0.00     0.083 A 
ATOM     22  H   UNL     1      41.718 131.553  22.093  1.00  0.00     0.166 HD
ENDBRANCH   8  13
TORSDOF 1
ENDMDL
MODEL 6
REMARK VINA RESULT:      -7.9      2.514      7.147
REMARK SMILES O=C1NCc2[nH+]cc(-c3ccc4[nH]ccc4c3)cc21
REMARK SMILES IDX 1 1 2 2 3 3 4 4 5 5 6 6 7 7 8 8 18 9 19 10 9 13 10 14 17 15
REMARK SMILES IDX 11 16 16 17 12 18 15 19 13 20 14 21
REMARK H PARENT 3 11 6 12 13 22
ROOT
ATOM      1  O   UNL     1      48.483 129.243  14.777  1.00  0.00    -0.269 OA
ATOM      2  C   UNL     1      47.506 129.953  14.424  1.00  0.00     0.258 C 
ATOM      3  N   UNL     1      47.235 130.330  13.079  1.00  0.00    -0.342 N 
ATOM      4  C   UNL     1      46.023 131.152  13.058  1.00  0.00     0.225 C 
ATOM      5  C   UNL     1      45.630 131.212  14.505  1.00  0.00     0.211 A 
ATOM      6  N   UNL     1      44.565 131.861  15.040  1.00  0.00    -0.212 N 
ATOM      7  C   UNL     1      44.350 131.818  16.389  1.00  0.00     0.315 A 
ATOM      8  C   UNL     1      45.229 131.101  17.243  1.00  0.00     0.046 A 
ATOM      9  C   UNL     1      46.332 130.429  16.671  1.00  0.00     0.035 A 
ATOM     10  C   UNL     1      46.501 130.507  15.295  1.00  0.00     0.109 A 
ATOM     11  H   UNL     1      47.805 130.062  12.245  1.00  0.00     0.164 HD
ATOM     12  H   UNL     1      43.908 132.391  14.423  1.00  0.00     0.453 HD
ENDROOT
BRANCH   8  13
ATOM     13  C   UNL     1      44.994 131.056  18.708  1.00  0.00    -0.012 A 
ATOM     14  C   UNL     1      45.927 130.414  19.568  1.00  0.00     0.011 A 
ATOM     15  C   UNL     1      43.837 131.655  19.264  1.00  0.00     0.019 A 
ATOM     16  C   UNL     1      45.713 130.366  20.957  1.00  0.00     0.027 A 
ATOM     17  C   UNL     1      43.659 131.589  20.643  1.00  0.00    -0.000 A 
ATOM     18  C   UNL     1      44.563 130.968  21.461  1.00  0.00     0.045 A 
ATOM     19  C   UNL     1      42.649 132.077  21.442  1.00  0.00     0.028 A 
ATOM     20  N   UNL     1      44.173 131.038  22.744  1.00  0.00    -0.361 N 
ATOM     21  C   UNL     1      43.003 131.716  22.738  1.00  0.00     0.083 A 
ATOM     22  H   UNL     1      44.669 130.650  23.578  1.00  0.00     0.166 HD
ENDBRANCH   8  13
TORSDOF 1
ENDMDL
MODEL 7
REMARK VINA RESULT:      -7.8      0.786      1.463
REMARK SMILES O=C1NCc2[nH+]cc(-c3ccc4[nH]ccc4c3)cc21
REMARK SMILES IDX 1 1 2 2 3 3 4 4 5 5 6 6 7 7 8 8 18 9 19 10 9 13 10 14 17 15
REMARK SMILES IDX 11 16 16 17 12 18 15 19 13 20 14 21
REMARK H PARENT 3 11 6 12 13 22
ROOT
ATOM      1  O   UNL     1      41.330 132.963  19.738  1.00  0.00    -0.269 OA
ATOM      2  C   UNL     1      42.246 132.459  20.437  1.00  0.00     0.258 C 
ATOM      3  N   UNL     1      42.263 132.465  21.860  1.00  0.00    -0.342 N 
ATOM      4  C   UNL     1      43.481 131.791  22.317  1.00  0.00     0.225 C 
ATOM      5  C   UNL     1      44.155 131.403  21.033  1.00  0.00     0.211 A 
ATOM      6  N   UNL     1      45.336 130.749  20.891  1.00  0.00    -0.212 N 
ATOM      7  C   UNL     1      45.814 130.474  19.640  1.00  0.00     0.315 A 
ATOM      8  C   UNL     1      45.090 130.864  18.483  1.00  0.00     0.046 A 
ATOM      9  C   UNL     1      43.863 131.542  18.647  1.00  0.00     0.035 A 
ATOM     10  C   UNL     1      43.425 131.796  19.941  1.00  0.00     0.109 A 
ATOM     11  H   UNL     1      41.528 132.880  22.475  1.00  0.00     0.164 HD
ATOM     12  H   UNL     1      45.877 130.454  21.734  1.00  0.00     0.453 HD
ENDROOT
BRANCH   8  13
ATOM     13  C   UNL     1      45.612 130.565  17.126  1.00  0.00    -0.012 A 
ATOM     14  C   UNL     1      45.573 129.238  16.615  1.00  0.00     0.011 A 
ATOM     15  C   UNL     1      46.155 131.600  16.326  1.00  0.00     0.019 A 
ATOM     16  C   UNL     1      46.066 128.945  15.331  1.00  0.00     0.027 A 
ATOM     17  C   UNL     1      46.633 131.272  15.060  1.00  0.00    -0.000 A 
ATOM     18  C   UNL     1      46.590 129.993  14.579  1.00  0.00     0.045 A 
ATOM     19  C   UNL     1      47.200 132.061  14.083  1.00  0.00     0.028 A 
ATOM     20  N   UNL     1      47.106 129.930  13.340  1.00  0.00    -0.361 N 
ATOM     21  C   UNL     1      47.480 131.193  13.032  1.00  0.00     0.083 A 
ATOM     22  H   UNL     1      47.199 129.083  12.736  1.00  0.00     0.166 HD
ENDBRANCH   8  13
TORSDOF 1
ENDMDL
MODEL 8
REMARK VINA RESULT:      -7.7      1.886      2.291
REMARK SMILES O=C1NCc2[nH+]cc(-c3ccc4[nH]ccc4c3)cc21
REMARK SMILES IDX 1 1 2 2 3 3 4 4 5 5 6 6 7 7 8 8 18 9 19 10 9 13 10 14 17 15
REMARK SMILES IDX 11 16 16 17 12 18 15 19 13 20 14 21
REMARK H PARENT 3 11 6 12 13 22
ROOT
ATOM      1  O   UNL     1      45.770 128.037  21.896  1.00  0.00    -0.269 OA
ATOM      2  C   UNL     1      45.138 129.124  21.919  1.00  0.00     0.258 C 
ATOM      3  N   UNL     1      44.437 129.618  23.055  1.00  0.00    -0.342 N 
ATOM      4  C   UNL     1      43.827 130.903  22.706  1.00  0.00     0.225 C 
ATOM      5  C   UNL     1      44.240 131.097  21.276  1.00  0.00     0.211 A 
ATOM      6  N   UNL     1      43.932 132.142  20.467  1.00  0.00    -0.212 N 
ATOM      7  C   UNL     1      44.390 132.163  19.179  1.00  0.00     0.315 A 
ATOM      8  C   UNL     1      45.186 131.101  18.673  1.00  0.00     0.046 A 
ATOM      9  C   UNL     1      45.499 130.022  19.528  1.00  0.00     0.035 A 
ATOM     10  C   UNL     1      45.008 130.054  20.827  1.00  0.00     0.109 A 
ATOM     11  H   UNL     1      44.369 129.142  23.983  1.00  0.00     0.164 HD
ATOM     12  H   UNL     1      43.350 132.931  20.827  1.00  0.00     0.453 HD
ENDROOT
BRANCH   8  13
ATOM     13  C   UNL     1      45.681 131.126  17.274  1.00  0.00    -0.012 A 
ATOM     14  C   UNL     1      45.460 132.264  16.452  1.00  0.00     0.011 A 
ATOM     15  C   UNL     1      46.378 130.012  16.745  1.00  0.00     0.019 A 
ATOM     16  C   UNL     1      45.924 132.297  15.125  1.00  0.00     0.027 A 
ATOM     17  C   UNL     1      46.823 130.081  15.427  1.00  0.00    -0.000 A 
ATOM     18  C   UNL     1      46.606 131.181  14.645  1.00  0.00     0.045 A 
ATOM     19  C   UNL     1      47.518 129.166  14.666  1.00  0.00     0.028 A 
ATOM     20  N   UNL     1      47.129 131.009  13.420  1.00  0.00    -0.361 N 
ATOM     21  C   UNL     1      47.689 129.777  13.428  1.00  0.00     0.083 A 
ATOM     22  H   UNL     1      47.110 131.684  12.624  1.00  0.00     0.166 HD
ENDBRANCH   8  13
TORSDOF 1
ENDMDL
MODEL 9
REMARK VINA RESULT:      -7.6      1.975      2.784
REMARK SMILES O=C1NCc2[nH+]cc(-c3ccc4[nH]ccc4c3)cc21
REMARK SMILES IDX 1 1 2 2 3 3 4 4 5 5 6 6 7 7 8 8 18 9 19 10 9 13 10 14 17 15
REMARK SMILES IDX 11 16 16 17 12 18 15 19 13 20 14 21
REMARK H PARENT 3 11 6 12 13 22
ROOT
ATOM      1  O   UNL     1      44.651 129.524  23.292  1.00  0.00    -0.269 OA
ATOM      2  C   UNL     1      43.814 130.439  23.082  1.00  0.00     0.258 C 
ATOM      3  N   UNL     1      43.006 131.032  24.093  1.00  0.00    -0.342 N 
ATOM      4  C   UNL     1      42.159 132.055  23.475  1.00  0.00     0.225 C 
ATOM      5  C   UNL     1      42.553 131.992  22.028  1.00  0.00     0.211 A 
ATOM      6  N   UNL     1      42.059 132.740  21.010  1.00  0.00    -0.212 N 
ATOM      7  C   UNL     1      42.528 132.554  19.739  1.00  0.00     0.315 A 
ATOM      8  C   UNL     1      43.530 131.585  19.469  1.00  0.00     0.046 A 
ATOM      9  C   UNL     1      44.036 130.816  20.540  1.00  0.00     0.035 A 
ATOM     10  C   UNL     1      43.523 131.047  21.809  1.00  0.00     0.109 A 
ATOM     11  H   UNL     1      43.017 130.779  25.106  1.00  0.00     0.164 HD
ATOM     12  H   UNL     1      41.323 133.459  21.194  1.00  0.00     0.453 HD
ENDROOT
BRANCH   8  13
ATOM     13  C   UNL     1      44.038 131.384  18.088  1.00  0.00    -0.012 A 
ATOM     14  C   UNL     1      43.262 131.794  16.969  1.00  0.00     0.011 A 
ATOM     15  C   UNL     1      45.301 130.781  17.873  1.00  0.00     0.019 A 
ATOM     16  C   UNL     1      43.734 131.608  15.658  1.00  0.00     0.027 A 
ATOM     17  C   UNL     1      45.735 130.613  16.561  1.00  0.00    -0.000 A 
ATOM     18  C   UNL     1      44.981 131.012  15.492  1.00  0.00     0.045 A 
ATOM     19  C   UNL     1      46.900 130.070  16.064  1.00  0.00     0.028 A 
ATOM     20  N   UNL     1      45.612 130.746  14.336  1.00  0.00    -0.361 N 
ATOM     21  C   UNL     1      46.786 130.170  14.680  1.00  0.00     0.083 A 
ATOM     22  H   UNL     1      45.270 130.943  13.369  1.00  0.00     0.166 HD
ENDBRANCH   8  13
TORSDOF 1
ENDMDL


