MODEL 1
REMARK VINA RESULT:     -10.0      0.000      0.000
REMARK SMILES C#Cc1cncc(Nc2cc(C)cc(-n3nc4ccc(F)cc4n3)c2[O-])c1
REMARK SMILES IDX 8 1 7 3 3 4 4 5 27 6 5 7 6 8 2 9 1 10 9 11 10 12 25 13 11 14
REMARK SMILES IDX 14 15 13 16 26 17 12 18 15 19 16 20 24 21 17 22 23 23 18 24
REMARK SMILES IDX 22 25 19 26 20 27 21 28
REMARK H PARENT 8 2
ROOT
ATOM      1  N   UNL     1      44.955 130.734  22.249  1.00  0.00    -0.355 N 
ATOM      2  H   UNL     1      45.690 131.312  22.718  1.00  0.00     0.167 HD
ENDROOT
BRANCH   1   3
ATOM      3  C   UNL     1      44.531 129.528  22.908  1.00  0.00     0.058 A 
ATOM      4  C   UNL     1      44.688 127.121  23.174  1.00  0.00     0.045 A 
ATOM      5  C   UNL     1      43.763 127.196  24.221  1.00  0.00     0.128 A 
ATOM      6  C   UNL     1      45.076 128.296  22.522  1.00  0.00     0.046 A 
ATOM      7  N   UNL     1      43.262 128.400  24.601  1.00  0.00    -0.261 NA
ATOM      8  C   UNL     1      43.621 129.554  23.980  1.00  0.00     0.137 A 
BRANCH   4   9
ATOM      9  C   UNL     1      45.233 125.851  22.774  1.00  0.00    -0.069 C 
ATOM     10  C   UNL     1      45.690 124.787  22.440  1.00  0.00     0.010 C 
ENDBRANCH   4   9
ENDBRANCH   1   3
BRANCH   1  11
ATOM     11  C   UNL     1      44.444 131.188  20.983  1.00  0.00     0.033 A 
ATOM     12  C   UNL     1      43.203 131.839  20.907  1.00  0.00     0.029 A 
ATOM     13  C   UNL     1      45.161 130.921  19.803  1.00  0.00    -0.056 A 
ATOM     14  C   UNL     1      42.698 132.266  19.674  1.00  0.00    -0.047 A 
ATOM     15  C   UNL     1      44.652 131.328  18.548  1.00  0.00     0.080 A 
ATOM     16  C   UNL     1      43.416 131.999  18.503  1.00  0.00     0.033 A 
ATOM     17  O   UNL     1      46.382 130.260  19.893  1.00  0.00    -0.870 OA
ATOM     18  C   UNL     1      41.356 132.935  19.601  1.00  0.00     0.044 C 
BRANCH  15  19
ATOM     19  N   UNL     1      45.367 131.069  17.320  1.00  0.00    -0.151 N 
ATOM     20  N   UNL     1      45.844 129.874  16.967  1.00  0.00    -0.148 NA
ATOM     21  N   UNL     1      45.621 132.008  16.408  1.00  0.00    -0.148 NA
ATOM     22  C   UNL     1      46.427 130.068  15.777  1.00  0.00     0.113 A 
ATOM     23  C   UNL     1      46.292 131.375  15.434  1.00  0.00     0.116 A 
ATOM     24  C   UNL     1      47.083 129.151  14.962  1.00  0.00     0.035 A 
ATOM     25  C   UNL     1      46.798 131.888  14.244  1.00  0.00     0.071 A 
ATOM     26  C   UNL     1      47.611 129.628  13.746  1.00  0.00     0.041 A 
ATOM     27  C   UNL     1      47.470 130.991  13.388  1.00  0.00     0.125 A 
ATOM     28  F   UNL     1      47.982 131.437  12.215  1.00  0.00    -0.207 F 
ENDBRANCH  15  19
ENDBRANCH   1  11
TORSDOF 4
ENDMDL
MODEL 2
REMARK VINA RESULT:      -7.9      1.054      1.559
REMARK SMILES C#Cc1cncc(Nc2cc(C)cc(-n3nc4ccc(F)cc4n3)c2[O-])c1
REMARK SMILES IDX 8 1 7 3 3 4 4 5 27 6 5 7 6 8 2 9 1 10 9 11 10 12 25 13 11 14
REMARK SMILES IDX 14 15 13 16 26 17 12 18 15 19 16 20 24 21 17 22 23 23 18 24
REMARK SMILES IDX 22 25 19 26 20 27 21 28
REMARK H PARENT 8 2
ROOT
ATOM      1  N   UNL     1      44.718 131.427  21.526  1.00  0.00    -0.355 N 
ATOM      2  H   UNL     1      45.385 132.159  21.862  1.00  0.00     0.167 HD
ENDROOT
BRANCH   1   3
ATOM      3  C   UNL     1      44.368 130.370  22.437  1.00  0.00     0.058 A 
ATOM      4  C   UNL     1      44.234 128.001  22.944  1.00  0.00     0.045 A 
ATOM      5  C   UNL     1      43.753 128.320  24.218  1.00  0.00     0.128 A 
ATOM      6  C   UNL     1      44.549 129.034  22.055  1.00  0.00     0.046 A 
ATOM      7  N   UNL     1      43.606 129.621  24.583  1.00  0.00    -0.261 NA
ATOM      8  C   UNL     1      43.902 130.641  23.736  1.00  0.00     0.137 A 
BRANCH   4   9
ATOM      9  C   UNL     1      44.405 126.627  22.553  1.00  0.00    -0.069 C 
ATOM     10  C   UNL     1      44.547 125.475  22.227  1.00  0.00     0.010 C 
ENDBRANCH   4   9
ENDBRANCH   1   3
BRANCH   1  11
ATOM     11  C   UNL     1      44.220 131.534  20.181  1.00  0.00     0.033 A 
ATOM     12  C   UNL     1      42.870 131.833  19.941  1.00  0.00     0.029 A 
ATOM     13  C   UNL     1      45.075 131.274  19.095  1.00  0.00    -0.056 A 
ATOM     14  C   UNL     1      42.381 131.922  18.633  1.00  0.00    -0.047 A 
ATOM     15  C   UNL     1      44.590 131.339  17.768  1.00  0.00     0.080 A 
ATOM     16  C   UNL     1      43.237 131.663  17.556  1.00  0.00     0.033 A 
ATOM     17  O   UNL     1      46.408 130.963  19.349  1.00  0.00    -0.870 OA
ATOM     18  C   UNL     1      40.929 132.213  18.390  1.00  0.00     0.044 C 
BRANCH  15  19
ATOM     19  N   UNL     1      45.446 131.078  16.635  1.00  0.00    -0.151 N 
ATOM     20  N   UNL     1      45.821 132.002  15.749  1.00  0.00    -0.148 NA
ATOM     21  N   UNL     1      45.953 129.875  16.360  1.00  0.00    -0.148 NA
ATOM     22  C   UNL     1      46.601 131.352  14.874  1.00  0.00     0.113 A 
ATOM     23  C   UNL     1      46.681 130.049  15.248  1.00  0.00     0.116 A 
ATOM     24  C   UNL     1      47.254 131.843  13.749  1.00  0.00     0.035 A 
ATOM     25  C   UNL     1      47.423 129.114  14.532  1.00  0.00     0.071 A 
ATOM     26  C   UNL     1      48.019 130.931  12.995  1.00  0.00     0.041 A 
ATOM     27  C   UNL     1      48.103 129.571  13.385  1.00  0.00     0.125 A 
ATOM     28  F   UNL     1      48.841 128.704  12.650  1.00  0.00    -0.207 F 
ENDBRANCH  15  19
ENDBRANCH   1  11
TORSDOF 4
ENDMDL


