REMARK SMILES C=Cc1cccc(-c2ccc3c(c2)[C@H](N=[N+]=[N-])CC3)c1
REMARK SMILES IDX 8 1 9 2 10 3 11 4 12 5 13 6 14 7 18 8 19 9 7 10 3 11 4 12
REMARK SMILES IDX 20 13 5 14 6 15 2 16 1 17 15 18 16 19 17 20
REMARK H PARENT
ROOT
ATOM      1  C   UNL     1       0.109  -1.286   0.682  1.00  0.00    -0.018 A 
ATOM      2  C   UNL     1      -0.530  -2.363   1.340  1.00  0.00     0.009 A 
ATOM      3  C   UNL     1      -1.915  -2.551   1.221  1.00  0.00     0.004 A 
ATOM      4  C   UNL     1      -2.651  -1.657   0.444  1.00  0.00    -0.044 A 
ATOM      5  C   UNL     1      -2.047  -0.603  -0.190  1.00  0.00    -0.035 A 
ATOM      6  C   UNL     1      -0.667  -0.399  -0.095  1.00  0.00     0.013 A 
ATOM      7  C   UNL     1      -3.024   0.226  -0.945  1.00  0.00     0.104 C 
ATOM      8  C   UNL     1      -4.335  -0.585  -0.847  1.00  0.00     0.019 C 
ATOM      9  C   UNL     1      -4.110  -1.695   0.196  1.00  0.00     0.036 C 
ENDROOT
BRANCH   1  10
ATOM     10  C   UNL     1       1.576  -1.090   0.806  1.00  0.00    -0.018 A 
ATOM     11  C   UNL     1       3.735  -0.516  -0.200  1.00  0.00    -0.026 A 
ATOM     12  C   UNL     1       4.353  -0.731   1.041  1.00  0.00     0.008 A 
ATOM     13  C   UNL     1       2.343  -0.710  -0.312  1.00  0.00     0.016 A 
ATOM     14  C   UNL     1       3.599  -1.108   2.154  1.00  0.00     0.001 A 
ATOM     15  C   UNL     1       2.219  -1.283   2.040  1.00  0.00     0.009 A 
BRANCH  11  16
ATOM     16  C   UNL     1       4.583  -0.125  -1.354  1.00  0.00     0.000 C 
ATOM     17  C   UNL     1       4.116   0.444  -2.466  1.00  0.00     0.009 C 
ENDBRANCH  11  16
ENDBRANCH   1  10
BRANCH   7  18
ATOM     18  N   UNL     1      -3.192   1.530  -0.312  1.00  0.00    -0.086 NA
BRANCH  18  19
ATOM     19  N   UNL     1      -2.302   2.380  -0.357  1.00  0.00     0.002 N 
ATOM     20  N   UNL     1      -1.413   3.230  -0.402  1.00  0.00    -0.003 NA
ENDBRANCH  18  19
ENDBRANCH   7  18
TORSDOF 4


