MODEL 1
REMARK VINA RESULT:      -9.7      0.000      0.000
REMARK SMILES C=Cc1cccc(-c2ccc3c(c2)[C@@H](N)CC3)c1
REMARK SMILES IDX 8 1 9 2 10 3 11 4 12 5 13 6 14 7 16 8 17 9 7 10 3 11 4 12
REMARK SMILES IDX 18 13 5 14 6 15 2 16 1 17 15 18
REMARK H PARENT 15 19 15 20
ROOT
ATOM      1  C   UNL     1      44.226 131.387  17.718  1.00  0.00    -0.018 A 
ATOM      2  C   UNL     1      42.875 131.759  17.912  1.00  0.00     0.009 A 
ATOM      3  C   UNL     1      42.368 131.960  19.204  1.00  0.00     0.005 A 
ATOM      4  C   UNL     1      43.218 131.785  20.296  1.00  0.00    -0.043 A 
ATOM      5  C   UNL     1      44.531 131.430  20.122  1.00  0.00    -0.027 A 
ATOM      6  C   UNL     1      45.060 131.221  18.845  1.00  0.00     0.014 A 
ATOM      7  C   UNL     1      45.251 131.306  21.414  1.00  0.00     0.081 C 
ATOM      8  C   UNL     1      44.147 131.534  22.476  1.00  0.00     0.028 C 
ATOM      9  C   UNL     1      42.869 131.957  21.726  1.00  0.00     0.038 C 
ENDROOT
BRANCH   1  10
ATOM     10  C   UNL     1      44.761 131.175  16.349  1.00  0.00    -0.018 A 
ATOM     11  C   UNL     1      46.508 130.320  14.859  1.00  0.00    -0.026 A 
ATOM     12  C   UNL     1      45.776 130.789  13.758  1.00  0.00     0.008 A 
ATOM     13  C   UNL     1      45.997 130.529  16.157  1.00  0.00     0.016 A 
ATOM     14  C   UNL     1      44.550 131.430  13.942  1.00  0.00     0.001 A 
ATOM     15  C   UNL     1      44.042 131.621  15.226  1.00  0.00     0.009 A 
BRANCH  11  16
ATOM     16  C   UNL     1      47.810 129.652  14.612  1.00  0.00     0.000 C 
ATOM     17  C   UNL     1      48.383 129.550  13.412  1.00  0.00     0.009 C 
ENDBRANCH  11  16
ENDBRANCH   1  10
BRANCH   7  18
ATOM     18  N   UNL     1      46.312 132.312  21.501  1.00  0.00    -0.324 NA
ATOM     19  H   UNL     1      47.157 131.890  21.954  1.00  0.00     0.119 HD
ATOM     20  H   UNL     1      46.584 132.587  20.529  1.00  0.00     0.119 HD
ENDBRANCH   7  18
TORSDOF 3
ENDMDL
MODEL 2
REMARK VINA RESULT:      -8.8      1.435      2.050
REMARK SMILES C=Cc1cccc(-c2ccc3c(c2)[C@@H](N)CC3)c1
REMARK SMILES IDX 8 1 9 2 10 3 11 4 12 5 13 6 14 7 16 8 17 9 7 10 3 11 4 12
REMARK SMILES IDX 18 13 5 14 6 15 2 16 1 17 15 18
REMARK H PARENT 15 19 15 20
ROOT
ATOM      1  C   UNL     1      45.144 130.978  18.001  1.00  0.00    -0.018 A 
ATOM      2  C   UNL     1      45.936 130.277  18.941  1.00  0.00     0.009 A 
ATOM      3  C   UNL     1      45.639 130.336  20.311  1.00  0.00     0.005 A 
ATOM      4  C   UNL     1      44.551 131.100  20.730  1.00  0.00    -0.043 A 
ATOM      5  C   UNL     1      43.772 131.780  19.830  1.00  0.00    -0.027 A 
ATOM      6  C   UNL     1      44.048 131.739  18.460  1.00  0.00     0.014 A 
ATOM      7  C   UNL     1      42.669 132.519  20.493  1.00  0.00     0.081 C 
ATOM      8  C   UNL     1      42.928 132.294  22.004  1.00  0.00     0.028 C 
ATOM      9  C   UNL     1      44.080 131.278  22.125  1.00  0.00     0.038 C 
ENDROOT
BRANCH   1  10
ATOM     10  C   UNL     1      45.460 130.913  16.551  1.00  0.00    -0.018 A 
ATOM     11  C   UNL     1      46.838 130.060  14.713  1.00  0.00    -0.026 A 
ATOM     12  C   UNL     1      46.063 130.804  13.809  1.00  0.00     0.008 A 
ATOM     13  C   UNL     1      46.536 130.131  16.089  1.00  0.00     0.016 A 
ATOM     14  C   UNL     1      44.995 131.580  14.262  1.00  0.00     0.001 A 
ATOM     15  C   UNL     1      44.692 131.634  15.621  1.00  0.00     0.009 A 
BRANCH  11  16
ATOM     16  C   UNL     1      47.968 129.257  14.184  1.00  0.00     0.000 C 
ATOM     17  C   UNL     1      48.709 129.609  13.133  1.00  0.00     0.009 C 
ENDBRANCH  11  16
ENDBRANCH   1  10
BRANCH   7  18
ATOM     18  N   UNL     1      41.373 131.980  20.073  1.00  0.00    -0.324 NA
ATOM     19  H   UNL     1      40.604 132.526  20.527  1.00  0.00     0.119 HD
ATOM     20  H   UNL     1      41.283 132.112  19.039  1.00  0.00     0.119 HD
ENDBRANCH   7  18
TORSDOF 3
ENDMDL
MODEL 3
REMARK VINA RESULT:      -8.6      2.110      6.672
REMARK SMILES C=Cc1cccc(-c2ccc3c(c2)[C@@H](N)CC3)c1
REMARK SMILES IDX 8 1 9 2 10 3 11 4 12 5 13 6 14 7 16 8 17 9 7 10 3 11 4 12
REMARK SMILES IDX 18 13 5 14 6 15 2 16 1 17 15 18
REMARK H PARENT 15 19 15 20
ROOT
ATOM      1  C   UNL     1      45.219 131.100  17.041  1.00  0.00    -0.018 A 
ATOM      2  C   UNL     1      44.237 131.625  16.166  1.00  0.00     0.009 A 
ATOM      3  C   UNL     1      44.458 131.658  14.782  1.00  0.00     0.005 A 
ATOM      4  C   UNL     1      45.664 131.167  14.281  1.00  0.00    -0.043 A 
ATOM      5  C   UNL     1      46.621 130.652  15.116  1.00  0.00    -0.027 A 
ATOM      6  C   UNL     1      46.426 130.609  16.500  1.00  0.00     0.014 A 
ATOM      7  C   UNL     1      47.816 130.182  14.372  1.00  0.00     0.081 C 
ATOM      8  C   UNL     1      47.521 130.585  12.905  1.00  0.00     0.028 C 
ATOM      9  C   UNL     1      46.074 131.113  12.858  1.00  0.00     0.038 C 
ENDROOT
BRANCH   1  10
ATOM     10  C   UNL     1      44.982 131.065  18.506  1.00  0.00    -0.018 A 
ATOM     11  C   UNL     1      43.599 131.629  20.449  1.00  0.00    -0.026 A 
ATOM     12  C   UNL     1      44.544 131.009  21.281  1.00  0.00     0.008 A 
ATOM     13  C   UNL     1      43.833 131.664  19.059  1.00  0.00     0.016 A 
ATOM     14  C   UNL     1      45.684 130.413  20.739  1.00  0.00     0.001 A 
ATOM     15  C   UNL     1      45.903 130.437  19.362  1.00  0.00     0.009 A 
BRANCH  11  16
ATOM     16  C   UNL     1      42.408 132.255  21.074  1.00  0.00     0.000 C 
ATOM     17  C   UNL     1      41.644 133.171  20.478  1.00  0.00     0.009 C 
ENDBRANCH  11  16
ENDBRANCH   1  10
BRANCH   7  18
ATOM     18  N   UNL     1      47.971 128.733  14.522  1.00  0.00    -0.324 NA
ATOM     19  H   UNL     1      48.674 128.533  15.271  1.00  0.00     0.119 HD
ATOM     20  H   UNL     1      47.056 128.337  14.839  1.00  0.00     0.119 HD
ENDBRANCH   7  18
TORSDOF 3
ENDMDL
MODEL 4
REMARK VINA RESULT:      -8.0      1.852      6.341
REMARK SMILES C=Cc1cccc(-c2ccc3c(c2)[C@@H](N)CC3)c1
REMARK SMILES IDX 8 1 9 2 10 3 11 4 12 5 13 6 14 7 16 8 17 9 7 10 3 11 4 12
REMARK SMILES IDX 18 13 5 14 6 15 2 16 1 17 15 18
REMARK H PARENT 15 19 15 20
ROOT
ATOM      1  C   UNL     1      44.299 131.525  16.850  1.00  0.00    -0.018 A 
ATOM      2  C   UNL     1      43.491 131.763  15.713  1.00  0.00     0.009 A 
ATOM      3  C   UNL     1      44.010 131.597  14.421  1.00  0.00     0.005 A 
ATOM      4  C   UNL     1      45.338 131.196  14.275  1.00  0.00    -0.043 A 
ATOM      5  C   UNL     1      46.130 130.958  15.369  1.00  0.00    -0.027 A 
ATOM      6  C   UNL     1      45.637 131.117  16.667  1.00  0.00     0.014 A 
ATOM      7  C   UNL     1      47.500 130.535  14.983  1.00  0.00     0.081 C 
ATOM      8  C   UNL     1      47.501 130.648  13.438  1.00  0.00     0.028 C 
ATOM      9  C   UNL     1      46.057 130.964  13.001  1.00  0.00     0.038 C 
ENDROOT
BRANCH   1  10
ATOM     10  C   UNL     1      43.746 131.700  18.217  1.00  0.00    -0.018 A 
ATOM     11  C   UNL     1      44.004 131.542  20.649  1.00  0.00    -0.026 A 
ATOM     12  C   UNL     1      42.693 132.020  20.802  1.00  0.00     0.008 A 
ATOM     13  C   UNL     1      44.520 131.373  19.348  1.00  0.00     0.016 A 
ATOM     14  C   UNL     1      41.921 132.346  19.686  1.00  0.00     0.001 A 
ATOM     15  C   UNL     1      42.442 132.192  18.402  1.00  0.00     0.009 A 
BRANCH  11  16
ATOM     16  C   UNL     1      44.780 131.202  21.867  1.00  0.00     0.000 C 
ATOM     17  C   UNL     1      44.335 130.406  22.840  1.00  0.00     0.009 C 
ENDBRANCH  11  16
ENDBRANCH   1  10
BRANCH   7  18
ATOM     18  N   UNL     1      47.754 129.165  15.433  1.00  0.00    -0.324 NA
ATOM     19  H   UNL     1      48.242 128.633  14.675  1.00  0.00     0.119 HD
ATOM     20  H   UNL     1      48.402 129.204  16.254  1.00  0.00     0.119 HD
ENDBRANCH   7  18
TORSDOF 3
ENDMDL
MODEL 5
REMARK VINA RESULT:      -7.5      1.089      1.446
REMARK SMILES C=Cc1cccc(-c2ccc3c(c2)[C@@H](N)CC3)c1
REMARK SMILES IDX 8 1 9 2 10 3 11 4 12 5 13 6 14 7 16 8 17 9 7 10 3 11 4 12
REMARK SMILES IDX 18 13 5 14 6 15 2 16 1 17 15 18
REMARK H PARENT 15 19 15 20
ROOT
ATOM      1  C   UNL     1      44.407 131.054  17.692  1.00  0.00    -0.018 A 
ATOM      2  C   UNL     1      43.150 131.674  17.498  1.00  0.00     0.009 A 
ATOM      3  C   UNL     1      42.425 132.175  18.588  1.00  0.00     0.005 A 
ATOM      4  C   UNL     1      42.963 132.050  19.869  1.00  0.00    -0.043 A 
ATOM      5  C   UNL     1      44.182 131.455  20.071  1.00  0.00    -0.027 A 
ATOM      6  C   UNL     1      44.924 130.946  19.001  1.00  0.00     0.014 A 
ATOM      7  C   UNL     1      44.562 131.436  21.505  1.00  0.00     0.081 C 
ATOM      8  C   UNL     1      43.322 132.023  22.225  1.00  0.00     0.028 C 
ATOM      9  C   UNL     1      42.352 132.519  21.135  1.00  0.00     0.038 C 
ENDROOT
BRANCH   1  10
ATOM     10  C   UNL     1      45.174 130.525  16.535  1.00  0.00    -0.018 A 
ATOM     11  C   UNL     1      46.649 130.898  14.614  1.00  0.00    -0.026 A 
ATOM     12  C   UNL     1      46.612 129.522  14.340  1.00  0.00     0.008 A 
ATOM     13  C   UNL     1      45.914 131.394  15.711  1.00  0.00     0.016 A 
ATOM     14  C   UNL     1      45.881 128.655  15.153  1.00  0.00     0.001 A 
ATOM     15  C   UNL     1      45.169 129.149  16.245  1.00  0.00     0.009 A 
BRANCH  11  16
ATOM     16  C   UNL     1      47.434 131.779  13.715  1.00  0.00     0.000 C 
ATOM     17  C   UNL     1      48.062 131.358  12.616  1.00  0.00     0.009 C 
ENDBRANCH  11  16
ENDBRANCH   1  10
BRANCH   7  18
ATOM     18  N   UNL     1      45.760 132.251  21.724  1.00  0.00    -0.324 NA
ATOM     19  H   UNL     1      45.820 132.989  20.984  1.00  0.00     0.119 HD
ATOM     20  H   UNL     1      45.662 132.738  22.644  1.00  0.00     0.119 HD
ENDBRANCH   7  18
TORSDOF 3
ENDMDL
MODEL 6
REMARK VINA RESULT:      -7.4      2.232      6.448
REMARK SMILES C=Cc1cccc(-c2ccc3c(c2)[C@@H](N)CC3)c1
REMARK SMILES IDX 8 1 9 2 10 3 11 4 12 5 13 6 14 7 16 8 17 9 7 10 3 11 4 12
REMARK SMILES IDX 18 13 5 14 6 15 2 16 1 17 15 18
REMARK H PARENT 15 19 15 20
ROOT
ATOM      1  C   UNL     1      45.044 131.431  17.860  1.00  0.00    -0.018 A 
ATOM      2  C   UNL     1      45.153 132.619  17.099  1.00  0.00     0.009 A 
ATOM      3  C   UNL     1      45.775 132.607  15.842  1.00  0.00     0.005 A 
ATOM      4  C   UNL     1      46.287 131.405  15.356  1.00  0.00    -0.043 A 
ATOM      5  C   UNL     1      46.184 130.246  16.080  1.00  0.00    -0.027 A 
ATOM      6  C   UNL     1      45.570 130.230  17.336  1.00  0.00     0.014 A 
ATOM      7  C   UNL     1      46.788 129.090  15.372  1.00  0.00     0.081 C 
ATOM      8  C   UNL     1      47.409 129.719  14.099  1.00  0.00     0.028 C 
ATOM      9  C   UNL     1      46.969 131.195  14.057  1.00  0.00     0.038 C 
ENDROOT
BRANCH   1  10
ATOM     10  C   UNL     1      44.383 131.445  19.190  1.00  0.00    -0.018 A 
ATOM     11  C   UNL     1      44.291 130.706  21.524  1.00  0.00    -0.026 A 
ATOM     12  C   UNL     1      43.122 131.463  21.701  1.00  0.00     0.008 A 
ATOM     13  C   UNL     1      44.910 130.692  20.257  1.00  0.00     0.016 A 
ATOM     14  C   UNL     1      42.596 132.211  20.647  1.00  0.00     0.001 A 
ATOM     15  C   UNL     1      43.220 132.206  19.400  1.00  0.00     0.009 A 
BRANCH  11  16
ATOM     16  C   UNL     1      44.807 129.921  22.673  1.00  0.00     0.000 C 
ATOM     17  C   UNL     1      44.423 128.677  22.962  1.00  0.00     0.009 C 
ENDBRANCH  11  16
ENDBRANCH   1  10
BRANCH   7  18
ATOM     18  N   UNL     1      45.759 128.099  15.048  1.00  0.00    -0.324 NA
ATOM     19  H   UNL     1      44.826 128.445  15.373  1.00  0.00     0.119 HD
ATOM     20  H   UNL     1      45.711 128.004  14.007  1.00  0.00     0.119 HD
ENDBRANCH   7  18
TORSDOF 3
ENDMDL
MODEL 7
REMARK VINA RESULT:      -7.4      2.002      6.530
REMARK SMILES C=Cc1cccc(-c2ccc3c(c2)[C@@H](N)CC3)c1
REMARK SMILES IDX 8 1 9 2 10 3 11 4 12 5 13 6 14 7 16 8 17 9 7 10 3 11 4 12
REMARK SMILES IDX 18 13 5 14 6 15 2 16 1 17 15 18
REMARK H PARENT 15 19 15 20
ROOT
ATOM      1  C   UNL     1      43.681 131.377  19.672  1.00  0.00    -0.018 A 
ATOM      2  C   UNL     1      42.553 131.757  18.907  1.00  0.00     0.009 A 
ATOM      3  C   UNL     1      42.649 131.900  17.515  1.00  0.00     0.005 A 
ATOM      4  C   UNL     1      43.877 131.663  16.897  1.00  0.00    -0.043 A 
ATOM      5  C   UNL     1      44.976 131.289  17.626  1.00  0.00    -0.027 A 
ATOM      6  C   UNL     1      44.907 131.141  19.014  1.00  0.00     0.014 A 
ATOM      7  C   UNL     1      46.170 131.082  16.768  1.00  0.00     0.081 C 
ATOM      8  C   UNL     1      45.687 131.499  15.356  1.00  0.00     0.028 C 
ATOM      9  C   UNL     1      44.171 131.756  15.448  1.00  0.00     0.038 C 
ENDROOT
BRANCH   1  10
ATOM     10  C   UNL     1      43.577 131.225  21.145  1.00  0.00    -0.018 A 
ATOM     11  C   UNL     1      44.138 130.016  23.202  1.00  0.00    -0.026 A 
ATOM     12  C   UNL     1      43.365 130.933  23.931  1.00  0.00     0.008 A 
ATOM     13  C   UNL     1      44.228 130.163  21.802  1.00  0.00     0.016 A 
ATOM     14  C   UNL     1      42.717 131.987  23.286  1.00  0.00     0.001 A 
ATOM     15  C   UNL     1      42.823 132.137  21.904  1.00  0.00     0.009 A 
BRANCH  11  16
ATOM     16  C   UNL     1      44.800 128.908  23.933  1.00  0.00     0.000 C 
ATOM     17  C   UNL     1      44.878 127.655  23.481  1.00  0.00     0.009 C 
ENDBRANCH  11  16
ENDBRANCH   1  10
BRANCH   7  18
ATOM     18  N   UNL     1      46.591 129.680  16.813  1.00  0.00    -0.324 NA
ATOM     19  H   UNL     1      47.110 129.500  17.704  1.00  0.00     0.119 HD
ATOM     20  H   UNL     1      45.734 129.081  16.823  1.00  0.00     0.119 HD
ENDBRANCH   7  18
TORSDOF 3
ENDMDL
MODEL 8
REMARK VINA RESULT:      -7.3      2.116      6.507
REMARK SMILES C=Cc1cccc(-c2ccc3c(c2)[C@@H](N)CC3)c1
REMARK SMILES IDX 8 1 9 2 10 3 11 4 12 5 13 6 14 7 16 8 17 9 7 10 3 11 4 12
REMARK SMILES IDX 18 13 5 14 6 15 2 16 1 17 15 18
REMARK H PARENT 15 19 15 20
ROOT
ATOM      1  C   UNL     1      45.107 131.472  17.121  1.00  0.00    -0.018 A 
ATOM      2  C   UNL     1      45.190 132.565  16.226  1.00  0.00     0.009 A 
ATOM      3  C   UNL     1      45.938 132.464  15.043  1.00  0.00     0.005 A 
ATOM      4  C   UNL     1      46.599 131.268  14.766  1.00  0.00    -0.043 A 
ATOM      5  C   UNL     1      46.522 130.200  15.622  1.00  0.00    -0.027 A 
ATOM      6  C   UNL     1      45.786 130.275  16.807  1.00  0.00     0.014 A 
ATOM      7  C   UNL     1      47.294 129.032  15.127  1.00  0.00     0.081 C 
ATOM      8  C   UNL     1      47.986 129.562  13.846  1.00  0.00     0.028 C 
ATOM      9  C   UNL     1      47.427 130.972  13.572  1.00  0.00     0.038 C 
ENDROOT
BRANCH   1  10
ATOM     10  C   UNL     1      44.314 131.580  18.372  1.00  0.00    -0.018 A 
ATOM     11  C   UNL     1      44.166 131.432  20.814  1.00  0.00    -0.026 A 
ATOM     12  C   UNL     1      42.807 131.773  20.735  1.00  0.00     0.008 A 
ATOM     13  C   UNL     1      44.911 131.325  19.621  1.00  0.00     0.016 A 
ATOM     14  C   UNL     1      42.209 132.028  19.500  1.00  0.00     0.001 A 
ATOM     15  C   UNL     1      42.954 131.936  18.326  1.00  0.00     0.009 A 
BRANCH  11  16
ATOM     16  C   UNL     1      44.753 131.164  22.149  1.00  0.00     0.000 C 
ATOM     17  C   UNL     1      44.097 131.317  23.300  1.00  0.00     0.009 C 
ENDBRANCH  11  16
ENDBRANCH   1  10
BRANCH   7  18
ATOM     18  N   UNL     1      46.393 127.913  14.841  1.00  0.00    -0.324 NA
ATOM     19  H   UNL     1      46.248 127.350  15.712  1.00  0.00     0.119 HD
ATOM     20  H   UNL     1      45.464 128.303  14.562  1.00  0.00     0.119 HD
ENDBRANCH   7  18
TORSDOF 3
ENDMDL
MODEL 9
REMARK VINA RESULT:      -7.2      1.832      6.354
REMARK SMILES C=Cc1cccc(-c2ccc3c(c2)[C@@H](N)CC3)c1
REMARK SMILES IDX 8 1 9 2 10 3 11 4 12 5 13 6 14 7 16 8 17 9 7 10 3 11 4 12
REMARK SMILES IDX 18 13 5 14 6 15 2 16 1 17 15 18
REMARK H PARENT 15 19 15 20
ROOT
ATOM      1  C   UNL     1      43.875 131.515  18.439  1.00  0.00    -0.018 A 
ATOM      2  C   UNL     1      42.872 131.817  17.489  1.00  0.00     0.009 A 
ATOM      3  C   UNL     1      43.159 131.797  16.116  1.00  0.00     0.005 A 
ATOM      4  C   UNL     1      44.453 131.477  15.704  1.00  0.00    -0.043 A 
ATOM      5  C   UNL     1      45.433 131.178  16.615  1.00  0.00    -0.027 A 
ATOM      6  C   UNL     1      45.173 131.193  17.988  1.00  0.00     0.014 A 
ATOM      7  C   UNL     1      46.726 130.862  15.958  1.00  0.00     0.081 C 
ATOM      8  C   UNL     1      46.450 131.117  14.455  1.00  0.00     0.028 C 
ATOM      9  C   UNL     1      44.942 131.400  14.307  1.00  0.00     0.038 C 
ENDROOT
BRANCH   1  10
ATOM     10  C   UNL     1      43.568 131.536  19.892  1.00  0.00    -0.018 A 
ATOM     11  C   UNL     1      43.977 130.708  22.162  1.00  0.00    -0.026 A 
ATOM     12  C   UNL     1      42.974 131.567  22.638  1.00  0.00     0.008 A 
ATOM     13  C   UNL     1      44.259 130.690  20.781  1.00  0.00     0.016 A 
ATOM     14  C   UNL     1      42.286 132.409  21.763  1.00  0.00     0.001 A 
ATOM     15  C   UNL     1      42.580 132.398  20.400  1.00  0.00     0.009 A 
BRANCH  11  16
ATOM     16  C   UNL     1      44.674 129.827  23.132  1.00  0.00     0.000 C 
ATOM     17  C   UNL     1      44.359 128.549  23.342  1.00  0.00     0.009 C 
ENDBRANCH  11  16
ENDBRANCH   1  10
BRANCH   7  18
ATOM     18  N   UNL     1      47.101 129.470  16.218  1.00  0.00    -0.324 NA
ATOM     19  H   UNL     1      46.835 129.215  17.198  1.00  0.00     0.119 HD
ATOM     20  H   UNL     1      46.549 128.856  15.575  1.00  0.00     0.119 HD
ENDBRANCH   7  18
TORSDOF 3
ENDMDL


