MODEL 1
REMARK VINA RESULT:      -8.4      0.000      0.000
REMARK SMILES CCC[C@@H](N)/C=C(\O)N1CC[C@@H](C)[C@@H](c2cc3cc(F)ccc3[nH]2)[C@H]1F
REMARK SMILES IDX 6 1 7 2 8 3 9 5 10 6 25 7 11 8 14 9 12 10 26 11 13 12 15 13
REMARK SMILES IDX 16 14 24 15 17 16 23 17 18 18 22 19 19 20 21 21 20 23 4 24
REMARK SMILES IDX 5 25 3 28 2 29 1 30
REMARK H PARENT 8 4 24 22 5 26 5 27
ROOT
ATOM      1  C   UNL     1      44.674 131.053  16.905  1.00  0.00     0.057 C 
ENDROOT
BRANCH   1   2
ATOM      2  C   UNL     1      45.203 130.846  18.130  1.00  0.00     0.186 C 
BRANCH   2   3
ATOM      3  O   UNL     1      46.314 130.014  18.320  1.00  0.00    -0.495 OA
ATOM      4  H   UNL     1      46.495 129.499  19.164  1.00  0.00     0.295 HD
ENDBRANCH   2   3
BRANCH   2   5
ATOM      5  N   UNL     1      44.600 131.464  19.289  1.00  0.00    -0.313 N 
ATOM      6  C   UNL     1      43.270 132.085  19.210  1.00  0.00     0.123 C 
ATOM      7  C   UNL     1      45.413 131.781  20.475  1.00  0.00     0.274 C 
ATOM      8  C   UNL     1      42.450 131.710  20.444  1.00  0.00     0.026 C 
ATOM      9  C   UNL     1      44.630 131.494  21.778  1.00  0.00     0.094 C 
ATOM     10  C   UNL     1      43.202 132.105  21.727  1.00  0.00     0.001 C 
ATOM     11  F   UNL     1      46.600 131.062  20.483  1.00  0.00    -0.223 F 
ATOM     12  C   UNL     1      42.372 131.762  22.974  1.00  0.00     0.008 C 
BRANCH   9  13
ATOM     13  C   UNL     1      44.636 130.018  22.126  1.00  0.00     0.024 A 
ATOM     14  C   UNL     1      45.490 129.081  21.546  1.00  0.00     0.032 A 
ATOM     15  N   UNL     1      43.834 129.431  23.051  1.00  0.00    -0.358 N 
ATOM     16  C   UNL     1      45.170 127.884  22.147  1.00  0.00     0.003 A 
ATOM     17  C   UNL     1      44.169 128.130  23.049  1.00  0.00     0.046 A 
ATOM     18  C   UNL     1      45.696 126.607  21.962  1.00  0.00     0.049 A 
ATOM     19  C   UNL     1      43.621 127.114  23.830  1.00  0.00     0.029 A 
ATOM     20  C   UNL     1      45.161 125.559  22.734  1.00  0.00     0.123 A 
ATOM     21  C   UNL     1      44.128 125.812  23.665  1.00  0.00     0.041 A 
ATOM     22  H   UNL     1      43.103 129.880  23.643  1.00  0.00     0.166 HD
ATOM     23  F   UNL     1      45.646 124.300  22.590  1.00  0.00    -0.207 F 
ENDBRANCH   9  13
ENDBRANCH   2   5
ENDBRANCH   1   2
BRANCH   1  24
ATOM     24  C   UNL     1      45.197 130.444  15.624  1.00  0.00     0.079 C 
BRANCH  24  25
ATOM     25  N   UNL     1      45.529 129.035  15.853  1.00  0.00    -0.324 NA
ATOM     26  H   UNL     1      46.570 128.921  15.825  1.00  0.00     0.119 HD
ATOM     27  H   UNL     1      45.239 128.782  16.826  1.00  0.00     0.119 HD
ENDBRANCH  24  25
BRANCH  24  28
ATOM     28  C   UNL     1      46.437 131.218  15.121  1.00  0.00     0.023 C 
BRANCH  28  29
ATOM     29  C   UNL     1      46.710 131.015  13.616  1.00  0.00    -0.002 C 
ATOM     30  C   UNL     1      47.959 130.172  13.390  1.00  0.00     0.004 C 
ENDBRANCH  28  29
ENDBRANCH  24  28
ENDBRANCH   1  24
TORSDOF 8
ENDMDL
MODEL 2
REMARK VINA RESULT:      -7.8      1.179      1.577
REMARK SMILES CCC[C@@H](N)/C=C(\O)N1CC[C@@H](C)[C@@H](c2cc3cc(F)ccc3[nH]2)[C@H]1F
REMARK SMILES IDX 6 1 7 2 8 3 9 5 10 6 25 7 11 8 14 9 12 10 26 11 13 12 15 13
REMARK SMILES IDX 16 14 24 15 17 16 23 17 18 18 22 19 19 20 21 21 20 23 4 24
REMARK SMILES IDX 5 25 3 28 2 29 1 30
REMARK H PARENT 8 4 24 22 5 26 5 27
ROOT
ATOM      1  C   UNL     1      44.887 131.174  17.038  1.00  0.00     0.057 C 
ENDROOT
BRANCH   1   2
ATOM      2  C   UNL     1      45.209 130.772  18.286  1.00  0.00     0.186 C 
BRANCH   2   3
ATOM      3  O   UNL     1      46.111 129.724  18.510  1.00  0.00    -0.495 OA
ATOM      4  H   UNL     1      46.009 128.799  18.128  1.00  0.00     0.295 HD
ENDBRANCH   2   3
BRANCH   2   5
ATOM      5  N   UNL     1      44.592 131.406  19.429  1.00  0.00    -0.313 N 
ATOM      6  C   UNL     1      43.252 132.001  19.333  1.00  0.00     0.123 C 
ATOM      7  C   UNL     1      45.397 131.764  20.609  1.00  0.00     0.274 C 
ATOM      8  C   UNL     1      42.436 131.640  20.573  1.00  0.00     0.026 C 
ATOM      9  C   UNL     1      44.615 131.492  21.916  1.00  0.00     0.094 C 
ATOM     10  C   UNL     1      43.177 132.077  21.849  1.00  0.00     0.001 C 
ATOM     11  F   UNL     1      46.595 131.066  20.636  1.00  0.00    -0.223 F 
ATOM     12  C   UNL     1      42.350 131.748  23.101  1.00  0.00     0.008 C 
BRANCH   9  13
ATOM     13  C   UNL     1      44.646 130.025  22.298  1.00  0.00     0.024 A 
ATOM     14  C   UNL     1      43.861 129.462  23.304  1.00  0.00     0.032 A 
ATOM     15  N   UNL     1      45.417 129.080  21.703  1.00  0.00    -0.358 N 
ATOM     16  C   UNL     1      44.193 128.125  23.311  1.00  0.00     0.003 A 
ATOM     17  C   UNL     1      45.132 127.929  22.334  1.00  0.00     0.046 A 
ATOM     18  C   UNL     1      43.727 127.079  24.105  1.00  0.00     0.049 A 
ATOM     19  C   UNL     1      45.674 126.670  22.082  1.00  0.00     0.029 A 
ATOM     20  C   UNL     1      44.258 125.796  23.877  1.00  0.00     0.123 A 
ATOM     21  C   UNL     1      45.228 125.592  22.869  1.00  0.00     0.041 A 
ATOM     22  H   UNL     1      46.097 129.205  20.922  1.00  0.00     0.166 HD
ATOM     23  F   UNL     1      43.830 124.748  24.624  1.00  0.00    -0.207 F 
ENDBRANCH   9  13
ENDBRANCH   2   5
ENDBRANCH   1   2
BRANCH   1  24
ATOM     24  C   UNL     1      45.884 131.487  15.946  1.00  0.00     0.079 C 
BRANCH  24  25
ATOM     25  N   UNL     1      45.882 132.929  15.680  1.00  0.00    -0.324 NA
ATOM     26  H   UNL     1      46.741 133.177  15.135  1.00  0.00     0.119 HD
ATOM     27  H   UNL     1      45.072 133.147  15.055  1.00  0.00     0.119 HD
ENDBRANCH  24  25
BRANCH  24  28
ATOM     28  C   UNL     1      45.546 130.699  14.659  1.00  0.00     0.023 C 
BRANCH  28  29
ATOM     29  C   UNL     1      46.418 129.440  14.472  1.00  0.00    -0.002 C 
ATOM     30  C   UNL     1      47.832 129.806  14.037  1.00  0.00     0.004 C 
ENDBRANCH  28  29
ENDBRANCH  24  28
ENDBRANCH   1  24
TORSDOF 8
ENDMDL
MODEL 3
REMARK VINA RESULT:      -7.4      1.517      1.885
REMARK SMILES CCC[C@@H](N)/C=C(\O)N1CC[C@@H](C)[C@@H](c2cc3cc(F)ccc3[nH]2)[C@H]1F
REMARK SMILES IDX 6 1 7 2 8 3 9 5 10 6 25 7 11 8 14 9 12 10 26 11 13 12 15 13
REMARK SMILES IDX 16 14 24 15 17 16 23 17 18 18 22 19 19 20 21 21 20 23 4 24
REMARK SMILES IDX 5 25 3 28 2 29 1 30
REMARK H PARENT 8 4 24 22 5 26 5 27
ROOT
ATOM      1  C   UNL     1      45.149 130.089  16.458  1.00  0.00     0.057 C 
ENDROOT
BRANCH   1   2
ATOM      2  C   UNL     1      45.232 130.349  17.780  1.00  0.00     0.186 C 
BRANCH   2   3
ATOM      3  O   UNL     1      46.105 129.639  18.615  1.00  0.00    -0.495 OA
ATOM      4  H   UNL     1      46.924 130.035  19.042  1.00  0.00     0.295 HD
ENDBRANCH   2   3
BRANCH   2   5
ATOM      5  N   UNL     1      44.384 131.359  18.370  1.00  0.00    -0.313 N 
ATOM      6  C   UNL     1      43.127 131.763  17.726  1.00  0.00     0.123 C 
ATOM      7  C   UNL     1      44.897 132.235  19.437  1.00  0.00     0.274 C 
ATOM      8  C   UNL     1      42.027 131.899  18.778  1.00  0.00     0.026 C 
ATOM      9  C   UNL     1      43.818 132.483  20.518  1.00  0.00     0.094 C 
ATOM     10  C   UNL     1      42.459 132.883  19.880  1.00  0.00     0.001 C 
ATOM     11  F   UNL     1      46.030 131.700  20.032  1.00  0.00    -0.223 F 
ATOM     12  C   UNL     1      41.346 133.053  20.927  1.00  0.00     0.008 C 
BRANCH   9  13
ATOM     13  C   UNL     1      43.706 131.319  21.482  1.00  0.00     0.024 A 
ATOM     14  C   UNL     1      44.622 130.269  21.550  1.00  0.00     0.032 A 
ATOM     15  N   UNL     1      42.724 131.162  22.405  1.00  0.00    -0.358 N 
ATOM     16  C   UNL     1      44.152 129.448  22.551  1.00  0.00     0.003 A 
ATOM     17  C   UNL     1      43.008 130.015  23.046  1.00  0.00     0.046 A 
ATOM     18  C   UNL     1      44.659 128.252  23.055  1.00  0.00     0.049 A 
ATOM     19  C   UNL     1      42.287 129.424  24.082  1.00  0.00     0.029 A 
ATOM     20  C   UNL     1      43.951 127.629  24.100  1.00  0.00     0.123 A 
ATOM     21  C   UNL     1      42.770 128.213  24.611  1.00  0.00     0.041 A 
ATOM     22  H   UNL     1      41.910 131.786  22.589  1.00  0.00     0.166 HD
ATOM     23  F   UNL     1      44.410 126.465  24.625  1.00  0.00    -0.207 F 
ENDBRANCH   9  13
ENDBRANCH   2   5
ENDBRANCH   1   2
BRANCH   1  24
ATOM     24  C   UNL     1      45.578 131.038  15.362  1.00  0.00     0.079 C 
BRANCH  24  25
ATOM     25  N   UNL     1      44.541 131.089  14.326  1.00  0.00    -0.324 NA
ATOM     26  H   UNL     1      43.792 130.395  14.559  1.00  0.00     0.119 HD
ATOM     27  H   UNL     1      44.084 132.029  14.366  1.00  0.00     0.119 HD
ENDBRANCH  24  25
BRANCH  24  28
ATOM     28  C   UNL     1      46.928 130.590  14.754  1.00  0.00     0.023 C 
BRANCH  28  29
ATOM     29  C   UNL     1      47.242 131.271  13.405  1.00  0.00    -0.002 C 
ATOM     30  C   UNL     1      48.234 130.451  12.590  1.00  0.00     0.004 C 
ENDBRANCH  28  29
ENDBRANCH  24  28
ENDBRANCH   1  24
TORSDOF 8
ENDMDL
MODEL 4
REMARK VINA RESULT:      -6.7      1.028      1.163
REMARK SMILES CCC[C@@H](N)/C=C(\O)N1CC[C@@H](C)[C@@H](c2cc3cc(F)ccc3[nH]2)[C@H]1F
REMARK SMILES IDX 6 1 7 2 8 3 9 5 10 6 25 7 11 8 14 9 12 10 26 11 13 12 15 13
REMARK SMILES IDX 16 14 24 15 17 16 23 17 18 18 22 19 19 20 21 21 20 23 4 24
REMARK SMILES IDX 5 25 3 28 2 29 1 30
REMARK H PARENT 8 4 24 22 5 26 5 27
ROOT
ATOM      1  C   UNL     1      45.383 130.614  18.153  1.00  0.00     0.057 C 
ENDROOT
BRANCH   1   2
ATOM      2  C   UNL     1      44.246 131.268  18.472  1.00  0.00     0.186 C 
BRANCH   2   3
ATOM      3  O   UNL     1      43.240 131.500  17.525  1.00  0.00    -0.495 OA
ATOM      4  H   UNL     1      43.129 132.361  17.018  1.00  0.00     0.295 HD
ENDBRANCH   2   3
BRANCH   2   5
ATOM      5  N   UNL     1      44.060 131.778  19.812  1.00  0.00    -0.313 N 
ATOM      6  C   UNL     1      42.861 132.547  20.170  1.00  0.00     0.123 C 
ATOM      7  C   UNL     1      45.190 131.829  20.755  1.00  0.00     0.274 C 
ATOM      8  C   UNL     1      42.342 132.093  21.534  1.00  0.00     0.026 C 
ATOM      9  C   UNL     1      44.737 131.446  22.184  1.00  0.00     0.094 C 
ATOM     10  C   UNL     1      43.450 132.214  22.595  1.00  0.00     0.001 C 
ATOM     11  F   UNL     1      46.220 130.988  20.359  1.00  0.00    -0.223 F 
ATOM     12  C   UNL     1      42.930 131.790  23.978  1.00  0.00     0.008 C 
BRANCH   9  13
ATOM     13  C   UNL     1      44.617 129.945  22.356  1.00  0.00     0.024 A 
ATOM     14  C   UNL     1      45.486 129.019  21.778  1.00  0.00     0.032 A 
ATOM     15  N   UNL     1      43.673 129.317  23.102  1.00  0.00    -0.358 N 
ATOM     16  C   UNL     1      45.027 127.789  22.192  1.00  0.00     0.003 A 
ATOM     17  C   UNL     1      43.934 128.004  22.989  1.00  0.00     0.046 A 
ATOM     18  C   UNL     1      45.502 126.507  21.924  1.00  0.00     0.049 A 
ATOM     19  C   UNL     1      43.236 126.949  23.574  1.00  0.00     0.029 A 
ATOM     20  C   UNL     1      44.816 125.420  22.498  1.00  0.00     0.123 A 
ATOM     21  C   UNL     1      43.687 125.641  23.320  1.00  0.00     0.041 A 
ATOM     22  H   UNL     1      42.898 129.748  23.650  1.00  0.00     0.166 HD
ATOM     23  F   UNL     1      45.245 124.154  22.267  1.00  0.00    -0.207 F 
ENDBRANCH   9  13
ENDBRANCH   2   5
ENDBRANCH   1   2
BRANCH   1  24
ATOM     24  C   UNL     1      45.670 129.985  16.808  1.00  0.00     0.079 C 
BRANCH  24  25
ATOM     25  N   UNL     1      47.104 129.701  16.698  1.00  0.00    -0.324 NA
ATOM     26  H   UNL     1      47.489 129.513  17.654  1.00  0.00     0.119 HD
ATOM     27  H   UNL     1      47.223 128.813  16.160  1.00  0.00     0.119 HD
ENDBRANCH  24  25
BRANCH  24  28
ATOM     28  C   UNL     1      45.213 130.919  15.663  1.00  0.00     0.023 C 
BRANCH  28  29
ATOM     29  C   UNL     1      46.377 131.698  15.015  1.00  0.00    -0.002 C 
ATOM     30  C   UNL     1      46.795 131.066  13.692  1.00  0.00     0.004 C 
ENDBRANCH  28  29
ENDBRANCH  24  28
ENDBRANCH   1  24
TORSDOF 8
ENDMDL
MODEL 5
REMARK VINA RESULT:      -6.6      1.362      1.623
REMARK SMILES CCC[C@@H](N)/C=C(\O)N1CC[C@@H](C)[C@@H](c2cc3cc(F)ccc3[nH]2)[C@H]1F
REMARK SMILES IDX 6 1 7 2 8 3 9 5 10 6 25 7 11 8 14 9 12 10 26 11 13 12 15 13
REMARK SMILES IDX 16 14 24 15 17 16 23 17 18 18 22 19 19 20 21 21 20 23 4 24
REMARK SMILES IDX 5 25 3 28 2 29 1 30
REMARK H PARENT 8 4 24 22 5 26 5 27
ROOT
ATOM      1  C   UNL     1      44.747 131.097  18.357  1.00  0.00     0.057 C 
ENDROOT
BRANCH   1   2
ATOM      2  C   UNL     1      43.591 131.429  18.970  1.00  0.00     0.186 C 
BRANCH   2   3
ATOM      3  O   UNL     1      42.367 131.413  18.289  1.00  0.00    -0.495 OA
ATOM      4  H   UNL     1      41.936 132.225  17.882  1.00  0.00     0.295 HD
ENDBRANCH   2   3
BRANCH   2   5
ATOM      5  N   UNL     1      43.603 131.845  20.354  1.00  0.00    -0.313 N 
ATOM      6  C   UNL     1      42.506 132.647  20.913  1.00  0.00     0.123 C 
ATOM      7  C   UNL     1      44.842 131.767  21.147  1.00  0.00     0.274 C 
ATOM      8  C   UNL     1      42.133 132.119  22.298  1.00  0.00     0.026 C 
ATOM      9  C   UNL     1      44.546 131.303  22.593  1.00  0.00     0.094 C 
ATOM     10  C   UNL     1      43.369 132.103  23.215  1.00  0.00     0.001 C 
ATOM     11  F   UNL     1      45.762 130.906  20.566  1.00  0.00    -0.223 F 
ATOM     12  C   UNL     1      42.999 131.604  24.621  1.00  0.00     0.008 C 
BRANCH   9  13
ATOM     13  C   UNL     1      44.358 129.801  22.676  1.00  0.00     0.024 A 
ATOM     14  C   UNL     1      45.235 128.870  22.118  1.00  0.00     0.032 A 
ATOM     15  N   UNL     1      43.336 129.176  23.314  1.00  0.00    -0.358 N 
ATOM     16  C   UNL     1      44.700 127.641  22.431  1.00  0.00     0.003 A 
ATOM     17  C   UNL     1      43.556 127.861  23.152  1.00  0.00     0.046 A 
ATOM     18  C   UNL     1      45.146 126.355  22.132  1.00  0.00     0.049 A 
ATOM     19  C   UNL     1      42.776 126.808  23.627  1.00  0.00     0.029 A 
ATOM     20  C   UNL     1      44.377 125.270  22.595  1.00  0.00     0.123 A 
ATOM     21  C   UNL     1      43.197 125.496  23.340  1.00  0.00     0.041 A 
ATOM     22  H   UNL     1      42.537 129.611  23.824  1.00  0.00     0.166 HD
ATOM     23  F   UNL     1      44.776 124.001  22.332  1.00  0.00    -0.207 F 
ENDBRANCH   9  13
ENDBRANCH   2   5
ENDBRANCH   1   2
BRANCH   1  24
ATOM     24  C   UNL     1      45.256 131.719  17.077  1.00  0.00     0.079 C 
BRANCH  24  25
ATOM     25  N   UNL     1      44.121 132.051  16.210  1.00  0.00    -0.324 NA
ATOM     26  H   UNL     1      43.344 131.371  16.388  1.00  0.00     0.119 HD
ATOM     27  H   UNL     1      43.753 132.988  16.496  1.00  0.00     0.119 HD
ENDBRANCH  24  25
BRANCH  24  28
ATOM     28  C   UNL     1      46.225 130.756  16.353  1.00  0.00     0.023 C 
BRANCH  28  29
ATOM     29  C   UNL     1      45.773 130.403  14.920  1.00  0.00    -0.002 C 
ATOM     30  C   UNL     1      46.785 130.883  13.887  1.00  0.00     0.004 C 
ENDBRANCH  28  29
ENDBRANCH  24  28
ENDBRANCH   1  24
TORSDOF 8
ENDMDL
MODEL 6
REMARK VINA RESULT:      -6.5      1.242      1.360
REMARK SMILES CCC[C@@H](N)/C=C(\O)N1CC[C@@H](C)[C@@H](c2cc3cc(F)ccc3[nH]2)[C@H]1F
REMARK SMILES IDX 6 1 7 2 8 3 9 5 10 6 25 7 11 8 14 9 12 10 26 11 13 12 15 13
REMARK SMILES IDX 16 14 24 15 17 16 23 17 18 18 22 19 19 20 21 21 20 23 4 24
REMARK SMILES IDX 5 25 3 28 2 29 1 30
REMARK H PARENT 8 4 24 22 5 26 5 27
ROOT
ATOM      1  C   UNL     1      45.726 131.890  17.551  1.00  0.00     0.057 C 
ENDROOT
BRANCH   1   2
ATOM      2  C   UNL     1      45.496 131.063  18.593  1.00  0.00     0.186 C 
BRANCH   2   3
ATOM      3  O   UNL     1      45.970 129.745  18.604  1.00  0.00    -0.495 OA
ATOM      4  H   UNL     1      46.265 129.245  17.783  1.00  0.00     0.295 HD
ENDBRANCH   2   3
BRANCH   2   5
ATOM      5  N   UNL     1      44.716 131.524  19.719  1.00  0.00    -0.313 N 
ATOM      6  C   UNL     1      43.302 131.890  19.561  1.00  0.00     0.123 C 
ATOM      7  C   UNL     1      45.378 131.948  20.964  1.00  0.00     0.274 C 
ATOM      8  C   UNL     1      42.489 131.332  20.728  1.00  0.00     0.026 C 
ATOM      9  C   UNL     1      44.580 131.480  22.204  1.00  0.00     0.094 C 
ATOM     10  C   UNL     1      43.070 131.819  22.067  1.00  0.00     0.001 C 
ATOM     11  F   UNL     1      46.675 131.460  21.040  1.00  0.00    -0.223 F 
ATOM     12  C   UNL     1      42.241 131.290  23.248  1.00  0.00     0.008 C 
BRANCH   9  13
ATOM     13  C   UNL     1      44.839 130.021  22.524  1.00  0.00     0.024 A 
ATOM     14  C   UNL     1      44.963 129.019  21.563  1.00  0.00     0.032 A 
ATOM     15  N   UNL     1      45.002 129.513  23.772  1.00  0.00    -0.358 N 
ATOM     16  C   UNL     1      45.198 127.865  22.275  1.00  0.00     0.003 A 
ATOM     17  C   UNL     1      45.216 128.198  23.604  1.00  0.00     0.046 A 
ATOM     18  C   UNL     1      45.400 126.556  21.841  1.00  0.00     0.049 A 
ATOM     19  C   UNL     1      45.436 127.243  24.595  1.00  0.00     0.029 A 
ATOM     20  C   UNL     1      45.622 125.568  22.819  1.00  0.00     0.123 A 
ATOM     21  C   UNL     1      45.640 125.911  24.191  1.00  0.00     0.041 A 
ATOM     22  H   UNL     1      44.966 130.022  24.682  1.00  0.00     0.166 HD
ATOM     23  F   UNL     1      45.827 124.281  22.442  1.00  0.00    -0.207 F 
ENDBRANCH   9  13
ENDBRANCH   2   5
ENDBRANCH   1   2
BRANCH   1  24
ATOM     24  C   UNL     1      45.860 131.450  16.111  1.00  0.00     0.079 C 
BRANCH  24  25
ATOM     25  N   UNL     1      45.929 132.630  15.244  1.00  0.00    -0.324 NA
ATOM     26  H   UNL     1      45.505 133.447  15.744  1.00  0.00     0.119 HD
ATOM     27  H   UNL     1      46.935 132.873  15.098  1.00  0.00     0.119 HD
ENDBRANCH  24  25
BRANCH  24  28
ATOM     28  C   UNL     1      44.670 130.549  15.706  1.00  0.00     0.023 C 
BRANCH  28  29
ATOM     29  C   UNL     1      45.108 129.164  15.183  1.00  0.00    -0.002 C 
ATOM     30  C   UNL     1      46.595 129.144  14.852  1.00  0.00     0.004 C 
ENDBRANCH  28  29
ENDBRANCH  24  28
ENDBRANCH   1  24
TORSDOF 8
ENDMDL
MODEL 7
REMARK VINA RESULT:      -6.5      1.494      1.980
REMARK SMILES CCC[C@@H](N)/C=C(\O)N1CC[C@@H](C)[C@@H](c2cc3cc(F)ccc3[nH]2)[C@H]1F
REMARK SMILES IDX 6 1 7 2 8 3 9 5 10 6 25 7 11 8 14 9 12 10 26 11 13 12 15 13
REMARK SMILES IDX 16 14 24 15 17 16 23 17 18 18 22 19 19 20 21 21 20 23 4 24
REMARK SMILES IDX 5 25 3 28 2 29 1 30
REMARK H PARENT 8 4 24 22 5 26 5 27
ROOT
ATOM      1  C   UNL     1      44.945 130.850  18.436  1.00  0.00     0.057 C 
ENDROOT
BRANCH   1   2
ATOM      2  C   UNL     1      43.816 131.388  18.945  1.00  0.00     0.186 C 
BRANCH   2   3
ATOM      3  O   UNL     1      42.675 131.585  18.157  1.00  0.00    -0.495 OA
ATOM      4  H   UNL     1      41.827 131.053  18.248  1.00  0.00     0.295 HD
ENDBRANCH   2   3
BRANCH   2   5
ATOM      5  N   UNL     1      43.777 131.805  20.329  1.00  0.00    -0.313 N 
ATOM      6  C   UNL     1      42.637 132.565  20.859  1.00  0.00     0.123 C 
ATOM      7  C   UNL     1      44.998 131.774  21.153  1.00  0.00     0.274 C 
ATOM      8  C   UNL     1      42.249 132.024  22.235  1.00  0.00     0.026 C 
ATOM      9  C   UNL     1      44.683 131.300  22.592  1.00  0.00     0.094 C 
ATOM     10  C   UNL     1      43.461 132.055  23.183  1.00  0.00     0.001 C 
ATOM     11  F   UNL     1      45.964 130.949  20.597  1.00  0.00    -0.223 F 
ATOM     12  C   UNL     1      43.075 131.544  24.580  1.00  0.00     0.008 C 
BRANCH   9  13
ATOM     13  C   UNL     1      44.550 129.792  22.672  1.00  0.00     0.024 A 
ATOM     14  C   UNL     1      43.459 129.132  23.238  1.00  0.00     0.032 A 
ATOM     15  N   UNL     1      45.454 128.902  22.191  1.00  0.00    -0.358 N 
ATOM     16  C   UNL     1      43.738 127.791  23.095  1.00  0.00     0.003 A 
ATOM     17  C   UNL     1      44.947 127.687  22.460  1.00  0.00     0.046 A 
ATOM     18  C   UNL     1      43.007 126.667  23.476  1.00  0.00     0.049 A 
ATOM     19  C   UNL     1      45.513 126.449  22.161  1.00  0.00     0.029 A 
ATOM     20  C   UNL     1      43.555 125.402  23.191  1.00  0.00     0.123 A 
ATOM     21  C   UNL     1      44.803 125.294  22.537  1.00  0.00     0.041 A 
ATOM     22  H   UNL     1      46.360 129.101  21.715  1.00  0.00     0.166 HD
ATOM     23  F   UNL     1      42.876 124.280  23.541  1.00  0.00    -0.207 F 
ENDBRANCH   9  13
ENDBRANCH   2   5
ENDBRANCH   1   2
BRANCH   1  24
ATOM     24  C   UNL     1      45.670 131.362  17.213  1.00  0.00     0.079 C 
BRANCH  24  25
ATOM     25  N   UNL     1      44.748 132.155  16.394  1.00  0.00    -0.324 NA
ATOM     26  H   UNL     1      44.163 132.756  17.023  1.00  0.00     0.119 HD
ATOM     27  H   UNL     1      45.311 132.814  15.809  1.00  0.00     0.119 HD
ENDBRANCH  24  25
BRANCH  24  28
ATOM     28  C   UNL     1      46.247 130.186  16.392  1.00  0.00     0.023 C 
BRANCH  28  29
ATOM     29  C   UNL     1      46.504 130.546  14.913  1.00  0.00    -0.002 C 
ATOM     30  C   UNL     1      47.373 129.496  14.231  1.00  0.00     0.004 C 
ENDBRANCH  28  29
ENDBRANCH  24  28
ENDBRANCH   1  24
TORSDOF 8
ENDMDL
MODEL 8
REMARK VINA RESULT:      -6.4      1.241      1.758
REMARK SMILES CCC[C@@H](N)/C=C(\O)N1CC[C@@H](C)[C@@H](c2cc3cc(F)ccc3[nH]2)[C@H]1F
REMARK SMILES IDX 6 1 7 2 8 3 9 5 10 6 25 7 11 8 14 9 12 10 26 11 13 12 15 13
REMARK SMILES IDX 16 14 24 15 17 16 23 17 18 18 22 19 19 20 21 21 20 23 4 24
REMARK SMILES IDX 5 25 3 28 2 29 1 30
REMARK H PARENT 8 4 24 22 5 26 5 27
ROOT
ATOM      1  C   UNL     1      45.334 131.446  17.574  1.00  0.00     0.057 C 
ENDROOT
BRANCH   1   2
ATOM      2  C   UNL     1      45.394 130.867  18.792  1.00  0.00     0.186 C 
BRANCH   2   3
ATOM      3  O   UNL     1      46.129 129.694  19.013  1.00  0.00    -0.495 OA
ATOM      4  H   UNL     1      45.720 128.779  19.093  1.00  0.00     0.295 HD
ENDBRANCH   2   3
BRANCH   2   5
ATOM      5  N   UNL     1      44.662 131.439  19.899  1.00  0.00    -0.313 N 
ATOM      6  C   UNL     1      43.348 132.065  19.695  1.00  0.00     0.123 C 
ATOM      7  C   UNL     1      45.335 131.707  21.181  1.00  0.00     0.274 C 
ATOM      8  C   UNL     1      42.395 131.642  20.812  1.00  0.00     0.026 C 
ATOM      9  C   UNL     1      44.410 131.369  22.374  1.00  0.00     0.094 C 
ATOM     10  C   UNL     1      42.996 131.985  22.187  1.00  0.00     0.001 C 
ATOM     11  F   UNL     1      46.515 130.986  21.295  1.00  0.00    -0.223 F 
ATOM     12  C   UNL     1      42.031 131.593  23.317  1.00  0.00     0.008 C 
BRANCH   9  13
ATOM     13  C   UNL     1      44.381 129.881  22.662  1.00  0.00     0.024 A 
ATOM     14  C   UNL     1      43.551 129.283  23.610  1.00  0.00     0.032 A 
ATOM     15  N   UNL     1      45.135 128.949  22.026  1.00  0.00    -0.358 N 
ATOM     16  C   UNL     1      43.836 127.938  23.540  1.00  0.00     0.003 A 
ATOM     17  C   UNL     1      44.794 127.771  22.575  1.00  0.00     0.046 A 
ATOM     18  C   UNL     1      43.314 126.862  24.254  1.00  0.00     0.049 A 
ATOM     19  C   UNL     1      45.300 126.511  22.257  1.00  0.00     0.029 A 
ATOM     20  C   UNL     1      43.807 125.577  23.957  1.00  0.00     0.123 A 
ATOM     21  C   UNL     1      44.796 125.403  22.962  1.00  0.00     0.041 A 
ATOM     22  H   UNL     1      45.839 129.098  21.272  1.00  0.00     0.166 HD
ATOM     23  F   UNL     1      43.325 124.499  24.625  1.00  0.00    -0.207 F 
ENDBRANCH   9  13
ENDBRANCH   2   5
ENDBRANCH   1   2
BRANCH   1  24
ATOM     24  C   UNL     1      45.633 130.745  16.268  1.00  0.00     0.079 C 
BRANCH  24  25
ATOM     25  N   UNL     1      46.779 129.848  16.446  1.00  0.00    -0.324 NA
ATOM     26  H   UNL     1      47.602 130.407  16.775  1.00  0.00     0.119 HD
ATOM     27  H   UNL     1      46.557 129.181  17.220  1.00  0.00     0.119 HD
ENDBRANCH  24  25
BRANCH  24  28
ATOM     28  C   UNL     1      45.920 131.776  15.152  1.00  0.00     0.023 C 
BRANCH  28  29
ATOM     29  C   UNL     1      44.788 131.870  14.107  1.00  0.00    -0.002 C 
ATOM     30  C   UNL     1      43.648 130.916  14.441  1.00  0.00     0.004 C 
ENDBRANCH  28  29
ENDBRANCH  24  28
ENDBRANCH   1  24
TORSDOF 8
ENDMDL
MODEL 9
REMARK VINA RESULT:      -6.3      1.366      1.804
REMARK SMILES CCC[C@@H](N)/C=C(\O)N1CC[C@@H](C)[C@@H](c2cc3cc(F)ccc3[nH]2)[C@H]1F
REMARK SMILES IDX 6 1 7 2 8 3 9 5 10 6 25 7 11 8 14 9 12 10 26 11 13 12 15 13
REMARK SMILES IDX 16 14 24 15 17 16 23 17 18 18 22 19 19 20 21 21 20 23 4 24
REMARK SMILES IDX 5 25 3 28 2 29 1 30
REMARK H PARENT 8 4 24 22 5 26 5 27
ROOT
ATOM      1  C   UNL     1      46.338 130.782  16.503  1.00  0.00     0.057 C 
ENDROOT
BRANCH   1   2
ATOM      2  C   UNL     1      45.651 130.361  17.587  1.00  0.00     0.186 C 
BRANCH   2   3
ATOM      3  O   UNL     1      45.721 129.035  18.032  1.00  0.00    -0.495 OA
ATOM      4  H   UNL     1      45.291 128.700  18.877  1.00  0.00     0.295 HD
ENDBRANCH   2   3
BRANCH   2   5
ATOM      5  N   UNL     1      44.794 131.282  18.298  1.00  0.00    -0.313 N 
ATOM      6  C   UNL     1      43.506 131.707  17.733  1.00  0.00     0.123 C 
ATOM      7  C   UNL     1      45.315 132.065  19.431  1.00  0.00     0.274 C 
ATOM      8  C   UNL     1      42.436 131.705  18.824  1.00  0.00     0.026 C 
ATOM      9  C   UNL     1      44.264 132.172  20.561  1.00  0.00     0.094 C 
ATOM     10  C   UNL     1      42.874 132.589  20.005  1.00  0.00     0.001 C 
ATOM     11  F   UNL     1      46.481 131.510  19.938  1.00  0.00    -0.223 F 
ATOM     12  C   UNL     1      41.791 132.621  21.095  1.00  0.00     0.008 C 
BRANCH   9  13
ATOM     13  C   UNL     1      44.216 130.916  21.408  1.00  0.00     0.024 A 
ATOM     14  C   UNL     1      45.084 129.836  21.256  1.00  0.00     0.032 A 
ATOM     15  N   UNL     1      43.345 130.694  22.426  1.00  0.00    -0.358 N 
ATOM     16  C   UNL     1      44.701 128.929  22.219  1.00  0.00     0.003 A 
ATOM     17  C   UNL     1      43.651 129.477  22.906  1.00  0.00     0.046 A 
ATOM     18  C   UNL     1      45.210 127.670  22.532  1.00  0.00     0.049 A 
ATOM     19  C   UNL     1      43.034 128.803  23.959  1.00  0.00     0.029 A 
ATOM     20  C   UNL     1      44.605 126.963  23.588  1.00  0.00     0.123 A 
ATOM     21  C   UNL     1      43.521 127.528  24.298  1.00  0.00     0.041 A 
ATOM     22  H   UNL     1      42.588 131.322  22.771  1.00  0.00     0.166 HD
ATOM     23  F   UNL     1      45.070 125.735  23.931  1.00  0.00    -0.207 F 
ENDBRANCH   9  13
ENDBRANCH   2   5
ENDBRANCH   1   2
BRANCH   1  24
ATOM     24  C   UNL     1      46.298 130.120  15.145  1.00  0.00     0.079 C 
BRANCH  24  25
ATOM     25  N   UNL     1      47.623 129.576  14.828  1.00  0.00    -0.324 NA
ATOM     26  H   UNL     1      48.199 130.323  14.373  1.00  0.00     0.119 HD
ATOM     27  H   UNL     1      48.107 129.347  15.726  1.00  0.00     0.119 HD
ENDBRANCH  24  25
BRANCH  24  28
ATOM     28  C   UNL     1      45.855 131.129  14.061  1.00  0.00     0.023 C 
BRANCH  28  29
ATOM     29  C   UNL     1      44.650 131.992  14.492  1.00  0.00    -0.002 C 
ATOM     30  C   UNL     1      43.331 131.300  14.167  1.00  0.00     0.004 C 
ENDBRANCH  28  29
ENDBRANCH  24  28
ENDBRANCH   1  24
TORSDOF 8
ENDMDL


