REMARK SMILES Cc1cc([NH2+]N)c(O)c(-n2nc3cc(-c4ccc([O-])cc4)ccc3[nH+]2)c1
REMARK SMILES IDX 1 1 2 2 3 3 4 4 7 5 9 6 26 7 5 8 6 11 10 14 11 15 25 16
REMARK SMILES IDX 12 17 24 18 13 19 23 20 14 21 22 22 15 24 16 25 21 26 17 27
REMARK SMILES IDX 20 28 18 29 19 30 8 31
REMARK H PARENT 5 9 5 10 6 12 6 13 25 23 8 32
ROOT
ATOM      1  C   UNL     1       3.646  -1.766  -4.465  1.00  0.00     0.044 C 
ATOM      2  C   UNL     1       2.425  -1.558  -3.618  1.00  0.00    -0.042 A 
ATOM      3  C   UNL     1       1.438  -2.546  -3.553  1.00  0.00     0.077 A 
ATOM      4  C   UNL     1       0.269  -2.352  -2.797  1.00  0.00     0.193 A 
ATOM      5  C   UNL     1       0.106  -1.141  -2.073  1.00  0.00     0.211 A 
ATOM      6  C   UNL     1       1.094  -0.135  -2.155  1.00  0.00     0.176 A 
ATOM      7  C   UNL     1       2.240  -0.351  -2.937  1.00  0.00     0.042 A 
ENDROOT
BRANCH   4   8
ATOM      8  N   UNL     1      -0.715  -3.408  -2.748  1.00  0.00    -0.236 N 
ATOM      9  H   UNL     1      -0.643  -4.006  -3.605  1.00  0.00     0.376 HD
ATOM     10  H   UNL     1      -1.691  -3.035  -2.715  1.00  0.00     0.376 HD
BRANCH   8  11
ATOM     11  N   UNL     1      -0.459  -4.216  -1.621  1.00  0.00    -0.178 NA
ATOM     12  H   UNL     1      -0.746  -3.695  -0.760  1.00  0.00     0.183 HD
ATOM     13  H   UNL     1      -1.084  -5.054  -1.676  1.00  0.00     0.183 HD
ENDBRANCH   8  11
ENDBRANCH   4   8
BRANCH   6  14
ATOM     14  N   UNL     1       0.948   1.105  -1.434  1.00  0.00    -0.009 N 
ATOM     15  N   UNL     1       0.329   1.210  -0.258  1.00  0.00     0.054 NA
ATOM     16  N   UNL     1       1.426   2.276  -1.851  1.00  0.00    -0.161 N 
ATOM     17  C   UNL     1       0.424   2.510   0.073  1.00  0.00     0.250 A 
ATOM     18  C   UNL     1       1.097   3.167  -0.907  1.00  0.00     0.198 A 
ATOM     19  C   UNL     1      -0.063   3.160   1.201  1.00  0.00     0.072 A 
ATOM     20  C   UNL     1       1.345   4.532  -0.855  1.00  0.00     0.059 A 
ATOM     21  C   UNL     1       0.163   4.556   1.308  1.00  0.00    -0.014 A 
ATOM     22  C   UNL     1       0.870   5.232   0.271  1.00  0.00     0.013 A 
ATOM     23  H   UNL     1       1.928   2.459  -2.749  1.00  0.00     0.340 HD
BRANCH  21  24
ATOM     24  C   UNL     1      -0.334   5.306   2.489  1.00  0.00    -0.018 A 
ATOM     25  C   UNL     1      -0.254   4.746   3.778  1.00  0.00     0.008 A 
ATOM     26  C   UNL     1      -0.895   6.589   2.339  1.00  0.00     0.008 A 
ATOM     27  C   UNL     1      -0.722   5.454   4.889  1.00  0.00    -0.008 A 
ATOM     28  C   UNL     1      -1.364   7.292   3.453  1.00  0.00    -0.008 A 
ATOM     29  C   UNL     1      -1.277   6.726   4.728  1.00  0.00    -0.109 A 
ATOM     30  O   UNL     1      -1.743   7.427   5.833  1.00  0.00    -0.872 OA
ENDBRANCH  21  24
ENDBRANCH   6  14
BRANCH   5  31
ATOM     31  O   UNL     1      -1.024  -0.904  -1.284  1.00  0.00    -0.501 OA
ATOM     32  H   UNL     1      -1.762  -1.577  -1.130  1.00  0.00     0.293 HD
ENDBRANCH   5  31
TORSDOF 5


