MODEL 1
REMARK VINA RESULT:      -9.2      0.000      0.000
REMARK SMILES c1cc2cc(-c3ncc4c(n3)CCCC4)ccc2[nH]1
REMARK SMILES IDX 1 1 2 2 3 3 4 4 5 5 16 6 17 7 18 8 19 9 6 11 7 12 11 13 8 14
REMARK SMILES IDX 10 15 9 16 12 17 15 18 13 19 14 20
REMARK H PARENT 19 10
ROOT
ATOM      1  C   UNL     1      47.762 129.796  13.213  1.00  0.00     0.083 A 
ATOM      2  C   UNL     1      47.675 129.178  14.456  1.00  0.00     0.028 A 
ATOM      3  C   UNL     1      46.944 130.044  15.239  1.00  0.00     0.000 A 
ATOM      4  C   UNL     1      46.547 129.948  16.570  1.00  0.00     0.022 A 
ATOM      5  C   UNL     1      45.788 131.009  17.122  1.00  0.00     0.020 A 
ATOM      6  C   UNL     1      45.462 132.128  16.306  1.00  0.00     0.014 A 
ATOM      7  C   UNL     1      45.883 132.190  14.965  1.00  0.00     0.027 A 
ATOM      8  C   UNL     1      46.624 131.124  14.463  1.00  0.00     0.045 A 
ATOM      9  N   UNL     1      47.119 130.986  13.223  1.00  0.00    -0.361 N 
ATOM     10  H   UNL     1      47.028 131.655  12.426  1.00  0.00     0.166 HD
ENDROOT
BRANCH   5  11
ATOM     11  C   UNL     1      45.341 130.954  18.535  1.00  0.00     0.159 A 
ATOM     12  N   UNL     1      46.086 130.301  19.467  1.00  0.00    -0.236 NA
ATOM     13  N   UNL     1      44.180 131.556  18.912  1.00  0.00    -0.233 NA
ATOM     14  C   UNL     1      45.694 130.232  20.764  1.00  0.00     0.119 A 
ATOM     15  C   UNL     1      43.748 131.529  20.201  1.00  0.00     0.048 A 
ATOM     16  C   UNL     1      44.498 130.833  21.169  1.00  0.00    -0.008 A 
ATOM     17  C   UNL     1      42.420 132.161  20.533  1.00  0.00     0.056 C 
ATOM     18  C   UNL     1      44.104 130.820  22.626  1.00  0.00     0.039 C 
ATOM     19  C   UNL     1      42.255 132.422  22.034  1.00  0.00     0.007 C 
ATOM     20  C   UNL     1      42.628 131.174  22.838  1.00  0.00     0.005 C 
ENDBRANCH   5  11
TORSDOF 1
ENDMDL
MODEL 2
REMARK VINA RESULT:      -9.2      0.815      1.791
REMARK SMILES c1cc2cc(-c3ncc4c(n3)CCCC4)ccc2[nH]1
REMARK SMILES IDX 1 1 2 2 3 3 4 4 5 5 16 6 17 7 18 8 19 9 6 11 7 12 11 13 8 14
REMARK SMILES IDX 10 15 9 16 12 17 15 18 13 19 14 20
REMARK H PARENT 19 10
ROOT
ATOM      1  C   UNL     1      48.172 129.440  13.361  1.00  0.00     0.083 A 
ATOM      2  C   UNL     1      47.659 128.927  14.549  1.00  0.00     0.028 A 
ATOM      3  C   UNL     1      46.942 129.962  15.108  1.00  0.00     0.000 A 
ATOM      4  C   UNL     1      46.217 130.024  16.295  1.00  0.00     0.022 A 
ATOM      5  C   UNL     1      45.570 131.241  16.622  1.00  0.00     0.020 A 
ATOM      6  C   UNL     1      45.683 132.348  15.737  1.00  0.00     0.014 A 
ATOM      7  C   UNL     1      46.426 132.247  14.547  1.00  0.00     0.027 A 
ATOM      8  C   UNL     1      47.044 131.033  14.264  1.00  0.00     0.045 A 
ATOM      9  N   UNL     1      47.793 130.728  13.193  1.00  0.00    -0.361 N 
ATOM     10  H   UNL     1      48.036 131.352  12.391  1.00  0.00     0.166 HD
ENDROOT
BRANCH   5  11
ATOM     11  C   UNL     1      44.785 131.358  17.875  1.00  0.00     0.159 A 
ATOM     12  N   UNL     1      43.526 131.872  17.854  1.00  0.00    -0.236 NA
ATOM     13  N   UNL     1      45.317 130.951  19.060  1.00  0.00    -0.233 NA
ATOM     14  C   UNL     1      42.791 131.994  18.988  1.00  0.00     0.119 A 
ATOM     15  C   UNL     1      44.620 131.038  20.224  1.00  0.00     0.048 A 
ATOM     16  C   UNL     1      43.326 131.594  20.217  1.00  0.00    -0.008 A 
ATOM     17  C   UNL     1      45.298 130.631  21.507  1.00  0.00     0.056 C 
ATOM     18  C   UNL     1      42.478 131.660  21.464  1.00  0.00     0.039 C 
ATOM     19  C   UNL     1      44.301 130.388  22.645  1.00  0.00     0.007 C 
ATOM     20  C   UNL     1      43.312 131.551  22.745  1.00  0.00     0.005 C 
ENDBRANCH   5  11
TORSDOF 1
ENDMDL
MODEL 3
REMARK VINA RESULT:      -8.8      1.146      2.096
REMARK SMILES c1cc2cc(-c3ncc4c(n3)CCCC4)ccc2[nH]1
REMARK SMILES IDX 1 1 2 2 3 3 4 4 5 5 16 6 17 7 18 8 19 9 6 11 7 12 11 13 8 14
REMARK SMILES IDX 10 15 9 16 12 17 15 18 13 19 14 20
REMARK H PARENT 19 10
ROOT
ATOM      1  C   UNL     1      47.216 130.365  13.659  1.00  0.00     0.083 A 
ATOM      2  C   UNL     1      47.334 130.260  15.041  1.00  0.00     0.028 A 
ATOM      3  C   UNL     1      46.142 130.736  15.541  1.00  0.00     0.000 A 
ATOM      4  C   UNL     1      45.698 130.869  16.854  1.00  0.00     0.022 A 
ATOM      5  C   UNL     1      44.403 131.399  17.074  1.00  0.00     0.020 A 
ATOM      6  C   UNL     1      43.608 131.776  15.957  1.00  0.00     0.014 A 
ATOM      7  C   UNL     1      44.091 131.628  14.644  1.00  0.00     0.027 A 
ATOM      8  C   UNL     1      45.368 131.102  14.474  1.00  0.00     0.045 A 
ATOM      9  N   UNL     1      46.013 130.881  13.318  1.00  0.00    -0.361 N 
ATOM     10  H   UNL     1      45.662 131.066  12.352  1.00  0.00     0.166 HD
ENDROOT
BRANCH   5  11
ATOM     11  C   UNL     1      43.885 131.560  18.455  1.00  0.00     0.159 A 
ATOM     12  N   UNL     1      42.705 132.197  18.677  1.00  0.00    -0.236 NA
ATOM     13  N   UNL     1      44.588 131.071  19.513  1.00  0.00    -0.233 NA
ATOM     14  C   UNL     1      42.214 132.361  19.932  1.00  0.00     0.119 A 
ATOM     15  C   UNL     1      44.136 131.196  20.790  1.00  0.00     0.048 A 
ATOM     16  C   UNL     1      42.927 131.878  21.033  1.00  0.00    -0.008 A 
ATOM     17  C   UNL     1      44.999 130.689  21.916  1.00  0.00     0.056 C 
ATOM     18  C   UNL     1      42.342 131.995  22.419  1.00  0.00     0.039 C 
ATOM     19  C   UNL     1      44.214 130.517  23.222  1.00  0.00     0.007 C 
ATOM     20  C   UNL     1      43.387 131.769  23.518  1.00  0.00     0.005 C 
ENDBRANCH   5  11
TORSDOF 1
ENDMDL
MODEL 4
REMARK VINA RESULT:      -8.8      1.543      7.142
REMARK SMILES c1cc2cc(-c3ncc4c(n3)CCCC4)ccc2[nH]1
REMARK SMILES IDX 1 1 2 2 3 3 4 4 5 5 16 6 17 7 18 8 19 9 6 11 7 12 11 13 8 14
REMARK SMILES IDX 10 15 9 16 12 17 15 18 13 19 14 20
REMARK H PARENT 19 10
ROOT
ATOM      1  C   UNL     1      43.551 131.302  22.884  1.00  0.00     0.083 A 
ATOM      2  C   UNL     1      44.728 131.167  22.154  1.00  0.00     0.028 A 
ATOM      3  C   UNL     1      44.359 131.344  20.839  1.00  0.00     0.000 A 
ATOM      4  C   UNL     1      45.119 131.316  19.672  1.00  0.00     0.022 A 
ATOM      5  C   UNL     1      44.460 131.536  18.437  1.00  0.00     0.020 A 
ATOM      6  C   UNL     1      43.058 131.773  18.430  1.00  0.00     0.014 A 
ATOM      7  C   UNL     1      42.323 131.792  19.630  1.00  0.00     0.027 A 
ATOM      8  C   UNL     1      43.011 131.573  20.820  1.00  0.00     0.045 A 
ATOM      9  N   UNL     1      42.505 131.550  22.063  1.00  0.00    -0.361 N 
ATOM     10  H   UNL     1      41.509 131.694  22.344  1.00  0.00     0.166 HD
ENDROOT
BRANCH   5  11
ATOM     11  C   UNL     1      45.226 131.516  17.167  1.00  0.00     0.159 A 
ATOM     12  N   UNL     1      45.380 132.654  16.439  1.00  0.00    -0.236 NA
ATOM     13  N   UNL     1      45.782 130.358  16.718  1.00  0.00    -0.233 NA
ATOM     14  C   UNL     1      46.070 132.659  15.271  1.00  0.00     0.119 A 
ATOM     15  C   UNL     1      46.495 130.310  15.562  1.00  0.00     0.048 A 
ATOM     16  C   UNL     1      46.638 131.477  14.786  1.00  0.00    -0.008 A 
ATOM     17  C   UNL     1      47.025 128.979  15.093  1.00  0.00     0.056 C 
ATOM     18  C   UNL     1      47.470 131.502  13.527  1.00  0.00     0.039 C 
ATOM     19  C   UNL     1      48.127 129.127  14.038  1.00  0.00     0.007 C 
ATOM     20  C   UNL     1      47.691 130.102  12.942  1.00  0.00     0.005 C 
ENDBRANCH   5  11
TORSDOF 1
ENDMDL
MODEL 5
REMARK VINA RESULT:      -8.4      1.037      2.254
REMARK SMILES c1cc2cc(-c3ncc4c(n3)CCCC4)ccc2[nH]1
REMARK SMILES IDX 1 1 2 2 3 3 4 4 5 5 16 6 17 7 18 8 19 9 6 11 7 12 11 13 8 14
REMARK SMILES IDX 10 15 9 16 12 17 15 18 13 19 14 20
REMARK H PARENT 19 10
ROOT
ATOM      1  C   UNL     1      47.923 131.027  12.883  1.00  0.00     0.083 A 
ATOM      2  C   UNL     1      47.368 131.978  13.734  1.00  0.00     0.028 A 
ATOM      3  C   UNL     1      46.728 131.253  14.715  1.00  0.00     0.000 A 
ATOM      4  C   UNL     1      46.002 131.675  15.826  1.00  0.00     0.022 A 
ATOM      5  C   UNL     1      45.446 130.689  16.678  1.00  0.00     0.020 A 
ATOM      6  C   UNL     1      45.644 129.314  16.371  1.00  0.00     0.014 A 
ATOM      7  C   UNL     1      46.382 128.926  15.238  1.00  0.00     0.027 A 
ATOM      8  C   UNL     1      46.912 129.928  14.430  1.00  0.00     0.045 A 
ATOM      9  N   UNL     1      47.640 129.776  13.313  1.00  0.00    -0.361 N 
ATOM     10  H   UNL     1      47.932 128.879  12.864  1.00  0.00     0.166 HD
ENDROOT
BRANCH   5  11
ATOM     11  C   UNL     1      44.665 131.088  17.874  1.00  0.00     0.159 A 
ATOM     12  N   UNL     1      43.471 131.723  17.736  1.00  0.00    -0.236 NA
ATOM     13  N   UNL     1      45.138 130.822  19.123  1.00  0.00    -0.233 NA
ATOM     14  C   UNL     1      42.742 132.102  18.816  1.00  0.00     0.119 A 
ATOM     15  C   UNL     1      44.442 131.168  20.238  1.00  0.00     0.048 A 
ATOM     16  C   UNL     1      43.216 131.850  20.107  1.00  0.00    -0.008 A 
ATOM     17  C   UNL     1      45.058 130.901  21.588  1.00  0.00     0.056 C 
ATOM     18  C   UNL     1      42.368 132.205  21.304  1.00  0.00     0.039 C 
ATOM     19  C   UNL     1      44.027 130.952  22.722  1.00  0.00     0.007 C 
ATOM     20  C   UNL     1      43.171 132.215  22.609  1.00  0.00     0.005 C 
ENDBRANCH   5  11
TORSDOF 1
ENDMDL
MODEL 6
REMARK VINA RESULT:      -8.3      0.718      1.886
REMARK SMILES c1cc2cc(-c3ncc4c(n3)CCCC4)ccc2[nH]1
REMARK SMILES IDX 1 1 2 2 3 3 4 4 5 5 16 6 17 7 18 8 19 9 6 11 7 12 11 13 8 14
REMARK SMILES IDX 10 15 9 16 12 17 15 18 13 19 14 20
REMARK H PARENT 19 10
ROOT
ATOM      1  C   UNL     1      47.776 129.833  13.275  1.00  0.00     0.083 A 
ATOM      2  C   UNL     1      47.538 129.200  14.491  1.00  0.00     0.028 A 
ATOM      3  C   UNL     1      46.834 130.116  15.241  1.00  0.00     0.000 A 
ATOM      4  C   UNL     1      46.330 130.032  16.537  1.00  0.00     0.022 A 
ATOM      5  C   UNL     1      45.635 131.149  17.060  1.00  0.00     0.020 A 
ATOM      6  C   UNL     1      45.477 132.310  16.254  1.00  0.00     0.014 A 
ATOM      7  C   UNL     1      46.002 132.359  14.949  1.00  0.00     0.027 A 
ATOM      8  C   UNL     1      46.676 131.238  14.475  1.00  0.00     0.045 A 
ATOM      9  N   UNL     1      47.247 131.078  13.270  1.00  0.00    -0.361 N 
ATOM     10  H   UNL     1      47.280 131.769  12.488  1.00  0.00     0.166 HD
ENDROOT
BRANCH   5  11
ATOM     11  C   UNL     1      45.079 131.108  18.435  1.00  0.00     0.159 A 
ATOM     12  N   UNL     1      44.138 132.009  18.825  1.00  0.00    -0.236 NA
ATOM     13  N   UNL     1      45.506 130.166  19.321  1.00  0.00    -0.233 NA
ATOM     14  C   UNL     1      43.620 131.994  20.079  1.00  0.00     0.119 A 
ATOM     15  C   UNL     1      45.011 130.098  20.585  1.00  0.00     0.048 A 
ATOM     16  C   UNL     1      44.056 131.044  21.007  1.00  0.00    -0.008 A 
ATOM     17  C   UNL     1      45.579 129.071  21.531  1.00  0.00     0.056 C 
ATOM     18  C   UNL     1      43.422 130.982  22.376  1.00  0.00     0.039 C 
ATOM     19  C   UNL     1      44.674 128.830  22.745  1.00  0.00     0.007 C 
ATOM     20  C   UNL     1      44.252 130.162  23.369  1.00  0.00     0.005 C 
ENDBRANCH   5  11
TORSDOF 1
ENDMDL
MODEL 7
REMARK VINA RESULT:      -8.3      1.411      7.291
REMARK SMILES c1cc2cc(-c3ncc4c(n3)CCCC4)ccc2[nH]1
REMARK SMILES IDX 1 1 2 2 3 3 4 4 5 5 16 6 17 7 18 8 19 9 6 11 7 12 11 13 8 14
REMARK SMILES IDX 10 15 9 16 12 17 15 18 13 19 14 20
REMARK H PARENT 19 10
ROOT
ATOM      1  C   UNL     1      42.784 131.577  23.190  1.00  0.00     0.083 A 
ATOM      2  C   UNL     1      42.704 132.185  21.941  1.00  0.00     0.028 A 
ATOM      3  C   UNL     1      43.662 131.558  21.174  1.00  0.00     0.000 A 
ATOM      4  C   UNL     1      44.031 131.754  19.846  1.00  0.00     0.022 A 
ATOM      5  C   UNL     1      45.067 130.949  19.311  1.00  0.00     0.020 A 
ATOM      6  C   UNL     1      45.691 129.978  20.142  1.00  0.00     0.014 A 
ATOM      7  C   UNL     1      45.291 129.810  21.481  1.00  0.00     0.027 A 
ATOM      8  C   UNL     1      44.268 130.621  21.963  1.00  0.00     0.045 A 
ATOM      9  N   UNL     1      43.742 130.622  23.198  1.00  0.00    -0.361 N 
ATOM     10  H   UNL     1      44.012 130.014  24.003  1.00  0.00     0.166 HD
ENDROOT
BRANCH   5  11
ATOM     11  C   UNL     1      45.496 131.120  17.902  1.00  0.00     0.159 A 
ATOM     12  N   UNL     1      45.254 132.286  17.245  1.00  0.00    -0.236 NA
ATOM     13  N   UNL     1      46.137 130.110  17.252  1.00  0.00    -0.233 NA
ATOM     14  C   UNL     1      45.631 132.463  15.954  1.00  0.00     0.119 A 
ATOM     15  C   UNL     1      46.549 130.239  15.963  1.00  0.00     0.048 A 
ATOM     16  C   UNL     1      46.279 131.433  15.265  1.00  0.00    -0.008 A 
ATOM     17  C   UNL     1      47.193 129.056  15.287  1.00  0.00     0.056 C 
ATOM     18  C   UNL     1      46.766 131.660  13.854  1.00  0.00     0.039 C 
ATOM     19  C   UNL     1      47.962 129.452  14.021  1.00  0.00     0.007 C 
ATOM     20  C   UNL     1      47.101 130.351  13.131  1.00  0.00     0.005 C 
ENDBRANCH   5  11
TORSDOF 1
ENDMDL
MODEL 8
REMARK VINA RESULT:      -8.0      1.033      1.155
REMARK SMILES c1cc2cc(-c3ncc4c(n3)CCCC4)ccc2[nH]1
REMARK SMILES IDX 1 1 2 2 3 3 4 4 5 5 16 6 17 7 18 8 19 9 6 11 7 12 11 13 8 14
REMARK SMILES IDX 10 15 9 16 12 17 15 18 13 19 14 20
REMARK H PARENT 19 10
ROOT
ATOM      1  C   UNL     1      46.769 130.898  13.335  1.00  0.00     0.083 A 
ATOM      2  C   UNL     1      47.247 130.551  14.595  1.00  0.00     0.028 A 
ATOM      3  C   UNL     1      46.218 130.842  15.463  1.00  0.00     0.000 A 
ATOM      4  C   UNL     1      46.131 130.701  16.845  1.00  0.00     0.022 A 
ATOM      5  C   UNL     1      44.928 131.088  17.485  1.00  0.00     0.020 A 
ATOM      6  C   UNL     1      43.859 131.604  16.701  1.00  0.00     0.014 A 
ATOM      7  C   UNL     1      43.985 131.733  15.306  1.00  0.00     0.027 A 
ATOM      8  C   UNL     1      45.184 131.340  14.719  1.00  0.00     0.045 A 
ATOM      9  N   UNL     1      45.508 131.380  13.417  1.00  0.00    -0.361 N 
ATOM     10  H   UNL     1      44.912 131.713  12.626  1.00  0.00     0.166 HD
ENDROOT
BRANCH   5  11
ATOM     11  C   UNL     1      44.786 130.956  18.956  1.00  0.00     0.159 A 
ATOM     12  N   UNL     1      45.690 130.236  19.673  1.00  0.00    -0.236 NA
ATOM     13  N   UNL     1      43.749 131.556  19.602  1.00  0.00    -0.233 NA
ATOM     14  C   UNL     1      45.577 130.097  21.017  1.00  0.00     0.119 A 
ATOM     15  C   UNL     1      43.597 131.460  20.949  1.00  0.00     0.048 A 
ATOM     16  C   UNL     1      44.512 130.694  21.698  1.00  0.00    -0.008 A 
ATOM     17  C   UNL     1      42.388 132.095  21.588  1.00  0.00     0.056 C 
ATOM     18  C   UNL     1      44.432 130.601  23.202  1.00  0.00     0.039 C 
ATOM     19  C   UNL     1      42.550 132.269  23.102  1.00  0.00     0.007 C 
ATOM     20  C   UNL     1      43.044 130.969  23.740  1.00  0.00     0.005 C 
ENDBRANCH   5  11
TORSDOF 1
ENDMDL
MODEL 9
REMARK VINA RESULT:      -7.8      1.596      7.186
REMARK SMILES c1cc2cc(-c3ncc4c(n3)CCCC4)ccc2[nH]1
REMARK SMILES IDX 1 1 2 2 3 3 4 4 5 5 16 6 17 7 18 8 19 9 6 11 7 12 11 13 8 14
REMARK SMILES IDX 10 15 9 16 12 17 15 18 13 19 14 20
REMARK H PARENT 19 10
ROOT
ATOM      1  C   UNL     1      43.234 131.485  23.582  1.00  0.00     0.083 A 
ATOM      2  C   UNL     1      44.189 130.982  22.704  1.00  0.00     0.028 A 
ATOM      3  C   UNL     1      43.764 131.365  21.451  1.00  0.00     0.000 A 
ATOM      4  C   UNL     1      44.325 131.141  20.196  1.00  0.00     0.022 A 
ATOM      5  C   UNL     1      43.657 131.662  19.061  1.00  0.00     0.020 A 
ATOM      6  C   UNL     1      42.448 132.389  19.239  1.00  0.00     0.014 A 
ATOM      7  C   UNL     1      41.911 132.594  20.523  1.00  0.00     0.027 A 
ATOM      8  C   UNL     1      42.601 132.066  21.610  1.00  0.00     0.045 A 
ATOM      9  N   UNL     1      42.265 132.146  22.908  1.00  0.00    -0.361 N 
ATOM     10  H   UNL     1      41.429 132.621  23.317  1.00  0.00     0.166 HD
ENDROOT
BRANCH   5  11
ATOM     11  C   UNL     1      44.214 131.451  17.702  1.00  0.00     0.159 A 
ATOM     12  N   UNL     1      43.591 131.976  16.613  1.00  0.00    -0.236 NA
ATOM     13  N   UNL     1      45.355 130.728  17.533  1.00  0.00    -0.233 NA
ATOM     14  C   UNL     1      44.079 131.790  15.361  1.00  0.00     0.119 A 
ATOM     15  C   UNL     1      45.894 130.522  16.301  1.00  0.00     0.048 A 
ATOM     16  C   UNL     1      45.242 131.039  15.165  1.00  0.00    -0.008 A 
ATOM     17  C   UNL     1      47.121 129.656  16.184  1.00  0.00     0.056 C 
ATOM     18  C   UNL     1      45.823 130.899  13.779  1.00  0.00     0.039 C 
ATOM     19  C   UNL     1      47.844 129.844  14.845  1.00  0.00     0.007 C 
ATOM     20  C   UNL     1      46.849 129.764  13.685  1.00  0.00     0.005 C 
ENDBRANCH   5  11
TORSDOF 1
ENDMDL


