MODEL 1
REMARK VINA RESULT:      -9.8      0.000      0.000
REMARK SMILES Cc1[n-]nc2cc(-c3ccc([O-])cc3)ccc12
REMARK SMILES IDX 1 1 2 2 3 3 4 4 5 5 6 6 7 7 15 8 16 9 17 10 8 11 9 12 14 13
REMARK SMILES IDX 10 14 13 15 11 16 12 17
REMARK H PARENT
ROOT
ATOM      1  C   UNL     1      42.744 132.018  22.063  1.00  0.00     0.019 C 
ATOM      2  C   UNL     1      42.679 132.099  20.573  1.00  0.00    -0.139 A 
ATOM      3  N   UNL     1      41.600 132.520  19.874  1.00  0.00    -0.578 NA
ATOM      4  N   UNL     1      41.866 132.430  18.573  1.00  0.00    -0.367 NA
ATOM      5  C   UNL     1      43.114 131.944  18.453  1.00  0.00     0.048 A 
ATOM      6  C   UNL     1      43.813 131.673  17.281  1.00  0.00     0.035 A 
ATOM      7  C   UNL     1      45.125 131.147  17.392  1.00  0.00    -0.016 A 
ATOM      8  C   UNL     1      45.677 130.916  18.684  1.00  0.00     0.009 A 
ATOM      9  C   UNL     1      44.937 131.202  19.846  1.00  0.00     0.009 A 
ATOM     10  C   UNL     1      43.657 131.719  19.683  1.00  0.00    -0.020 A 
ENDROOT
BRANCH   7  11
ATOM     11  C   UNL     1      45.914 130.838  16.172  1.00  0.00    -0.018 A 
ATOM     12  C   UNL     1      46.367 129.529  15.925  1.00  0.00     0.008 A 
ATOM     13  C   UNL     1      46.222 131.851  15.244  1.00  0.00     0.008 A 
ATOM     14  C   UNL     1      47.110 129.241  14.775  1.00  0.00    -0.008 A 
ATOM     15  C   UNL     1      46.965 131.559  14.097  1.00  0.00    -0.008 A 
ATOM     16  C   UNL     1      47.410 130.255  13.862  1.00  0.00    -0.109 A 
ATOM     17  O   UNL     1      48.148 129.967  12.721  1.00  0.00    -0.872 OA
ENDBRANCH   7  11
TORSDOF 1
ENDMDL
MODEL 2
REMARK VINA RESULT:      -9.7      0.771      1.467
REMARK SMILES Cc1[n-]nc2cc(-c3ccc([O-])cc3)ccc12
REMARK SMILES IDX 1 1 2 2 3 3 4 4 5 5 6 6 7 7 15 8 16 9 17 10 8 11 9 12 14 13
REMARK SMILES IDX 10 14 13 15 11 16 12 17
REMARK H PARENT
ROOT
ATOM      1  C   UNL     1      43.263 131.476  23.040  1.00  0.00     0.019 C 
ATOM      2  C   UNL     1      43.090 131.817  21.596  1.00  0.00    -0.139 A 
ATOM      3  N   UNL     1      42.028 132.484  21.088  1.00  0.00    -0.578 NA
ATOM      4  N   UNL     1      42.172 132.584  19.769  1.00  0.00    -0.367 NA
ATOM      5  C   UNL     1      43.326 131.973  19.445  1.00  0.00     0.048 A 
ATOM      6  C   UNL     1      43.883 131.820  18.179  1.00  0.00     0.035 A 
ATOM      7  C   UNL     1      45.111 131.121  18.070  1.00  0.00    -0.016 A 
ATOM      8  C   UNL     1      45.727 130.605  19.245  1.00  0.00     0.009 A 
ATOM      9  C   UNL     1      45.132 130.780  20.508  1.00  0.00     0.009 A 
ATOM     10  C   UNL     1      43.929 131.474  20.561  1.00  0.00    -0.020 A 
ENDROOT
BRANCH   7  11
ATOM     11  C   UNL     1      45.748 130.928  16.742  1.00  0.00    -0.018 A 
ATOM     12  C   UNL     1      45.920 132.015  15.865  1.00  0.00     0.008 A 
ATOM     13  C   UNL     1      46.190 129.654  16.339  1.00  0.00     0.008 A 
ATOM     14  C   UNL     1      46.520 131.831  14.615  1.00  0.00    -0.008 A 
ATOM     15  C   UNL     1      46.789 129.474  15.089  1.00  0.00    -0.008 A 
ATOM     16  C   UNL     1      46.954 130.561  14.227  1.00  0.00    -0.109 A 
ATOM     17  O   UNL     1      47.550 130.379  12.985  1.00  0.00    -0.872 OA
ENDBRANCH   7  11
TORSDOF 1
ENDMDL
MODEL 3
REMARK VINA RESULT:      -9.7      1.187      1.517
REMARK SMILES Cc1[n-]nc2cc(-c3ccc([O-])cc3)ccc12
REMARK SMILES IDX 1 1 2 2 3 3 4 4 5 5 6 6 7 7 15 8 16 9 17 10 8 11 9 12 14 13
REMARK SMILES IDX 10 14 13 15 11 16 12 17
REMARK H PARENT
ROOT
ATOM      1  C   UNL     1      43.796 131.028  23.646  1.00  0.00     0.019 C 
ATOM      2  C   UNL     1      43.480 131.492  22.262  1.00  0.00    -0.139 A 
ATOM      3  N   UNL     1      42.371 132.190  21.923  1.00  0.00    -0.578 NA
ATOM      4  N   UNL     1      42.383 132.407  20.610  1.00  0.00    -0.367 NA
ATOM      5  C   UNL     1      43.499 131.839  20.121  1.00  0.00     0.048 A 
ATOM      6  C   UNL     1      43.928 131.804  18.797  1.00  0.00     0.035 A 
ATOM      7  C   UNL     1      45.140 131.131  18.505  1.00  0.00    -0.016 A 
ATOM      8  C   UNL     1      45.871 130.520  19.563  1.00  0.00     0.009 A 
ATOM      9  C   UNL     1      45.405 130.577  20.890  1.00  0.00     0.009 A 
ATOM     10  C   UNL     1      44.211 131.251  21.123  1.00  0.00    -0.020 A 
ENDROOT
BRANCH   7  11
ATOM     11  C   UNL     1      45.642 131.062  17.109  1.00  0.00    -0.018 A 
ATOM     12  C   UNL     1      46.220 129.878  16.613  1.00  0.00     0.008 A 
ATOM     13  C   UNL     1      45.546 132.180  16.259  1.00  0.00     0.008 A 
ATOM     14  C   UNL     1      46.691 129.816  15.298  1.00  0.00    -0.008 A 
ATOM     15  C   UNL     1      46.019 132.113  14.945  1.00  0.00    -0.008 A 
ATOM     16  C   UNL     1      46.591 130.933  14.464  1.00  0.00    -0.109 A 
ATOM     17  O   UNL     1      47.060 130.869  13.158  1.00  0.00    -0.872 OA
ENDBRANCH   7  11
TORSDOF 1
ENDMDL
MODEL 4
REMARK VINA RESULT:      -9.4      3.882      6.688
REMARK SMILES Cc1[n-]nc2cc(-c3ccc([O-])cc3)ccc12
REMARK SMILES IDX 1 1 2 2 3 3 4 4 5 5 6 6 7 7 15 8 16 9 17 10 8 11 9 12 14 13
REMARK SMILES IDX 10 14 13 15 11 16 12 17
REMARK H PARENT
ROOT
ATOM      1  C   UNL     1      47.657 131.222  12.544  1.00  0.00     0.019 C 
ATOM      2  C   UNL     1      47.330 130.462  13.787  1.00  0.00    -0.139 A 
ATOM      3  N   UNL     1      47.616 129.153  13.983  1.00  0.00    -0.578 NA
ATOM      4  N   UNL     1      47.154 128.785  15.175  1.00  0.00    -0.367 NA
ATOM      5  C   UNL     1      46.570 129.863  15.729  1.00  0.00     0.048 A 
ATOM      6  C   UNL     1      45.940 129.949  16.967  1.00  0.00     0.035 A 
ATOM      7  C   UNL     1      45.376 131.193  17.344  1.00  0.00    -0.016 A 
ATOM      8  C   UNL     1      45.471 132.301  16.454  1.00  0.00     0.009 A 
ATOM      9  C   UNL     1      46.116 132.174  15.210  1.00  0.00     0.009 A 
ATOM     10  C   UNL     1      46.654 130.932  14.888  1.00  0.00    -0.020 A 
ENDROOT
BRANCH   7  11
ATOM     11  C   UNL     1      44.691 131.339  18.654  1.00  0.00    -0.018 A 
ATOM     12  C   UNL     1      45.377 131.076  19.854  1.00  0.00     0.008 A 
ATOM     13  C   UNL     1      43.344 131.744  18.715  1.00  0.00     0.008 A 
ATOM     14  C   UNL     1      44.730 131.216  21.086  1.00  0.00    -0.008 A 
ATOM     15  C   UNL     1      42.701 131.881  19.948  1.00  0.00    -0.008 A 
ATOM     16  C   UNL     1      43.392 131.617  21.133  1.00  0.00    -0.109 A 
ATOM     17  O   UNL     1      42.751 131.754  22.358  1.00  0.00    -0.872 OA
ENDBRANCH   7  11
TORSDOF 1
ENDMDL
MODEL 5
REMARK VINA RESULT:      -9.3      3.869      6.726
REMARK SMILES Cc1[n-]nc2cc(-c3ccc([O-])cc3)ccc12
REMARK SMILES IDX 1 1 2 2 3 3 4 4 5 5 6 6 7 7 15 8 16 9 17 10 8 11 9 12 14 13
REMARK SMILES IDX 10 14 13 15 11 16 12 17
REMARK H PARENT
ROOT
ATOM      1  C   UNL     1      47.754 131.167  12.582  1.00  0.00     0.019 C 
ATOM      2  C   UNL     1      47.337 130.406  13.796  1.00  0.00    -0.139 A 
ATOM      3  N   UNL     1      47.514 129.075  13.966  1.00  0.00    -0.578 NA
ATOM      4  N   UNL     1      46.994 128.716  15.136  1.00  0.00    -0.367 NA
ATOM      5  C   UNL     1      46.483 129.823  15.704  1.00  0.00     0.048 A 
ATOM      6  C   UNL     1      45.831 129.929  16.928  1.00  0.00     0.035 A 
ATOM      7  C   UNL     1      45.357 131.204  17.324  1.00  0.00    -0.016 A 
ATOM      8  C   UNL     1      45.561 132.322  16.466  1.00  0.00     0.009 A 
ATOM      9  C   UNL     1      46.225 132.174  15.234  1.00  0.00     0.009 A 
ATOM     10  C   UNL     1      46.673 130.902  14.894  1.00  0.00    -0.020 A 
ENDROOT
BRANCH   7  11
ATOM     11  C   UNL     1      44.653 131.373  18.621  1.00  0.00    -0.018 A 
ATOM     12  C   UNL     1      43.294 131.736  18.656  1.00  0.00     0.008 A 
ATOM     13  C   UNL     1      45.334 131.171  19.837  1.00  0.00     0.008 A 
ATOM     14  C   UNL     1      42.633 131.894  19.878  1.00  0.00    -0.008 A 
ATOM     15  C   UNL     1      44.670 131.330  21.056  1.00  0.00    -0.008 A 
ATOM     16  C   UNL     1      43.320 131.692  21.078  1.00  0.00    -0.109 A 
ATOM     17  O   UNL     1      42.662 131.849  22.291  1.00  0.00    -0.872 OA
ENDBRANCH   7  11
TORSDOF 1
ENDMDL
MODEL 6
REMARK VINA RESULT:      -9.0      1.260      1.781
REMARK SMILES Cc1[n-]nc2cc(-c3ccc([O-])cc3)ccc12
REMARK SMILES IDX 1 1 2 2 3 3 4 4 5 5 6 6 7 7 15 8 16 9 17 10 8 11 9 12 14 13
REMARK SMILES IDX 10 14 13 15 11 16 12 17
REMARK H PARENT
ROOT
ATOM      1  C   UNL     1      41.784 132.598  21.069  1.00  0.00     0.019 C 
ATOM      2  C   UNL     1      43.098 132.001  20.687  1.00  0.00    -0.139 A 
ATOM      3  N   UNL     1      44.052 131.620  21.567  1.00  0.00    -0.578 NA
ATOM      4  N   UNL     1      45.106 131.169  20.893  1.00  0.00    -0.367 NA
ATOM      5  C   UNL     1      44.817 131.271  19.583  1.00  0.00     0.048 A 
ATOM      6  C   UNL     1      45.625 130.927  18.503  1.00  0.00     0.035 A 
ATOM      7  C   UNL     1      45.117 131.135  17.197  1.00  0.00    -0.016 A 
ATOM      8  C   UNL     1      43.812 131.683  17.034  1.00  0.00     0.009 A 
ATOM      9  C   UNL     1      43.026 132.019  18.152  1.00  0.00     0.009 A 
ATOM     10  C   UNL     1      43.570 131.793  19.412  1.00  0.00    -0.020 A 
ENDROOT
BRANCH   7  11
ATOM     11  C   UNL     1      45.938 130.787  16.009  1.00  0.00    -0.018 A 
ATOM     12  C   UNL     1      46.393 129.470  15.814  1.00  0.00     0.008 A 
ATOM     13  C   UNL     1      46.273 131.770  15.058  1.00  0.00     0.008 A 
ATOM     14  C   UNL     1      47.166 129.145  14.695  1.00  0.00    -0.008 A 
ATOM     15  C   UNL     1      47.046 131.441  13.941  1.00  0.00    -0.008 A 
ATOM     16  C   UNL     1      47.493 130.130  13.759  1.00  0.00    -0.109 A 
ATOM     17  O   UNL     1      48.261 129.805  12.647  1.00  0.00    -0.872 OA
ENDBRANCH   7  11
TORSDOF 1
ENDMDL
MODEL 7
REMARK VINA RESULT:      -8.9      1.193      2.113
REMARK SMILES Cc1[n-]nc2cc(-c3ccc([O-])cc3)ccc12
REMARK SMILES IDX 1 1 2 2 3 3 4 4 5 5 6 6 7 7 15 8 16 9 17 10 8 11 9 12 14 13
REMARK SMILES IDX 10 14 13 15 11 16 12 17
REMARK H PARENT
ROOT
ATOM      1  C   UNL     1      41.452 132.814  20.467  1.00  0.00     0.019 C 
ATOM      2  C   UNL     1      42.803 132.232  20.211  1.00  0.00    -0.139 A 
ATOM      3  N   UNL     1      43.715 131.958  21.173  1.00  0.00    -0.578 NA
ATOM      4  N   UNL     1      44.819 131.488  20.600  1.00  0.00    -0.367 NA
ATOM      5  C   UNL     1      44.605 131.471  19.272  1.00  0.00     0.048 A 
ATOM      6  C   UNL     1      45.483 131.067  18.272  1.00  0.00     0.035 A 
ATOM      7  C   UNL     1      45.047 131.149  16.926  1.00  0.00    -0.016 A 
ATOM      8  C   UNL     1      43.740 131.637  16.645  1.00  0.00     0.009 A 
ATOM      9  C   UNL     1      42.880 132.037  17.684  1.00  0.00     0.009 A 
ATOM     10  C   UNL     1      43.355 131.935  18.987  1.00  0.00    -0.020 A 
ENDROOT
BRANCH   7  11
ATOM     11  C   UNL     1      45.946 130.731  15.820  1.00  0.00    -0.018 A 
ATOM     12  C   UNL     1      46.401 131.669  14.874  1.00  0.00     0.008 A 
ATOM     13  C   UNL     1      46.359 129.391  15.701  1.00  0.00     0.008 A 
ATOM     14  C   UNL     1      47.248 131.273  13.833  1.00  0.00    -0.008 A 
ATOM     15  C   UNL     1      47.205 129.000  14.659  1.00  0.00    -0.008 A 
ATOM     16  C   UNL     1      47.649 129.939  13.726  1.00  0.00    -0.109 A 
ATOM     17  O   UNL     1      48.490 129.548  12.691  1.00  0.00    -0.872 OA
ENDBRANCH   7  11
TORSDOF 1
ENDMDL
MODEL 8
REMARK VINA RESULT:      -8.8      3.567      6.478
REMARK SMILES Cc1[n-]nc2cc(-c3ccc([O-])cc3)ccc12
REMARK SMILES IDX 1 1 2 2 3 3 4 4 5 5 6 6 7 7 15 8 16 9 17 10 8 11 9 12 14 13
REMARK SMILES IDX 10 14 13 15 11 16 12 17
REMARK H PARENT
ROOT
ATOM      1  C   UNL     1      46.587 130.399  13.751  1.00  0.00     0.019 C 
ATOM      2  C   UNL     1      45.424 130.880  14.553  1.00  0.00    -0.139 A 
ATOM      3  N   UNL     1      44.302 131.426  14.027  1.00  0.00    -0.578 NA
ATOM      4  N   UNL     1      43.489 131.780  15.019  1.00  0.00    -0.367 NA
ATOM      5  C   UNL     1      44.101 131.461  16.173  1.00  0.00     0.048 A 
ATOM      6  C   UNL     1      43.632 131.655  17.468  1.00  0.00     0.035 A 
ATOM      7  C   UNL     1      44.460 131.252  18.546  1.00  0.00    -0.016 A 
ATOM      8  C   UNL     1      45.730 130.669  18.270  1.00  0.00     0.009 A 
ATOM      9  C   UNL     1      46.169 130.489  16.945  1.00  0.00     0.009 A 
ATOM     10  C   UNL     1      45.318 130.899  15.924  1.00  0.00    -0.020 A 
ENDROOT
BRANCH   7  11
ATOM     11  C   UNL     1      44.008 131.438  19.948  1.00  0.00    -0.018 A 
ATOM     12  C   UNL     1      44.806 130.999  21.022  1.00  0.00     0.008 A 
ATOM     13  C   UNL     1      42.775 132.057  20.226  1.00  0.00     0.008 A 
ATOM     14  C   UNL     1      44.378 131.176  22.341  1.00  0.00    -0.008 A 
ATOM     15  C   UNL     1      42.351 132.231  21.547  1.00  0.00    -0.008 A 
ATOM     16  C   UNL     1      43.152 131.791  22.604  1.00  0.00    -0.109 A 
ATOM     17  O   UNL     1      42.728 131.965  23.916  1.00  0.00    -0.872 OA
ENDBRANCH   7  11
TORSDOF 1
ENDMDL
MODEL 9
REMARK VINA RESULT:      -8.8      1.555      2.306
REMARK SMILES Cc1[n-]nc2cc(-c3ccc([O-])cc3)ccc12
REMARK SMILES IDX 1 1 2 2 3 3 4 4 5 5 6 6 7 7 15 8 16 9 17 10 8 11 9 12 14 13
REMARK SMILES IDX 10 14 13 15 11 16 12 17
REMARK H PARENT
ROOT
ATOM      1  C   UNL     1      41.807 132.383  22.140  1.00  0.00     0.019 C 
ATOM      2  C   UNL     1      43.104 131.856  21.621  1.00  0.00    -0.139 A 
ATOM      3  N   UNL     1      44.141 131.468  22.400  1.00  0.00    -0.578 NA
ATOM      4  N   UNL     1      45.150 131.092  21.619  1.00  0.00    -0.367 NA
ATOM      5  C   UNL     1      44.750 131.249  20.344  1.00  0.00     0.048 A 
ATOM      6  C   UNL     1      45.476 130.991  19.186  1.00  0.00     0.035 A 
ATOM      7  C   UNL     1      44.855 131.245  17.937  1.00  0.00    -0.016 A 
ATOM      8  C   UNL     1      43.524 131.751  17.911  1.00  0.00     0.009 A 
ATOM      9  C   UNL     1      42.822 131.999  19.105  1.00  0.00     0.009 A 
ATOM     10  C   UNL     1      43.476 131.731  20.303  1.00  0.00    -0.020 A 
ENDROOT
BRANCH   7  11
ATOM     11  C   UNL     1      45.586 130.989  16.670  1.00  0.00    -0.018 A 
ATOM     12  C   UNL     1      45.872 132.043  15.783  1.00  0.00     0.008 A 
ATOM     13  C   UNL     1      46.004 129.687  16.337  1.00  0.00     0.008 A 
ATOM     14  C   UNL     1      46.561 131.799  14.590  1.00  0.00    -0.008 A 
ATOM     15  C   UNL     1      46.692 129.448  15.144  1.00  0.00    -0.008 A 
ATOM     16  C   UNL     1      46.970 130.502  14.270  1.00  0.00    -0.109 A 
ATOM     17  O   UNL     1      47.654 130.262  13.085  1.00  0.00    -0.872 OA
ENDBRANCH   7  11
TORSDOF 1
ENDMDL


