MODEL 1
REMARK VINA RESULT:      -8.9      0.000      0.000
REMARK SMILES N#Cc1[nH+]c2cnc(/N=C3\[CH]C=CC3)cc2cc1-c1ccc([O-])cc1
REMARK SMILES IDX 8 1 7 2 6 3 5 4 16 5 15 6 17 7 18 8 3 9 4 10 9 12 10 13
REMARK SMILES IDX 11 14 12 15 13 16 14 17 19 18 20 19 25 20 21 21 24 22 22 23
REMARK SMILES IDX 23 24 2 25 1 26
REMARK H PARENT 4 11
ROOT
ATOM      1  C   UNL     1      43.678 131.590  21.089  1.00  0.00     0.152 A 
ATOM      2  N   UNL     1      42.476 132.067  20.659  1.00  0.00    -0.230 NA
ATOM      3  C   UNL     1      42.177 132.193  19.338  1.00  0.00     0.193 A 
ATOM      4  C   UNL     1      43.116 131.823  18.367  1.00  0.00     0.230 A 
ATOM      5  C   UNL     1      44.365 131.323  18.785  1.00  0.00     0.052 A 
ATOM      6  C   UNL     1      44.643 131.205  20.152  1.00  0.00     0.064 A 
ATOM      7  C   UNL     1      45.304 130.950  17.819  1.00  0.00     0.031 A 
ATOM      8  C   UNL     1      45.003 131.069  16.454  1.00  0.00     0.066 A 
ATOM      9  C   UNL     1      43.741 131.588  16.080  1.00  0.00     0.290 A 
ATOM     10  N   UNL     1      42.837 131.945  17.038  1.00  0.00    -0.194 N 
ATOM     11  H   UNL     1      41.910 132.329  16.743  1.00  0.00     0.455 HD
ENDROOT
BRANCH   1  12
ATOM     12  N   UNL     1      43.973 131.453  22.488  1.00  0.00    -0.237 NA
BRANCH  12  13
ATOM     13  C   UNL     1      43.653 130.463  23.271  1.00  0.00     0.032 C 
ATOM     14  C   UNL     1      42.305 130.215  23.866  1.00  0.00     0.069 C 
ATOM     15  C   UNL     1      42.545 128.955  24.625  1.00  0.00    -0.020 C 
ATOM     16  C   UNL     1      43.800 128.528  24.521  1.00  0.00    -0.025 C 
ATOM     17  C   UNL     1      44.635 129.419  23.670  1.00  0.00     0.079 C 
ENDBRANCH  12  13
ENDBRANCH   1  12
BRANCH   8  18
ATOM     18  C   UNL     1      46.015 130.653  15.453  1.00  0.00    -0.011 A 
ATOM     19  C   UNL     1      46.438 129.315  15.376  1.00  0.00     0.008 A 
ATOM     20  C   UNL     1      46.588 131.605  14.591  1.00  0.00     0.008 A 
ATOM     21  C   UNL     1      47.403 128.933  14.439  1.00  0.00    -0.008 A 
ATOM     22  C   UNL     1      47.553 131.219  13.656  1.00  0.00    -0.008 A 
ATOM     23  C   UNL     1      47.960 129.884  13.577  1.00  0.00    -0.109 A 
ATOM     24  O   UNL     1      48.919 129.501  12.648  1.00  0.00    -0.872 OA
ENDBRANCH   8  18
BRANCH   9  25
ATOM     25  C   UNL     1      43.399 131.793  14.691  1.00  0.00     0.170 C 
ATOM     26  N   UNL     1      43.127 131.957  13.578  1.00  0.00    -0.186 NA
ENDBRANCH   9  25
TORSDOF 4
ENDMDL
MODEL 2
REMARK VINA RESULT:      -8.3      0.342      1.246
REMARK SMILES N#Cc1[nH+]c2cnc(/N=C3\[CH]C=CC3)cc2cc1-c1ccc([O-])cc1
REMARK SMILES IDX 8 1 7 2 6 3 5 4 16 5 15 6 17 7 18 8 3 9 4 10 9 12 10 13
REMARK SMILES IDX 11 14 12 15 13 16 14 17 19 18 20 19 25 20 21 21 24 22 22 23
REMARK SMILES IDX 23 24 2 25 1 26
REMARK H PARENT 4 11
ROOT
ATOM      1  C   UNL     1      43.445 131.617  21.107  1.00  0.00     0.152 A 
ATOM      2  N   UNL     1      42.263 132.112  20.645  1.00  0.00    -0.230 NA
ATOM      3  C   UNL     1      42.004 132.248  19.317  1.00  0.00     0.193 A 
ATOM      4  C   UNL     1      42.966 131.869  18.371  1.00  0.00     0.230 A 
ATOM      5  C   UNL     1      44.195 131.350  18.823  1.00  0.00     0.052 A 
ATOM      6  C   UNL     1      44.432 131.222  20.197  1.00  0.00     0.064 A 
ATOM      7  C   UNL     1      45.157 130.969  17.883  1.00  0.00     0.031 A 
ATOM      8  C   UNL     1      44.897 131.098  16.511  1.00  0.00     0.066 A 
ATOM      9  C   UNL     1      43.653 131.636  16.102  1.00  0.00     0.290 A 
ATOM     10  N   UNL     1      42.727 132.001  17.036  1.00  0.00    -0.194 N 
ATOM     11  H   UNL     1      41.814 132.399  16.716  1.00  0.00     0.455 HD
ENDROOT
BRANCH   1  12
ATOM     12  N   UNL     1      43.698 131.469  22.514  1.00  0.00    -0.237 NA
BRANCH  12  13
ATOM     13  C   UNL     1      43.692 130.367  23.207  1.00  0.00     0.032 C 
ATOM     14  C   UNL     1      44.802 129.869  24.074  1.00  0.00     0.069 C 
ATOM     15  C   UNL     1      44.214 128.610  24.613  1.00  0.00    -0.020 C 
ATOM     16  C   UNL     1      42.989 128.381  24.150  1.00  0.00    -0.025 C 
ATOM     17  C   UNL     1      42.524 129.446  23.219  1.00  0.00     0.079 C 
ENDBRANCH  12  13
ENDBRANCH   1  12
BRANCH   8  18
ATOM     18  C   UNL     1      45.932 130.673  15.537  1.00  0.00    -0.011 A 
ATOM     19  C   UNL     1      46.503 131.600  14.648  1.00  0.00     0.008 A 
ATOM     20  C   UNL     1      46.330 129.326  15.474  1.00  0.00     0.008 A 
ATOM     21  C   UNL     1      47.468 131.189  13.723  1.00  0.00    -0.008 A 
ATOM     22  C   UNL     1      47.295 128.919  14.548  1.00  0.00    -0.008 A 
ATOM     23  C   UNL     1      47.866 129.848  13.674  1.00  0.00    -0.109 A 
ATOM     24  O   UNL     1      48.825 129.442  12.754  1.00  0.00    -0.872 OA
ENDBRANCH   8  18
BRANCH   9  25
ATOM     25  C   UNL     1      43.355 131.852  14.705  1.00  0.00     0.170 C 
ATOM     26  N   UNL     1      43.117 132.025  13.586  1.00  0.00    -0.186 NA
ENDBRANCH   9  25
TORSDOF 4
ENDMDL


