REMARK SMILES C[C@@]1(C(=O)N(c2ccc3[nH]ccc3c2)c2cccc3c2CCC3)CC[C@H](N)C1
REMARK SMILES IDX 3 1 4 2 2 3 24 4 28 5 25 6 26 7 1 8 27 9 5 12 6 13 7 14
REMARK SMILES IDX 14 15 8 16 13 17 9 18 12 19 10 20 11 21 15 23 16 24 20 25
REMARK SMILES IDX 17 26 19 27 21 28 18 29 23 30 22 31
REMARK H PARENT 27 10 27 11 10 22
ROOT
ATOM      1  C   UNL     1      -0.164  -0.833   1.083  1.00  0.00     0.237 C 
ATOM      2  O   UNL     1       0.670  -1.138   1.980  1.00  0.00    -0.273 OA
ENDROOT
BRANCH   1   3
ATOM      3  C   UNL     1      -1.635  -1.227   1.279  1.00  0.00     0.049 C 
ATOM      4  C   UNL     1      -2.465  -1.194  -0.034  1.00  0.00     0.018 C 
ATOM      5  C   UNL     1      -2.336  -0.236   2.238  1.00  0.00     0.035 C 
ATOM      6  C   UNL     1      -3.485  -0.074   0.115  1.00  0.00     0.020 C 
ATOM      7  C   UNL     1      -3.687   0.095   1.612  1.00  0.00     0.051 C 
ATOM      8  C   UNL     1      -1.707  -2.653   1.878  1.00  0.00     0.022 C 
BRANCH   7   9
ATOM      9  N   UNL     1      -4.104   1.459   1.937  1.00  0.00    -0.328 NA
ATOM     10  H   UNL     1      -4.244   1.516   2.972  1.00  0.00     0.119 HD
ATOM     11  H   UNL     1      -5.042   1.621   1.504  1.00  0.00     0.119 HD
ENDBRANCH   7   9
ENDBRANCH   1   3
BRANCH   1  12
ATOM     12  N   UNL     1       0.309  -0.106  -0.072  1.00  0.00    -0.280 N 
BRANCH  12  13
ATOM     13  C   UNL     1      -0.290   1.147  -0.445  1.00  0.00     0.050 A 
ATOM     14  C   UNL     1      -0.673   1.372  -1.792  1.00  0.00     0.029 A 
ATOM     15  C   UNL     1      -0.445   2.178   0.508  1.00  0.00     0.037 A 
ATOM     16  C   UNL     1      -1.260   2.590  -2.178  1.00  0.00     0.029 A 
ATOM     17  C   UNL     1      -1.033   3.369   0.093  1.00  0.00     0.001 A 
ATOM     18  C   UNL     1      -1.431   3.568  -1.201  1.00  0.00     0.045 A 
ATOM     19  C   UNL     1      -1.322   4.519   0.794  1.00  0.00     0.028 A 
ATOM     20  N   UNL     1      -1.963   4.791  -1.354  1.00  0.00    -0.361 N 
ATOM     21  C   UNL     1      -1.899   5.377  -0.137  1.00  0.00     0.083 A 
ATOM     22  H   UNL     1      -2.345   5.210  -2.232  1.00  0.00     0.166 HD
ENDBRANCH  12  13
BRANCH  12  23
ATOM     23  C   UNL     1       1.549  -0.494  -0.701  1.00  0.00     0.052 A 
ATOM     24  C   UNL     1       2.558   0.464  -0.942  1.00  0.00     0.027 A 
ATOM     25  C   UNL     1       1.784  -1.818  -1.121  1.00  0.00    -0.021 A 
ATOM     26  C   UNL     1       3.754   0.099  -1.581  1.00  0.00     0.002 A 
ATOM     27  C   UNL     1       2.953  -2.162  -1.759  1.00  0.00    -0.043 A 
ATOM     28  C   UNL     1       0.879  -2.987  -0.994  1.00  0.00     0.038 C 
ATOM     29  C   UNL     1       3.956  -1.222  -1.997  1.00  0.00     0.004 A 
ATOM     30  C   UNL     1       2.983  -3.590  -2.148  1.00  0.00     0.036 C 
ATOM     31  C   UNL     1       1.571  -4.094  -1.808  1.00  0.00     0.010 C 
ENDBRANCH  12  23
ENDBRANCH   1  12
TORSDOF 5


