REMARK SMILES Fc1ccc2nc(-c3ccc4[nH]ccc4c3)ncc2c1
REMARK SMILES IDX 1 1 2 2 3 3 4 4 5 5 6 6 7 7 17 8 18 9 19 10 20 11 8 12 9 13
REMARK SMILES IDX 16 14 10 15 15 16 11 17 14 18 12 19 13 20
REMARK H PARENT 12 21
ROOT
ATOM      1  F   UNL     1      -3.140  -4.779  -1.445  1.00  0.00    -0.207 F 
ATOM      2  C   UNL     1      -2.360  -3.739  -1.060  1.00  0.00     0.124 A 
ATOM      3  C   UNL     1      -2.465  -3.231   0.240  1.00  0.00     0.041 A 
ATOM      4  C   UNL     1      -1.663  -2.158   0.644  1.00  0.00     0.032 A 
ATOM      5  C   UNL     1      -0.752  -1.590  -0.255  1.00  0.00     0.075 A 
ATOM      6  N   UNL     1       0.030  -0.548   0.128  1.00  0.00    -0.228 NA
ATOM      7  C   UNL     1       0.923   0.020  -0.730  1.00  0.00     0.159 A 
ATOM      8  N   UNL     1       1.033  -0.465  -1.998  1.00  0.00    -0.236 NA
ATOM      9  C   UNL     1       0.274  -1.505  -2.430  1.00  0.00     0.124 A 
ATOM     10  C   UNL     1      -0.646  -2.100  -1.564  1.00  0.00     0.022 A 
ATOM     11  C   UNL     1      -1.452  -3.175  -1.964  1.00  0.00     0.051 A 
ENDROOT
BRANCH   7  12
ATOM     12  C   UNL     1       1.766   1.157  -0.287  1.00  0.00     0.020 A 
ATOM     13  C   UNL     1       1.653   1.667   1.037  1.00  0.00     0.014 A 
ATOM     14  C   UNL     1       2.695   1.749  -1.179  1.00  0.00     0.022 A 
ATOM     15  C   UNL     1       2.448   2.744   1.466  1.00  0.00     0.027 A 
ATOM     16  C   UNL     1       3.464   2.814  -0.717  1.00  0.00     0.000 A 
ATOM     17  C   UNL     1       3.346   3.295   0.558  1.00  0.00     0.045 A 
ATOM     18  C   UNL     1       4.428   3.566  -1.354  1.00  0.00     0.028 A 
ATOM     19  N   UNL     1       4.191   4.319   0.762  1.00  0.00    -0.361 N 
ATOM     20  C   UNL     1       4.855   4.489  -0.404  1.00  0.00     0.083 A 
ATOM     21  H   UNL     1       4.313   4.873   1.639  1.00  0.00     0.166 HD
ENDBRANCH   7  12
TORSDOF 1


