REMARK SMILES C=c1ccc(=C(OC(=O)[C@H](F)CC)C(=O)c2ccc(C)cc2)cc1
REMARK SMILES IDX 7 1 6 2 14 3 15 4 16 5 19 6 18 7 21 8 17 9 22 10 20 11 5 12
REMARK SMILES IDX 4 13 23 14 3 15 24 16 2 17 1 18 8 19 9 20 10 21 11 22 12 23
REMARK SMILES IDX 13 24
REMARK H PARENT
ROOT
ATOM      1  O   UNL     1       0.529   0.017  -0.415  1.00  0.00    -0.420 OA
ENDROOT
BRANCH   1   2
ATOM      2  C   UNL     1      -0.321  -1.052  -0.756  1.00  0.00     0.186 C 
BRANCH   2   3
ATOM      3  C   UNL     1      -0.662  -2.067   0.276  1.00  0.00     0.228 C 
ATOM      4  O   UNL     1      -0.398  -3.279   0.045  1.00  0.00    -0.285 OA
BRANCH   3   5
ATOM      5  C   UNL     1      -1.263  -1.678   1.578  1.00  0.00     0.026 A 
ATOM      6  C   UNL     1      -2.406  -0.963   4.057  1.00  0.00    -0.051 A 
ATOM      7  C   UNL     1      -2.361  -0.037   3.006  1.00  0.00     0.004 A 
ATOM      8  C   UNL     1      -1.861  -2.241   3.871  1.00  0.00     0.004 A 
ATOM      9  C   UNL     1      -1.803  -0.393   1.774  1.00  0.00     0.012 A 
ATOM     10  C   UNL     1      -1.303  -2.599   2.641  1.00  0.00     0.012 A 
ATOM     11  C   UNL     1      -2.968  -0.566   5.390  1.00  0.00     0.044 C 
ENDBRANCH   3   5
ENDBRANCH   2   3
BRANCH   2  12
ATOM     12  C   UNL     1      -0.839  -1.102  -2.011  1.00  0.00     0.021 A 
ATOM     13  C   UNL     1      -1.788  -2.079  -2.396  1.00  0.00     0.013 A 
ATOM     14  C   UNL     1      -0.447  -0.148  -2.977  1.00  0.00     0.013 A 
ATOM     15  C   UNL     1      -2.307  -2.106  -3.693  1.00  0.00     0.008 A 
ATOM     16  C   UNL     1      -0.968  -0.178  -4.274  1.00  0.00     0.008 A 
ATOM     17  C   UNL     1      -1.900  -1.158  -4.643  1.00  0.00    -0.033 A 
ATOM     18  C   UNL     1      -2.398  -1.186  -5.884  1.00  0.00     0.017 C 
ENDBRANCH   2  12
ENDBRANCH   1   2
BRANCH   1  19
ATOM     19  C   UNL     1       1.452   0.023   0.639  1.00  0.00     0.346 C 
ATOM     20  O   UNL     1       1.807  -1.049   1.201  1.00  0.00    -0.248 OA
BRANCH  19  21
ATOM     21  C   UNL     1       2.089   1.315   1.044  1.00  0.00     0.276 C 
ATOM     22  F   UNL     1       1.113   2.293   1.123  1.00  0.00    -0.235 F 
BRANCH  21  23
ATOM     23  C   UNL     1       3.158   1.720   0.022  1.00  0.00     0.046 C 
ATOM     24  C   UNL     1       3.877   3.000   0.443  1.00  0.00     0.007 C 
ENDBRANCH  21  23
ENDBRANCH  19  21
ENDBRANCH   1  19
TORSDOF 7


