MODEL 1
REMARK VINA RESULT:      -7.6      0.000      0.000
REMARK SMILES Cc1ccc(-c2ccc(N/C(O)=C/[C@H]([NH3+])C(=O)[O-])c(C=O)c2)cc1
REMARK SMILES IDX 11 1 12 2 13 4 14 5 16 6 17 7 18 8 15 9 10 13 9 15 8 16
REMARK SMILES IDX 19 17 7 18 22 19 6 20 20 21 21 22 5 23 4 24 23 25 3 26 24 27
REMARK SMILES IDX 2 28 1 29
REMARK H PARENT 12 3 15 10 15 11 15 12 10 14
ROOT
ATOM      1  C   UNL     1      44.389 131.728  23.603  1.00  0.00     0.190 C 
ENDROOT
BRANCH   1   2
ATOM      2  O   UNL     1      45.418 132.672  23.638  1.00  0.00    -0.495 OA
ATOM      3  H   UNL     1      45.806 133.012  24.508  1.00  0.00     0.295 HD
ENDBRANCH   1   2
BRANCH   1   4
ATOM      4  C   UNL     1      44.224 130.873  24.624  1.00  0.00     0.109 C 
BRANCH   4   5
ATOM      5  C   UNL     1      44.398 129.374  24.519  1.00  0.00     0.257 C 
BRANCH   5   6
ATOM      6  C   UNL     1      43.087 128.691  24.227  1.00  0.00     0.104 C 
ATOM      7  O   UNL     1      42.042 129.359  24.003  1.00  0.00    -0.544 OA
ATOM      8  O   UNL     1      43.018 127.303  24.240  1.00  0.00    -0.544 OA
ENDBRANCH   5   6
BRANCH   5   9
ATOM      9  N   UNL     1      45.437 129.023  23.539  1.00  0.00    -0.347 N 
ATOM     10  H   UNL     1      44.986 128.732  22.641  1.00  0.00     0.345 HD
ATOM     11  H   UNL     1      45.999 128.218  23.897  1.00  0.00     0.345 HD
ATOM     12  H   UNL     1      46.076 129.829  23.353  1.00  0.00     0.345 HD
ENDBRANCH   5   9
ENDBRANCH   4   5
ENDBRANCH   1   4
BRANCH   1  13
ATOM     13  N   UNL     1      43.517 131.648  22.463  1.00  0.00    -0.326 N 
ATOM     14  H   UNL     1      42.491 131.806  22.596  1.00  0.00     0.170 HD
BRANCH  13  15
ATOM     15  C   UNL     1      43.996 131.444  21.124  1.00  0.00     0.051 A 
ATOM     16  C   UNL     1      45.244 130.833  20.929  1.00  0.00     0.027 A 
ATOM     17  C   UNL     1      43.274 131.924  20.004  1.00  0.00     0.038 A 
ATOM     18  C   UNL     1      45.777 130.691  19.648  1.00  0.00     0.011 A 
ATOM     19  C   UNL     1      43.830 131.787  18.721  1.00  0.00     0.022 A 
ATOM     20  C   UNL     1      45.077 131.170  18.530  1.00  0.00    -0.018 A 
BRANCH  17  21
ATOM     21  C   UNL     1      41.932 132.542  20.114  1.00  0.00     0.262 C 
ATOM     22  O   UNL     1      41.336 133.017  19.111  1.00  0.00    -0.298 OA
ENDBRANCH  17  21
BRANCH  20  23
ATOM     23  C   UNL     1      45.647 131.023  17.166  1.00  0.00    -0.018 A 
ATOM     24  C   UNL     1      46.185 129.795  16.744  1.00  0.00     0.009 A 
ATOM     25  C   UNL     1      45.663 132.114  16.277  1.00  0.00     0.009 A 
ATOM     26  C   UNL     1      46.722 129.658  15.461  1.00  0.00     0.004 A 
ATOM     27  C   UNL     1      46.199 131.975  14.994  1.00  0.00     0.004 A 
ATOM     28  C   UNL     1      46.718 130.743  14.571  1.00  0.00    -0.051 A 
ATOM     29  C   UNL     1      47.329 130.607  13.209  1.00  0.00     0.044 C 
ENDBRANCH  20  23
ENDBRANCH  13  15
ENDBRANCH   1  13
TORSDOF 9
ENDMDL
MODEL 2
REMARK VINA RESULT:      -6.7      1.764      2.529
REMARK SMILES Cc1ccc(-c2ccc(N/C(O)=C/[C@H]([NH3+])C(=O)[O-])c(C=O)c2)cc1
REMARK SMILES IDX 11 1 12 2 13 4 14 5 16 6 17 7 18 8 15 9 10 13 9 15 8 16
REMARK SMILES IDX 19 17 7 18 22 19 6 20 20 21 21 22 5 23 4 24 23 25 3 26 24 27
REMARK SMILES IDX 2 28 1 29
REMARK H PARENT 12 3 15 10 15 11 15 12 10 14
ROOT
ATOM      1  C   UNL     1      42.695 131.521  22.078  1.00  0.00     0.190 C 
ENDROOT
BRANCH   1   2
ATOM      2  O   UNL     1      42.073 131.944  23.255  1.00  0.00    -0.495 OA
ATOM      3  H   UNL     1      41.090 132.178  23.289  1.00  0.00     0.295 HD
ENDBRANCH   1   2
BRANCH   1   4
ATOM      4  C   UNL     1      43.208 130.284  21.994  1.00  0.00     0.109 C 
BRANCH   4   5
ATOM      5  C   UNL     1      43.150 129.259  23.105  1.00  0.00     0.257 C 
BRANCH   5   6
ATOM      6  C   UNL     1      44.245 129.486  24.116  1.00  0.00     0.104 C 
ATOM      7  O   UNL     1      44.895 128.520  24.598  1.00  0.00    -0.544 OA
ATOM      8  O   UNL     1      44.520 130.777  24.551  1.00  0.00    -0.544 OA
ENDBRANCH   5   6
BRANCH   5   9
ATOM      9  N   UNL     1      41.819 129.219  23.728  1.00  0.00    -0.347 N 
ATOM     10  H   UNL     1      41.520 128.224  23.852  1.00  0.00     0.345 HD
ATOM     11  H   UNL     1      41.126 129.693  23.105  1.00  0.00     0.345 HD
ATOM     12  H   UNL     1      41.817 129.693  24.660  1.00  0.00     0.345 HD
ENDBRANCH   5   9
ENDBRANCH   4   5
ENDBRANCH   1   4
BRANCH   1  13
ATOM     13  N   UNL     1      42.813 132.416  20.959  1.00  0.00    -0.326 N 
ATOM     14  H   UNL     1      42.356 133.355  21.008  1.00  0.00     0.170 HD
BRANCH  13  15
ATOM     15  C   UNL     1      43.607 132.116  19.799  1.00  0.00     0.051 A 
ATOM     16  C   UNL     1      42.982 132.030  18.545  1.00  0.00     0.027 A 
ATOM     17  C   UNL     1      44.988 131.822  19.909  1.00  0.00     0.038 A 
ATOM     18  C   UNL     1      43.706 131.663  17.411  1.00  0.00     0.011 A 
ATOM     19  C   UNL     1      45.701 131.440  18.760  1.00  0.00     0.022 A 
ATOM     20  C   UNL     1      45.072 131.360  17.506  1.00  0.00    -0.018 A 
BRANCH  17  21
ATOM     21  C   UNL     1      45.736 131.928  21.183  1.00  0.00     0.262 C 
ATOM     22  O   UNL     1      45.827 133.015  21.811  1.00  0.00    -0.298 OA
ENDBRANCH  17  21
BRANCH  20  23
ATOM     23  C   UNL     1      45.841 130.964  16.299  1.00  0.00    -0.018 A 
ATOM     24  C   UNL     1      46.408 129.681  16.201  1.00  0.00     0.009 A 
ATOM     25  C   UNL     1      46.021 131.870  15.236  1.00  0.00     0.009 A 
ATOM     26  C   UNL     1      47.133 129.309  15.066  1.00  0.00     0.004 A 
ATOM     27  C   UNL     1      46.746 131.496  14.101  1.00  0.00     0.004 A 
ATOM     28  C   UNL     1      47.293 130.209  14.001  1.00  0.00    -0.051 A 
ATOM     29  C   UNL     1      48.105 129.823  12.801  1.00  0.00     0.044 C 
ENDBRANCH  20  23
ENDBRANCH  13  15
ENDBRANCH   1  13
TORSDOF 9
ENDMDL
MODEL 3
REMARK VINA RESULT:      -6.4      1.870      2.678
REMARK SMILES Cc1ccc(-c2ccc(N/C(O)=C/[C@H]([NH3+])C(=O)[O-])c(C=O)c2)cc1
REMARK SMILES IDX 11 1 12 2 13 4 14 5 16 6 17 7 18 8 15 9 10 13 9 15 8 16
REMARK SMILES IDX 19 17 7 18 22 19 6 20 20 21 21 22 5 23 4 24 23 25 3 26 24 27
REMARK SMILES IDX 2 28 1 29
REMARK H PARENT 12 3 15 10 15 11 15 12 10 14
ROOT
ATOM      1  C   UNL     1      42.266 131.890  22.062  1.00  0.00     0.190 C 
ENDROOT
BRANCH   1   2
ATOM      2  O   UNL     1      41.495 132.358  23.129  1.00  0.00    -0.495 OA
ATOM      3  H   UNL     1      40.546 132.685  23.004  1.00  0.00     0.295 HD
ENDBRANCH   1   2
BRANCH   1   4
ATOM      4  C   UNL     1      43.184 130.933  22.263  1.00  0.00     0.109 C 
BRANCH   4   5
ATOM      5  C   UNL     1      42.887 129.576  22.862  1.00  0.00     0.257 C 
BRANCH   5   6
ATOM      6  C   UNL     1      44.156 128.846  23.219  1.00  0.00     0.104 C 
ATOM      7  O   UNL     1      44.940 129.297  24.096  1.00  0.00    -0.544 OA
ATOM      8  O   UNL     1      44.486 127.675  22.547  1.00  0.00    -0.544 OA
ENDBRANCH   5   6
BRANCH   5   9
ATOM      9  N   UNL     1      41.969 129.685  24.006  1.00  0.00    -0.347 N 
ATOM     10  H   UNL     1      42.292 130.451  24.642  1.00  0.00     0.345 HD
ATOM     11  H   UNL     1      41.973 128.790  24.545  1.00  0.00     0.345 HD
ATOM     12  H   UNL     1      40.992 129.891  23.696  1.00  0.00     0.345 HD
ENDBRANCH   5   9
ENDBRANCH   4   5
ENDBRANCH   1   4
BRANCH   1  13
ATOM     13  N   UNL     1      42.099 132.448  20.748  1.00  0.00    -0.326 N 
ATOM     14  H   UNL     1      41.345 133.155  20.588  1.00  0.00     0.170 HD
BRANCH  13  15
ATOM     15  C   UNL     1      42.976 132.145  19.652  1.00  0.00     0.051 A 
ATOM     16  C   UNL     1      42.426 131.834  18.398  1.00  0.00     0.027 A 
ATOM     17  C   UNL     1      44.379 132.069  19.833  1.00  0.00     0.038 A 
ATOM     18  C   UNL     1      43.243 131.456  17.334  1.00  0.00     0.011 A 
ATOM     19  C   UNL     1      45.189 131.673  18.754  1.00  0.00     0.022 A 
ATOM     20  C   UNL     1      44.633 131.368  17.501  1.00  0.00    -0.018 A 
BRANCH  17  21
ATOM     21  C   UNL     1      45.048 132.420  21.107  1.00  0.00     0.262 C 
ATOM     22  O   UNL     1      46.300 132.372  21.235  1.00  0.00    -0.298 OA
ENDBRANCH  17  21
BRANCH  20  23
ATOM     23  C   UNL     1      45.503 130.961  16.368  1.00  0.00    -0.018 A 
ATOM     24  C   UNL     1      45.933 131.906  15.420  1.00  0.00     0.009 A 
ATOM     25  C   UNL     1      45.907 129.620  16.222  1.00  0.00     0.009 A 
ATOM     26  C   UNL     1      46.751 131.523  14.354  1.00  0.00     0.004 A 
ATOM     27  C   UNL     1      46.726 129.238  15.155  1.00  0.00     0.004 A 
ATOM     28  C   UNL     1      47.166 130.189  14.223  1.00  0.00    -0.051 A 
ATOM     29  C   UNL     1      48.010 129.771  13.057  1.00  0.00     0.044 C 
ENDBRANCH  20  23
ENDBRANCH  13  15
ENDBRANCH   1  13
TORSDOF 9
ENDMDL
MODEL 4
REMARK VINA RESULT:      -5.7      1.674      2.614
REMARK SMILES Cc1ccc(-c2ccc(N/C(O)=C/[C@H]([NH3+])C(=O)[O-])c(C=O)c2)cc1
REMARK SMILES IDX 11 1 12 2 13 4 14 5 16 6 17 7 18 8 15 9 10 13 9 15 8 16
REMARK SMILES IDX 19 17 7 18 22 19 6 20 20 21 21 22 5 23 4 24 23 25 3 26 24 27
REMARK SMILES IDX 2 28 1 29
REMARK H PARENT 12 3 15 10 15 11 15 12 10 14
ROOT
ATOM      1  C   UNL     1      42.722 131.479  21.630  1.00  0.00     0.190 C 
ENDROOT
BRANCH   1   2
ATOM      2  O   UNL     1      42.841 132.400  22.672  1.00  0.00    -0.495 OA
ATOM      3  H   UNL     1      42.054 132.664  23.250  1.00  0.00     0.295 HD
ENDBRANCH   1   2
BRANCH   1   4
ATOM      4  C   UNL     1      42.932 130.173  21.857  1.00  0.00     0.109 C 
BRANCH   4   5
ATOM      5  C   UNL     1      43.137 129.568  23.228  1.00  0.00     0.257 C 
BRANCH   5   6
ATOM      6  C   UNL     1      42.701 128.125  23.260  1.00  0.00     0.104 C 
ATOM      7  O   UNL     1      41.575 127.797  23.720  1.00  0.00    -0.544 OA
ATOM      8  O   UNL     1      43.566 127.137  22.807  1.00  0.00    -0.544 OA
ENDBRANCH   5   6
BRANCH   5   9
ATOM      9  N   UNL     1      44.524 129.738  23.687  1.00  0.00    -0.347 N 
ATOM     10  H   UNL     1      45.173 129.671  22.869  1.00  0.00     0.345 HD
ATOM     11  H   UNL     1      44.767 128.976  24.360  1.00  0.00     0.345 HD
ATOM     12  H   UNL     1      44.662 130.662  24.156  1.00  0.00     0.345 HD
ENDBRANCH   5   9
ENDBRANCH   4   5
ENDBRANCH   1   4
BRANCH   1  13
ATOM     13  N   UNL     1      42.399 131.924  20.301  1.00  0.00    -0.326 N 
ATOM     14  H   UNL     1      41.513 132.457  20.146  1.00  0.00     0.170 HD
BRANCH  13  15
ATOM     15  C   UNL     1      43.281 131.747  19.181  1.00  0.00     0.051 A 
ATOM     16  C   UNL     1      42.747 131.745  17.883  1.00  0.00     0.027 A 
ATOM     17  C   UNL     1      44.661 131.488  19.366  1.00  0.00     0.038 A 
ATOM     18  C   UNL     1      43.560 131.495  16.778  1.00  0.00     0.011 A 
ATOM     19  C   UNL     1      45.465 131.224  18.243  1.00  0.00     0.022 A 
ATOM     20  C   UNL     1      44.927 131.229  16.945  1.00  0.00    -0.018 A 
BRANCH  17  21
ATOM     21  C   UNL     1      45.316 131.512  20.694  1.00  0.00     0.262 C 
ATOM     22  O   UNL     1      46.034 130.560  21.098  1.00  0.00    -0.298 OA
ENDBRANCH  17  21
BRANCH  20  23
ATOM     23  C   UNL     1      45.791 130.958  15.769  1.00  0.00    -0.018 A 
ATOM     24  C   UNL     1      46.420 132.014  15.086  1.00  0.00     0.009 A 
ATOM     25  C   UNL     1      45.990 129.641  15.315  1.00  0.00     0.009 A 
ATOM     26  C   UNL     1      47.233 131.759  13.978  1.00  0.00     0.004 A 
ATOM     27  C   UNL     1      46.804 129.388  14.207  1.00  0.00     0.004 A 
ATOM     28  C   UNL     1      47.443 130.443  13.541  1.00  0.00    -0.051 A 
ATOM     29  C   UNL     1      48.283 130.173  12.328  1.00  0.00     0.044 C 
ENDBRANCH  20  23
ENDBRANCH  13  15
ENDBRANCH   1  13
TORSDOF 9
ENDMDL
MODEL 5
REMARK VINA RESULT:      -5.6      1.850      2.281
REMARK SMILES Cc1ccc(-c2ccc(N/C(O)=C/[C@H]([NH3+])C(=O)[O-])c(C=O)c2)cc1
REMARK SMILES IDX 11 1 12 2 13 4 14 5 16 6 17 7 18 8 15 9 10 13 9 15 8 16
REMARK SMILES IDX 19 17 7 18 22 19 6 20 20 21 21 22 5 23 4 24 23 25 3 26 24 27
REMARK SMILES IDX 2 28 1 29
REMARK H PARENT 12 3 15 10 15 11 15 12 10 14
ROOT
ATOM      1  C   UNL     1      42.766 131.697  23.156  1.00  0.00     0.190 C 
ENDROOT
BRANCH   1   2
ATOM      2  O   UNL     1      43.618 132.435  23.980  1.00  0.00    -0.495 OA
ATOM      3  H   UNL     1      43.397 133.377  24.276  1.00  0.00     0.295 HD
ENDBRANCH   1   2
BRANCH   1   4
ATOM      4  C   UNL     1      42.388 130.460  23.513  1.00  0.00     0.109 C 
BRANCH   4   5
ATOM      5  C   UNL     1      43.045 129.191  23.018  1.00  0.00     0.257 C 
BRANCH   5   6
ATOM      6  C   UNL     1      44.379 128.971  23.684  1.00  0.00     0.104 C 
ATOM      7  O   UNL     1      44.766 129.714  24.625  1.00  0.00    -0.544 OA
ATOM      8  O   UNL     1      45.213 127.955  23.231  1.00  0.00    -0.544 OA
ENDBRANCH   5   6
BRANCH   5   9
ATOM      9  N   UNL     1      42.153 128.032  23.167  1.00  0.00    -0.347 N 
ATOM     10  H   UNL     1      42.718 127.152  23.160  1.00  0.00     0.345 HD
ATOM     11  H   UNL     1      41.486 127.997  22.362  1.00  0.00     0.345 HD
ATOM     12  H   UNL     1      41.607 128.079  24.057  1.00  0.00     0.345 HD
ENDBRANCH   5   9
ENDBRANCH   4   5
ENDBRANCH   1   4
BRANCH   1  13
ATOM     13  N   UNL     1      42.310 132.245  21.907  1.00  0.00    -0.326 N 
ATOM     14  H   UNL     1      41.466 132.862  21.902  1.00  0.00     0.170 HD
BRANCH  13  15
ATOM     15  C   UNL     1      43.011 132.057  20.667  1.00  0.00     0.051 A 
ATOM     16  C   UNL     1      42.284 131.739  19.510  1.00  0.00     0.027 A 
ATOM     17  C   UNL     1      44.426 132.099  20.610  1.00  0.00     0.038 A 
ATOM     18  C   UNL     1      42.937 131.470  18.308  1.00  0.00     0.011 A 
ATOM     19  C   UNL     1      45.071 131.812  19.394  1.00  0.00     0.022 A 
ATOM     20  C   UNL     1      44.337 131.500  18.237  1.00  0.00    -0.018 A 
BRANCH  17  21
ATOM     21  C   UNL     1      45.271 132.467  21.769  1.00  0.00     0.262 C 
ATOM     22  O   UNL     1      46.525 132.361  21.738  1.00  0.00    -0.298 OA
ENDBRANCH  17  21
BRANCH  20  23
ATOM     23  C   UNL     1      45.033 131.209  16.958  1.00  0.00    -0.018 A 
ATOM     24  C   UNL     1      45.048 129.905  16.432  1.00  0.00     0.009 A 
ATOM     25  C   UNL     1      45.694 132.233  16.254  1.00  0.00     0.009 A 
ATOM     26  C   UNL     1      45.704 129.631  15.229  1.00  0.00     0.004 A 
ATOM     27  C   UNL     1      46.349 131.957  15.050  1.00  0.00     0.004 A 
ATOM     28  C   UNL     1      46.345 130.659  14.522  1.00  0.00    -0.051 A 
ATOM     29  C   UNL     1      47.082 130.357  13.251  1.00  0.00     0.044 C 
ENDBRANCH  20  23
ENDBRANCH  13  15
ENDBRANCH   1  13
TORSDOF 9
ENDMDL
MODEL 6
REMARK VINA RESULT:      -5.3      1.588      2.106
REMARK SMILES Cc1ccc(-c2ccc(N/C(O)=C/[C@H]([NH3+])C(=O)[O-])c(C=O)c2)cc1
REMARK SMILES IDX 11 1 12 2 13 4 14 5 16 6 17 7 18 8 15 9 10 13 9 15 8 16
REMARK SMILES IDX 19 17 7 18 22 19 6 20 20 21 21 22 5 23 4 24 23 25 3 26 24 27
REMARK SMILES IDX 2 28 1 29
REMARK H PARENT 12 3 15 10 15 11 15 12 10 14
ROOT
ATOM      1  C   UNL     1      44.639 129.208  23.233  1.00  0.00     0.190 C 
ENDROOT
BRANCH   1   2
ATOM      2  O   UNL     1      45.006 129.381  24.569  1.00  0.00    -0.495 OA
ATOM      3  H   UNL     1      44.321 129.504  25.303  1.00  0.00     0.295 HD
ENDBRANCH   1   2
BRANCH   1   4
ATOM      4  C   UNL     1      44.615 127.980  22.694  1.00  0.00     0.109 C 
BRANCH   4   5
ATOM      5  C   UNL     1      44.748 126.698  23.486  1.00  0.00     0.257 C 
BRANCH   5   6
ATOM      6  C   UNL     1      43.415 126.254  24.033  1.00  0.00     0.104 C 
ATOM      7  O   UNL     1      42.630 127.075  24.578  1.00  0.00    -0.544 OA
ATOM      8  O   UNL     1      43.060 124.912  23.968  1.00  0.00    -0.544 OA
ENDBRANCH   5   6
BRANCH   5   9
ATOM      9  N   UNL     1      45.403 125.645  22.696  1.00  0.00    -0.347 N 
ATOM     10  H   UNL     1      44.863 125.483  21.814  1.00  0.00     0.345 HD
ATOM     11  H   UNL     1      45.412 124.752  23.241  1.00  0.00     0.345 HD
ATOM     12  H   UNL     1      46.385 125.904  22.452  1.00  0.00     0.345 HD
ENDBRANCH   5   9
ENDBRANCH   4   5
ENDBRANCH   1   4
BRANCH   1  13
ATOM     13  N   UNL     1      44.311 130.347  22.417  1.00  0.00    -0.326 N 
ATOM     14  H   UNL     1      43.845 131.172  22.861  1.00  0.00     0.170 HD
BRANCH  13  15
ATOM     15  C   UNL     1      44.668 130.444  21.029  1.00  0.00     0.051 A 
ATOM     16  C   UNL     1      45.534 129.489  20.476  1.00  0.00     0.027 A 
ATOM     17  C   UNL     1      44.234 131.533  20.234  1.00  0.00     0.038 A 
ATOM     18  C   UNL     1      45.967 129.598  19.155  1.00  0.00     0.011 A 
ATOM     19  C   UNL     1      44.689 131.637  18.908  1.00  0.00     0.022 A 
ATOM     20  C   UNL     1      45.552 130.674  18.357  1.00  0.00    -0.018 A 
BRANCH  17  21
ATOM     21  C   UNL     1      43.288 132.563  20.722  1.00  0.00     0.262 C 
ATOM     22  O   UNL     1      42.233 132.846  20.095  1.00  0.00    -0.298 OA
ENDBRANCH  17  21
BRANCH  20  23
ATOM     23  C   UNL     1      46.016 130.793  16.952  1.00  0.00    -0.018 A 
ATOM     24  C   UNL     1      45.487 131.782  16.105  1.00  0.00     0.009 A 
ATOM     25  C   UNL     1      46.990 129.912  16.443  1.00  0.00     0.009 A 
ATOM     26  C   UNL     1      45.923 131.893  14.781  1.00  0.00     0.004 A 
ATOM     27  C   UNL     1      47.426 130.025  15.119  1.00  0.00     0.004 A 
ATOM     28  C   UNL     1      46.907 131.025  14.285  1.00  0.00    -0.051 A 
ATOM     29  C   UNL     1      47.346 131.119  12.854  1.00  0.00     0.044 C 
ENDBRANCH  20  23
ENDBRANCH  13  15
ENDBRANCH   1  13
TORSDOF 9
ENDMDL
MODEL 7
REMARK VINA RESULT:      -4.8      1.671      2.174
REMARK SMILES Cc1ccc(-c2ccc(N/C(O)=C/[C@H]([NH3+])C(=O)[O-])c(C=O)c2)cc1
REMARK SMILES IDX 11 1 12 2 13 4 14 5 16 6 17 7 18 8 15 9 10 13 9 15 8 16
REMARK SMILES IDX 19 17 7 18 22 19 6 20 20 21 21 22 5 23 4 24 23 25 3 26 24 27
REMARK SMILES IDX 2 28 1 29
REMARK H PARENT 12 3 15 10 15 11 15 12 10 14
ROOT
ATOM      1  C   UNL     1      43.940 130.626  23.013  1.00  0.00     0.190 C 
ENDROOT
BRANCH   1   2
ATOM      2  O   UNL     1      44.412 131.227  24.182  1.00  0.00    -0.495 OA
ATOM      3  H   UNL     1      45.366 131.552  24.272  1.00  0.00     0.295 HD
ENDBRANCH   1   2
BRANCH   1   4
ATOM      4  C   UNL     1      43.973 129.291  22.880  1.00  0.00     0.109 C 
BRANCH   4   5
ATOM      5  C   UNL     1      43.899 128.317  24.035  1.00  0.00     0.257 C 
BRANCH   5   6
ATOM      6  C   UNL     1      42.494 127.806  24.229  1.00  0.00     0.104 C 
ATOM      7  O   UNL     1      42.273 126.588  24.467  1.00  0.00    -0.544 OA
ATOM      8  O   UNL     1      41.422 128.682  24.109  1.00  0.00    -0.544 OA
ENDBRANCH   5   6
BRANCH   5   9
ATOM      9  N   UNL     1      44.870 127.224  23.876  1.00  0.00    -0.347 N 
ATOM     10  H   UNL     1      44.386 126.305  24.006  1.00  0.00     0.345 HD
ATOM     11  H   UNL     1      45.614 127.307  24.607  1.00  0.00     0.345 HD
ATOM     12  H   UNL     1      45.318 127.243  22.932  1.00  0.00     0.345 HD
ENDBRANCH   5   9
ENDBRANCH   4   5
ENDBRANCH   1   4
BRANCH   1  13
ATOM     13  N   UNL     1      43.439 131.434  21.934  1.00  0.00    -0.326 N 
ATOM     14  H   UNL     1      42.653 132.099  22.120  1.00  0.00     0.170 HD
BRANCH  13  15
ATOM     15  C   UNL     1      44.024 131.437  20.622  1.00  0.00     0.051 A 
ATOM     16  C   UNL     1      43.286 130.930  19.541  1.00  0.00     0.027 A 
ATOM     17  C   UNL     1      45.360 131.860  20.415  1.00  0.00     0.038 A 
ATOM     18  C   UNL     1      43.851 130.843  18.270  1.00  0.00     0.011 A 
ATOM     19  C   UNL     1      45.920 131.754  19.130  1.00  0.00     0.022 A 
ATOM     20  C   UNL     1      45.175 131.250  18.050  1.00  0.00    -0.018 A 
BRANCH  17  21
ATOM     21  C   UNL     1      46.197 132.447  21.487  1.00  0.00     0.262 C 
ATOM     22  O   UNL     1      47.329 132.943  21.249  1.00  0.00    -0.298 OA
ENDBRANCH  17  21
BRANCH  20  23
ATOM     23  C   UNL     1      45.779 131.152  16.697  1.00  0.00    -0.018 A 
ATOM     24  C   UNL     1      46.247 129.919  16.210  1.00  0.00     0.009 A 
ATOM     25  C   UNL     1      45.898 132.295  15.883  1.00  0.00     0.009 A 
ATOM     26  C   UNL     1      46.816 129.828  14.937  1.00  0.00     0.004 A 
ATOM     27  C   UNL     1      46.467 132.201  14.609  1.00  0.00     0.004 A 
ATOM     28  C   UNL     1      46.915 130.966  14.121  1.00  0.00    -0.051 A 
ATOM     29  C   UNL     1      47.561 130.875  12.772  1.00  0.00     0.044 C 
ENDBRANCH  20  23
ENDBRANCH  13  15
ENDBRANCH   1  13
TORSDOF 9
ENDMDL
MODEL 8
REMARK VINA RESULT:      -4.8      1.640      2.943
REMARK SMILES Cc1ccc(-c2ccc(N/C(O)=C/[C@H]([NH3+])C(=O)[O-])c(C=O)c2)cc1
REMARK SMILES IDX 11 1 12 2 13 4 14 5 16 6 17 7 18 8 15 9 10 13 9 15 8 16
REMARK SMILES IDX 19 17 7 18 22 19 6 20 20 21 21 22 5 23 4 24 23 25 3 26 24 27
REMARK SMILES IDX 2 28 1 29
REMARK H PARENT 12 3 15 10 15 11 15 12 10 14
ROOT
ATOM      1  C   UNL     1      44.188 131.511  23.101  1.00  0.00     0.190 C 
ENDROOT
BRANCH   1   2
ATOM      2  O   UNL     1      44.685 130.322  23.639  1.00  0.00    -0.495 OA
ATOM      3  H   UNL     1      45.561 130.285  24.144  1.00  0.00     0.295 HD
ENDBRANCH   1   2
BRANCH   1   4
ATOM      4  C   UNL     1      44.457 132.684  23.695  1.00  0.00     0.109 C 
BRANCH   4   5
ATOM      5  C   UNL     1      45.849 133.244  23.885  1.00  0.00     0.257 C 
BRANCH   5   6
ATOM      6  C   UNL     1      46.577 133.357  22.570  1.00  0.00     0.104 C 
ATOM      7  O   UNL     1      46.085 132.882  21.512  1.00  0.00    -0.544 OA
ATOM      8  O   UNL     1      47.827 133.963  22.528  1.00  0.00    -0.544 OA
ENDBRANCH   5   6
BRANCH   5   9
ATOM      9  N   UNL     1      45.818 134.521  24.614  1.00  0.00    -0.347 N 
ATOM     10  H   UNL     1      45.064 134.491  25.339  1.00  0.00     0.345 HD
ATOM     11  H   UNL     1      45.601 135.299  23.949  1.00  0.00     0.345 HD
ATOM     12  H   UNL     1      46.732 134.719  25.081  1.00  0.00     0.345 HD
ENDBRANCH   5   9
ENDBRANCH   4   5
ENDBRANCH   1   4
BRANCH   1  13
ATOM     13  N   UNL     1      43.363 131.485  21.924  1.00  0.00    -0.326 N 
ATOM     14  H   UNL     1      42.338 131.667  22.018  1.00  0.00     0.170 HD
BRANCH  13  15
ATOM     15  C   UNL     1      43.894 131.306  20.601  1.00  0.00     0.051 A 
ATOM     16  C   UNL     1      45.112 130.628  20.437  1.00  0.00     0.027 A 
ATOM     17  C   UNL     1      43.256 131.873  19.470  1.00  0.00     0.038 A 
ATOM     18  C   UNL     1      45.697 130.506  19.177  1.00  0.00     0.011 A 
ATOM     19  C   UNL     1      43.865 131.754  18.209  1.00  0.00     0.022 A 
ATOM     20  C   UNL     1      45.082 131.070  18.049  1.00  0.00    -0.018 A 
BRANCH  17  21
ATOM     21  C   UNL     1      41.950 132.567  19.544  1.00  0.00     0.262 C 
ATOM     22  O   UNL     1      41.562 133.144  20.594  1.00  0.00    -0.298 OA
ENDBRANCH  17  21
BRANCH  20  23
ATOM     23  C   UNL     1      45.707 130.944  16.708  1.00  0.00    -0.018 A 
ATOM     24  C   UNL     1      46.105 129.687  16.220  1.00  0.00     0.009 A 
ATOM     25  C   UNL     1      45.917 132.082  15.907  1.00  0.00     0.009 A 
ATOM     26  C   UNL     1      46.694 129.569  14.958  1.00  0.00     0.004 A 
ATOM     27  C   UNL     1      46.506 131.962  14.645  1.00  0.00     0.004 A 
ATOM     28  C   UNL     1      46.883 130.703  14.156  1.00  0.00    -0.051 A 
ATOM     29  C   UNL     1      47.552 130.581  12.819  1.00  0.00     0.044 C 
ENDBRANCH  20  23
ENDBRANCH  13  15
ENDBRANCH   1  13
TORSDOF 9
ENDMDL


