REMARK SMILES Cc1ccc(Nc2cc(F)c(C)cc2N=C=S)c(F)n1
REMARK SMILES IDX 7 1 8 2 9 3 10 4 11 5 12 6 13 7 14 8 6 9 5 11 3 12 2 13 4 14
REMARK SMILES IDX 20 15 18 16 1 17 19 18 15 19 16 20 17 21
REMARK H PARENT 6 10
ROOT
ATOM      1  C   UNL     1      -0.811   0.098   1.719  1.00  0.00     0.068 A 
ATOM      2  C   UNL     1      -1.736  -0.815   1.182  1.00  0.00     0.067 A 
ATOM      3  C   UNL     1      -2.303  -1.808   1.981  1.00  0.00     0.128 A 
ATOM      4  F   UNL     1      -3.198  -2.670   1.434  1.00  0.00    -0.207 F 
ATOM      5  C   UNL     1      -1.956  -1.907   3.336  1.00  0.00    -0.013 A 
ATOM      6  C   UNL     1      -2.589  -2.957   4.204  1.00  0.00     0.047 C 
ATOM      7  C   UNL     1      -1.060  -0.980   3.888  1.00  0.00     0.037 A 
ATOM      8  C   UNL     1      -0.481   0.027   3.087  1.00  0.00     0.098 A 
ENDROOT
BRANCH   1   9
ATOM      9  N   UNL     1      -0.250   1.137   0.896  1.00  0.00    -0.350 N 
ATOM     10  H   UNL     1      -0.083   2.074   1.329  1.00  0.00     0.167 HD
BRANCH   9  11
ATOM     11  C   UNL     1       0.006   0.999  -0.512  1.00  0.00     0.095 A 
ATOM     12  C   UNL     1       0.050   1.974  -2.731  1.00  0.00     0.026 A 
ATOM     13  C   UNL     1       0.538   0.764  -3.238  1.00  0.00     0.041 A 
ATOM     14  C   UNL     1      -0.210   2.089  -1.364  1.00  0.00     0.033 A 
ATOM     15  N   UNL     1       0.778  -0.273  -2.391  1.00  0.00    -0.223 NA
ATOM     16  C   UNL     1       0.530  -0.188  -1.056  1.00  0.00     0.236 A 
ATOM     17  C   UNL     1       0.846   0.623  -4.694  1.00  0.00     0.067 C 
ATOM     18  F   UNL     1       0.834  -1.244  -0.261  1.00  0.00    -0.183 F 
ENDBRANCH   9  11
ENDBRANCH   1   9
BRANCH   8  19
ATOM     19  N   UNL     1       0.453   0.977   3.630  1.00  0.00    -0.193 NA
BRANCH  19  20
ATOM     20  C   UNL     1       0.823   0.999   4.849  1.00  0.00     0.064 C 
ATOM     21  S   UNL     1       1.290   1.028   6.390  1.00  0.00    -0.006 S 
ENDBRANCH  19  20
ENDBRANCH   8  19
TORSDOF 4


