REMARK SMILES Oc1c(-n2nc3ccccc3n2)cc2cnoc2c1Nc1ccc2cc[nH]c2c1
REMARK SMILES IDX 2 1 3 2 13 3 14 4 15 5 16 6 17 7 18 8 19 9 1 10 4 12 5 13
REMARK SMILES IDX 12 14 6 15 11 16 7 17 10 18 8 19 9 20 20 21 21 23 22 24
REMARK SMILES IDX 29 25 23 26 28 27 24 28 27 29 25 30 26 31
REMARK H PARENT 1 11 20 22 27 32
ROOT
ATOM      1  C   UNL     1      -0.263   0.160  -1.284  1.00  0.00     0.170 A 
ATOM      2  C   UNL     1      -1.464   0.908  -1.063  1.00  0.00     0.130 A 
ATOM      3  C   UNL     1      -1.686   2.105  -1.782  1.00  0.00     0.048 A 
ATOM      4  C   UNL     1      -0.697   2.534  -2.656  1.00  0.00     0.046 A 
ATOM      5  C   UNL     1      -0.598   3.632  -3.476  1.00  0.00     0.167 A 
ATOM      6  N   UNL     1       0.599   3.573  -4.106  1.00  0.00    -0.087 NA
ATOM      7  O   UNL     1       1.212   2.494  -3.695  1.00  0.00    -0.354 OA
ATOM      8  C   UNL     1       0.467   1.852  -2.830  1.00  0.00     0.194 A 
ATOM      9  C   UNL     1       0.742   0.670  -2.147  1.00  0.00     0.130 A 
ENDROOT
BRANCH   1  10
ATOM     10  O   UNL     1      -0.076  -1.101  -0.713  1.00  0.00    -0.504 OA
ATOM     11  H   UNL     1      -0.808  -1.606  -0.232  1.00  0.00     0.293 HD
ENDBRANCH   1  10
BRANCH   2  12
ATOM     12  N   UNL     1      -2.446   0.486  -0.104  1.00  0.00    -0.146 N 
ATOM     13  N   UNL     1      -3.757   0.650  -0.281  1.00  0.00    -0.148 NA
ATOM     14  N   UNL     1      -2.143  -0.021   1.091  1.00  0.00    -0.148 NA
ATOM     15  C   UNL     1      -4.314   0.200   0.853  1.00  0.00     0.113 A 
ATOM     16  C   UNL     1      -3.326  -0.210   1.692  1.00  0.00     0.113 A 
ATOM     17  C   UNL     1      -5.659   0.140   1.204  1.00  0.00     0.032 A 
ATOM     18  C   UNL     1      -3.592  -0.721   2.959  1.00  0.00     0.032 A 
ATOM     19  C   UNL     1      -5.972  -0.374   2.478  1.00  0.00     0.002 A 
ATOM     20  C   UNL     1      -4.943  -0.802   3.352  1.00  0.00     0.002 A 
ENDBRANCH   2  12
BRANCH   9  21
ATOM     21  N   UNL     1       1.972  -0.032  -2.390  1.00  0.00    -0.349 N 
ATOM     22  H   UNL     1       2.332  -0.058  -3.371  1.00  0.00     0.167 HD
BRANCH  21  23
ATOM     23  C   UNL     1       2.782  -0.618  -1.357  1.00  0.00     0.041 A 
ATOM     24  C   UNL     1       3.696  -1.648  -1.694  1.00  0.00     0.027 A 
ATOM     25  C   UNL     1       2.718  -0.151  -0.021  1.00  0.00     0.052 A 
ATOM     26  C   UNL     1       4.517  -2.233  -0.713  1.00  0.00     0.012 A 
ATOM     27  C   UNL     1       3.544  -0.753   0.925  1.00  0.00     0.047 A 
ATOM     28  C   UNL     1       4.410  -1.759   0.591  1.00  0.00    -0.001 A 
ATOM     29  N   UNL     1       3.631  -0.465   2.234  1.00  0.00    -0.361 N 
ATOM     30  C   UNL     1       5.077  -2.128   1.738  1.00  0.00     0.028 A 
ATOM     31  C   UNL     1       4.566  -1.304   2.736  1.00  0.00     0.083 A 
ATOM     32  H   UNL     1       3.090   0.257   2.760  1.00  0.00     0.166 HD
ENDBRANCH  21  23
ENDBRANCH   9  21
TORSDOF 4


