REMARK SMILES Fc1ccc2nc(-c3ccc4[nH]ccc4c3)[nH+]cc2c1
REMARK SMILES IDX 1 1 2 2 3 3 4 4 5 5 6 6 7 7 17 8 18 9 19 10 20 11 8 13 9 14
REMARK SMILES IDX 16 15 10 16 15 17 11 18 14 19 12 20 13 21
REMARK H PARENT 17 12 12 22
ROOT
ATOM      1  F   UNL     1       3.585  -3.022   3.689  1.00  0.00    -0.207 F 
ATOM      2  C   UNL     1       2.945  -2.125   2.899  1.00  0.00     0.124 A 
ATOM      3  C   UNL     1       3.615  -0.977   2.461  1.00  0.00     0.044 A 
ATOM      4  C   UNL     1       2.959  -0.048   1.645  1.00  0.00     0.060 A 
ATOM      5  C   UNL     1       1.630  -0.267   1.266  1.00  0.00     0.186 A 
ATOM      6  N   UNL     1       0.985   0.627   0.476  1.00  0.00    -0.041 NA
ATOM      7  C   UNL     1      -0.309   0.446   0.089  1.00  0.00     0.328 A 
ATOM      8  N   UNL     1      -0.975  -0.675   0.512  1.00  0.00    -0.243 N 
ATOM      9  C   UNL     1      -0.369  -1.599   1.306  1.00  0.00     0.210 A 
ATOM     10  C   UNL     1       0.956  -1.419   1.706  1.00  0.00     0.068 A 
ATOM     11  C   UNL     1       1.615  -2.349   2.524  1.00  0.00     0.055 A 
ATOM     12  H   UNL     1      -1.963  -0.864   0.246  1.00  0.00     0.312 HD
ENDROOT
BRANCH   7  13
ATOM     13  C   UNL     1      -0.951   1.479  -0.785  1.00  0.00     0.069 A 
ATOM     14  C   UNL     1      -0.194   2.619  -1.185  1.00  0.00     0.019 A 
ATOM     15  C   UNL     1      -2.296   1.367  -1.234  1.00  0.00     0.027 A 
ATOM     16  C   UNL     1      -0.751   3.616  -2.005  1.00  0.00     0.027 A 
ATOM     17  C   UNL     1      -2.811   2.375  -2.045  1.00  0.00     0.000 A 
ATOM     18  C   UNL     1      -2.068   3.460  -2.417  1.00  0.00     0.045 A 
ATOM     19  C   UNL     1      -4.059   2.518  -2.611  1.00  0.00     0.028 A 
ATOM     20  N   UNL     1      -2.785   4.288  -3.194  1.00  0.00    -0.361 N 
ATOM     21  C   UNL     1      -4.004   3.716  -3.317  1.00  0.00     0.083 A 
ATOM     22  H   UNL     1      -2.469   5.188  -3.619  1.00  0.00     0.166 HD
ENDBRANCH   7  13
TORSDOF 1


