MODEL 1
REMARK VINA RESULT:      -0.2      0.000      0.000
REMARK SMILES CC(=O)c1ccc(-c2cc(N)c(OC(=O)/C(C=O)=C(\C)[NH3+])c([NH2+]c3ccc(C)c(F)c3)c2)cn1
REMARK SMILES IDX 14 1 15 2 16 3 17 4 18 5 19 6 20 7 21 8 13 12 12 13 10 14
REMARK SMILES IDX 22 15 9 16 32 17 8 18 11 19 23 22 24 25 25 26 31 27 26 28
REMARK SMILES IDX 29 29 27 30 30 31 28 32 7 33 33 34 6 35 34 36 5 37 4 38 2 39
REMARK SMILES IDX 3 40 1 41
REMARK H PARENT 21 9 21 10 21 11 11 20 11 21 23 23 23 24
ROOT
ATOM      1  C   UNL     1      43.318 129.171  23.389  1.00  0.00     0.352 C 
ATOM      2  O   UNL     1      42.591 129.770  24.228  1.00  0.00    -0.245 OA
ENDROOT
BRANCH   1   3
ATOM      3  C   UNL     1      43.855 127.821  23.716  1.00  0.00     0.155 C 
BRANCH   3   4
ATOM      4  C   UNL     1      45.033 127.757  24.622  1.00  0.00     0.273 C 
ATOM      5  O   UNL     1      45.993 128.563  24.491  1.00  0.00    -0.297 OA
ENDBRANCH   3   4
BRANCH   3   6
ATOM      6  C   UNL     1      43.297 126.679  23.222  1.00  0.00     0.119 C 
ATOM      7  C   UNL     1      41.867 126.649  22.735  1.00  0.00     0.112 C 
BRANCH   6   8
ATOM      8  N   UNL     1      44.052 125.450  23.184  1.00  0.00    -0.328 N 
ATOM      9  H   UNL     1      44.586 125.391  22.287  1.00  0.00     0.350 HD
ATOM     10  H   UNL     1      44.739 125.398  23.969  1.00  0.00     0.350 HD
ATOM     11  H   UNL     1      43.405 124.634  23.280  1.00  0.00     0.350 HD
ENDBRANCH   6   8
ENDBRANCH   3   6
ENDBRANCH   1   3
BRANCH   1  12
ATOM     12  O   UNL     1      43.654 129.801  22.185  1.00  0.00    -0.414 OA
BRANCH  12  13
ATOM     13  C   UNL     1      44.609 130.821  22.115  1.00  0.00     0.214 A 
ATOM     14  C   UNL     1      44.573 131.856  23.067  1.00  0.00     0.082 A 
ATOM     15  C   UNL     1      45.601 130.823  21.107  1.00  0.00     0.180 A 
ATOM     16  C   UNL     1      45.504 132.902  22.998  1.00  0.00     0.038 A 
ATOM     17  C   UNL     1      46.517 131.888  21.049  1.00  0.00     0.081 A 
ATOM     18  C   UNL     1      46.479 132.930  21.989  1.00  0.00    -0.009 A 
BRANCH  14  19
ATOM     19  N   UNL     1      43.587 131.858  24.106  1.00  0.00    -0.395 N 
ATOM     20  H   UNL     1      43.603 131.150  24.874  1.00  0.00     0.156 HD
ATOM     21  H   UNL     1      42.828 132.574  24.119  1.00  0.00     0.156 HD
ENDBRANCH  14  19
BRANCH  15  22
ATOM     22  N   UNL     1      45.721 129.736  20.162  1.00  0.00    -0.278 N 
ATOM     23  H   UNL     1      45.133 128.934  20.489  1.00  0.00     0.358 HD
ATOM     24  H   UNL     1      46.701 129.378  20.101  1.00  0.00     0.358 HD
BRANCH  22  25
ATOM     25  C   UNL     1      45.302 130.176  18.854  1.00  0.00     0.137 A 
ATOM     26  C   UNL     1      46.035 129.811  17.713  1.00  0.00     0.068 A 
ATOM     27  C   UNL     1      44.173 131.003  18.705  1.00  0.00     0.107 A 
ATOM     28  C   UNL     1      45.644 130.254  16.447  1.00  0.00     0.012 A 
ATOM     29  C   UNL     1      43.782 131.447  17.438  1.00  0.00     0.132 A 
ATOM     30  C   UNL     1      44.520 131.082  16.301  1.00  0.00    -0.015 A 
ATOM     31  F   UNL     1      42.683 132.235  17.322  1.00  0.00    -0.206 F 
ATOM     32  C   UNL     1      44.086 131.541  14.939  1.00  0.00     0.047 C 
ENDBRANCH  22  25
ENDBRANCH  15  22
BRANCH  18  33
ATOM     33  C   UNL     1      47.466 134.038  21.924  1.00  0.00     0.000 A 
ATOM     34  C   UNL     1      48.683 133.960  22.621  1.00  0.00     0.120 A 
ATOM     35  C   UNL     1      47.206 135.190  21.166  1.00  0.00     0.013 A 
ATOM     36  N   UNL     1      49.577 134.982  22.555  1.00  0.00    -0.253 NA
ATOM     37  C   UNL     1      48.141 136.225  21.113  1.00  0.00     0.033 A 
ATOM     38  C   UNL     1      49.344 136.107  21.825  1.00  0.00     0.106 A 
BRANCH  38  39
ATOM     39  C   UNL     1      50.360 137.182  21.793  1.00  0.00     0.178 C 
ATOM     40  O   UNL     1      50.462 137.929  20.783  1.00  0.00    -0.293 OA
ATOM     41  C   UNL     1      51.278 137.399  22.956  1.00  0.00     0.095 C 
ENDBRANCH  38  39
ENDBRANCH  18  33
ENDBRANCH  12  13
ENDBRANCH   1  12
TORSDOF 11
ENDMDL
MODEL 2
REMARK VINA RESULT:       0.2      1.743      2.226
REMARK SMILES CC(=O)c1ccc(-c2cc(N)c(OC(=O)/C(C=O)=C(\C)[NH3+])c([NH2+]c3ccc(C)c(F)c3)c2)cn1
REMARK SMILES IDX 14 1 15 2 16 3 17 4 18 5 19 6 20 7 21 8 13 12 12 13 10 14
REMARK SMILES IDX 22 15 9 16 32 17 8 18 11 19 23 22 24 25 25 26 31 27 26 28
REMARK SMILES IDX 29 29 27 30 30 31 28 32 7 33 33 34 6 35 34 36 5 37 4 38 2 39
REMARK SMILES IDX 3 40 1 41
REMARK H PARENT 21 9 21 10 21 11 11 20 11 21 23 23 23 24
ROOT
ATOM      1  C   UNL     1      43.808 128.199  22.597  1.00  0.00     0.352 C 
ATOM      2  O   UNL     1      44.999 127.788  22.660  1.00  0.00    -0.245 OA
ENDROOT
BRANCH   1   3
ATOM      3  C   UNL     1      42.697 127.288  22.989  1.00  0.00     0.155 C 
BRANCH   3   4
ATOM      4  C   UNL     1      43.037 125.859  23.221  1.00  0.00     0.273 C 
ATOM      5  O   UNL     1      43.055 125.035  22.267  1.00  0.00    -0.297 OA
ENDBRANCH   3   4
BRANCH   3   6
ATOM      6  C   UNL     1      41.416 127.731  23.142  1.00  0.00     0.119 C 
ATOM      7  C   UNL     1      40.835 127.998  24.511  1.00  0.00     0.112 C 
BRANCH   6   8
ATOM      8  N   UNL     1      40.564 127.921  21.994  1.00  0.00    -0.328 N 
ATOM      9  H   UNL     1      40.231 126.994  21.643  1.00  0.00     0.350 HD
ATOM     10  H   UNL     1      39.724 128.495  22.231  1.00  0.00     0.350 HD
ATOM     11  H   UNL     1      41.088 128.431  21.245  1.00  0.00     0.350 HD
ENDBRANCH   6   8
ENDBRANCH   3   6
ENDBRANCH   1   3
BRANCH   1  12
ATOM     12  O   UNL     1      43.540 129.484  22.110  1.00  0.00    -0.414 OA
BRANCH  12  13
ATOM     13  C   UNL     1      44.509 130.494  22.090  1.00  0.00     0.214 A 
ATOM     14  C   UNL     1      44.506 131.464  23.110  1.00  0.00     0.082 A 
ATOM     15  C   UNL     1      45.483 130.549  21.066  1.00  0.00     0.180 A 
ATOM     16  C   UNL     1      45.450 132.498  23.093  1.00  0.00     0.038 A 
ATOM     17  C   UNL     1      46.414 131.603  21.063  1.00  0.00     0.081 A 
ATOM     18  C   UNL     1      46.408 132.580  22.070  1.00  0.00    -0.009 A 
BRANCH  14  19
ATOM     19  N   UNL     1      43.538 131.409  24.165  1.00  0.00    -0.395 N 
ATOM     20  H   UNL     1      43.504 130.607  24.832  1.00  0.00     0.156 HD
ATOM     21  H   UNL     1      42.843 132.178  24.291  1.00  0.00     0.156 HD
ENDBRANCH  14  19
BRANCH  15  22
ATOM     22  N   UNL     1      45.571 129.526  20.050  1.00  0.00    -0.278 N 
ATOM     23  H   UNL     1      44.787 128.845  20.183  1.00  0.00     0.358 HD
ATOM     24  H   UNL     1      46.456 128.976  20.124  1.00  0.00     0.358 HD
BRANCH  22  25
ATOM     25  C   UNL     1      45.504 130.130  18.742  1.00  0.00     0.137 A 
ATOM     26  C   UNL     1      45.058 131.454  18.592  1.00  0.00     0.068 A 
ATOM     27  C   UNL     1      45.854 129.394  17.595  1.00  0.00     0.107 A 
ATOM     28  C   UNL     1      44.972 132.035  17.324  1.00  0.00     0.012 A 
ATOM     29  C   UNL     1      45.767 129.975  16.326  1.00  0.00     0.132 A 
ATOM     30  C   UNL     1      45.317 131.297  16.182  1.00  0.00    -0.015 A 
ATOM     31  F   UNL     1      46.121 129.245  15.237  1.00  0.00    -0.206 F 
ATOM     32  C   UNL     1      45.246 131.926  14.820  1.00  0.00     0.047 C 
ENDBRANCH  22  25
ENDBRANCH  15  22
BRANCH  18  33
ATOM     33  C   UNL     1      47.409 133.678  22.061  1.00  0.00     0.000 A 
ATOM     34  C   UNL     1      47.304 134.742  21.150  1.00  0.00     0.120 A 
ATOM     35  C   UNL     1      48.484 133.679  22.963  1.00  0.00     0.013 A 
ATOM     36  N   UNL     1      48.227 135.739  21.151  1.00  0.00    -0.253 NA
ATOM     37  C   UNL     1      49.418 134.715  22.946  1.00  0.00     0.033 A 
ATOM     38  C   UNL     1      49.276 135.758  22.018  1.00  0.00     0.106 A 
BRANCH  38  39
ATOM     39  C   UNL     1      50.246 136.875  21.969  1.00  0.00     0.178 C 
ATOM     40  O   UNL     1      51.254 136.874  22.726  1.00  0.00    -0.293 OA
ATOM     41  C   UNL     1      50.046 138.018  21.023  1.00  0.00     0.095 C 
ENDBRANCH  38  39
ENDBRANCH  18  33
ENDBRANCH  12  13
ENDBRANCH   1  12
TORSDOF 11
ENDMDL
MODEL 3
REMARK VINA RESULT:       1.9      3.249      6.618
REMARK SMILES CC(=O)c1ccc(-c2cc(N)c(OC(=O)/C(C=O)=C(\C)[NH3+])c([NH2+]c3ccc(C)c(F)c3)c2)cn1
REMARK SMILES IDX 14 1 15 2 16 3 17 4 18 5 19 6 20 7 21 8 13 12 12 13 10 14
REMARK SMILES IDX 22 15 9 16 32 17 8 18 11 19 23 22 24 25 25 26 31 27 26 28
REMARK SMILES IDX 29 29 27 30 30 31 28 32 7 33 33 34 6 35 34 36 5 37 4 38 2 39
REMARK SMILES IDX 3 40 1 41
REMARK H PARENT 21 9 21 10 21 11 11 20 11 21 23 23 23 24
ROOT
ATOM      1  C   UNL     1      42.224 131.943  22.781  1.00  0.00     0.352 C 
ATOM      2  O   UNL     1      41.328 132.324  23.583  1.00  0.00    -0.245 OA
ENDROOT
BRANCH   1   3
ATOM      3  C   UNL     1      42.624 130.509  22.755  1.00  0.00     0.155 C 
BRANCH   3   4
ATOM      4  C   UNL     1      42.824 129.881  21.422  1.00  0.00     0.273 C 
ATOM      5  O   UNL     1      41.840 129.564  20.703  1.00  0.00    -0.297 OA
ENDBRANCH   3   4
BRANCH   3   6
ATOM      6  C   UNL     1      42.813 129.788  23.897  1.00  0.00     0.119 C 
ATOM      7  C   UNL     1      44.200 129.488  24.418  1.00  0.00     0.112 C 
BRANCH   6   8
ATOM      8  N   UNL     1      41.686 129.258  24.625  1.00  0.00    -0.328 N 
ATOM      9  H   UNL     1      41.275 128.451  24.101  1.00  0.00     0.350 HD
ATOM     10  H   UNL     1      41.966 128.916  25.571  1.00  0.00     0.350 HD
ATOM     11  H   UNL     1      40.970 130.008  24.763  1.00  0.00     0.350 HD
ENDBRANCH   6   8
ENDBRANCH   3   6
ENDBRANCH   1   3
BRANCH   1  12
ATOM     12  O   UNL     1      42.868 132.879  21.962  1.00  0.00    -0.414 OA
BRANCH  12  13
ATOM     13  C   UNL     1      43.542 132.512  20.792  1.00  0.00     0.214 A 
ATOM     14  C   UNL     1      42.844 132.519  19.570  1.00  0.00     0.082 A 
ATOM     15  C   UNL     1      44.905 132.136  20.824  1.00  0.00     0.180 A 
ATOM     16  C   UNL     1      43.494 132.128  18.392  1.00  0.00     0.038 A 
ATOM     17  C   UNL     1      45.534 131.736  19.631  1.00  0.00     0.081 A 
ATOM     18  C   UNL     1      44.839 131.730  18.412  1.00  0.00    -0.009 A 
BRANCH  14  19
ATOM     19  N   UNL     1      41.469 132.916  19.518  1.00  0.00    -0.395 N 
ATOM     20  H   UNL     1      41.041 133.500  20.272  1.00  0.00     0.156 HD
ATOM     21  H   UNL     1      40.861 132.630  18.719  1.00  0.00     0.156 HD
ENDBRANCH  14  19
BRANCH  15  22
ATOM     22  N   UNL     1      45.677 132.195  22.044  1.00  0.00    -0.278 N 
ATOM     23  H   UNL     1      46.167 131.280  22.182  1.00  0.00     0.358 HD
ATOM     24  H   UNL     1      45.072 132.335  22.884  1.00  0.00     0.358 HD
BRANCH  22  25
ATOM     25  C   UNL     1      46.629 133.276  21.969  1.00  0.00     0.137 A 
ATOM     26  C   UNL     1      46.340 134.425  21.213  1.00  0.00     0.068 A 
ATOM     27  C   UNL     1      47.871 133.184  22.622  1.00  0.00     0.107 A 
ATOM     28  C   UNL     1      47.269 135.465  21.120  1.00  0.00     0.012 A 
ATOM     29  C   UNL     1      48.801 134.223  22.528  1.00  0.00     0.132 A 
ATOM     30  C   UNL     1      48.509 135.368  21.769  1.00  0.00    -0.015 A 
ATOM     31  F   UNL     1      49.987 134.112  23.178  1.00  0.00    -0.206 F 
ATOM     32  C   UNL     1      49.499 136.494  21.689  1.00  0.00     0.047 C 
ENDBRANCH  22  25
ENDBRANCH  15  22
BRANCH  18  33
ATOM     33  C   UNL     1      45.523 131.322  17.158  1.00  0.00     0.000 A 
ATOM     34  C   UNL     1      45.894 129.984  16.942  1.00  0.00     0.120 A 
ATOM     35  C   UNL     1      45.815 132.261  16.157  1.00  0.00     0.013 A 
ATOM     36  N   UNL     1      46.520 129.622  15.792  1.00  0.00    -0.253 NA
ATOM     37  C   UNL     1      46.457 131.865  14.983  1.00  0.00     0.033 A 
ATOM     38  C   UNL     1      46.811 130.519  14.810  1.00  0.00     0.106 A 
BRANCH  38  39
ATOM     39  C   UNL     1      47.492 130.060  13.579  1.00  0.00     0.178 C 
ATOM     40  O   UNL     1      48.307 129.099  13.625  1.00  0.00    -0.293 OA
ATOM     41  C   UNL     1      47.226 130.728  12.266  1.00  0.00     0.095 C 
ENDBRANCH  38  39
ENDBRANCH  18  33
ENDBRANCH  12  13
ENDBRANCH   1  12
TORSDOF 11
ENDMDL
MODEL 4
REMARK VINA RESULT:       2.3      1.691      2.230
REMARK SMILES CC(=O)c1ccc(-c2cc(N)c(OC(=O)/C(C=O)=C(\C)[NH3+])c([NH2+]c3ccc(C)c(F)c3)c2)cn1
REMARK SMILES IDX 14 1 15 2 16 3 17 4 18 5 19 6 20 7 21 8 13 12 12 13 10 14
REMARK SMILES IDX 22 15 9 16 32 17 8 18 11 19 23 22 24 25 25 26 31 27 26 28
REMARK SMILES IDX 29 29 27 30 30 31 28 32 7 33 33 34 6 35 34 36 5 37 4 38 2 39
REMARK SMILES IDX 3 40 1 41
REMARK H PARENT 21 9 21 10 21 11 11 20 11 21 23 23 23 24
ROOT
ATOM      1  C   UNL     1      42.216 129.908  23.643  1.00  0.00     0.352 C 
ATOM      2  O   UNL     1      41.661 130.600  24.540  1.00  0.00    -0.245 OA
ENDROOT
BRANCH   1   3
ATOM      3  C   UNL     1      42.320 128.432  23.815  1.00  0.00     0.155 C 
BRANCH   3   4
ATOM      4  C   UNL     1      41.050 127.667  23.929  1.00  0.00     0.273 C 
ATOM      5  O   UNL     1      40.200 127.683  22.999  1.00  0.00    -0.297 OA
ENDBRANCH   3   4
BRANCH   3   6
ATOM      6  C   UNL     1      43.523 127.791  23.859  1.00  0.00     0.119 C 
ATOM      7  C   UNL     1      44.810 128.547  24.098  1.00  0.00     0.112 C 
BRANCH   6   8
ATOM      8  N   UNL     1      43.604 126.367  23.640  1.00  0.00    -0.328 N 
ATOM      9  H   UNL     1      43.438 126.155  22.629  1.00  0.00     0.350 HD
ATOM     10  H   UNL     1      44.544 125.992  23.895  1.00  0.00     0.350 HD
ATOM     11  H   UNL     1      42.899 125.877  24.238  1.00  0.00     0.350 HD
ENDBRANCH   6   8
ENDBRANCH   3   6
ENDBRANCH   1   3
BRANCH   1  12
ATOM     12  O   UNL     1      42.773 130.538  22.523  1.00  0.00    -0.414 OA
BRANCH  12  13
ATOM     13  C   UNL     1      43.953 131.286  22.596  1.00  0.00     0.214 A 
ATOM     14  C   UNL     1      44.074 132.277  23.588  1.00  0.00     0.082 A 
ATOM     15  C   UNL     1      45.016 131.060  21.691  1.00  0.00     0.180 A 
ATOM     16  C   UNL     1      45.237 133.055  23.660  1.00  0.00     0.038 A 
ATOM     17  C   UNL     1      46.169 131.861  21.774  1.00  0.00     0.081 A 
ATOM     18  C   UNL     1      46.290 132.859  22.754  1.00  0.00    -0.009 A 
BRANCH  14  19
ATOM     19  N   UNL     1      43.014 132.504  24.525  1.00  0.00    -0.395 N 
ATOM     20  H   UNL     1      43.210 132.696  25.532  1.00  0.00     0.156 HD
ATOM     21  H   UNL     1      42.017 132.485  24.216  1.00  0.00     0.156 HD
ENDBRANCH  14  19
BRANCH  15  22
ATOM     22  N   UNL     1      44.963 129.998  20.712  1.00  0.00    -0.278 N 
ATOM     23  H   UNL     1      44.023 129.539  20.758  1.00  0.00     0.358 HD
ATOM     24  H   UNL     1      45.667 129.252  20.907  1.00  0.00     0.358 HD
BRANCH  22  25
ATOM     25  C   UNL     1      45.204 130.535  19.395  1.00  0.00     0.137 A 
ATOM     26  C   UNL     1      44.835 131.855  19.088  1.00  0.00     0.068 A 
ATOM     27  C   UNL     1      45.780 129.736  18.391  1.00  0.00     0.107 A 
ATOM     28  C   UNL     1      45.048 132.371  17.807  1.00  0.00     0.012 A 
ATOM     29  C   UNL     1      45.992 130.251  17.109  1.00  0.00     0.132 A 
ATOM     30  C   UNL     1      45.619 131.571  16.806  1.00  0.00    -0.015 A 
ATOM     31  F   UNL     1      46.559 129.462  16.162  1.00  0.00    -0.206 F 
ATOM     32  C   UNL     1      45.868 132.130  15.435  1.00  0.00     0.047 C 
ENDBRANCH  22  25
ENDBRANCH  15  22
BRANCH  18  33
ATOM     33  C   UNL     1      47.522 133.685  22.839  1.00  0.00     0.000 A 
ATOM     34  C   UNL     1      48.792 133.085  22.844  1.00  0.00     0.120 A 
ATOM     35  C   UNL     1      47.447 135.084  22.915  1.00  0.00     0.013 A 
ATOM     36  N   UNL     1      49.912 133.851  22.923  1.00  0.00    -0.253 NA
ATOM     37  C   UNL     1      48.611 135.849  22.994  1.00  0.00     0.033 A 
ATOM     38  C   UNL     1      49.860 135.210  22.998  1.00  0.00     0.106 A 
BRANCH  38  39
ATOM     39  C   UNL     1      51.116 135.987  23.080  1.00  0.00     0.178 C 
ATOM     40  O   UNL     1      51.110 137.156  23.550  1.00  0.00    -0.293 OA
ATOM     41  C   UNL     1      52.410 135.398  22.609  1.00  0.00     0.095 C 
ENDBRANCH  38  39
ENDBRANCH  18  33
ENDBRANCH  12  13
ENDBRANCH   1  12
TORSDOF 11
ENDMDL


