REMARK SMILES C[C@H]1CC[C@H](c2ccc3[nH+]cccc3c2)[C@@H](F)N1C(=O)Oc1ccc([N+](=O)[O-])cc1
REMARK SMILES IDX 19 1 20 2 18 3 2 4 3 5 4 6 16 7 5 8 1 9 17 10 6 11 7 12
REMARK SMILES IDX 15 13 8 14 14 15 9 16 13 17 10 18 12 19 11 20 21 22 22 23
REMARK SMILES IDX 23 24 30 25 24 26 29 27 25 28 26 29 27 30 28 31
REMARK H PARENT 10 21
ROOT
ATOM      1  C   UNL     1      -0.766  -1.307   1.550  1.00  0.00     0.417 C 
ATOM      2  O   UNL     1      -1.568  -2.240   1.268  1.00  0.00    -0.224 OA
ENDROOT
BRANCH   1   3
ATOM      3  N   UNL     1      -1.232  -0.150   2.275  1.00  0.00    -0.274 N 
ATOM      4  C   UNL     1      -2.681   0.095   2.427  1.00  0.00     0.088 C 
ATOM      5  C   UNL     1      -2.980   1.597   2.626  1.00  0.00     0.026 C 
ATOM      6  C   UNL     1      -2.095   2.444   1.704  1.00  0.00     0.015 C 
ATOM      7  C   UNL     1      -0.283   0.888   2.707  1.00  0.00     0.275 C 
ATOM      8  C   UNL     1      -0.581   2.228   1.988  1.00  0.00     0.075 C 
ATOM      9  C   UNL     1      -3.241  -0.728   3.591  1.00  0.00     0.031 C 
ATOM     10  F   UNL     1      -0.397   1.058   4.078  1.00  0.00    -0.223 F 
BRANCH   8  11
ATOM     11  C   UNL     1       0.253   2.355   0.723  1.00  0.00    -0.039 A 
ATOM     12  C   UNL     1       1.307   3.285   0.667  1.00  0.00     0.011 A 
ATOM     13  C   UNL     1       0.041   1.499  -0.376  1.00  0.00     0.019 A 
ATOM     14  C   UNL     1       2.134   3.361  -0.457  1.00  0.00     0.080 A 
ATOM     15  C   UNL     1       0.869   1.570  -1.505  1.00  0.00     0.047 A 
ATOM     16  C   UNL     1       1.927   2.504  -1.546  1.00  0.00     0.210 A 
ATOM     17  C   UNL     1       0.670   0.720  -2.600  1.00  0.00     0.021 A 
ATOM     18  N   UNL     1       2.742   2.560  -2.640  1.00  0.00    -0.211 N 
ATOM     19  C   UNL     1       1.522   0.796  -3.701  1.00  0.00     0.071 A 
ATOM     20  C   UNL     1       2.561   1.730  -3.704  1.00  0.00     0.306 A 
ATOM     21  H   UNL     1       3.528   3.249  -2.675  1.00  0.00     0.453 HD
ENDBRANCH   8  11
ENDBRANCH   1   3
BRANCH   1  22
ATOM     22  O   UNL     1       0.579  -1.398   1.170  1.00  0.00    -0.410 OA
BRANCH  22  23
ATOM     23  C   UNL     1       1.066  -2.093   0.053  1.00  0.00     0.133 A 
ATOM     24  C   UNL     1       0.254  -2.417  -1.049  1.00  0.00     0.054 A 
ATOM     25  C   UNL     1       2.425  -2.424   0.018  1.00  0.00     0.054 A 
ATOM     26  C   UNL     1       0.797  -3.072  -2.158  1.00  0.00     0.089 A 
ATOM     27  C   UNL     1       2.969  -3.081  -1.089  1.00  0.00     0.089 A 
ATOM     28  C   UNL     1       2.159  -3.414  -2.190  1.00  0.00     0.269 A 
BRANCH  28  29
ATOM     29  N   UNL     1       2.715  -4.087  -3.334  1.00  0.00     0.062 N 
ATOM     30  O   UNL     1       3.925  -4.392  -3.369  1.00  0.00    -0.258 OA
ATOM     31  O   UNL     1       1.919  -4.409  -4.410  1.00  0.00    -0.258 OA
ENDBRANCH  28  29
ENDBRANCH  22  23
ENDBRANCH   1  22
TORSDOF 5


