REMARK SMILES C/C=C/C(=O)[N-]c1ccc(-c2ccc(C)cc2)cc1C=O
REMARK SMILES IDX 6 1 7 2 19 3 18 4 10 5 8 6 9 7 20 8 21 9 11 10 12 11 17 12
REMARK SMILES IDX 13 13 16 14 14 15 15 16 4 17 5 18 3 19 2 20 1 21
REMARK H PARENT
ROOT
ATOM      1  N   UNL     1      -0.324   2.481   3.167  1.00  0.00    -0.623 NA
ENDROOT
BRANCH   1   2
ATOM      2  C   UNL     1      -0.296   1.608   2.026  1.00  0.00    -0.123 A 
ATOM      3  C   UNL     1      -1.479   0.966   1.601  1.00  0.00     0.000 A 
ATOM      4  C   UNL     1      -1.446   0.138   0.464  1.00  0.00     0.019 A 
ATOM      5  C   UNL     1      -0.258  -0.044  -0.264  1.00  0.00    -0.018 A 
ATOM      6  C   UNL     1       0.883   1.445   1.279  1.00  0.00    -0.015 A 
ATOM      7  C   UNL     1       0.904   0.622   0.154  1.00  0.00     0.007 A 
BRANCH   3   8
ATOM      8  C   UNL     1      -2.743   1.143   2.352  1.00  0.00     0.258 C 
ATOM      9  O   UNL     1      -3.805   0.578   1.979  1.00  0.00    -0.298 OA
ENDBRANCH   3   8
BRANCH   5  10
ATOM     10  C   UNL     1      -0.233  -0.920  -1.464  1.00  0.00    -0.018 A 
ATOM     11  C   UNL     1       0.855  -1.780  -1.698  1.00  0.00     0.009 A 
ATOM     12  C   UNL     1      -1.294  -0.899  -2.387  1.00  0.00     0.009 A 
ATOM     13  C   UNL     1       0.878  -2.604  -2.827  1.00  0.00     0.004 A 
ATOM     14  C   UNL     1      -1.269  -1.724  -3.516  1.00  0.00     0.004 A 
ATOM     15  C   UNL     1      -0.191  -2.592  -3.735  1.00  0.00    -0.051 A 
ATOM     16  C   UNL     1      -0.147  -3.448  -4.966  1.00  0.00     0.044 C 
ENDBRANCH   5  10
ENDBRANCH   1   2
BRANCH   1  17
ATOM     17  C   UNL     1       0.763   2.742   4.064  1.00  0.00     0.078 C 
ATOM     18  O   UNL     1       0.764   3.821   4.714  1.00  0.00    -0.315 OA
BRANCH  17  19
ATOM     19  C   UNL     1       1.826   1.740   4.290  1.00  0.00     0.023 C 
BRANCH  19  20
ATOM     20  C   UNL     1       2.907   2.001   5.031  1.00  0.00    -0.028 C 
ATOM     21  C   UNL     1       3.961   0.962   5.243  1.00  0.00     0.035 C 
ENDBRANCH  19  20
ENDBRANCH  17  19
ENDBRANCH   1  17
TORSDOF 6


