MODEL 1
REMARK VINA RESULT:      -9.1      0.000      0.000
REMARK SMILES O=C(Nc1ccc(C[NH+]2CCCCC2)cc1)Sc1cccc(-c2ccc3c(c2)CC3)c1
REMARK SMILES IDX 4 1 5 2 6 3 7 4 15 5 16 6 3 7 2 8 1 9 17 11 18 12 19 13
REMARK SMILES IDX 31 14 20 15 22 16 21 17 23 18 24 19 28 20 25 21 27 22 26 23
REMARK SMILES IDX 29 24 30 25 8 26 9 27 10 28 14 29 11 30 13 31 12 32
REMARK H PARENT 3 10 9 33
ROOT
ATOM      1  C   UNL     1      43.658 131.740  19.275  1.00  0.00     0.041 A 
ATOM      2  C   UNL     1      42.645 131.637  18.307  1.00  0.00     0.026 A 
ATOM      3  C   UNL     1      42.968 131.594  16.948  1.00  0.00     0.012 A 
ATOM      4  C   UNL     1      44.309 131.645  16.536  1.00  0.00     0.006 A 
ATOM      5  C   UNL     1      45.323 131.733  17.504  1.00  0.00     0.012 A 
ATOM      6  C   UNL     1      44.999 131.767  18.863  1.00  0.00     0.026 A 
ENDROOT
BRANCH   1   7
ATOM      7  N   UNL     1      43.347 131.771  20.679  1.00  0.00    -0.317 N 
ATOM      8  C   UNL     1      44.104 131.069  21.674  1.00  0.00     0.288 C 
ATOM      9  O   UNL     1      44.946 130.190  21.344  1.00  0.00    -0.261 OA
ATOM     10  H   UNL     1      42.459 132.230  20.981  1.00  0.00     0.170 HD
BRANCH   8  11
ATOM     11  S   UNL     1      43.818 131.396  23.411  1.00  0.00    -0.028 SA
BRANCH  11  12
ATOM     12  C   UNL     1      43.242 129.727  23.725  1.00  0.00     0.018 A 
ATOM     13  C   UNL     1      41.974 129.524  24.282  1.00  0.00     0.015 A 
ATOM     14  C   UNL     1      44.057 128.631  23.418  1.00  0.00     0.024 A 
ATOM     15  C   UNL     1      41.520 128.228  24.531  1.00  0.00     0.002 A 
ATOM     16  C   UNL     1      43.603 127.320  23.656  1.00  0.00    -0.017 A 
ATOM     17  C   UNL     1      42.330 127.131  24.219  1.00  0.00     0.009 A 
BRANCH  16  18
ATOM     18  C   UNL     1      44.447 126.155  23.300  1.00  0.00    -0.018 A 
ATOM     19  C   UNL     1      44.004 124.823  23.624  1.00  0.00     0.009 A 
ATOM     20  C   UNL     1      45.682 126.362  22.623  1.00  0.00     0.012 A 
ATOM     21  C   UNL     1      44.759 123.675  23.284  1.00  0.00     0.004 A 
ATOM     22  C   UNL     1      46.391 125.224  22.304  1.00  0.00    -0.044 A 
ATOM     23  C   UNL     1      45.943 123.919  22.624  1.00  0.00    -0.044 A 
ATOM     24  C   UNL     1      47.609 124.664  21.655  1.00  0.00     0.040 C 
ATOM     25  C   UNL     1      47.153 123.327  21.989  1.00  0.00     0.040 C 
ENDBRANCH  16  18
ENDBRANCH  11  12
ENDBRANCH   8  11
ENDBRANCH   1   7
BRANCH   4  26
ATOM     26  C   UNL     1      44.652 131.618  15.063  1.00  0.00     0.299 C 
BRANCH  26  27
ATOM     27  N   UNL     1      46.030 131.129  14.819  1.00  0.00    -0.331 N 
ATOM     28  C   UNL     1      46.399 131.383  13.407  1.00  0.00     0.262 C 
ATOM     29  C   UNL     1      46.146 129.684  15.135  1.00  0.00     0.262 C 
ATOM     30  C   UNL     1      47.833 130.923  13.108  1.00  0.00     0.062 C 
ATOM     31  C   UNL     1      47.574 129.175  14.894  1.00  0.00     0.062 C 
ATOM     32  C   UNL     1      48.003 129.441  13.448  1.00  0.00     0.012 C 
ATOM     33  H   UNL     1      46.689 131.668  15.431  1.00  0.00     0.348 HD
ENDBRANCH  26  27
ENDBRANCH   4  26
TORSDOF 6
ENDMDL
MODEL 2
REMARK VINA RESULT:      -7.4      2.110      8.868
REMARK SMILES O=C(Nc1ccc(C[NH+]2CCCCC2)cc1)Sc1cccc(-c2ccc3c(c2)CC3)c1
REMARK SMILES IDX 4 1 5 2 6 3 7 4 15 5 16 6 3 7 2 8 1 9 17 11 18 12 19 13
REMARK SMILES IDX 31 14 20 15 22 16 21 17 23 18 24 19 28 20 25 21 27 22 26 23
REMARK SMILES IDX 29 24 30 25 8 26 9 27 10 28 14 29 11 30 13 31 12 32
REMARK H PARENT 3 10 9 33
ROOT
ATOM      1  C   UNL     1      44.355 128.639  23.562  1.00  0.00     0.041 A 
ATOM      2  C   UNL     1      43.150 128.399  24.244  1.00  0.00     0.026 A 
ATOM      3  C   UNL     1      42.780 127.096  24.588  1.00  0.00     0.012 A 
ATOM      4  C   UNL     1      43.612 126.014  24.263  1.00  0.00     0.006 A 
ATOM      5  C   UNL     1      44.823 126.253  23.595  1.00  0.00     0.012 A 
ATOM      6  C   UNL     1      45.197 127.557  23.259  1.00  0.00     0.026 A 
ENDROOT
BRANCH   1   7
ATOM      7  N   UNL     1      44.761 129.973  23.213  1.00  0.00    -0.317 N 
ATOM      8  C   UNL     1      45.121 130.369  21.882  1.00  0.00     0.288 C 
ATOM      9  O   UNL     1      45.332 129.506  20.987  1.00  0.00    -0.261 OA
ATOM     10  H   UNL     1      44.916 130.663  23.981  1.00  0.00     0.170 HD
BRANCH   8  11
ATOM     11  S   UNL     1      45.332 132.103  21.492  1.00  0.00    -0.028 SA
BRANCH  11  12
ATOM     12  C   UNL     1      44.398 131.969  19.967  1.00  0.00     0.018 A 
ATOM     13  C   UNL     1      43.021 132.219  19.972  1.00  0.00     0.015 A 
ATOM     14  C   UNL     1      45.042 131.613  18.776  1.00  0.00     0.024 A 
ATOM     15  C   UNL     1      42.288 132.115  18.789  1.00  0.00     0.002 A 
ATOM     16  C   UNL     1      44.313 131.516  17.576  1.00  0.00    -0.017 A 
ATOM     17  C   UNL     1      42.930 131.766  17.596  1.00  0.00     0.009 A 
BRANCH  16  18
ATOM     18  C   UNL     1      44.995 131.174  16.306  1.00  0.00    -0.018 A 
ATOM     19  C   UNL     1      44.508 130.082  15.502  1.00  0.00     0.009 A 
ATOM     20  C   UNL     1      46.115 131.943  15.879  1.00  0.00     0.012 A 
ATOM     21  C   UNL     1      45.108 129.730  14.268  1.00  0.00     0.004 A 
ATOM     22  C   UNL     1      46.673 131.577  14.674  1.00  0.00    -0.044 A 
ATOM     23  C   UNL     1      46.183 130.503  13.890  1.00  0.00    -0.044 A 
ATOM     24  C   UNL     1      47.721 131.863  13.656  1.00  0.00     0.040 C 
ATOM     25  C   UNL     1      47.224 130.758  12.856  1.00  0.00     0.040 C 
ENDBRANCH  16  18
ENDBRANCH  11  12
ENDBRANCH   8  11
ENDBRANCH   1   7
BRANCH   4  26
ATOM     26  C   UNL     1      43.196 124.604  24.620  1.00  0.00     0.299 C 
BRANCH  26  27
ATOM     27  N   UNL     1      44.097 123.588  24.025  1.00  0.00    -0.331 N 
ATOM     28  C   UNL     1      45.455 123.739  24.595  1.00  0.00     0.262 C 
ATOM     29  C   UNL     1      44.136 123.712  22.547  1.00  0.00     0.262 C 
ATOM     30  C   UNL     1      46.422 122.686  24.033  1.00  0.00     0.062 C 
ATOM     31  C   UNL     1      45.059 122.656  21.924  1.00  0.00     0.062 C 
ATOM     32  C   UNL     1      46.470 122.764  22.506  1.00  0.00     0.012 C 
ATOM     33  H   UNL     1      43.739 122.635  24.279  1.00  0.00     0.348 HD
ENDBRANCH  26  27
ENDBRANCH   4  26
TORSDOF 6
ENDMDL


