REMARK SMILES CCCOC(=O)N1C[C@H](c2ccc3cc[nH]c3c2)[C@H](C)C[C@H]1F
REMARK SMILES IDX 4 1 3 2 2 3 1 4 5 5 6 6 7 7 8 8 22 9 9 10 21 11 19 12 23 13
REMARK SMILES IDX 20 14 10 15 11 16 18 17 12 18 17 19 13 20 16 21 14 22 15 23
REMARK H PARENT 16 24
ROOT
ATOM      1  O   UNL     1       1.771  -3.350  -1.431  1.00  0.00    -0.449 OA
ENDROOT
BRANCH   1   2
ATOM      2  C   UNL     1       1.272  -4.539  -2.042  1.00  0.00     0.234 C 
BRANCH   2   3
ATOM      3  C   UNL     1       0.242  -4.213  -3.129  1.00  0.00     0.038 C 
ATOM      4  C   UNL     1       0.844  -3.361  -4.244  1.00  0.00     0.007 C 
ENDBRANCH   2   3
ENDBRANCH   1   2
BRANCH   1   5
ATOM      5  C   UNL     1       1.036  -2.581  -0.519  1.00  0.00     0.412 C 
ATOM      6  O   UNL     1      -0.100  -2.975  -0.136  1.00  0.00    -0.224 OA
BRANCH   5   7
ATOM      7  N   UNL     1       1.573  -1.337  -0.021  1.00  0.00    -0.277 N 
ATOM      8  C   UNL     1       0.631  -0.266   0.343  1.00  0.00     0.134 C 
ATOM      9  C   UNL     1       2.971  -0.970  -0.319  1.00  0.00     0.268 C 
ATOM     10  C   UNL     1       1.222   0.627   1.452  1.00  0.00     0.042 C 
ATOM     11  C   UNL     1       3.549  -0.048   0.765  1.00  0.00     0.065 C 
ATOM     12  C   UNL     1       2.632   1.147   1.083  1.00  0.00    -0.000 C 
ATOM     13  F   UNL     1       3.773  -2.098  -0.381  1.00  0.00    -0.223 F 
ATOM     14  C   UNL     1       2.644   2.182  -0.057  1.00  0.00     0.008 C 
BRANCH  10  15
ATOM     15  C   UNL     1       0.285   1.740   1.902  1.00  0.00    -0.041 A 
ATOM     16  C   UNL     1      -0.470   2.514   0.974  1.00  0.00     0.005 A 
ATOM     17  C   UNL     1       0.207   2.051   3.281  1.00  0.00     0.030 A 
ATOM     18  C   UNL     1      -1.305   3.556   1.414  1.00  0.00     0.010 A 
ATOM     19  C   UNL     1      -0.631   3.090   3.680  1.00  0.00     0.046 A 
ATOM     20  C   UNL     1      -1.361   3.813   2.779  1.00  0.00    -0.001 A 
ATOM     21  N   UNL     1      -0.844   3.531   4.931  1.00  0.00    -0.361 N 
ATOM     22  C   UNL     1      -2.072   4.758   3.486  1.00  0.00     0.028 A 
ATOM     23  C   UNL     1      -1.726   4.551   4.818  1.00  0.00     0.083 A 
ATOM     24  H   UNL     1      -0.418   3.166   5.812  1.00  0.00     0.166 HD
ENDBRANCH  10  15
ENDBRANCH   5   7
ENDBRANCH   1   5
TORSDOF 5


