MODEL 1
REMARK VINA RESULT:      -5.0      0.000      0.000
REMARK SMILES CC(=O)c1ccc([C@H]2[C@H](F)[C@H](C)CCN2C(=S)[NH2+]c2[nH+]c3ccccc3s2)cc1F
REMARK SMILES IDX 8 1 9 2 10 3 11 4 12 5 13 6 14 7 15 8 7 9 4 10 5 11 29 12
REMARK SMILES IDX 6 13 28 14 30 15 2 16 1 17 3 18 16 19 17 20 18 21 19 24
REMARK SMILES IDX 20 25 27 26 21 27 26 28 22 29 25 30 23 31 24 32
REMARK H PARENT 18 22 18 23 20 33
ROOT
ATOM      1  C   UNL     1      45.448 124.707  23.950  1.00  0.00     0.153 C 
ATOM      2  C   UNL     1      44.315 123.656  23.836  1.00  0.00     0.196 C 
ATOM      3  F   UNL     1      44.777 122.451  24.343  1.00  0.00    -0.245 F 
ATOM      4  C   UNL     1      43.855 123.463  22.377  1.00  0.00     0.024 C 
ATOM      5  C   UNL     1      42.747 122.407  22.283  1.00  0.00     0.011 C 
ATOM      6  C   UNL     1      45.049 123.077  21.487  1.00  0.00     0.028 C 
ATOM      7  C   UNL     1      46.126 124.156  21.567  1.00  0.00     0.124 C 
ATOM      8  N   UNL     1      46.515 124.386  22.974  1.00  0.00    -0.308 N 
ENDROOT
BRANCH   1   9
ATOM      9  C   UNL     1      44.943 126.149  23.847  1.00  0.00    -0.019 A 
ATOM     10  C   UNL     1      43.921 128.772  23.444  1.00  0.00     0.053 A 
ATOM     11  C   UNL     1      43.374 127.928  24.425  1.00  0.00     0.015 A 
ATOM     12  C   UNL     1      44.974 128.280  22.647  1.00  0.00     0.134 A 
ATOM     13  C   UNL     1      43.867 126.636  24.616  1.00  0.00     0.007 A 
ATOM     14  C   UNL     1      45.466 126.986  22.844  1.00  0.00     0.046 A 
ATOM     15  F   UNL     1      45.502 129.016  21.637  1.00  0.00    -0.206 F 
BRANCH  10  16
ATOM     16  C   UNL     1      43.348 130.133  23.259  1.00  0.00     0.162 C 
ATOM     17  C   UNL     1      43.304 130.811  21.923  1.00  0.00     0.093 C 
ATOM     18  O   UNL     1      42.871 130.746  24.253  1.00  0.00    -0.294 OA
ENDBRANCH  10  16
ENDBRANCH   1   9
BRANCH   8  19
ATOM     19  C   UNL     1      47.852 124.035  23.424  1.00  0.00     0.280 C 
ATOM     20  S   UNL     1      48.101 122.582  24.156  1.00  0.00     0.004 S 
BRANCH  19  21
ATOM     21  N   UNL     1      48.909 125.018  23.497  1.00  0.00    -0.191 N 
ATOM     22  H   UNL     1      49.364 124.986  24.439  1.00  0.00     0.366 HD
ATOM     23  H   UNL     1      48.507 125.974  23.370  1.00  0.00     0.366 HD
BRANCH  21  24
ATOM     24  C   UNL     1      49.934 124.771  22.525  1.00  0.00     0.433 A 
ATOM     25  N   UNL     1      49.685 124.553  21.209  1.00  0.00    -0.146 N 
ATOM     26  S   UNL     1      51.584 124.626  22.895  1.00  0.00    -0.000 S 
ATOM     27  C   UNL     1      50.831 124.318  20.521  1.00  0.00     0.227 A 
ATOM     28  C   UNL     1      51.986 124.323  21.291  1.00  0.00     0.111 A 
ATOM     29  C   UNL     1      50.906 124.117  19.141  1.00  0.00     0.081 A 
ATOM     30  C   UNL     1      53.247 124.139  20.733  1.00  0.00     0.026 A 
ATOM     31  C   UNL     1      52.169 123.928  18.554  1.00  0.00     0.007 A 
ATOM     32  C   UNL     1      53.334 123.939  19.346  1.00  0.00     0.002 A 
ATOM     33  H   UNL     1      48.732 124.583  20.779  1.00  0.00     0.461 HD
ENDBRANCH  21  24
ENDBRANCH  19  21
ENDBRANCH   8  19
TORSDOF 5
ENDMDL
MODEL 2
REMARK VINA RESULT:      -3.0      7.386      8.883
REMARK SMILES CC(=O)c1ccc([C@H]2[C@H](F)[C@H](C)CCN2C(=S)[NH2+]c2[nH+]c3ccccc3s2)cc1F
REMARK SMILES IDX 8 1 9 2 10 3 11 4 12 5 13 6 14 7 15 8 7 9 4 10 5 11 29 12
REMARK SMILES IDX 6 13 28 14 30 15 2 16 1 17 3 18 16 19 17 20 18 21 19 24
REMARK SMILES IDX 20 25 27 26 21 27 26 28 22 29 25 30 23 31 24 32
REMARK H PARENT 18 22 18 23 20 33
ROOT
ATOM      1  C   UNL     1      45.599 131.683  20.974  1.00  0.00     0.153 C 
ATOM      2  C   UNL     1      44.964 131.058  22.243  1.00  0.00     0.196 C 
ATOM      3  F   UNL     1      44.502 129.790  21.928  1.00  0.00    -0.245 F 
ATOM      4  C   UNL     1      43.801 131.915  22.785  1.00  0.00     0.024 C 
ATOM      5  C   UNL     1      43.176 131.272  24.029  1.00  0.00     0.011 C 
ATOM      6  C   UNL     1      42.740 132.126  21.692  1.00  0.00     0.028 C 
ATOM      7  C   UNL     1      43.373 132.798  20.476  1.00  0.00     0.124 C 
ATOM      8  N   UNL     1      44.530 132.009  20.002  1.00  0.00    -0.308 N 
ENDROOT
BRANCH   1   9
ATOM      9  C   UNL     1      46.523 132.864  21.284  1.00  0.00    -0.019 A 
ATOM     10  C   UNL     1      48.405 134.946  21.742  1.00  0.00     0.053 A 
ATOM     11  C   UNL     1      47.281 135.157  20.927  1.00  0.00     0.015 A 
ATOM     12  C   UNL     1      48.592 133.669  22.309  1.00  0.00     0.134 A 
ATOM     13  C   UNL     1      46.362 134.133  20.692  1.00  0.00     0.007 A 
ATOM     14  C   UNL     1      47.668 132.647  22.073  1.00  0.00     0.046 A 
ATOM     15  F   UNL     1      49.691 133.377  23.049  1.00  0.00    -0.206 F 
BRANCH  10  16
ATOM     16  C   UNL     1      49.371 136.059  21.944  1.00  0.00     0.162 C 
ATOM     17  C   UNL     1      50.476 135.991  22.956  1.00  0.00     0.093 C 
ATOM     18  O   UNL     1      49.274 137.101  21.240  1.00  0.00    -0.294 OA
ENDBRANCH  10  16
ENDBRANCH   1   9
BRANCH   8  19
ATOM     19  C   UNL     1      44.478 131.350  18.707  1.00  0.00     0.280 C 
ATOM     20  S   UNL     1      43.189 131.617  17.719  1.00  0.00     0.004 S 
BRANCH  19  21
ATOM     21  N   UNL     1      45.373 130.265  18.372  1.00  0.00    -0.191 N 
ATOM     22  H   UNL     1      44.854 129.356  18.383  1.00  0.00     0.366 HD
ATOM     23  H   UNL     1      46.134 130.208  19.085  1.00  0.00     0.366 HD
BRANCH  21  24
ATOM     24  C   UNL     1      45.926 130.420  17.058  1.00  0.00     0.433 A 
ATOM     25  N   UNL     1      46.735 129.502  16.470  1.00  0.00    -0.146 N 
ATOM     26  S   UNL     1      45.722 131.801  16.094  1.00  0.00    -0.000 S 
ATOM     27  C   UNL     1      47.136 129.912  15.240  1.00  0.00     0.227 A 
ATOM     28  C   UNL     1      46.670 131.163  14.861  1.00  0.00     0.111 A 
ATOM     29  C   UNL     1      47.926 129.160  14.367  1.00  0.00     0.081 A 
ATOM     30  C   UNL     1      46.956 131.712  13.615  1.00  0.00     0.026 A 
ATOM     31  C   UNL     1      48.231 129.694  13.103  1.00  0.00     0.007 A 
ATOM     32  C   UNL     1      47.747 130.964  12.728  1.00  0.00     0.002 A 
ATOM     33  H   UNL     1      46.997 128.588  16.904  1.00  0.00     0.461 HD
ENDBRANCH  21  24
ENDBRANCH  19  21
ENDBRANCH   8  19
TORSDOF 5
ENDMDL
MODEL 3
REMARK VINA RESULT:      -2.2      7.194      8.991
REMARK SMILES CC(=O)c1ccc([C@H]2[C@H](F)[C@H](C)CCN2C(=S)[NH2+]c2[nH+]c3ccccc3s2)cc1F
REMARK SMILES IDX 8 1 9 2 10 3 11 4 12 5 13 6 14 7 15 8 7 9 4 10 5 11 29 12
REMARK SMILES IDX 6 13 28 14 30 15 2 16 1 17 3 18 16 19 17 20 18 21 19 24
REMARK SMILES IDX 20 25 27 26 21 27 26 28 22 29 25 30 23 31 24 32
REMARK H PARENT 18 22 18 23 20 33
ROOT
ATOM      1  C   UNL     1      44.275 132.075  20.951  1.00  0.00     0.153 C 
ATOM      2  C   UNL     1      42.991 131.566  21.653  1.00  0.00     0.196 C 
ATOM      3  F   UNL     1      42.697 132.417  22.708  1.00  0.00    -0.245 F 
ATOM      4  C   UNL     1      43.155 130.125  22.178  1.00  0.00     0.024 C 
ATOM      5  C   UNL     1      41.882 129.647  22.885  1.00  0.00     0.011 C 
ATOM      6  C   UNL     1      44.366 130.036  23.123  1.00  0.00     0.028 C 
ATOM      7  C   UNL     1      45.629 130.484  22.392  1.00  0.00     0.124 C 
ATOM      8  N   UNL     1      45.442 131.839  21.832  1.00  0.00    -0.308 N 
ENDROOT
BRANCH   1   9
ATOM      9  C   UNL     1      44.452 131.508  19.539  1.00  0.00    -0.019 A 
ATOM     10  C   UNL     1      44.821 130.673  16.846  1.00  0.00     0.053 A 
ATOM     11  C   UNL     1      45.735 130.304  17.847  1.00  0.00     0.015 A 
ATOM     12  C   UNL     1      43.728 131.489  17.203  1.00  0.00     0.134 A 
ATOM     13  C   UNL     1      45.561 130.722  19.167  1.00  0.00     0.007 A 
ATOM     14  C   UNL     1      43.557 131.904  18.527  1.00  0.00     0.046 A 
ATOM     15  F   UNL     1      42.847 131.939  16.275  1.00  0.00    -0.206 F 
BRANCH  10  16
ATOM     16  C   UNL     1      45.059 130.225  15.448  1.00  0.00     0.162 C 
ATOM     17  C   UNL     1      45.291 131.188  14.323  1.00  0.00     0.093 C 
ATOM     18  O   UNL     1      45.078 128.991  15.186  1.00  0.00    -0.294 OA
ENDBRANCH  10  16
ENDBRANCH   1   9
BRANCH   8  19
ATOM     19  C   UNL     1      46.218 132.953  22.351  1.00  0.00     0.280 C 
ATOM     20  S   UNL     1      45.977 133.447  23.903  1.00  0.00     0.004 S 
BRANCH  19  21
ATOM     21  N   UNL     1      46.990 133.810  21.481  1.00  0.00    -0.191 N 
ATOM     22  H   UNL     1      46.461 134.692  21.285  1.00  0.00     0.366 HD
ATOM     23  H   UNL     1      47.154 133.326  20.570  1.00  0.00     0.366 HD
BRANCH  21  24
ATOM     24  C   UNL     1      48.237 134.191  22.079  1.00  0.00     0.433 A 
ATOM     25  N   UNL     1      48.895 133.432  22.992  1.00  0.00    -0.146 N 
ATOM     26  S   UNL     1      49.014 135.673  21.803  1.00  0.00    -0.000 S 
ATOM     27  C   UNL     1      50.032 134.042  23.414  1.00  0.00     0.227 A 
ATOM     28  C   UNL     1      50.264 135.292  22.859  1.00  0.00     0.111 A 
ATOM     29  C   UNL     1      50.951 133.485  24.306  1.00  0.00     0.081 A 
ATOM     30  C   UNL     1      51.405 136.032  23.155  1.00  0.00     0.026 A 
ATOM     31  C   UNL     1      52.111 134.214  24.622  1.00  0.00     0.007 A 
ATOM     32  C   UNL     1      52.337 135.481  24.048  1.00  0.00     0.002 A 
ATOM     33  H   UNL     1      48.575 132.489  23.312  1.00  0.00     0.461 HD
ENDBRANCH  21  24
ENDBRANCH  19  21
ENDBRANCH   8  19
TORSDOF 5
ENDMDL


