REMARK SMILES C=Cc1ccc(-c2c(N)c([NH2+]c3ccc(F)cc3)cc(F)c2F)[nH+]c1
REMARK SMILES IDX 7 1 8 2 10 3 19 4 20 5 21 6 22 7 23 8 6 9 3 10 4 11 25 12
REMARK SMILES IDX 5 13 24 14 2 16 1 17 9 18 11 21 12 24 13 25 18 26 14 27
REMARK SMILES IDX 17 28 15 29 16 30
REMARK H PARENT 24 15 9 19 9 20 11 22 11 23
ROOT
ATOM      1  C   UNL     1       2.514   0.962   1.084  1.00  0.00     0.114 A 
ATOM      2  C   UNL     1       1.197   1.096   1.592  1.00  0.00     0.111 A 
ATOM      3  C   UNL     1       0.878   2.204   2.427  1.00  0.00     0.161 A 
ATOM      4  C   UNL     1       1.881   3.145   2.726  1.00  0.00     0.112 A 
ATOM      5  C   UNL     1       3.168   3.008   2.216  1.00  0.00     0.165 A 
ATOM      6  F   UNL     1       4.115   3.930   2.520  1.00  0.00    -0.203 F 
ATOM      7  C   UNL     1       3.487   1.926   1.400  1.00  0.00     0.175 A 
ATOM      8  F   UNL     1       4.759   1.800   0.940  1.00  0.00    -0.203 F 
ENDROOT
BRANCH   1   9
ATOM      9  C   UNL     1       2.903  -0.202   0.255  1.00  0.00     0.216 A 
ATOM     10  C   UNL     1       3.625  -2.414  -1.294  1.00  0.00     0.038 A 
ATOM     11  C   UNL     1       3.775  -1.117  -1.803  1.00  0.00     0.021 A 
ATOM     12  C   UNL     1       3.125  -2.561   0.014  1.00  0.00     0.314 A 
ATOM     13  C   UNL     1       3.413  -0.011  -1.035  1.00  0.00     0.081 A 
ATOM     14  N   UNL     1       2.778  -1.468   0.748  1.00  0.00    -0.210 N 
ATOM     15  H   UNL     1       2.419  -1.613   1.719  1.00  0.00     0.453 HD
BRANCH  10  16
ATOM     16  C   UNL     1       4.027  -3.564  -2.140  1.00  0.00     0.006 C 
ATOM     17  C   UNL     1       3.665  -4.827  -1.911  1.00  0.00     0.009 C 
ENDBRANCH  10  16
ENDBRANCH   1   9
BRANCH   2  18
ATOM     18  N   UNL     1       0.189   0.136   1.230  1.00  0.00    -0.393 N 
ATOM     19  H   UNL     1      -0.691   0.020   1.774  1.00  0.00     0.156 HD
ATOM     20  H   UNL     1       0.311  -0.498   0.411  1.00  0.00     0.156 HD
ENDBRANCH   2  18
BRANCH   3  21
ATOM     21  N   UNL     1      -0.462   2.425   2.930  1.00  0.00    -0.280 N 
ATOM     22  H   UNL     1      -0.452   3.122   3.711  1.00  0.00     0.358 HD
ATOM     23  H   UNL     1      -0.836   1.542   3.346  1.00  0.00     0.358 HD
BRANCH  21  24
ATOM     24  C   UNL     1      -1.324   2.936   1.889  1.00  0.00     0.134 A 
ATOM     25  C   UNL     1      -1.063   4.186   1.294  1.00  0.00     0.071 A 
ATOM     26  C   UNL     1      -2.468   2.220   1.489  1.00  0.00     0.071 A 
ATOM     27  C   UNL     1      -1.905   4.687   0.298  1.00  0.00     0.045 A 
ATOM     28  C   UNL     1      -3.308   2.725   0.492  1.00  0.00     0.045 A 
ATOM     29  C   UNL     1      -3.025   3.956  -0.106  1.00  0.00     0.123 A 
ATOM     30  F   UNL     1      -3.842   4.444  -1.072  1.00  0.00    -0.207 F 
ENDBRANCH  21  24
ENDBRANCH   3  21
TORSDOF 5


