REMARK SMILES CC(=O)c1ccc(C(=O)N[C@@H]2C=CCC2)c(F)c1[O-]
REMARK SMILES IDX 4 1 5 2 6 3 7 4 16 5 17 6 18 7 19 8 2 9 1 10 3 11 8 12 10 13
REMARK SMILES IDX 9 14 11 16 12 17 15 18 13 19 14 20
REMARK H PARENT 10 15
ROOT
ATOM      1  C   UNL     1       3.193   1.150   0.081  1.00  0.00     0.012 A 
ATOM      2  C   UNL     1       2.388   1.568   1.157  1.00  0.00     0.012 A 
ATOM      3  C   UNL     1       1.364   0.753   1.643  1.00  0.00     0.017 A 
ATOM      4  C   UNL     1       1.108  -0.497   1.063  1.00  0.00     0.074 A 
ATOM      5  C   UNL     1       1.918  -0.934  -0.001  1.00  0.00     0.128 A 
ATOM      6  F   UNL     1       1.750  -2.170  -0.538  1.00  0.00    -0.207 F 
ATOM      7  C   UNL     1       2.949  -0.120  -0.489  1.00  0.00    -0.060 A 
ATOM      8  O   UNL     1       3.736  -0.599  -1.533  1.00  0.00    -0.870 OA
ENDROOT
BRANCH   1   9
ATOM      9  C   UNL     1       4.277   2.035  -0.436  1.00  0.00     0.159 C 
ATOM     10  C   UNL     1       4.762   3.224   0.339  1.00  0.00     0.093 C 
ATOM     11  O   UNL     1       4.793   1.811  -1.565  1.00  0.00    -0.295 OA
ENDBRANCH   1   9
BRANCH   4  12
ATOM     12  C   UNL     1       0.010  -1.338   1.595  1.00  0.00     0.254 C 
ATOM     13  N   UNL     1      -0.753  -2.191   0.727  1.00  0.00    -0.346 N 
ATOM     14  O   UNL     1      -0.276  -1.278   2.822  1.00  0.00    -0.269 OA
ATOM     15  H   UNL     1      -0.699  -2.033  -0.305  1.00  0.00     0.164 HD
BRANCH  13  16
ATOM     16  C   UNL     1      -1.782  -3.095   1.244  1.00  0.00     0.105 C 
ATOM     17  C   UNL     1      -2.047  -4.190   0.270  1.00  0.00    -0.007 C 
ATOM     18  C   UNL     1      -3.133  -2.375   1.383  1.00  0.00     0.033 C 
ATOM     19  C   UNL     1      -3.292  -4.181  -0.171  1.00  0.00    -0.029 C 
ATOM     20  C   UNL     1      -4.094  -3.079   0.420  1.00  0.00     0.029 C 
ENDBRANCH  13  16
ENDBRANCH   4  12
TORSDOF 3


