REMARK SMILES CC(=O)c1ccc(-c2cccc([C@@H]3CO3)c2)cc1
REMARK SMILES IDX 4 1 5 2 6 3 7 4 17 5 18 6 2 7 1 8 3 9 8 10 9 11 16 12 10 13
REMARK SMILES IDX 12 14 11 15 13 16 14 17 15 18
REMARK H PARENT
ROOT
ATOM      1  C   UNL     1      -3.147   1.298   0.500  1.00  0.00     0.017 A 
ATOM      2  C   UNL     1      -2.389   0.129   0.704  1.00  0.00     0.012 A 
ATOM      3  C   UNL     1      -1.085   0.030   0.212  1.00  0.00     0.009 A 
ATOM      4  C   UNL     1      -0.504   1.096  -0.495  1.00  0.00    -0.018 A 
ATOM      5  C   UNL     1      -1.257   2.264  -0.700  1.00  0.00     0.009 A 
ATOM      6  C   UNL     1      -2.562   2.364  -0.209  1.00  0.00     0.012 A 
ENDROOT
BRANCH   1   7
ATOM      7  C   UNL     1      -4.537   1.421   1.016  1.00  0.00     0.159 C 
ATOM      8  C   UNL     1      -5.202   0.310   1.773  1.00  0.00     0.093 C 
ATOM      9  O   UNL     1      -5.186   2.483   0.818  1.00  0.00    -0.295 OA
ENDBRANCH   1   7
BRANCH   4  10
ATOM     10  C   UNL     1       0.883   0.990  -1.017  1.00  0.00    -0.018 A 
ATOM     11  C   UNL     1       1.762   2.085  -0.938  1.00  0.00     0.009 A 
ATOM     12  C   UNL     1       1.337  -0.208  -1.601  1.00  0.00     0.015 A 
ATOM     13  C   UNL     1       3.064   1.985  -1.435  1.00  0.00     0.001 A 
ATOM     14  C   UNL     1       2.650  -0.315  -2.083  1.00  0.00    -0.016 A 
ATOM     15  C   UNL     1       3.506   0.792  -2.011  1.00  0.00     0.006 A 
BRANCH  14  16
ATOM     16  C   UNL     1       3.110  -1.585  -2.736  1.00  0.00     0.174 C 
ATOM     17  C   UNL     1       3.167  -2.781  -1.864  1.00  0.00     0.198 C 
ATOM     18  O   UNL     1       4.323  -2.045  -2.186  1.00  0.00    -0.368 OA
ENDBRANCH  14  16
ENDBRANCH   4  10
TORSDOF 3


