REMARK SMILES C[C@H](Cn1cccc1C[N-]C(=O)c1ccc2cc[nH]c2c1N)OCCC#N
REMARK SMILES IDX 4 1 5 2 6 3 7 4 8 5 3 6 2 7 1 8 23 9 24 10 25 11 26 12 27 13
REMARK SMILES IDX 9 14 10 15 11 16 12 17 13 18 14 19 21 20 15 21 20 22 16 23
REMARK SMILES IDX 19 24 17 25 18 26 22 28
REMARK H PARENT 19 27 22 29 22 30
ROOT
ATOM      1  N   UNL     1      -0.354  -1.770   1.754  1.00  0.00    -0.350 N 
ATOM      2  C   UNL     1      -0.403  -3.053   2.167  1.00  0.00     0.086 A 
ATOM      3  C   UNL     1      -1.477  -3.695   1.584  1.00  0.00     0.020 A 
ATOM      4  C   UNL     1      -2.113  -2.764   0.786  1.00  0.00     0.021 A 
ATOM      5  C   UNL     1      -1.404  -1.585   0.921  1.00  0.00     0.000 A 
ENDROOT
BRANCH   1   6
ATOM      6  C   UNL     1       0.619  -0.773   2.208  1.00  0.00     0.153 C 
BRANCH   6   7
ATOM      7  C   UNL     1       0.242  -0.255   3.602  1.00  0.00     0.135 C 
ATOM      8  C   UNL     1       1.240   0.809   4.060  1.00  0.00     0.040 C 
BRANCH   7   9
ATOM      9  O   UNL     1      -1.052   0.322   3.548  1.00  0.00    -0.376 OA
BRANCH   9  10
ATOM     10  C   UNL     1      -1.883  -0.208   4.560  1.00  0.00     0.176 C 
BRANCH  10  11
ATOM     11  C   UNL     1      -3.263   0.442   4.486  1.00  0.00     0.148 C 
BRANCH  11  12
ATOM     12  C   UNL     1      -3.949   0.078   3.240  1.00  0.00     0.065 C 
ATOM     13  N   UNL     1      -4.492  -0.210   2.259  1.00  0.00    -0.198 NA
ENDBRANCH  11  12
ENDBRANCH  10  11
ENDBRANCH   9  10
ENDBRANCH   7   9
ENDBRANCH   6   7
ENDBRANCH   1   6
BRANCH   5  14
ATOM     14  C   UNL     1      -1.724  -0.309   0.204  1.00  0.00    -0.062 C 
BRANCH  14  15
ATOM     15  N   UNL     1      -0.746  -0.089  -0.850  1.00  0.00    -0.644 NA
BRANCH  15  16
ATOM     16  C   UNL     1      -0.750   1.074  -1.684  1.00  0.00     0.084 C 
ATOM     17  O   UNL     1      -1.637   1.956  -1.526  1.00  0.00    -0.315 OA
BRANCH  16  18
ATOM     18  C   UNL     1       0.323   1.261  -2.686  1.00  0.00     0.024 A 
ATOM     19  C   UNL     1       1.624   0.787  -2.372  1.00  0.00     0.013 A 
ATOM     20  C   UNL     1       0.100   1.935  -3.925  1.00  0.00     0.065 A 
ATOM     21  C   UNL     1       2.702   0.994  -3.245  1.00  0.00     0.011 A 
ATOM     22  C   UNL     1       1.210   2.133  -4.763  1.00  0.00     0.069 A 
ATOM     23  C   UNL     1       2.458   1.677  -4.428  1.00  0.00     0.002 A 
ATOM     24  N   UNL     1       1.242   2.731  -5.970  1.00  0.00    -0.359 N 
ATOM     25  C   UNL     1       3.315   2.004  -5.455  1.00  0.00     0.028 A 
ATOM     26  C   UNL     1       2.525   2.656  -6.392  1.00  0.00     0.083 A 
ATOM     27  H   UNL     1       0.452   3.165  -6.495  1.00  0.00     0.166 HD
BRANCH  20  28
ATOM     28  N   UNL     1      -1.210   2.347  -4.342  1.00  0.00    -0.396 N 
ATOM     29  H   UNL     1      -2.071   1.943  -3.916  1.00  0.00     0.156 HD
ATOM     30  H   UNL     1      -1.344   2.989  -5.152  1.00  0.00     0.156 HD
ENDBRANCH  20  28
ENDBRANCH  16  18
ENDBRANCH  15  16
ENDBRANCH  14  15
ENDBRANCH   5  14
TORSDOF 11


