REMARK SMILES [NH-]C(=O)c1ccc(-c2cc(F)cc(F)c2OC(O)=C2CSC2)cc1
REMARK SMILES IDX 8 1 9 2 10 3 11 4 12 5 13 6 14 7 15 8 7 9 4 10 5 11 24 12
REMARK SMILES IDX 6 13 23 14 2 15 3 16 1 17 16 19 17 20 18 21 19 23 20 24
REMARK SMILES IDX 22 25 21 26
REMARK H PARENT 1 18 18 22
ROOT
ATOM      1  C   UNL     1      -0.934   0.929  -0.347  1.00  0.00     0.031 A 
ATOM      2  C   UNL     1      -2.175   1.564  -0.165  1.00  0.00     0.052 A 
ATOM      3  C   UNL     1      -2.263   2.958  -0.155  1.00  0.00     0.127 A 
ATOM      4  F   UNL     1      -3.466   3.559   0.016  1.00  0.00    -0.207 F 
ATOM      5  C   UNL     1      -1.113   3.732  -0.311  1.00  0.00     0.082 A 
ATOM      6  C   UNL     1       0.129   3.118  -0.485  1.00  0.00     0.169 A 
ATOM      7  F   UNL     1       1.240   3.894  -0.557  1.00  0.00    -0.203 F 
ATOM      8  C   UNL     1       0.228   1.713  -0.516  1.00  0.00     0.174 A 
ENDROOT
BRANCH   1   9
ATOM      9  C   UNL     1      -0.867  -0.552  -0.365  1.00  0.00    -0.014 A 
ATOM     10  C   UNL     1      -0.741  -3.375  -0.392  1.00  0.00    -0.001 A 
ATOM     11  C   UNL     1      -1.417  -2.699   0.639  1.00  0.00     0.011 A 
ATOM     12  C   UNL     1      -0.148  -2.622  -1.421  1.00  0.00     0.011 A 
ATOM     13  C   UNL     1      -1.478  -1.302   0.652  1.00  0.00     0.009 A 
ATOM     14  C   UNL     1      -0.210  -1.226  -1.407  1.00  0.00     0.009 A 
BRANCH  10  15
ATOM     15  C   UNL     1      -0.667  -4.857  -0.424  1.00  0.00     0.080 C 
ATOM     16  O   UNL     1      -0.442  -5.448  -1.514  1.00  0.00    -0.315 OA
BRANCH  15  17
ATOM     17  N   UNL     1      -0.826  -5.642   0.758  1.00  0.00    -0.664 NA
ATOM     18  H   UNL     1      -0.920  -5.227   1.710  1.00  0.00    -0.121 HD
ENDBRANCH  15  17
ENDBRANCH  10  15
ENDBRANCH   1   9
BRANCH   8  19
ATOM     19  O   UNL     1       1.471   1.079  -0.651  1.00  0.00    -0.423 OA
BRANCH  19  20
ATOM     20  C   UNL     1       2.443   1.444  -1.587  1.00  0.00     0.283 C 
BRANCH  20  21
ATOM     21  O   UNL     1       2.143   2.344  -2.610  1.00  0.00    -0.481 OA
ATOM     22  H   UNL     1       2.831   2.614  -3.305  1.00  0.00     0.297 HD
ENDBRANCH  20  21
BRANCH  20  23
ATOM     23  C   UNL     1       3.649   0.891  -1.509  1.00  0.00     0.030 C 
ATOM     24  C   UNL     1       4.325  -0.107  -0.601  1.00  0.00     0.109 C 
ATOM     25  C   UNL     1       4.943   0.971  -2.283  1.00  0.00     0.109 C 
ATOM     26  S   UNL     1       5.953  -0.184  -1.351  1.00  0.00    -0.152 SA
ENDBRANCH  20  23
ENDBRANCH  19  20
ENDBRANCH   8  19
TORSDOF 7


