REMARK SMILES Cc1ccc(-c2ccc(O)cc2)c2c[nH][nH+]c12
REMARK SMILES IDX 6 1 7 2 8 3 9 4 11 5 12 6 5 7 2 8 3 9 17 10 4 11 16 12 13 13
REMARK SMILES IDX 15 14 14 15 1 16 10 19
REMARK H PARENT 16 17 15 18 10 20
ROOT
ATOM      1  C   UNL     1      -0.356  -1.146   0.887  1.00  0.00    -0.017 A 
ATOM      2  C   UNL     1       0.899  -1.725   0.629  1.00  0.00     0.012 A 
ATOM      3  C   UNL     1       1.338  -2.823   1.375  1.00  0.00     0.047 A 
ATOM      4  C   UNL     1       0.525  -3.360   2.382  1.00  0.00     0.115 A 
ATOM      5  C   UNL     1      -0.728  -2.795   2.637  1.00  0.00     0.047 A 
ATOM      6  C   UNL     1      -1.169  -1.696   1.893  1.00  0.00     0.012 A 
ENDROOT
BRANCH   1   7
ATOM      7  C   UNL     1      -0.830   0.012   0.094  1.00  0.00    -0.003 A 
ATOM      8  C   UNL     1      -1.748   2.238  -1.450  1.00  0.00     0.024 A 
ATOM      9  C   UNL     1      -2.580   1.119  -1.232  1.00  0.00     0.011 A 
ATOM     10  C   UNL     1      -0.474   2.209  -0.875  1.00  0.00     0.239 A 
ATOM     11  C   UNL     1      -2.127   0.021  -0.468  1.00  0.00     0.010 A 
ATOM     12  N   UNL     1       0.476   3.160  -0.903  1.00  0.00    -0.126 N 
ATOM     13  C   UNL     1      -0.032   1.141  -0.135  1.00  0.00     0.078 A 
ATOM     14  N   UNL     1       1.508   2.725  -0.192  1.00  0.00    -0.174 N 
ATOM     15  C   UNL     1       1.233   1.495   0.298  1.00  0.00     0.163 A 
ATOM     16  C   UNL     1      -2.220   3.420  -2.244  1.00  0.00     0.052 C 
ATOM     17  H   UNL     1       0.430   4.090  -1.377  1.00  0.00     0.488 HD
ATOM     18  H   UNL     1       2.386   3.267  -0.033  1.00  0.00     0.238 HD
ENDBRANCH   1   7
BRANCH   4  19
ATOM     19  O   UNL     1       0.952  -4.454   3.131  1.00  0.00    -0.508 OA
ATOM     20  H   UNL     1       1.854  -4.886   2.971  1.00  0.00     0.293 HD
ENDBRANCH   4  19
TORSDOF 2


