REMARK SMILES C=C[C@H]1CN[C@@H](c2c[nH+]c3ocnc3c2)N(/C(S)=N\c2cccc(SC(F)(F)F)c2)C1
REMARK SMILES IDX 19 1 17 2 18 3 16 5 31 6 6 7 3 8 5 9 4 10 7 12 15 13 8 14
REMARK SMILES IDX 14 15 9 16 13 17 10 18 12 19 11 20 2 22 1 23 20 24 21 25
REMARK SMILES IDX 30 26 22 27 24 28 23 29 25 30 26 31 27 32 28 33 29 34
REMARK H PARENT 18 4 5 11 9 21
ROOT
ATOM      1  N   UNL     1       0.136   1.505   2.205  1.00  0.00    -0.225 NA
ENDROOT
BRANCH   1   2
ATOM      2  C   UNL     1       1.052   1.305   1.303  1.00  0.00     0.162 C 
BRANCH   2   3
ATOM      3  S   UNL     1       2.719   0.945   1.845  1.00  0.00    -0.106 SA
ATOM      4  H   UNL     1       2.457  -0.436   1.915  1.00  0.00     0.111 HD
ENDBRANCH   2   3
BRANCH   2   5
ATOM      5  N   UNL     1       0.745   1.269  -0.104  1.00  0.00    -0.331 N 
ATOM      6  C   UNL     1       1.574   2.043  -1.033  1.00  0.00     0.129 C 
ATOM      7  C   UNL     1      -0.159   0.231  -0.642  1.00  0.00     0.189 C 
ATOM      8  C   UNL     1       0.716   2.610  -2.186  1.00  0.00     0.045 C 
ATOM      9  N   UNL     1      -0.253   0.326  -2.110  1.00  0.00    -0.293 NA
ATOM     10  C   UNL     1      -0.505   1.714  -2.510  1.00  0.00     0.092 C 
ATOM     11  H   UNL     1      -1.069  -0.251  -2.423  1.00  0.00     0.125 HD
BRANCH   7  12
ATOM     12  C   UNL     1       0.343  -1.141  -0.256  1.00  0.00     0.055 A 
ATOM     13  C   UNL     1      -0.307  -1.873   0.764  1.00  0.00     0.053 A 
ATOM     14  C   UNL     1       1.515  -1.681  -0.856  1.00  0.00     0.317 A 
ATOM     15  C   UNL     1       0.235  -3.102   1.115  1.00  0.00     0.179 A 
ATOM     16  N   UNL     1       1.999  -2.900  -0.467  1.00  0.00    -0.177 N 
ATOM     17  N   UNL     1      -0.191  -3.975   2.042  1.00  0.00    -0.209 NA
ATOM     18  C   UNL     1       1.347  -3.578   0.509  1.00  0.00     0.399 A 
ATOM     19  C   UNL     1       0.730  -4.973   1.936  1.00  0.00     0.316 A 
ATOM     20  O   UNL     1       1.655  -4.739   1.017  1.00  0.00    -0.391 OA
ATOM     21  H   UNL     1       2.859  -3.297  -0.907  1.00  0.00     0.457 HD
ENDBRANCH   7  12
BRANCH   8  22
ATOM     22  C   UNL     1       1.563   2.876  -3.412  1.00  0.00    -0.028 C 
ATOM     23  C   UNL     1       2.135   1.894  -4.120  1.00  0.00     0.004 C 
ENDBRANCH   8  22
ENDBRANCH   2   5
ENDBRANCH   1   2
BRANCH   1  24
ATOM     24  C   UNL     1      -1.226   1.881   1.958  1.00  0.00     0.067 A 
ATOM     25  C   UNL     1      -1.551   2.888   1.032  1.00  0.00     0.028 A 
ATOM     26  C   UNL     1      -2.246   1.262   2.689  1.00  0.00     0.043 A 
ATOM     27  C   UNL     1      -2.887   3.232   0.809  1.00  0.00     0.003 A 
ATOM     28  C   UNL     1      -3.586   1.597   2.456  1.00  0.00     0.018 A 
ATOM     29  C   UNL     1      -3.904   2.586   1.517  1.00  0.00     0.015 A 
BRANCH  28  30
ATOM     30  S   UNL     1      -4.891   0.773   3.373  1.00  0.00    -0.015 SA
BRANCH  30  31
ATOM     31  C   UNL     1      -5.096  -0.584   2.172  1.00  0.00     0.446 C 
ATOM     32  F   UNL     1      -5.453  -0.076   0.936  1.00  0.00    -0.160 F 
ATOM     33  F   UNL     1      -3.919  -1.300   2.057  1.00  0.00    -0.160 F 
ATOM     34  F   UNL     1      -6.095  -1.429   2.615  1.00  0.00    -0.160 F 
ENDBRANCH  30  31
ENDBRANCH  28  30
ENDBRANCH   1  24
TORSDOF 8


