REMARK SMILES [H]/N=c1\c([NH2+]c2ccc3c(c2)n[nH+]n3C)cccn1/C(S)=N\c1ccccc1
REMARK SMILES IDX 3 1 4 2 16 3 17 4 18 5 19 6 2 7 1 8 5 9 6 12 7 13 11 14 8 15
REMARK SMILES IDX 10 16 9 17 12 18 14 19 13 20 15 21 20 23 22 24 23 25 24 26
REMARK SMILES IDX 28 27 25 28 27 29 26 30 21 31
REMARK H PARENT 5 10 5 11 13 22 21 32
ROOT
ATOM      1  C   UNL     1       1.023   1.632  -1.367  1.00  0.00     0.194 A 
ATOM      2  C   UNL     1       0.468   2.701  -0.608  1.00  0.00     0.177 A 
ATOM      3  C   UNL     1       1.262   3.291   0.389  1.00  0.00     0.074 A 
ATOM      4  C   UNL     1       2.548   2.829   0.634  1.00  0.00     0.025 A 
ATOM      5  C   UNL     1       3.037   1.748  -0.090  1.00  0.00     0.096 A 
ATOM      6  N   UNL     1       2.271   1.147  -1.047  1.00  0.00    -0.276 N 
ENDROOT
BRANCH   1   7
ATOM      7  N   UNL     1       0.378   1.108  -2.369  1.00  0.00    -0.279 NA
ATOM      8  H   UNL     1      -0.557   1.407  -2.711  1.00  0.00     0.190 HD
ENDBRANCH   1   7
BRANCH   2   9
ATOM      9  N   UNL     1      -0.907   3.132  -0.759  1.00  0.00    -0.278 N 
ATOM     10  H   UNL     1      -1.141   3.268  -1.768  1.00  0.00     0.358 HD
ATOM     11  H   UNL     1      -1.050   4.067  -0.309  1.00  0.00     0.358 HD
BRANCH   9  12
ATOM     12  C   UNL     1      -1.796   2.188  -0.122  1.00  0.00     0.137 A 
ATOM     13  C   UNL     1      -1.776   2.031   1.295  1.00  0.00     0.071 A 
ATOM     14  C   UNL     1      -2.691   1.406  -0.896  1.00  0.00     0.105 A 
ATOM     15  C   UNL     1      -2.610   1.093   1.932  1.00  0.00     0.041 A 
ATOM     16  C   UNL     1      -3.496   0.490  -0.228  1.00  0.00     0.168 A 
ATOM     17  C   UNL     1      -3.457   0.342   1.124  1.00  0.00     0.133 A 
ATOM     18  N   UNL     1      -4.378  -0.387  -0.743  1.00  0.00     0.025 NA
ATOM     19  N   UNL     1      -4.327  -0.626   1.447  1.00  0.00    -0.132 N 
ATOM     20  N   UNL     1      -4.861  -1.051   0.306  1.00  0.00    -0.016 N 
ATOM     21  C   UNL     1      -4.587  -1.195   2.764  1.00  0.00     0.226 C 
ATOM     22  H   UNL     1      -5.563  -1.820   0.232  1.00  0.00     0.526 HD
ENDBRANCH   9  12
ENDBRANCH   2   9
BRANCH   6  23
ATOM     23  C   UNL     1       2.817  -0.007  -1.719  1.00  0.00     0.171 C 
BRANCH  23  24
ATOM     24  N   UNL     1       2.220  -1.167  -1.699  1.00  0.00    -0.225 NA
BRANCH  24  25
ATOM     25  C   UNL     1       1.052  -1.520  -0.939  1.00  0.00     0.066 A 
ATOM     26  C   UNL     1       0.886  -1.112   0.399  1.00  0.00     0.028 A 
ATOM     27  C   UNL     1       0.082  -2.339  -1.530  1.00  0.00     0.028 A 
ATOM     28  C   UNL     1      -0.259  -1.483   1.110  1.00  0.00     0.002 A 
ATOM     29  C   UNL     1      -1.064  -2.706  -0.817  1.00  0.00     0.002 A 
ATOM     30  C   UNL     1      -1.234  -2.277   0.501  1.00  0.00     0.000 A 
ENDBRANCH  24  25
ENDBRANCH  23  24
BRANCH  23  31
ATOM     31  S   UNL     1       4.319   0.165  -2.677  1.00  0.00    -0.105 SA
ATOM     32  H   UNL     1       3.600   0.521  -3.833  1.00  0.00     0.111 HD
ENDBRANCH  23  31
ENDBRANCH   6  23
TORSDOF 7


