REMARK SMILES Cc1ccc([NH2+]c2ccc([C@@H]3O[C@H]3c3ccccc3)c(N)c2[O-])cc1F
REMARK SMILES IDX 7 1 8 2 9 3 10 4 20 5 22 6 23 7 6 8 5 11 2 12 3 13 25 14
REMARK SMILES IDX 4 15 24 16 1 17 26 18 21 19 11 22 12 23 13 24 14 25 15 26
REMARK SMILES IDX 19 27 16 28 18 29 17 30
REMARK H PARENT 6 9 6 10 21 20 21 21
ROOT
ATOM      1  C   UNL     1       0.948  -0.500  -2.038  1.00  0.00     0.128 A 
ATOM      2  C   UNL     1      -0.292  -0.042  -1.564  1.00  0.00     0.068 A 
ATOM      3  C   UNL     1      -0.779  -0.463  -0.329  1.00  0.00     0.015 A 
ATOM      4  C   UNL     1      -0.047  -1.361   0.461  1.00  0.00     0.007 A 
ATOM      5  C   UNL     1       1.221  -1.804   0.017  1.00  0.00     0.035 A 
ATOM      6  C   UNL     1       1.706  -1.379  -1.236  1.00  0.00    -0.021 A 
ATOM      7  O   UNL     1       2.944  -1.828  -1.684  1.00  0.00    -0.867 OA
ENDROOT
BRANCH   1   8
ATOM      8  N   UNL     1       1.450  -0.030  -3.308  1.00  0.00    -0.282 N 
ATOM      9  H   UNL     1       2.042  -0.763  -3.763  1.00  0.00     0.358 HD
ATOM     10  H   UNL     1       0.653   0.151  -3.963  1.00  0.00     0.358 HD
BRANCH   8  11
ATOM     11  C   UNL     1       2.207   1.183  -3.117  1.00  0.00     0.137 A 
ATOM     12  C   UNL     1       3.677   3.552  -2.694  1.00  0.00    -0.015 A 
ATOM     13  C   UNL     1       4.329   2.310  -2.729  1.00  0.00     0.012 A 
ATOM     14  C   UNL     1       2.283   3.603  -2.852  1.00  0.00     0.132 A 
ATOM     15  C   UNL     1       3.601   1.136  -2.942  1.00  0.00     0.068 A 
ATOM     16  C   UNL     1       1.555   2.428  -3.066  1.00  0.00     0.107 A 
ATOM     17  C   UNL     1       4.456   4.809  -2.433  1.00  0.00     0.047 C 
ATOM     18  F   UNL     1       1.626   4.790  -2.795  1.00  0.00    -0.206 F 
ENDBRANCH   8  11
ENDBRANCH   1   8
BRANCH   5  19
ATOM     19  N   UNL     1       2.029  -2.667   0.834  1.00  0.00    -0.399 N 
ATOM     20  H   UNL     1       1.753  -2.927   1.805  1.00  0.00     0.156 HD
ATOM     21  H   UNL     1       2.945  -3.033   0.492  1.00  0.00     0.156 HD
ENDBRANCH   5  19
BRANCH   4  22
ATOM     22  C   UNL     1      -0.609  -1.781   1.792  1.00  0.00     0.185 C 
ATOM     23  O   UNL     1      -0.823  -3.174   1.847  1.00  0.00    -0.359 OA
ATOM     24  C   UNL     1      -1.975  -2.369   1.773  1.00  0.00     0.183 C 
BRANCH  24  25
ATOM     25  C   UNL     1      -2.713  -2.335   3.077  1.00  0.00    -0.016 A 
ATOM     26  C   UNL     1      -3.079  -3.529   3.718  1.00  0.00     0.006 A 
ATOM     27  C   UNL     1      -3.096  -1.105   3.635  1.00  0.00     0.006 A 
ATOM     28  C   UNL     1      -3.794  -3.490   4.919  1.00  0.00     0.000 A 
ATOM     29  C   UNL     1      -3.812  -1.070   4.835  1.00  0.00     0.000 A 
ATOM     30  C   UNL     1      -4.159  -2.262   5.479  1.00  0.00     0.000 A 
ENDBRANCH  24  25
ENDBRANCH   4  22
TORSDOF 5


