REMARK SMILES C=Cc1cc(-c2ccc(C(C)=O)cc2)c(F)cc1[O-]
REMARK SMILES IDX 3 1 4 2 5 3 15 4 16 5 17 6 18 7 19 8 2 9 1 10 6 11 7 12
REMARK SMILES IDX 14 13 8 14 13 15 9 16 10 17 11 18 12 19
REMARK H PARENT
ROOT
ATOM      1  C   UNL     1      -2.813  -1.209   0.559  1.00  0.00    -0.033 A 
ATOM      2  C   UNL     1      -1.638  -0.746  -0.069  1.00  0.00     0.019 A 
ATOM      3  C   UNL     1      -0.686   0.006   0.643  1.00  0.00     0.018 A 
ATOM      4  C   UNL     1      -0.916   0.294   2.000  1.00  0.00     0.130 A 
ATOM      5  F   UNL     1      -0.041   1.053   2.708  1.00  0.00    -0.206 F 
ATOM      6  C   UNL     1      -2.069  -0.175   2.632  1.00  0.00     0.032 A 
ATOM      7  C   UNL     1      -3.011  -0.925   1.924  1.00  0.00    -0.099 A 
ATOM      8  O   UNL     1      -4.150  -1.373   2.585  1.00  0.00    -0.872 OA
ENDROOT
BRANCH   1   9
ATOM      9  C   UNL     1      -3.821  -2.019  -0.172  1.00  0.00    -0.001 C 
ATOM     10  C   UNL     1      -3.983  -1.984  -1.495  1.00  0.00     0.009 C 
ENDBRANCH   1   9
BRANCH   3  11
ATOM     11  C   UNL     1       0.542   0.480  -0.041  1.00  0.00    -0.015 A 
ATOM     12  C   UNL     1       0.461   1.093  -1.301  1.00  0.00     0.009 A 
ATOM     13  C   UNL     1       1.803   0.308   0.552  1.00  0.00     0.009 A 
ATOM     14  C   UNL     1       1.617   1.535  -1.951  1.00  0.00     0.012 A 
ATOM     15  C   UNL     1       2.960   0.749  -0.097  1.00  0.00     0.012 A 
ATOM     16  C   UNL     1       2.882   1.370  -1.358  1.00  0.00     0.017 A 
BRANCH  16  17
ATOM     17  C   UNL     1       4.103   1.846  -2.063  1.00  0.00     0.159 C 
ATOM     18  C   UNL     1       5.471   1.695  -1.469  1.00  0.00     0.093 C 
ATOM     19  O   UNL     1       3.998   2.394  -3.195  1.00  0.00    -0.295 OA
ENDBRANCH  16  17
ENDBRANCH   3  11
TORSDOF 3


