REMARK SMILES O=C(Nc1ccc(C[NH+]2CCCCC2)cc1)Sc1cccc(-c2ccc3c(c2)CC3)c1
REMARK SMILES IDX 4 1 5 2 6 3 7 4 15 5 16 6 3 7 2 8 1 9 17 11 18 12 19 13
REMARK SMILES IDX 31 14 20 15 22 16 21 17 23 18 24 19 28 20 25 21 27 22 26 23
REMARK SMILES IDX 29 24 30 25 8 26 9 27 10 28 14 29 11 30 13 31 12 32
REMARK H PARENT 3 10 9 33
ROOT
ATOM      1  C   UNL     1      -1.542   1.627  -1.386  1.00  0.00     0.041 A 
ATOM      2  C   UNL     1      -1.783   0.778  -2.480  1.00  0.00     0.026 A 
ATOM      3  C   UNL     1      -2.905  -0.054  -2.494  1.00  0.00     0.012 A 
ATOM      4  C   UNL     1      -3.808  -0.046  -1.420  1.00  0.00     0.006 A 
ATOM      5  C   UNL     1      -3.576   0.812  -0.333  1.00  0.00     0.012 A 
ATOM      6  C   UNL     1      -2.458   1.651  -0.323  1.00  0.00     0.026 A 
ENDROOT
BRANCH   1   7
ATOM      7  N   UNL     1      -0.401   2.502  -1.359  1.00  0.00    -0.317 N 
ATOM      8  C   UNL     1       0.890   2.136  -1.865  1.00  0.00     0.288 C 
ATOM      9  O   UNL     1       1.157   0.936  -2.146  1.00  0.00    -0.261 OA
ATOM     10  H   UNL     1      -0.480   3.405  -0.841  1.00  0.00     0.170 HD
BRANCH   8  11
ATOM     11  S   UNL     1       2.163   3.381  -2.050  1.00  0.00    -0.028 SA
BRANCH  11  12
ATOM     12  C   UNL     1       2.699   3.219  -0.347  1.00  0.00     0.018 A 
ATOM     13  C   UNL     1       2.198   4.093   0.625  1.00  0.00     0.015 A 
ATOM     14  C   UNL     1       3.617   2.224   0.011  1.00  0.00     0.024 A 
ATOM     15  C   UNL     1       2.612   3.973   1.952  1.00  0.00     0.002 A 
ATOM     16  C   UNL     1       4.032   2.089   1.349  1.00  0.00    -0.017 A 
ATOM     17  C   UNL     1       3.524   2.976   2.314  1.00  0.00     0.009 A 
BRANCH  16  18
ATOM     18  C   UNL     1       4.976   1.016   1.740  1.00  0.00    -0.018 A 
ATOM     19  C   UNL     1       6.054   1.306   2.651  1.00  0.00     0.009 A 
ATOM     20  C   UNL     1       4.797  -0.300   1.227  1.00  0.00     0.012 A 
ATOM     21  C   UNL     1       6.968   0.312   3.076  1.00  0.00     0.004 A 
ATOM     22  C   UNL     1       5.701  -1.244   1.663  1.00  0.00    -0.044 A 
ATOM     23  C   UNL     1       6.755  -0.948   2.562  1.00  0.00    -0.044 A 
ATOM     24  C   UNL     1       6.123  -2.671   1.613  1.00  0.00     0.040 C 
ATOM     25  C   UNL     1       7.207  -2.366   2.529  1.00  0.00     0.040 C 
ENDBRANCH  16  18
ENDBRANCH  11  12
ENDBRANCH   8  11
ENDBRANCH   1   7
BRANCH   4  26
ATOM     26  C   UNL     1      -5.010  -0.964  -1.432  1.00  0.00     0.299 C 
BRANCH  26  27
ATOM     27  N   UNL     1      -4.633  -2.382  -1.218  1.00  0.00    -0.331 N 
ATOM     28  C   UNL     1      -5.812  -3.246  -1.457  1.00  0.00     0.262 C 
ATOM     29  C   UNL     1      -4.104  -2.591   0.152  1.00  0.00     0.262 C 
ATOM     30  C   UNL     1      -5.466  -4.732  -1.279  1.00  0.00     0.062 C 
ATOM     31  C   UNL     1      -3.702  -4.055   0.376  1.00  0.00     0.062 C 
ATOM     32  C   UNL     1      -4.890  -4.985   0.115  1.00  0.00     0.012 C 
ATOM     33  H   UNL     1      -3.892  -2.639  -1.914  1.00  0.00     0.348 HD
ENDBRANCH  26  27
ENDBRANCH   4  26
TORSDOF 6


