REMARK SMILES C=C1[C@@H](F)C[C@H](Nc2cccc(N)c2[O-])[C@H]2CC(c3ncncc3F)=N[C@@H]12
REMARK SMILES IDX 7 1 6 3 2 4 3 5 27 6 5 7 26 8 16 9 18 10 17 11 1 12 4 13
REMARK SMILES IDX 19 14 20 15 24 16 21 17 23 18 22 19 25 20 8 21 9 22 14 23
REMARK SMILES IDX 10 24 12 25 11 26 15 27 13 28
REMARK H PARENT 7 2 13 29 13 30
ROOT
ATOM      1  N   UNL     1      -1.004  -2.144   1.579  1.00  0.00    -0.382 N 
ATOM      2  H   UNL     1      -1.655  -2.317   2.380  1.00  0.00     0.160 HD
ENDROOT
BRANCH   1   3
ATOM      3  C   UNL     1      -1.592  -1.752   0.293  1.00  0.00     0.088 C 
ATOM      4  C   UNL     1      -3.497  -1.237  -1.824  1.00  0.00    -0.019 C 
ATOM      5  C   UNL     1      -2.894  -2.618  -1.679  1.00  0.00     0.196 C 
ATOM      6  C   UNL     1      -3.298  -0.140  -0.789  1.00  0.00     0.139 C 
ATOM      7  C   UNL     1      -2.420  -2.913  -0.257  1.00  0.00     0.067 C 
ATOM      8  N   UNL     1      -2.581   0.983  -1.369  1.00  0.00    -0.279 NA
ATOM      9  C   UNL     1      -2.494  -0.512   0.481  1.00  0.00     0.046 C 
ATOM     10  C   UNL     1      -1.719   1.473  -0.546  1.00  0.00     0.065 C 
ATOM     11  C   UNL     1      -1.656   0.749   0.752  1.00  0.00     0.066 C 
ATOM     12  C   UNL     1      -4.220  -0.965  -2.922  1.00  0.00     0.013 C 
ATOM     13  F   UNL     1      -1.831  -2.742  -2.558  1.00  0.00    -0.243 F 
BRANCH  10  14
ATOM     14  C   UNL     1      -0.871   2.641  -0.870  1.00  0.00     0.123 A 
ATOM     15  N   UNL     1       0.000   3.102   0.069  1.00  0.00    -0.232 NA
ATOM     16  C   UNL     1      -0.935   3.289  -2.116  1.00  0.00     0.168 A 
ATOM     17  C   UNL     1       0.804   4.169  -0.173  1.00  0.00     0.222 A 
ATOM     18  C   UNL     1      -0.100   4.383  -2.343  1.00  0.00     0.154 A 
ATOM     19  N   UNL     1       0.751   4.803  -1.373  1.00  0.00    -0.242 NA
ATOM     20  F   UNL     1      -1.781   2.879  -3.095  1.00  0.00    -0.203 F 
ENDBRANCH  10  14
ENDBRANCH   1   3
BRANCH   1  21
ATOM     21  C   UNL     1       0.395  -2.004   1.869  1.00  0.00     0.028 A 
ATOM     22  C   UNL     1       0.784  -1.374   3.059  1.00  0.00     0.025 A 
ATOM     23  C   UNL     1       1.381  -2.515   1.000  1.00  0.00    -0.061 A 
ATOM     24  C   UNL     1       2.137  -1.211   3.362  1.00  0.00     0.004 A 
ATOM     25  C   UNL     1       2.745  -2.345   1.305  1.00  0.00     0.025 A 
ATOM     26  C   UNL     1       3.114  -1.688   2.487  1.00  0.00     0.025 A 
ATOM     27  O   UNL     1       1.012  -3.214  -0.145  1.00  0.00    -0.870 OA
BRANCH  25  28
ATOM     28  N   UNL     1       3.759  -2.845   0.426  1.00  0.00    -0.399 N 
ATOM     29  H   UNL     1       3.515  -3.337  -0.462  1.00  0.00     0.156 HD
ATOM     30  H   UNL     1       4.771  -2.724   0.657  1.00  0.00     0.156 HD
ENDBRANCH  25  28
ENDBRANCH   1  21
TORSDOF 4


