REMARK SMILES Nc1cc(F)c[n-]/c1=N\c1ccc2[nH+]c([NH2+]c3cc4cccc(F)c4[nH]3)cn2c1
REMARK SMILES IDX 10 1 11 2 12 3 13 4 28 5 29 6 27 7 15 8 14 9 9 11 8 12 6 13
REMARK SMILES IDX 7 14 4 15 3 16 2 17 5 18 1 19 16 22 17 25 18 26 26 27 19 28
REMARK SMILES IDX 25 29 20 30 23 31 21 32 22 33 24 35
REMARK H PARENT 14 10 1 20 1 21 16 23 16 24 26 34
ROOT
ATOM      1  C   UNL     1       1.140  -1.780   1.274  1.00  0.00    -0.001 A 
ATOM      2  C   UNL     1       2.006  -1.740   0.151  1.00  0.00     0.016 A 
ATOM      3  C   UNL     1       2.230  -0.535  -0.534  1.00  0.00     0.100 A 
ATOM      4  C   UNL     1       1.595   0.608  -0.055  1.00  0.00     0.288 A 
ATOM      5  N   UNL     1       0.801   0.556   1.028  1.00  0.00    -0.196 N 
ATOM      6  C   UNL     1       0.552  -0.584   1.720  1.00  0.00     0.210 A 
ATOM      7  C   UNL     1       0.339   1.802   1.228  1.00  0.00     0.322 A 
ATOM      8  C   UNL     1       0.895   2.596   0.233  1.00  0.00     0.333 A 
ATOM      9  N   UNL     1       1.676   1.846  -0.579  1.00  0.00    -0.191 N 
ATOM     10  H   UNL     1       2.204   2.154  -1.426  1.00  0.00     0.318 HD
ENDROOT
BRANCH   1  11
ATOM     11  N   UNL     1       0.909  -2.986   2.021  1.00  0.00    -0.431 NA
BRANCH  11  12
ATOM     12  C   UNL     1       0.776  -4.191   1.541  1.00  0.00    -0.035 A 
ATOM     13  C   UNL     1       0.592  -5.647  -0.340  1.00  0.00     0.018 A 
ATOM     14  N   UNL     1       0.757  -4.408   0.194  1.00  0.00    -0.438 NA
ATOM     15  C   UNL     1       0.426  -6.749   0.498  1.00  0.00     0.121 A 
ATOM     16  C   UNL     1       0.427  -6.563   1.880  1.00  0.00     0.064 A 
ATOM     17  C   UNL     1       0.599  -5.280   2.418  1.00  0.00     0.033 A 
ATOM     18  F   UNL     1       0.260  -7.989  -0.027  1.00  0.00    -0.207 F 
BRANCH  17  19
ATOM     19  N   UNL     1       0.595  -5.101   3.841  1.00  0.00    -0.399 N 
ATOM     20  H   UNL     1       0.454  -5.917   4.479  1.00  0.00     0.156 HD
ATOM     21  H   UNL     1       0.738  -4.162   4.274  1.00  0.00     0.156 HD
ENDBRANCH  17  19
ENDBRANCH  11  12
ENDBRANCH   1  11
BRANCH   8  22
ATOM     22  N   UNL     1       0.601   3.980   0.008  1.00  0.00    -0.229 N 
ATOM     23  H   UNL     1       1.419   4.442  -0.453  1.00  0.00     0.363 HD
ATOM     24  H   UNL     1       0.415   4.457   0.920  1.00  0.00     0.363 HD
BRANCH  22  25
ATOM     25  C   UNL     1      -0.549   4.080  -0.843  1.00  0.00     0.211 A 
ATOM     26  C   UNL     1      -1.867   4.151  -0.395  1.00  0.00     0.099 A 
ATOM     27  N   UNL     1      -0.485   4.014  -2.194  1.00  0.00    -0.307 N 
ATOM     28  C   UNL     1      -2.624   4.143  -1.546  1.00  0.00     0.009 A 
ATOM     29  C   UNL     1      -1.762   4.058  -2.611  1.00  0.00     0.086 A 
ATOM     30  C   UNL     1      -4.006   4.185  -1.720  1.00  0.00     0.011 A 
ATOM     31  C   UNL     1      -2.228   4.008  -3.925  1.00  0.00     0.147 A 
ATOM     32  C   UNL     1      -4.504   4.141  -3.035  1.00  0.00     0.004 A 
ATOM     33  C   UNL     1      -3.619   4.052  -4.133  1.00  0.00     0.041 A 
ATOM     34  H   UNL     1       0.373   3.927  -2.783  1.00  0.00     0.172 HD
ATOM     35  F   UNL     1      -1.370   3.914  -4.971  1.00  0.00    -0.205 F 
ENDBRANCH  22  25
ENDBRANCH   8  22
TORSDOF 5


