REMARK SMILES O/C(=N\Cc1ccc[nH]1)c1ccc2cc[nH]c2c1N=C=S
REMARK SMILES IDX 2 1 1 2 3 4 4 5 5 6 6 7 9 8 7 9 8 10 10 12 11 13 18 14 12 15
REMARK SMILES IDX 17 16 13 17 16 18 14 19 15 20 19 22 20 23 21 24
REMARK H PARENT 1 3 9 11 16 21
ROOT
ATOM      1  C   UNL     1       0.680   1.536   0.805  1.00  0.00     0.216 C 
ENDROOT
BRANCH   1   2
ATOM      2  O   UNL     1       1.063   1.499   2.151  1.00  0.00    -0.493 OA
ATOM      3  H   UNL     1       2.011   1.319   2.455  1.00  0.00     0.295 HD
ENDBRANCH   1   2
BRANCH   1   4
ATOM      4  N   UNL     1       1.546   1.323  -0.145  1.00  0.00    -0.245 NA
BRANCH   4   5
ATOM      5  C   UNL     1       2.962   1.040   0.053  1.00  0.00     0.199 C 
BRANCH   5   6
ATOM      6  C   UNL     1       3.616   0.853  -1.277  1.00  0.00     0.037 A 
ATOM      7  C   UNL     1       4.183   1.855  -2.041  1.00  0.00     0.025 A 
ATOM      8  N   UNL     1       3.648  -0.317  -1.942  1.00  0.00    -0.363 N 
ATOM      9  C   UNL     1       4.594   1.256  -3.215  1.00  0.00     0.020 A 
ATOM     10  C   UNL     1       4.249  -0.078  -3.121  1.00  0.00     0.082 A 
ATOM     11  H   UNL     1       3.268  -1.234  -1.614  1.00  0.00     0.166 HD
ENDBRANCH   5   6
ENDBRANCH   4   5
ENDBRANCH   1   4
BRANCH   1  12
ATOM     12  C   UNL     1      -0.740   1.806   0.451  1.00  0.00     0.065 A 
ATOM     13  C   UNL     1      -1.219   1.410  -0.828  1.00  0.00     0.017 A 
ATOM     14  C   UNL     1      -1.622   2.465   1.358  1.00  0.00     0.111 A 
ATOM     15  C   UNL     1      -2.550   1.631  -1.205  1.00  0.00     0.011 A 
ATOM     16  C   UNL     1      -2.964   2.639   0.951  1.00  0.00     0.073 A 
ATOM     17  C   UNL     1      -3.394   2.240  -0.288  1.00  0.00     0.002 A 
ATOM     18  N   UNL     1      -4.001   3.134   1.658  1.00  0.00    -0.359 N 
ATOM     19  C   UNL     1      -4.741   2.512  -0.379  1.00  0.00     0.028 A 
ATOM     20  C   UNL     1      -5.081   3.063   0.848  1.00  0.00     0.083 A 
ATOM     21  H   UNL     1      -4.014   3.462   2.646  1.00  0.00     0.166 HD
BRANCH  14  22
ATOM     22  N   UNL     1      -1.127   2.942   2.621  1.00  0.00    -0.192 NA
BRANCH  22  23
ATOM     23  C   UNL     1      -1.564   3.973   3.225  1.00  0.00     0.064 C 
ATOM     24  S   UNL     1      -2.103   5.284   3.992  1.00  0.00    -0.006 S 
ENDBRANCH  22  23
ENDBRANCH  14  22
ENDBRANCH   1  12
TORSDOF 7


