MODEL 1
REMARK VINA RESULT:      -9.7      0.000      0.000
REMARK SMILES O=C(C(=O)c1cc2cc(-c3[nH+]c[nH+]cc3F)[nH]c2cc1F)c1ccccc1
REMARK SMILES IDX 5 1 6 2 7 3 8 4 9 5 17 6 18 7 19 8 20 9 21 10 3 12 4 13 2 14
REMARK SMILES IDX 1 15 22 16 23 17 27 18 24 19 26 20 25 21 10 22 11 23 15 24
REMARK SMILES IDX 12 25 14 26 13 27 16 29
REMARK H PARENT 17 11 11 28 13 30
ROOT
ATOM      1  C   UNL     1      43.758 131.446  21.595  1.00  0.00     0.063 A 
ATOM      2  C   UNL     1      44.837 130.861  20.893  1.00  0.00     0.025 A 
ATOM      3  C   UNL     1      44.858 130.976  19.506  1.00  0.00     0.001 A 
ATOM      4  C   UNL     1      45.769 130.512  18.584  1.00  0.00     0.043 A 
ATOM      5  C   UNL     1      45.276 130.928  17.346  1.00  0.00     0.116 A 
ATOM      6  N   UNL     1      44.122 131.622  17.499  1.00  0.00    -0.349 N 
ATOM      7  C   UNL     1      43.879 131.640  18.820  1.00  0.00     0.049 A 
ATOM      8  C   UNL     1      42.812 132.251  19.475  1.00  0.00     0.066 A 
ATOM      9  C   UNL     1      42.756 132.156  20.878  1.00  0.00     0.136 A 
ATOM     10  F   UNL     1      41.755 132.794  21.535  1.00  0.00    -0.206 F 
ATOM     11  H   UNL     1      43.551 132.088  16.758  1.00  0.00     0.167 HD
ENDROOT
BRANCH   1  12
ATOM     12  C   UNL     1      43.721 131.344  23.068  1.00  0.00     0.236 C 
ATOM     13  O   UNL     1      44.357 132.196  23.746  1.00  0.00    -0.285 OA
BRANCH  12  14
ATOM     14  C   UNL     1      42.965 130.266  23.754  1.00  0.00     0.233 C 
ATOM     15  O   UNL     1      41.892 130.548  24.352  1.00  0.00    -0.285 OA
BRANCH  14  16
ATOM     16  C   UNL     1      43.430 128.860  23.764  1.00  0.00     0.026 A 
ATOM     17  C   UNL     1      42.519 127.787  23.762  1.00  0.00     0.012 A 
ATOM     18  C   UNL     1      44.808 128.584  23.825  1.00  0.00     0.012 A 
ATOM     19  C   UNL     1      42.982 126.467  23.791  1.00  0.00     0.001 A 
ATOM     20  C   UNL     1      45.265 127.263  23.851  1.00  0.00     0.001 A 
ATOM     21  C   UNL     1      44.353 126.205  23.830  1.00  0.00     0.000 A 
ENDBRANCH  14  16
ENDBRANCH  12  14
ENDBRANCH   1  12
BRANCH   5  22
ATOM     22  C   UNL     1      45.937 130.679  16.043  1.00  0.00     0.274 A 
ATOM     23  N   UNL     1      47.039 129.876  15.981  1.00  0.00    -0.151 N 
ATOM     24  C   UNL     1      45.442 131.248  14.858  1.00  0.00     0.260 A 
ATOM     25  C   UNL     1      47.667 129.631  14.799  1.00  0.00     0.629 A 
ATOM     26  C   UNL     1      46.102 130.982  13.659  1.00  0.00     0.358 A 
ATOM     27  N   UNL     1      47.199 130.184  13.649  1.00  0.00    -0.159 N 
ATOM     28  H   UNL     1      47.434 129.448  16.848  1.00  0.00     0.460 HD
ATOM     29  F   UNL     1      44.316 132.005  14.843  1.00  0.00    -0.193 F 
ATOM     30  H   UNL     1      47.689 129.989  12.747  1.00  0.00     0.459 HD
ENDBRANCH   5  22
TORSDOF 4
ENDMDL
MODEL 2
REMARK VINA RESULT:      -9.5      1.041      1.486
REMARK SMILES O=C(C(=O)c1cc2cc(-c3[nH+]c[nH+]cc3F)[nH]c2cc1F)c1ccccc1
REMARK SMILES IDX 5 1 6 2 7 3 8 4 9 5 17 6 18 7 19 8 20 9 21 10 3 12 4 13 2 14
REMARK SMILES IDX 1 15 22 16 23 17 27 18 24 19 26 20 25 21 10 22 11 23 15 24
REMARK SMILES IDX 12 25 14 26 13 27 16 29
REMARK H PARENT 17 11 11 28 13 30
ROOT
ATOM      1  C   UNL     1      43.240 131.739  20.853  1.00  0.00     0.063 A 
ATOM      2  C   UNL     1      44.441 131.180  20.361  1.00  0.00     0.025 A 
ATOM      3  C   UNL     1      44.639 131.159  18.984  1.00  0.00     0.001 A 
ATOM      4  C   UNL     1      45.696 130.685  18.239  1.00  0.00     0.043 A 
ATOM      5  C   UNL     1      45.346 130.934  16.911  1.00  0.00     0.116 A 
ATOM      6  N   UNL     1      44.135 131.540  16.841  1.00  0.00    -0.349 N 
ATOM      7  C   UNL     1      43.717 131.668  18.111  1.00  0.00     0.049 A 
ATOM      8  C   UNL     1      42.532 132.249  18.557  1.00  0.00     0.066 A 
ATOM      9  C   UNL     1      42.295 132.289  19.943  1.00  0.00     0.136 A 
ATOM     10  F   UNL     1      41.173 132.902  20.396  1.00  0.00    -0.206 F 
ATOM     11  H   UNL     1      43.638 131.881  15.989  1.00  0.00     0.167 HD
ENDROOT
BRANCH   1  12
ATOM     12  C   UNL     1      43.013 131.781  22.313  1.00  0.00     0.236 C 
ATOM     13  O   UNL     1      42.081 132.505  22.756  1.00  0.00    -0.285 OA
BRANCH  12  14
ATOM     14  C   UNL     1      43.857 131.001  23.253  1.00  0.00     0.233 C 
ATOM     15  O   UNL     1      44.676 131.606  23.996  1.00  0.00    -0.285 OA
BRANCH  14  16
ATOM     16  C   UNL     1      43.773 129.526  23.351  1.00  0.00     0.026 A 
ATOM     17  C   UNL     1      44.718 128.695  22.719  1.00  0.00     0.012 A 
ATOM     18  C   UNL     1      42.703 128.935  24.046  1.00  0.00     0.012 A 
ATOM     19  C   UNL     1      44.607 127.304  22.809  1.00  0.00     0.001 A 
ATOM     20  C   UNL     1      42.597 127.544  24.134  1.00  0.00     0.001 A 
ATOM     21  C   UNL     1      43.551 126.728  23.520  1.00  0.00     0.000 A 
ENDBRANCH  14  16
ENDBRANCH  12  14
ENDBRANCH   1  12
BRANCH   5  22
ATOM     22  C   UNL     1      46.190 130.614  15.736  1.00  0.00     0.274 A 
ATOM     23  N   UNL     1      46.542 129.318  15.484  1.00  0.00    -0.151 N 
ATOM     24  C   UNL     1      46.630 131.621  14.862  1.00  0.00     0.260 A 
ATOM     25  C   UNL     1      47.319 128.995  14.414  1.00  0.00     0.629 A 
ATOM     26  C   UNL     1      47.424 131.265  13.773  1.00  0.00     0.358 A 
ATOM     27  N   UNL     1      47.755 129.965  13.569  1.00  0.00    -0.159 N 
ATOM     28  H   UNL     1      46.237 128.551  16.123  1.00  0.00     0.460 HD
ATOM     29  F   UNL     1      46.265 132.918  15.024  1.00  0.00    -0.193 F 
ATOM     30  H   UNL     1      48.350 129.706  12.750  1.00  0.00     0.459 HD
ENDBRANCH   5  22
TORSDOF 4
ENDMDL
MODEL 3
REMARK VINA RESULT:      -9.4      1.178      1.480
REMARK SMILES O=C(C(=O)c1cc2cc(-c3[nH+]c[nH+]cc3F)[nH]c2cc1F)c1ccccc1
REMARK SMILES IDX 5 1 6 2 7 3 8 4 9 5 17 6 18 7 19 8 20 9 21 10 3 12 4 13 2 14
REMARK SMILES IDX 1 15 22 16 23 17 27 18 24 19 26 20 25 21 10 22 11 23 15 24
REMARK SMILES IDX 12 25 14 26 13 27 16 29
REMARK H PARENT 17 11 11 28 13 30
ROOT
ATOM      1  C   UNL     1      43.219 131.753  20.433  1.00  0.00     0.063 A 
ATOM      2  C   UNL     1      44.468 131.260  19.992  1.00  0.00     0.025 A 
ATOM      3  C   UNL     1      44.701 131.195  18.622  1.00  0.00     0.001 A 
ATOM      4  C   UNL     1      45.807 130.765  17.922  1.00  0.00     0.043 A 
ATOM      5  C   UNL     1      45.474 130.933  16.577  1.00  0.00     0.116 A 
ATOM      6  N   UNL     1      44.226 131.449  16.454  1.00  0.00    -0.349 N 
ATOM      7  C   UNL     1      43.768 131.600  17.708  1.00  0.00     0.049 A 
ATOM      8  C   UNL     1      42.535 132.115  18.101  1.00  0.00     0.066 A 
ATOM      9  C   UNL     1      42.261 132.196  19.479  1.00  0.00     0.136 A 
ATOM     10  F   UNL     1      41.088 132.747  19.879  1.00  0.00    -0.206 F 
ATOM     11  H   UNL     1      43.728 131.718  15.576  1.00  0.00     0.167 HD
ENDROOT
BRANCH   1  12
ATOM     12  C   UNL     1      42.953 131.840  21.884  1.00  0.00     0.236 C 
ATOM     13  O   UNL     1      41.972 132.529  22.275  1.00  0.00    -0.285 OA
BRANCH  12  14
ATOM     14  C   UNL     1      43.813 131.145  22.875  1.00  0.00     0.233 C 
ATOM     15  O   UNL     1      44.702 131.796  23.487  1.00  0.00    -0.285 OA
BRANCH  14  16
ATOM     16  C   UNL     1      43.665 129.701  23.172  1.00  0.00     0.026 A 
ATOM     17  C   UNL     1      42.505 129.196  23.790  1.00  0.00     0.012 A 
ATOM     18  C   UNL     1      44.721 128.820  22.879  1.00  0.00     0.012 A 
ATOM     19  C   UNL     1      42.397 127.832  24.079  1.00  0.00     0.001 A 
ATOM     20  C   UNL     1      44.606 127.457  23.169  1.00  0.00     0.001 A 
ATOM     21  C   UNL     1      43.443 126.962  23.764  1.00  0.00     0.000 A 
ENDBRANCH  14  16
ENDBRANCH  12  14
ENDBRANCH   1  12
BRANCH   5  22
ATOM     22  C   UNL     1      46.367 130.624  15.437  1.00  0.00     0.274 A 
ATOM     23  N   UNL     1      46.750 129.334  15.202  1.00  0.00    -0.151 N 
ATOM     24  C   UNL     1      46.824 131.636  14.577  1.00  0.00     0.260 A 
ATOM     25  C   UNL     1      47.573 129.021  14.164  1.00  0.00     0.629 A 
ATOM     26  C   UNL     1      47.664 131.291  13.520  1.00  0.00     0.358 A 
ATOM     27  N   UNL     1      48.025 129.996  13.332  1.00  0.00    -0.159 N 
ATOM     28  H   UNL     1      46.433 128.563  15.831  1.00  0.00     0.460 HD
ATOM     29  F   UNL     1      46.432 132.928  14.720  1.00  0.00    -0.193 F 
ATOM     30  H   UNL     1      48.655 129.745  12.538  1.00  0.00     0.459 HD
ENDBRANCH   5  22
TORSDOF 4
ENDMDL
MODEL 4
REMARK VINA RESULT:      -8.9      1.424      1.991
REMARK SMILES O=C(C(=O)c1cc2cc(-c3[nH+]c[nH+]cc3F)[nH]c2cc1F)c1ccccc1
REMARK SMILES IDX 5 1 6 2 7 3 8 4 9 5 17 6 18 7 19 8 20 9 21 10 3 12 4 13 2 14
REMARK SMILES IDX 1 15 22 16 23 17 27 18 24 19 26 20 25 21 10 22 11 23 15 24
REMARK SMILES IDX 12 25 14 26 13 27 16 29
REMARK H PARENT 17 11 11 28 13 30
ROOT
ATOM      1  C   UNL     1      43.119 131.771  20.339  1.00  0.00     0.063 A 
ATOM      2  C   UNL     1      44.369 131.302  19.874  1.00  0.00     0.025 A 
ATOM      3  C   UNL     1      44.589 131.272  18.500  1.00  0.00     0.001 A 
ATOM      4  C   UNL     1      45.692 130.872  17.779  1.00  0.00     0.043 A 
ATOM      5  C   UNL     1      45.343 131.068  16.442  1.00  0.00     0.116 A 
ATOM      6  N   UNL     1      44.089 131.573  16.344  1.00  0.00    -0.349 N 
ATOM      7  C   UNL     1      43.642 131.689  17.605  1.00  0.00     0.049 A 
ATOM      8  C   UNL     1      42.407 132.181  18.023  1.00  0.00     0.066 A 
ATOM      9  C   UNL     1      42.147 132.225  19.405  1.00  0.00     0.136 A 
ATOM     10  F   UNL     1      40.972 132.754  19.831  1.00  0.00    -0.206 F 
ATOM     11  H   UNL     1      43.578 131.858  15.478  1.00  0.00     0.167 HD
ENDROOT
BRANCH   1  12
ATOM     12  C   UNL     1      42.868 131.820  21.794  1.00  0.00     0.236 C 
ATOM     13  O   UNL     1      41.856 132.448  22.208  1.00  0.00    -0.285 OA
BRANCH  12  14
ATOM     14  C   UNL     1      43.777 131.157  22.763  1.00  0.00     0.233 C 
ATOM     15  O   UNL     1      44.622 131.850  23.391  1.00  0.00    -0.285 OA
BRANCH  14  16
ATOM     16  C   UNL     1      43.728 129.700  23.021  1.00  0.00     0.026 A 
ATOM     17  C   UNL     1      44.784 128.852  22.636  1.00  0.00     0.012 A 
ATOM     18  C   UNL     1      42.585 129.137  23.617  1.00  0.00     0.012 A 
ATOM     19  C   UNL     1      44.707 127.476  22.873  1.00  0.00     0.001 A 
ATOM     20  C   UNL     1      42.514 127.761  23.853  1.00  0.00     0.001 A 
ATOM     21  C   UNL     1      43.575 126.931  23.485  1.00  0.00     0.000 A 
ENDBRANCH  14  16
ENDBRANCH  12  14
ENDBRANCH   1  12
BRANCH   5  22
ATOM     22  C   UNL     1      46.228 130.797  15.285  1.00  0.00     0.274 A 
ATOM     23  N   UNL     1      46.805 131.835  14.611  1.00  0.00    -0.151 N 
ATOM     24  C   UNL     1      46.499 129.482  14.871  1.00  0.00     0.260 A 
ATOM     25  C   UNL     1      47.620 131.616  13.543  1.00  0.00     0.629 A 
ATOM     26  C   UNL     1      47.339 129.283  13.776  1.00  0.00     0.358 A 
ATOM     27  N   UNL     1      47.881 130.348  13.132  1.00  0.00    -0.159 N 
ATOM     28  H   UNL     1      46.613 132.822  14.892  1.00  0.00     0.460 HD
ATOM     29  F   UNL     1      46.006 128.407  15.535  1.00  0.00    -0.193 F 
ATOM     30  H   UNL     1      48.509 130.191  12.312  1.00  0.00     0.459 HD
ENDBRANCH   5  22
TORSDOF 4
ENDMDL
MODEL 5
REMARK VINA RESULT:      -8.5      1.147      1.386
REMARK SMILES O=C(C(=O)c1cc2cc(-c3[nH+]c[nH+]cc3F)[nH]c2cc1F)c1ccccc1
REMARK SMILES IDX 5 1 6 2 7 3 8 4 9 5 17 6 18 7 19 8 20 9 21 10 3 12 4 13 2 14
REMARK SMILES IDX 1 15 22 16 23 17 27 18 24 19 26 20 25 21 10 22 11 23 15 24
REMARK SMILES IDX 12 25 14 26 13 27 16 29
REMARK H PARENT 17 11 11 28 13 30
ROOT
ATOM      1  C   UNL     1      43.663 131.570  21.446  1.00  0.00     0.063 A 
ATOM      2  C   UNL     1      44.754 131.053  20.712  1.00  0.00     0.025 A 
ATOM      3  C   UNL     1      44.718 131.156  19.324  1.00  0.00     0.001 A 
ATOM      4  C   UNL     1      45.626 130.747  18.373  1.00  0.00     0.043 A 
ATOM      5  C   UNL     1      45.063 131.117  17.150  1.00  0.00     0.116 A 
ATOM      6  N   UNL     1      43.870 131.731  17.339  1.00  0.00    -0.349 N 
ATOM      7  C   UNL     1      43.673 131.745  18.668  1.00  0.00     0.049 A 
ATOM      8  C   UNL     1      42.590 132.288  19.356  1.00  0.00     0.066 A 
ATOM      9  C   UNL     1      42.589 132.202  20.761  1.00  0.00     0.136 A 
ATOM     10  F   UNL     1      41.570 132.776  21.449  1.00  0.00    -0.206 F 
ATOM     11  H   UNL     1      43.243 132.150  16.616  1.00  0.00     0.167 HD
ENDROOT
BRANCH   1  12
ATOM     12  C   UNL     1      43.684 131.480  22.921  1.00  0.00     0.236 C 
ATOM     13  O   UNL     1      44.549 132.147  23.551  1.00  0.00    -0.285 OA
BRANCH  12  14
ATOM     14  C   UNL     1      42.724 130.623  23.662  1.00  0.00     0.233 C 
ATOM     15  O   UNL     1      41.799 131.162  24.326  1.00  0.00    -0.285 OA
BRANCH  14  16
ATOM     16  C   UNL     1      42.815 129.145  23.650  1.00  0.00     0.026 A 
ATOM     17  C   UNL     1      41.697 128.340  23.943  1.00  0.00     0.012 A 
ATOM     18  C   UNL     1      44.051 128.526  23.390  1.00  0.00     0.012 A 
ATOM     19  C   UNL     1      41.812 126.946  23.945  1.00  0.00     0.001 A 
ATOM     20  C   UNL     1      44.159 127.132  23.391  1.00  0.00     0.001 A 
ATOM     21  C   UNL     1      43.040 126.342  23.664  1.00  0.00     0.000 A 
ENDBRANCH  14  16
ENDBRANCH  12  14
ENDBRANCH   1  12
BRANCH   5  22
ATOM     22  C   UNL     1      45.693 130.901  15.826  1.00  0.00     0.274 A 
ATOM     23  N   UNL     1      45.263 131.615  14.744  1.00  0.00    -0.151 N 
ATOM     24  C   UNL     1      46.740 129.979  15.662  1.00  0.00     0.260 A 
ATOM     25  C   UNL     1      45.821 131.436  13.516  1.00  0.00     0.629 A 
ATOM     26  C   UNL     1      47.296 129.815  14.394  1.00  0.00     0.358 A 
ATOM     27  N   UNL     1      46.829 130.541  13.347  1.00  0.00    -0.159 N 
ATOM     28  H   UNL     1      44.480 132.300  14.836  1.00  0.00     0.460 HD
ATOM     29  F   UNL     1      47.252 129.284  16.708  1.00  0.00    -0.193 F 
ATOM     30  H   UNL     1      47.251 130.412  12.400  1.00  0.00     0.459 HD
ENDBRANCH   5  22
TORSDOF 4
ENDMDL
MODEL 6
REMARK VINA RESULT:      -6.9      1.455      2.165
REMARK SMILES O=C(C(=O)c1cc2cc(-c3[nH+]c[nH+]cc3F)[nH]c2cc1F)c1ccccc1
REMARK SMILES IDX 5 1 6 2 7 3 8 4 9 5 17 6 18 7 19 8 20 9 21 10 3 12 4 13 2 14
REMARK SMILES IDX 1 15 22 16 23 17 27 18 24 19 26 20 25 21 10 22 11 23 15 24
REMARK SMILES IDX 12 25 14 26 13 27 16 29
REMARK H PARENT 17 11 11 28 13 30
ROOT
ATOM      1  C   UNL     1      43.753 131.329  21.149  1.00  0.00     0.063 A 
ATOM      2  C   UNL     1      43.522 131.560  19.774  1.00  0.00     0.025 A 
ATOM      3  C   UNL     1      44.510 131.179  18.870  1.00  0.00     0.001 A 
ATOM      4  C   UNL     1      44.554 131.281  17.497  1.00  0.00     0.043 A 
ATOM      5  C   UNL     1      45.784 130.734  17.131  1.00  0.00     0.116 A 
ATOM      6  N   UNL     1      46.463 130.308  18.225  1.00  0.00    -0.349 N 
ATOM      7  C   UNL     1      45.675 130.589  19.275  1.00  0.00     0.049 A 
ATOM      8  C   UNL     1      45.930 130.322  20.619  1.00  0.00     0.066 A 
ATOM      9  C   UNL     1      44.956 130.693  21.564  1.00  0.00     0.136 A 
ATOM     10  F   UNL     1      45.163 130.388  22.869  1.00  0.00    -0.206 F 
ATOM     11  H   UNL     1      47.387 129.822  18.256  1.00  0.00     0.167 HD
ENDROOT
BRANCH   1  12
ATOM     12  C   UNL     1      42.714 131.717  22.126  1.00  0.00     0.236 C 
ATOM     13  O   UNL     1      41.836 132.549  21.770  1.00  0.00    -0.285 OA
BRANCH  12  14
ATOM     14  C   UNL     1      42.692 131.157  23.500  1.00  0.00     0.233 C 
ATOM     15  O   UNL     1      42.927 131.914  24.480  1.00  0.00    -0.285 OA
BRANCH  14  16
ATOM     16  C   UNL     1      42.402 129.729  23.766  1.00  0.00     0.026 A 
ATOM     17  C   UNL     1      43.438 128.797  23.968  1.00  0.00     0.012 A 
ATOM     18  C   UNL     1      41.070 129.278  23.768  1.00  0.00     0.012 A 
ATOM     19  C   UNL     1      43.140 127.450  24.199  1.00  0.00     0.001 A 
ATOM     20  C   UNL     1      40.778 127.931  24.000  1.00  0.00     0.001 A 
ATOM     21  C   UNL     1      41.812 127.017  24.219  1.00  0.00     0.000 A 
ENDBRANCH  14  16
ENDBRANCH  12  14
ENDBRANCH   1  12
BRANCH   5  22
ATOM     22  C   UNL     1      46.274 130.602  15.739  1.00  0.00     0.274 A 
ATOM     23  N   UNL     1      47.313 129.761  15.459  1.00  0.00    -0.151 N 
ATOM     24  C   UNL     1      45.679 131.321  14.689  1.00  0.00     0.260 A 
ATOM     25  C   UNL     1      47.785 129.622  14.191  1.00  0.00     0.629 A 
ATOM     26  C   UNL     1      46.180 131.161  13.398  1.00  0.00     0.358 A 
ATOM     27  N   UNL     1      47.221 130.320  13.171  1.00  0.00    -0.159 N 
ATOM     28  H   UNL     1      47.779 129.222  16.222  1.00  0.00     0.460 HD
ATOM     29  F   UNL     1      44.606 132.126  14.891  1.00  0.00    -0.193 F 
ATOM     30  H   UNL     1      47.590 130.205  12.201  1.00  0.00     0.459 HD
ENDBRANCH   5  22
TORSDOF 4
ENDMDL
MODEL 7
REMARK VINA RESULT:      -6.7      1.107      1.118
REMARK SMILES O=C(C(=O)c1cc2cc(-c3[nH+]c[nH+]cc3F)[nH]c2cc1F)c1ccccc1
REMARK SMILES IDX 5 1 6 2 7 3 8 4 9 5 17 6 18 7 19 8 20 9 21 10 3 12 4 13 2 14
REMARK SMILES IDX 1 15 22 16 23 17 27 18 24 19 26 20 25 21 10 22 11 23 15 24
REMARK SMILES IDX 12 25 14 26 13 27 16 29
REMARK H PARENT 17 11 11 28 13 30
ROOT
ATOM      1  C   UNL     1      43.882 131.075  21.985  1.00  0.00     0.063 A 
ATOM      2  C   UNL     1      44.833 130.571  21.069  1.00  0.00     0.025 A 
ATOM      3  C   UNL     1      44.717 130.942  19.732  1.00  0.00     0.001 A 
ATOM      4  C   UNL     1      45.489 130.609  18.641  1.00  0.00     0.043 A 
ATOM      5  C   UNL     1      44.903 131.276  17.564  1.00  0.00     0.116 A 
ATOM      6  N   UNL     1      43.827 131.992  17.973  1.00  0.00    -0.349 N 
ATOM      7  C   UNL     1      43.726 131.776  19.295  1.00  0.00     0.049 A 
ATOM      8  C   UNL     1      42.783 132.313  20.169  1.00  0.00     0.066 A 
ATOM      9  C   UNL     1      42.867 131.961  21.529  1.00  0.00     0.136 A 
ATOM     10  F   UNL     1      41.992 132.520  22.403  1.00  0.00    -0.206 F 
ATOM     11  H   UNL     1      43.220 132.620  17.400  1.00  0.00     0.167 HD
ENDROOT
BRANCH   1  12
ATOM     12  C   UNL     1      43.991 130.702  23.410  1.00  0.00     0.236 C 
ATOM     13  O   UNL     1      44.910 131.222  24.099  1.00  0.00    -0.285 OA
BRANCH  12  14
ATOM     14  C   UNL     1      43.056 129.732  24.034  1.00  0.00     0.233 C 
ATOM     15  O   UNL     1      42.026 130.158  24.624  1.00  0.00    -0.285 OA
BRANCH  14  16
ATOM     16  C   UNL     1      43.290 128.270  23.990  1.00  0.00     0.026 A 
ATOM     17  C   UNL     1      42.415 127.369  24.625  1.00  0.00     0.012 A 
ATOM     18  C   UNL     1      44.435 127.769  23.346  1.00  0.00     0.012 A 
ATOM     19  C   UNL     1      42.667 125.993  24.586  1.00  0.00     0.001 A 
ATOM     20  C   UNL     1      44.682 126.393  23.308  1.00  0.00     0.001 A 
ATOM     21  C   UNL     1      43.796 125.505  23.924  1.00  0.00     0.000 A 
ENDBRANCH  14  16
ENDBRANCH  12  14
ENDBRANCH   1  12
BRANCH   5  22
ATOM     22  C   UNL     1      45.402 131.238  16.170  1.00  0.00     0.274 A 
ATOM     23  N   UNL     1      46.477 132.001  15.811  1.00  0.00    -0.151 N 
ATOM     24  C   UNL     1      44.796 130.419  15.203  1.00  0.00     0.260 A 
ATOM     25  C   UNL     1      46.955 131.989  14.537  1.00  0.00     0.629 A 
ATOM     26  C   UNL     1      45.305 130.422  13.906  1.00  0.00     0.358 A 
ATOM     27  N   UNL     1      46.370 131.205  13.594  1.00  0.00    -0.159 N 
ATOM     28  H   UNL     1      46.940 132.626  16.507  1.00  0.00     0.460 HD
ATOM     29  F   UNL     1      43.764 129.593  15.511  1.00  0.00    -0.193 F 
ATOM     30  H   UNL     1      46.746 131.202  12.620  1.00  0.00     0.459 HD
ENDBRANCH   5  22
TORSDOF 4
ENDMDL


