MODEL 1
REMARK VINA RESULT:      -9.6      0.000      0.000
REMARK SMILES C=Cc1cccc(-c2ccc3c(c2)[C@@H](N)CC3)c1
REMARK SMILES IDX 8 1 9 2 10 3 11 4 12 5 13 6 14 7 16 8 17 9 7 10 3 11 4 12
REMARK SMILES IDX 18 13 5 14 6 15 2 16 1 17 15 18
REMARK H PARENT 15 19 15 20
ROOT
ATOM      1  C   UNL     1      44.185 131.390  17.719  1.00  0.00    -0.018 A 
ATOM      2  C   UNL     1      42.840 131.766  17.943  1.00  0.00     0.009 A 
ATOM      3  C   UNL     1      42.360 131.964  19.246  1.00  0.00     0.005 A 
ATOM      4  C   UNL     1      43.233 131.782  20.318  1.00  0.00    -0.043 A 
ATOM      5  C   UNL     1      44.541 131.425  20.115  1.00  0.00    -0.027 A 
ATOM      6  C   UNL     1      45.043 131.218  18.828  1.00  0.00     0.014 A 
ATOM      7  C   UNL     1      45.287 131.296  21.398  1.00  0.00     0.081 C 
ATOM      8  C   UNL     1      44.199 131.496  22.478  1.00  0.00     0.028 C 
ATOM      9  C   UNL     1      42.914 131.945  21.756  1.00  0.00     0.038 C 
ENDROOT
BRANCH   1  10
ATOM     10  C   UNL     1      44.690 131.181  16.338  1.00  0.00    -0.018 A 
ATOM     11  C   UNL     1      46.384 130.289  14.812  1.00  0.00    -0.026 A 
ATOM     12  C   UNL     1      45.644 130.790  13.722  1.00  0.00     0.008 A 
ATOM     13  C   UNL     1      45.901 130.501  16.115  1.00  0.00     0.016 A 
ATOM     14  C   UNL     1      44.441 131.466  13.937  1.00  0.00     0.001 A 
ATOM     15  C   UNL     1      43.964 131.661  15.234  1.00  0.00     0.009 A 
BRANCH  11  16
ATOM     16  C   UNL     1      47.674 129.575  14.641  1.00  0.00     0.000 C 
ATOM     17  C   UNL     1      48.384 129.568  13.511  1.00  0.00     0.009 C 
ENDBRANCH  11  16
ENDBRANCH   1  10
BRANCH   7  18
ATOM     18  N   UNL     1      46.330 132.318  21.514  1.00  0.00    -0.324 NA
ATOM     19  H   UNL     1      47.259 131.864  21.353  1.00  0.00     0.119 HD
ATOM     20  H   UNL     1      46.201 133.038  20.764  1.00  0.00     0.119 HD
ENDBRANCH   7  18
TORSDOF 3
ENDMDL
MODEL 2
REMARK VINA RESULT:      -8.8      2.125      6.651
REMARK SMILES C=Cc1cccc(-c2ccc3c(c2)[C@@H](N)CC3)c1
REMARK SMILES IDX 8 1 9 2 10 3 11 4 12 5 13 6 14 7 16 8 17 9 7 10 3 11 4 12
REMARK SMILES IDX 18 13 5 14 6 15 2 16 1 17 15 18
REMARK H PARENT 15 19 15 20
ROOT
ATOM      1  C   UNL     1      45.230 131.088  17.074  1.00  0.00    -0.018 A 
ATOM      2  C   UNL     1      44.239 131.607  16.207  1.00  0.00     0.009 A 
ATOM      3  C   UNL     1      44.452 131.648  14.822  1.00  0.00     0.005 A 
ATOM      4  C   UNL     1      45.658 131.169  14.312  1.00  0.00    -0.043 A 
ATOM      5  C   UNL     1      46.624 130.658  15.139  1.00  0.00    -0.027 A 
ATOM      6  C   UNL     1      46.439 130.609  16.523  1.00  0.00     0.014 A 
ATOM      7  C   UNL     1      47.820 130.200  14.380  1.00  0.00     0.081 C 
ATOM      8  C   UNL     1      47.520 130.632  12.926  1.00  0.00     0.028 C 
ATOM      9  C   UNL     1      46.063 131.129  12.887  1.00  0.00     0.038 C 
ENDROOT
BRANCH   1  10
ATOM     10  C   UNL     1      45.003 131.047  18.540  1.00  0.00    -0.018 A 
ATOM     11  C   UNL     1      43.652 131.636  20.495  1.00  0.00    -0.026 A 
ATOM     12  C   UNL     1      44.579 130.970  21.319  1.00  0.00     0.008 A 
ATOM     13  C   UNL     1      43.881 131.677  19.109  1.00  0.00     0.016 A 
ATOM     14  C   UNL     1      45.696 130.343  20.761  1.00  0.00     0.001 A 
ATOM     15  C   UNL     1      45.909 130.378  19.382  1.00  0.00     0.009 A 
BRANCH  11  16
ATOM     16  C   UNL     1      42.456 132.329  21.036  1.00  0.00     0.000 C 
ATOM     17  C   UNL     1      41.662 133.127  20.319  1.00  0.00     0.009 C 
ENDBRANCH  11  16
ENDBRANCH   1  10
BRANCH   7  18
ATOM     18  N   UNL     1      47.985 128.747  14.468  1.00  0.00    -0.324 NA
ATOM     19  H   UNL     1      48.190 128.495  15.463  1.00  0.00     0.119 HD
ATOM     20  H   UNL     1      47.088 128.276  14.205  1.00  0.00     0.119 HD
ENDBRANCH   7  18
TORSDOF 3
ENDMDL
MODEL 3
REMARK VINA RESULT:      -8.6      1.411      2.028
REMARK SMILES C=Cc1cccc(-c2ccc3c(c2)[C@@H](N)CC3)c1
REMARK SMILES IDX 8 1 9 2 10 3 11 4 12 5 13 6 14 7 16 8 17 9 7 10 3 11 4 12
REMARK SMILES IDX 18 13 5 14 6 15 2 16 1 17 15 18
REMARK H PARENT 15 19 15 20
ROOT
ATOM      1  C   UNL     1      45.165 130.921  18.169  1.00  0.00    -0.018 A 
ATOM      2  C   UNL     1      45.951 130.123  19.034  1.00  0.00     0.009 A 
ATOM      3  C   UNL     1      45.732 130.142  20.419  1.00  0.00     0.005 A 
ATOM      4  C   UNL     1      44.725 130.962  20.930  1.00  0.00    -0.043 A 
ATOM      5  C   UNL     1      43.952 131.734  20.103  1.00  0.00    -0.027 A 
ATOM      6  C   UNL     1      44.153 131.737  18.720  1.00  0.00     0.014 A 
ATOM      7  C   UNL     1      42.939 132.519  20.862  1.00  0.00     0.081 C 
ATOM      8  C   UNL     1      43.281 132.227  22.341  1.00  0.00     0.028 C 
ATOM      9  C   UNL     1      44.347 131.114  22.354  1.00  0.00     0.038 C 
ENDROOT
BRANCH   1  10
ATOM     10  C   UNL     1      45.400 130.901  16.703  1.00  0.00    -0.018 A 
ATOM     11  C   UNL     1      46.692 130.127  14.773  1.00  0.00    -0.026 A 
ATOM     12  C   UNL     1      45.844 130.868  13.926  1.00  0.00     0.008 A 
ATOM     13  C   UNL     1      46.466 130.161  16.160  1.00  0.00     0.016 A 
ATOM     14  C   UNL     1      44.785 131.605  14.460  1.00  0.00     0.001 A 
ATOM     15  C   UNL     1      44.561 131.623  15.838  1.00  0.00     0.009 A 
BRANCH  11  16
ATOM     16  C   UNL     1      47.840 129.337  14.261  1.00  0.00     0.000 C 
ATOM     17  C   UNL     1      48.524 129.638  13.155  1.00  0.00     0.009 C 
ENDBRANCH  11  16
ENDBRANCH   1  10
BRANCH   7  18
ATOM     18  N   UNL     1      41.578 132.081  20.546  1.00  0.00    -0.324 NA
ATOM     19  H   UNL     1      41.075 131.885  21.442  1.00  0.00     0.119 HD
ATOM     20  H   UNL     1      41.064 132.854  20.062  1.00  0.00     0.119 HD
ENDBRANCH   7  18
TORSDOF 3
ENDMDL
MODEL 4
REMARK VINA RESULT:      -7.9      1.847      6.344
REMARK SMILES C=Cc1cccc(-c2ccc3c(c2)[C@@H](N)CC3)c1
REMARK SMILES IDX 8 1 9 2 10 3 11 4 12 5 13 6 14 7 16 8 17 9 7 10 3 11 4 12
REMARK SMILES IDX 18 13 5 14 6 15 2 16 1 17 15 18
REMARK H PARENT 15 19 15 20
ROOT
ATOM      1  C   UNL     1      44.254 131.541  16.795  1.00  0.00    -0.018 A 
ATOM      2  C   UNL     1      43.473 131.779  15.640  1.00  0.00     0.009 A 
ATOM      3  C   UNL     1      44.018 131.603  14.359  1.00  0.00     0.005 A 
ATOM      4  C   UNL     1      45.344 131.189  14.244  1.00  0.00    -0.043 A 
ATOM      5  C   UNL     1      46.110 130.947  15.354  1.00  0.00    -0.027 A 
ATOM      6  C   UNL     1      45.593 131.120  16.641  1.00  0.00     0.014 A 
ATOM      7  C   UNL     1      47.488 130.509  14.995  1.00  0.00     0.081 C 
ATOM      8  C   UNL     1      47.525 130.642  13.455  1.00  0.00     0.028 C 
ATOM      9  C   UNL     1      46.090 130.949  12.986  1.00  0.00     0.038 C 
ENDROOT
BRANCH   1  10
ATOM     10  C   UNL     1      43.676 131.730  18.149  1.00  0.00    -0.018 A 
ATOM     11  C   UNL     1      43.900 131.626  20.585  1.00  0.00    -0.026 A 
ATOM     12  C   UNL     1      42.574 132.085  20.712  1.00  0.00     0.008 A 
ATOM     13  C   UNL     1      44.434 131.442  19.298  1.00  0.00     0.016 A 
ATOM     14  C   UNL     1      41.815 132.371  19.575  1.00  0.00     0.001 A 
ATOM     15  C   UNL     1      42.359 132.198  18.301  1.00  0.00     0.009 A 
BRANCH  11  16
ATOM     16  C   UNL     1      44.746 131.294  21.758  1.00  0.00     0.000 C 
ATOM     17  C   UNL     1      44.272 131.062  22.984  1.00  0.00     0.009 C 
ENDBRANCH  11  16
ENDBRANCH   1  10
BRANCH   7  18
ATOM     18  N   UNL     1      47.731 129.124  15.405  1.00  0.00    -0.324 NA
ATOM     19  H   UNL     1      47.406 129.007  16.392  1.00  0.00     0.119 HD
ATOM     20  H   UNL     1      47.162 128.477  14.810  1.00  0.00     0.119 HD
ENDBRANCH   7  18
TORSDOF 3
ENDMDL
MODEL 5
REMARK VINA RESULT:      -7.4      2.038      6.566
REMARK SMILES C=Cc1cccc(-c2ccc3c(c2)[C@@H](N)CC3)c1
REMARK SMILES IDX 8 1 9 2 10 3 11 4 12 5 13 6 14 7 16 8 17 9 7 10 3 11 4 12
REMARK SMILES IDX 18 13 5 14 6 15 2 16 1 17 15 18
REMARK H PARENT 15 19 15 20
ROOT
ATOM      1  C   UNL     1      43.718 131.358  19.870  1.00  0.00    -0.018 A 
ATOM      2  C   UNL     1      42.573 131.744  19.132  1.00  0.00     0.009 A 
ATOM      3  C   UNL     1      42.641 131.904  17.741  1.00  0.00     0.005 A 
ATOM      4  C   UNL     1      43.856 131.677  17.095  1.00  0.00    -0.043 A 
ATOM      5  C   UNL     1      44.970 131.296  17.796  1.00  0.00    -0.027 A 
ATOM      6  C   UNL     1      44.932 131.133  19.183  1.00  0.00     0.014 A 
ATOM      7  C   UNL     1      46.148 131.102  16.905  1.00  0.00     0.081 C 
ATOM      8  C   UNL     1      45.639 131.560  15.519  1.00  0.00     0.028 C 
ATOM      9  C   UNL     1      44.121 131.793  15.642  1.00  0.00     0.038 C 
ENDROOT
BRANCH   1  10
ATOM     10  C   UNL     1      43.645 131.191  21.343  1.00  0.00    -0.018 A 
ATOM     11  C   UNL     1      44.203 129.928  23.364  1.00  0.00    -0.026 A 
ATOM     12  C   UNL     1      43.500 130.875  24.134  1.00  0.00     0.008 A 
ATOM     13  C   UNL     1      44.259 130.091  21.970  1.00  0.00     0.016 A 
ATOM     14  C   UNL     1      42.887 131.969  23.517  1.00  0.00     0.001 A 
ATOM     15  C   UNL     1      42.958 132.129  22.133  1.00  0.00     0.009 A 
BRANCH  11  16
ATOM     16  C   UNL     1      44.862 128.741  23.966  1.00  0.00     0.000 C 
ATOM     17  C   UNL     1      44.675 127.487  23.548  1.00  0.00     0.009 C 
ENDBRANCH  11  16
ENDBRANCH   1  10
BRANCH   7  18
ATOM     18  N   UNL     1      46.566 129.699  16.870  1.00  0.00    -0.324 NA
ATOM     19  H   UNL     1      46.169 129.213  17.707  1.00  0.00     0.119 HD
ATOM     20  H   UNL     1      46.166 129.235  16.020  1.00  0.00     0.119 HD
ENDBRANCH   7  18
TORSDOF 3
ENDMDL
MODEL 6
REMARK VINA RESULT:      -7.3      2.227      6.407
REMARK SMILES C=Cc1cccc(-c2ccc3c(c2)[C@@H](N)CC3)c1
REMARK SMILES IDX 8 1 9 2 10 3 11 4 12 5 13 6 14 7 16 8 17 9 7 10 3 11 4 12
REMARK SMILES IDX 18 13 5 14 6 15 2 16 1 17 15 18
REMARK H PARENT 15 19 15 20
ROOT
ATOM      1  C   UNL     1      45.023 131.458  17.811  1.00  0.00    -0.018 A 
ATOM      2  C   UNL     1      45.131 132.630  17.024  1.00  0.00     0.009 A 
ATOM      3  C   UNL     1      45.770 132.596  15.776  1.00  0.00     0.005 A 
ATOM      4  C   UNL     1      46.298 131.387  15.323  1.00  0.00    -0.043 A 
ATOM      5  C   UNL     1      46.194 130.243  16.071  1.00  0.00    -0.027 A 
ATOM      6  C   UNL     1      45.566 130.250  17.320  1.00  0.00     0.014 A 
ATOM      7  C   UNL     1      46.819 129.076  15.391  1.00  0.00     0.081 C 
ATOM      8  C   UNL     1      47.470 129.690  14.130  1.00  0.00     0.028 C 
ATOM      9  C   UNL     1      47.002 131.155  14.040  1.00  0.00     0.038 C 
ENDROOT
BRANCH   1  10
ATOM     10  C   UNL     1      44.348 131.497  19.132  1.00  0.00    -0.018 A 
ATOM     11  C   UNL     1      44.226 130.791  21.474  1.00  0.00    -0.026 A 
ATOM     12  C   UNL     1      43.062 131.569  21.632  1.00  0.00     0.008 A 
ATOM     13  C   UNL     1      44.852 130.755  20.216  1.00  0.00     0.016 A 
ATOM     14  C   UNL     1      42.555 132.307  20.560  1.00  0.00     0.001 A 
ATOM     15  C   UNL     1      43.191 132.274  19.318  1.00  0.00     0.009 A 
BRANCH  11  16
ATOM     16  C   UNL     1      44.800 129.979  22.575  1.00  0.00     0.000 C 
ATOM     17  C   UNL     1      44.497 128.699  22.800  1.00  0.00     0.009 C 
ENDBRANCH  11  16
ENDBRANCH   1  10
BRANCH   7  18
ATOM     18  N   UNL     1      45.816 128.073  15.023  1.00  0.00    -0.324 NA
ATOM     19  H   UNL     1      45.100 128.024  15.784  1.00  0.00     0.119 HD
ATOM     20  H   UNL     1      45.324 128.374  14.149  1.00  0.00     0.119 HD
ENDBRANCH   7  18
TORSDOF 3
ENDMDL
MODEL 7
REMARK VINA RESULT:      -7.1      1.108      1.543
REMARK SMILES C=Cc1cccc(-c2ccc3c(c2)[C@@H](N)CC3)c1
REMARK SMILES IDX 8 1 9 2 10 3 11 4 12 5 13 6 14 7 16 8 17 9 7 10 3 11 4 12
REMARK SMILES IDX 18 13 5 14 6 15 2 16 1 17 15 18
REMARK H PARENT 15 19 15 20
ROOT
ATOM      1  C   UNL     1      44.514 130.986  17.583  1.00  0.00    -0.018 A 
ATOM      2  C   UNL     1      43.267 131.620  17.370  1.00  0.00     0.009 A 
ATOM      3  C   UNL     1      42.534 132.136  18.449  1.00  0.00     0.005 A 
ATOM      4  C   UNL     1      43.056 132.012  19.736  1.00  0.00    -0.043 A 
ATOM      5  C   UNL     1      44.266 131.407  19.956  1.00  0.00    -0.027 A 
ATOM      6  C   UNL     1      45.014 130.881  18.899  1.00  0.00     0.014 A 
ATOM      7  C   UNL     1      44.627 131.394  21.401  1.00  0.00     0.081 C 
ATOM      8  C   UNL     1      43.374 131.974  22.098  1.00  0.00     0.028 C 
ATOM      9  C   UNL     1      42.433 132.491  20.993  1.00  0.00     0.038 C 
ENDROOT
BRANCH   1  10
ATOM     10  C   UNL     1      45.287 130.440  16.439  1.00  0.00    -0.018 A 
ATOM     11  C   UNL     1      46.764 130.789  14.518  1.00  0.00    -0.026 A 
ATOM     12  C   UNL     1      46.747 129.402  14.271  1.00  0.00     0.008 A 
ATOM     13  C   UNL     1      46.021 131.296  15.598  1.00  0.00     0.016 A 
ATOM     14  C   UNL     1      46.019 128.547  15.102  1.00  0.00     0.001 A 
ATOM     15  C   UNL     1      45.295 129.059  16.179  1.00  0.00     0.009 A 
BRANCH  11  16
ATOM     16  C   UNL     1      47.509 131.744  13.659  1.00  0.00     0.000 C 
ATOM     17  C   UNL     1      48.081 131.420  12.498  1.00  0.00     0.009 C 
ENDBRANCH  11  16
ENDBRANCH   1  10
BRANCH   7  18
ATOM     18  N   UNL     1      45.803 132.227  21.665  1.00  0.00    -0.324 NA
ATOM     19  H   UNL     1      46.018 132.185  22.688  1.00  0.00     0.119 HD
ATOM     20  H   UNL     1      46.630 131.837  21.155  1.00  0.00     0.119 HD
ENDBRANCH   7  18
TORSDOF 3
ENDMDL
MODEL 8
REMARK VINA RESULT:      -7.0      1.945      6.622
REMARK SMILES C=Cc1cccc(-c2ccc3c(c2)[C@@H](N)CC3)c1
REMARK SMILES IDX 8 1 9 2 10 3 11 4 12 5 13 6 14 7 16 8 17 9 7 10 3 11 4 12
REMARK SMILES IDX 18 13 5 14 6 15 2 16 1 17 15 18
REMARK H PARENT 15 19 15 20
ROOT
ATOM      1  C   UNL     1      44.492 131.480  18.474  1.00  0.00    -0.018 A 
ATOM      2  C   UNL     1      43.275 131.715  17.793  1.00  0.00     0.009 A 
ATOM      3  C   UNL     1      43.218 131.661  16.392  1.00  0.00     0.005 A 
ATOM      4  C   UNL     1      44.383 131.371  15.683  1.00  0.00    -0.043 A 
ATOM      5  C   UNL     1      45.567 131.134  16.330  1.00  0.00    -0.027 A 
ATOM      6  C   UNL     1      45.652 131.187  17.724  1.00  0.00     0.014 A 
ATOM      7  C   UNL     1      46.673 130.839  15.377  1.00  0.00     0.081 C 
ATOM      8  C   UNL     1      46.030 131.062  13.989  1.00  0.00     0.028 C 
ATOM      9  C   UNL     1      44.520 131.270  14.211  1.00  0.00     0.038 C 
ENDROOT
BRANCH   1  10
ATOM     10  C   UNL     1      44.550 131.540  19.957  1.00  0.00    -0.018 A 
ATOM     11  C   UNL     1      43.541 131.079  22.139  1.00  0.00    -0.026 A 
ATOM     12  C   UNL     1      44.663 131.659  22.764  1.00  0.00     0.008 A 
ATOM     13  C   UNL     1      43.493 131.036  20.735  1.00  0.00     0.016 A 
ATOM     14  C   UNL     1      45.716 132.162  21.997  1.00  0.00     0.001 A 
ATOM     15  C   UNL     1      45.664 132.104  20.604  1.00  0.00     0.009 A 
BRANCH  11  16
ATOM     16  C   UNL     1      42.389 130.541  22.905  1.00  0.00     0.000 C 
ATOM     17  C   UNL     1      42.427 129.423  23.631  1.00  0.00     0.009 C 
ENDBRANCH  11  16
ENDBRANCH   1  10
BRANCH   7  18
ATOM     18  N   UNL     1      47.144 129.459  15.517  1.00  0.00    -0.324 NA
ATOM     19  H   UNL     1      47.963 129.452  16.168  1.00  0.00     0.119 HD
ATOM     20  H   UNL     1      46.393 128.875  15.954  1.00  0.00     0.119 HD
ENDBRANCH   7  18
TORSDOF 3
ENDMDL
MODEL 9
REMARK VINA RESULT:      -6.9      1.649      2.791
REMARK SMILES C=Cc1cccc(-c2ccc3c(c2)[C@@H](N)CC3)c1
REMARK SMILES IDX 8 1 9 2 10 3 11 4 12 5 13 6 14 7 16 8 17 9 7 10 3 11 4 12
REMARK SMILES IDX 18 13 5 14 6 15 2 16 1 17 15 18
REMARK H PARENT 15 19 15 20
ROOT
ATOM      1  C   UNL     1      44.568 131.499  19.875  1.00  0.00    -0.018 A 
ATOM      2  C   UNL     1      45.725 131.959  20.548  1.00  0.00     0.009 A 
ATOM      3  C   UNL     1      45.722 132.127  21.940  1.00  0.00     0.005 A 
ATOM      4  C   UNL     1      44.559 131.834  22.651  1.00  0.00    -0.043 A 
ATOM      5  C   UNL     1      43.433 131.381  22.013  1.00  0.00    -0.027 A 
ATOM      6  C   UNL     1      43.408 131.209  20.626  1.00  0.00     0.014 A 
ATOM      7  C   UNL     1      42.319 131.127  22.967  1.00  0.00     0.081 C 
ATOM      8  C   UNL     1      42.872 131.626  24.321  1.00  0.00     0.028 C 
ATOM      9  C   UNL     1      44.365 131.948  24.115  1.00  0.00     0.038 C 
ENDROOT
BRANCH   1  10
ATOM     10  C   UNL     1      44.573 131.323  18.401  1.00  0.00    -0.018 A 
ATOM     11  C   UNL     1      45.671 130.524  16.364  1.00  0.00    -0.026 A 
ATOM     12  C   UNL     1      44.579 130.995  15.608  1.00  0.00     0.008 A 
ATOM     13  C   UNL     1      45.660 130.704  17.758  1.00  0.00     0.016 A 
ATOM     14  C   UNL     1      43.497 131.611  16.240  1.00  0.00     0.001 A 
ATOM     15  C   UNL     1      43.490 131.774  17.626  1.00  0.00     0.009 A 
BRANCH  11  16
ATOM     16  C   UNL     1      46.852 129.874  15.742  1.00  0.00     0.000 C 
ATOM     17  C   UNL     1      47.091 129.849  14.430  1.00  0.00     0.009 C 
ENDBRANCH  11  16
ENDBRANCH   1  10
BRANCH   7  18
ATOM     18  N   UNL     1      41.987 129.701  23.033  1.00  0.00    -0.324 NA
ATOM     19  H   UNL     1      42.294 129.247  22.142  1.00  0.00     0.119 HD
ATOM     20  H   UNL     1      42.523 129.253  23.813  1.00  0.00     0.119 HD
ENDBRANCH   7  18
TORSDOF 3
ENDMDL


