REMARK SMILES Cc1cc(F)[nH+]cc1-c1ccc2cc[nH]c2c1/N=C(\O)c1cc(F)c[nH]1
REMARK SMILES IDX 18 1 19 2 20 3 21 5 22 6 26 7 23 8 25 9 24 11 17 12 9 13
REMARK SMILES IDX 16 14 10 15 15 16 12 17 11 18 14 19 13 20 8 22 2 23 7 24
REMARK SMILES IDX 3 25 6 26 4 27 1 28 5 30
REMARK H PARENT 20 4 26 10 15 21 6 29
ROOT
ATOM      1  N   UNL     1       0.727   0.140   0.271  1.00  0.00    -0.210 NA
ENDROOT
BRANCH   1   2
ATOM      2  C   UNL     1       1.060  -0.613   1.276  1.00  0.00     0.235 C 
BRANCH   2   3
ATOM      3  O   UNL     1       0.745  -0.220   2.579  1.00  0.00    -0.492 OA
ATOM      4  H   UNL     1       0.974  -0.783   3.388  1.00  0.00     0.295 HD
ENDBRANCH   2   3
BRANCH   2   5
ATOM      5  C   UNL     1       1.744  -1.896   1.013  1.00  0.00     0.104 A 
ATOM      6  C   UNL     1       2.194  -2.796   1.966  1.00  0.00     0.072 A 
ATOM      7  N   UNL     1       2.017  -2.357  -0.227  1.00  0.00    -0.355 N 
ATOM      8  C   UNL     1       2.758  -3.835   1.257  1.00  0.00     0.141 A 
ATOM      9  C   UNL     1       2.636  -3.542  -0.082  1.00  0.00     0.122 A 
ATOM     10  H   UNL     1       1.791  -1.892  -1.134  1.00  0.00     0.166 HD
ATOM     11  F   UNL     1       3.330  -4.945   1.784  1.00  0.00    -0.205 F 
ENDBRANCH   2   5
ENDBRANCH   1   2
BRANCH   1  12
ATOM     12  C   UNL     1       0.083   1.417   0.387  1.00  0.00     0.099 A 
ATOM     13  C   UNL     1      -1.114   1.683  -0.324  1.00  0.00     0.016 A 
ATOM     14  C   UNL     1       0.643   2.465   1.135  1.00  0.00     0.072 A 
ATOM     15  C   UNL     1      -1.732   2.955  -0.220  1.00  0.00     0.012 A 
ATOM     16  N   UNL     1       1.808   2.473   1.809  1.00  0.00    -0.359 N 
ATOM     17  C   UNL     1       0.037   3.691   1.217  1.00  0.00     0.002 A 
ATOM     18  C   UNL     1      -1.155   3.972   0.557  1.00  0.00     0.011 A 
ATOM     19  C   UNL     1       1.927   3.712   2.336  1.00  0.00     0.083 A 
ATOM     20  C   UNL     1       0.838   4.503   1.989  1.00  0.00     0.028 A 
ATOM     21  H   UNL     1       2.502   1.698   1.895  1.00  0.00     0.166 HD
BRANCH  13  22
ATOM     22  C   UNL     1      -1.751   0.628  -1.146  1.00  0.00     0.051 A 
ATOM     23  C   UNL     1      -1.878   0.746  -2.549  1.00  0.00    -0.028 A 
ATOM     24  C   UNL     1      -2.239  -0.527  -0.515  1.00  0.00     0.318 A 
ATOM     25  C   UNL     1      -2.521  -0.277  -3.261  1.00  0.00     0.118 A 
ATOM     26  N   UNL     1      -2.841  -1.507  -1.240  1.00  0.00    -0.186 N 
ATOM     27  C   UNL     1      -2.994  -1.403  -2.587  1.00  0.00     0.358 A 
ATOM     28  C   UNL     1      -1.361   1.949  -3.293  1.00  0.00     0.045 C 
ATOM     29  H   UNL     1      -3.199  -2.357  -0.749  1.00  0.00     0.456 HD
ATOM     30  F   UNL     1      -3.606  -2.396  -3.278  1.00  0.00    -0.136 F 
ENDBRANCH  13  22
ENDBRANCH   1  12
TORSDOF 5


