MODEL 1
REMARK VINA RESULT:      -9.8      0.000      0.000
REMARK SMILES O=C1[N-]Cc2[nH+]cc(-c3ccc4[nH]ccc4c3)cc21
REMARK SMILES IDX 1 1 2 2 3 3 4 4 5 5 6 6 7 7 8 8 18 9 19 10 9 12 10 13 17 14
REMARK SMILES IDX 11 15 16 16 12 17 15 18 13 19 14 20
REMARK H PARENT 6 11 13 21
ROOT
ATOM      1  O   UNL     1      41.694 132.980  20.271  1.00  0.00    -0.315 OA
ATOM      2  C   UNL     1      42.572 132.252  20.803  1.00  0.00     0.089 C 
ATOM      3  N   UNL     1      42.575 131.891  22.181  1.00  0.00    -0.641 NA
ATOM      4  C   UNL     1      43.749 131.040  22.412  1.00  0.00    -0.006 C 
ATOM      5  C   UNL     1      44.397 130.954  21.063  1.00  0.00     0.171 A 
ATOM      6  N   UNL     1      45.524 130.273  20.736  1.00  0.00    -0.215 N 
ATOM      7  C   UNL     1      45.980 130.297  19.446  1.00  0.00     0.315 A 
ATOM      8  C   UNL     1      45.288 131.026  18.444  1.00  0.00     0.046 A 
ATOM      9  C   UNL     1      44.117 131.727  18.803  1.00  0.00     0.031 A 
ATOM     10  C   UNL     1      43.701 131.668  20.128  1.00  0.00     0.065 A 
ATOM     11  H   UNL     1      46.045 129.736  21.465  1.00  0.00     0.453 HD
ENDROOT
BRANCH   8  12
ATOM     12  C   UNL     1      45.783 131.048  17.045  1.00  0.00    -0.012 A 
ATOM     13  C   UNL     1      45.514 132.163  16.205  1.00  0.00     0.011 A 
ATOM     14  C   UNL     1      46.528 129.959  16.533  1.00  0.00     0.019 A 
ATOM     15  C   UNL     1      45.977 132.195  14.877  1.00  0.00     0.027 A 
ATOM     16  C   UNL     1      46.970 130.026  15.214  1.00  0.00    -0.000 A 
ATOM     17  C   UNL     1      46.705 131.103  14.415  1.00  0.00     0.045 A 
ATOM     18  C   UNL     1      47.698 129.126  14.465  1.00  0.00     0.028 A 
ATOM     19  N   UNL     1      47.232 130.932  13.191  1.00  0.00    -0.361 N 
ATOM     20  C   UNL     1      47.841 129.724  13.217  1.00  0.00     0.083 A 
ATOM     21  H   UNL     1      47.183 131.592  12.383  1.00  0.00     0.166 HD
ENDBRANCH   8  12
TORSDOF 1
ENDMDL
MODEL 2
REMARK VINA RESULT:      -8.9      2.024      6.908
REMARK SMILES O=C1[N-]Cc2[nH+]cc(-c3ccc4[nH]ccc4c3)cc21
REMARK SMILES IDX 1 1 2 2 3 3 4 4 5 5 6 6 7 7 8 8 18 9 19 10 9 12 10 13 17 14
REMARK SMILES IDX 11 15 16 16 12 17 15 18 13 19 14 20
REMARK H PARENT 6 11 13 21
ROOT
ATOM      1  O   UNL     1      43.526 131.902  14.128  1.00  0.00    -0.315 OA
ATOM      2  C   UNL     1      44.566 131.367  14.593  1.00  0.00     0.089 C 
ATOM      3  N   UNL     1      45.632 130.876  13.787  1.00  0.00    -0.641 NA
ATOM      4  C   UNL     1      46.654 130.332  14.690  1.00  0.00    -0.006 C 
ATOM      5  C   UNL     1      46.078 130.558  16.056  1.00  0.00     0.171 A 
ATOM      6  N   UNL     1      46.640 130.235  17.248  1.00  0.00    -0.215 N 
ATOM      7  C   UNL     1      45.976 130.518  18.409  1.00  0.00     0.315 A 
ATOM      8  C   UNL     1      44.703 131.146  18.384  1.00  0.00     0.046 A 
ATOM      9  C   UNL     1      44.134 131.475  17.135  1.00  0.00     0.031 A 
ATOM     10  C   UNL     1      44.855 131.164  15.988  1.00  0.00     0.065 A 
ATOM     11  H   UNL     1      47.575 129.770  17.279  1.00  0.00     0.453 HD
ENDROOT
BRANCH   8  12
ATOM     12  C   UNL     1      43.985 131.453  19.646  1.00  0.00    -0.012 A 
ATOM     13  C   UNL     1      42.795 132.231  19.625  1.00  0.00     0.011 A 
ATOM     14  C   UNL     1      44.479 130.977  20.884  1.00  0.00     0.019 A 
ATOM     15  C   UNL     1      42.106 132.529  20.814  1.00  0.00     0.027 A 
ATOM     16  C   UNL     1      43.771 131.293  22.041  1.00  0.00    -0.000 A 
ATOM     17  C   UNL     1      42.627 132.042  22.009  1.00  0.00     0.045 A 
ATOM     18  C   UNL     1      44.017 130.973  23.359  1.00  0.00     0.028 A 
ATOM     19  N   UNL     1      42.131 132.212  23.246  1.00  0.00    -0.361 N 
ATOM     20  C   UNL     1      42.979 131.560  24.075  1.00  0.00     0.083 A 
ATOM     21  H   UNL     1      41.272 132.739  23.516  1.00  0.00     0.166 HD
ENDBRANCH   8  12
TORSDOF 1
ENDMDL
MODEL 3
REMARK VINA RESULT:      -8.9      1.663      2.464
REMARK SMILES O=C1[N-]Cc2[nH+]cc(-c3ccc4[nH]ccc4c3)cc21
REMARK SMILES IDX 1 1 2 2 3 3 4 4 5 5 6 6 7 7 8 8 18 9 19 10 9 12 10 13 17 14
REMARK SMILES IDX 11 15 16 16 12 17 15 18 13 19 14 20
REMARK H PARENT 6 11 13 21
ROOT
ATOM      1  O   UNL     1      44.649 131.271  21.988  1.00  0.00    -0.315 OA
ATOM      2  C   UNL     1      43.723 131.731  21.270  1.00  0.00     0.089 C 
ATOM      3  N   UNL     1      42.560 132.370  21.789  1.00  0.00    -0.641 NA
ATOM      4  C   UNL     1      41.726 132.764  20.647  1.00  0.00    -0.006 C 
ATOM      5  C   UNL     1      42.510 132.299  19.457  1.00  0.00     0.171 A 
ATOM      6  N   UNL     1      42.172 132.430  18.149  1.00  0.00    -0.215 N 
ATOM      7  C   UNL     1      43.010 131.949  17.181  1.00  0.00     0.315 A 
ATOM      8  C   UNL     1      44.232 131.315  17.527  1.00  0.00     0.046 A 
ATOM      9  C   UNL     1      44.567 131.189  18.893  1.00  0.00     0.031 A 
ATOM     10  C   UNL     1      43.677 131.695  19.832  1.00  0.00     0.065 A 
ATOM     11  H   UNL     1      41.274 132.892  17.882  1.00  0.00     0.453 HD
ENDROOT
BRANCH   8  12
ATOM     12  C   UNL     1      45.141 130.796  16.475  1.00  0.00    -0.012 A 
ATOM     13  C   UNL     1      45.348 129.397  16.329  1.00  0.00     0.011 A 
ATOM     14  C   UNL     1      45.813 131.690  15.607  1.00  0.00     0.019 A 
ATOM     15  C   UNL     1      46.207 128.894  15.336  1.00  0.00     0.027 A 
ATOM     16  C   UNL     1      46.657 131.155  14.636  1.00  0.00    -0.000 A 
ATOM     17  C   UNL     1      46.848 129.808  14.505  1.00  0.00     0.045 A 
ATOM     18  C   UNL     1      47.427 131.776  13.676  1.00  0.00     0.028 A 
ATOM     19  N   UNL     1      47.703 129.541  13.504  1.00  0.00    -0.361 N 
ATOM     20  C   UNL     1      48.060 130.743  12.994  1.00  0.00     0.083 A 
ATOM     21  H   UNL     1      48.030 128.602  13.183  1.00  0.00     0.166 HD
ENDBRANCH   8  12
TORSDOF 1
ENDMDL
MODEL 4
REMARK VINA RESULT:      -8.3      1.584      2.121
REMARK SMILES O=C1[N-]Cc2[nH+]cc(-c3ccc4[nH]ccc4c3)cc21
REMARK SMILES IDX 1 1 2 2 3 3 4 4 5 5 6 6 7 7 8 8 18 9 19 10 9 12 10 13 17 14
REMARK SMILES IDX 11 15 16 16 12 17 15 18 13 19 14 20
REMARK H PARENT 6 11 13 21
ROOT
ATOM      1  O   UNL     1      45.238 130.781  22.130  1.00  0.00    -0.315 OA
ATOM      2  C   UNL     1      44.176 131.298  21.695  1.00  0.00     0.089 C 
ATOM      3  N   UNL     1      43.122 131.766  22.530  1.00  0.00    -0.641 NA
ATOM      4  C   UNL     1      42.069 132.298  21.656  1.00  0.00    -0.006 C 
ATOM      5  C   UNL     1      42.616 132.094  20.275  1.00  0.00     0.171 A 
ATOM      6  N   UNL     1      42.025 132.426  19.100  1.00  0.00    -0.215 N 
ATOM      7  C   UNL     1      42.669 132.172  17.921  1.00  0.00     0.315 A 
ATOM      8  C   UNL     1      43.952 131.563  17.910  1.00  0.00     0.046 A 
ATOM      9  C   UNL     1      44.552 131.225  19.142  1.00  0.00     0.031 A 
ATOM     10  C   UNL     1      43.850 131.507  20.308  1.00  0.00     0.065 A 
ATOM     11  H   UNL     1      41.080 132.871  19.094  1.00  0.00     0.453 HD
ENDROOT
BRANCH   8  12
ATOM     12  C   UNL     1      44.650 131.290  16.629  1.00  0.00    -0.012 A 
ATOM     13  C   UNL     1      44.078 131.707  15.396  1.00  0.00     0.011 A 
ATOM     14  C   UNL     1      45.892 130.611  16.622  1.00  0.00     0.019 A 
ATOM     15  C   UNL     1      44.730 131.453  14.176  1.00  0.00     0.027 A 
ATOM     16  C   UNL     1      46.508 130.377  15.395  1.00  0.00    -0.000 A 
ATOM     17  C   UNL     1      45.948 130.782  14.215  1.00  0.00     0.045 A 
ATOM     18  C   UNL     1      47.696 129.747  15.094  1.00  0.00     0.028 A 
ATOM     19  N   UNL     1      46.727 130.441  13.175  1.00  0.00    -0.361 N 
ATOM     20  C   UNL     1      47.797 129.808  13.708  1.00  0.00     0.083 A 
ATOM     21  H   UNL     1      46.546 130.623  12.162  1.00  0.00     0.166 HD
ENDBRANCH   8  12
TORSDOF 1
ENDMDL
MODEL 5
REMARK VINA RESULT:      -8.0      2.459      7.173
REMARK SMILES O=C1[N-]Cc2[nH+]cc(-c3ccc4[nH]ccc4c3)cc21
REMARK SMILES IDX 1 1 2 2 3 3 4 4 5 5 6 6 7 7 8 8 18 9 19 10 9 12 10 13 17 14
REMARK SMILES IDX 11 15 16 16 12 17 15 18 13 19 14 20
REMARK H PARENT 6 11 13 21
ROOT
ATOM      1  O   UNL     1      48.515 129.123  14.765  1.00  0.00    -0.315 OA
ATOM      2  C   UNL     1      47.596 129.892  14.381  1.00  0.00     0.089 C 
ATOM      3  N   UNL     1      47.402 130.281  13.025  1.00  0.00    -0.641 NA
ATOM      4  C   UNL     1      46.238 131.175  12.984  1.00  0.00    -0.006 C 
ATOM      5  C   UNL     1      45.799 131.253  14.415  1.00  0.00     0.171 A 
ATOM      6  N   UNL     1      44.750 131.955  14.916  1.00  0.00    -0.215 N 
ATOM      7  C   UNL     1      44.485 131.913  16.256  1.00  0.00     0.315 A 
ATOM      8  C   UNL     1      45.293 131.142  17.134  1.00  0.00     0.046 A 
ATOM      9  C   UNL     1      46.379 130.419  16.595  1.00  0.00     0.031 A 
ATOM     10  C   UNL     1      46.601 130.499  15.226  1.00  0.00     0.065 A 
ATOM     11  H   UNL     1      44.151 132.528  14.281  1.00  0.00     0.453 HD
ENDROOT
BRANCH   8  12
ATOM     12  C   UNL     1      45.001 131.097  18.588  1.00  0.00    -0.012 A 
ATOM     13  C   UNL     1      45.890 130.434  19.479  1.00  0.00     0.011 A 
ATOM     14  C   UNL     1      43.835 131.711  19.103  1.00  0.00     0.019 A 
ATOM     15  C   UNL     1      45.624 130.383  20.859  1.00  0.00     0.027 A 
ATOM     16  C   UNL     1      43.604 131.640  20.475  1.00  0.00    -0.000 A 
ATOM     17  C   UNL     1      44.465 130.999  21.322  1.00  0.00     0.045 A 
ATOM     18  C   UNL     1      42.567 132.134  21.237  1.00  0.00     0.028 A 
ATOM     19  N   UNL     1      44.026 131.066  22.590  1.00  0.00    -0.361 N 
ATOM     20  C   UNL     1      42.865 131.759  22.542  1.00  0.00     0.083 A 
ATOM     21  H   UNL     1      44.483 130.664  23.440  1.00  0.00     0.166 HD
ENDBRANCH   8  12
TORSDOF 1
ENDMDL
MODEL 6
REMARK VINA RESULT:      -8.0      2.399      7.003
REMARK SMILES O=C1[N-]Cc2[nH+]cc(-c3ccc4[nH]ccc4c3)cc21
REMARK SMILES IDX 1 1 2 2 3 3 4 4 5 5 6 6 7 7 8 8 18 9 19 10 9 12 10 13 17 14
REMARK SMILES IDX 11 15 16 16 12 17 15 18 13 19 14 20
REMARK H PARENT 6 11 13 21
ROOT
ATOM      1  O   UNL     1      47.432 128.091  14.691  1.00  0.00    -0.315 OA
ATOM      2  C   UNL     1      47.337 129.310  14.394  1.00  0.00     0.089 C 
ATOM      3  N   UNL     1      47.900 129.887  13.220  1.00  0.00    -0.641 NA
ATOM      4  C   UNL     1      47.575 131.318  13.231  1.00  0.00    -0.006 C 
ATOM      5  C   UNL     1      46.789 131.495  14.495  1.00  0.00     0.171 A 
ATOM      6  N   UNL     1      46.245 132.644  14.970  1.00  0.00    -0.215 N 
ATOM      7  C   UNL     1      45.549 132.628  16.147  1.00  0.00     0.315 A 
ATOM      8  C   UNL     1      45.387 131.422  16.880  1.00  0.00     0.046 A 
ATOM      9  C   UNL     1      45.959 130.237  16.369  1.00  0.00     0.031 A 
ATOM     10  C   UNL     1      46.655 130.314  15.169  1.00  0.00     0.065 A 
ATOM     11  H   UNL     1      46.360 133.538  14.443  1.00  0.00     0.453 HD
ENDROOT
BRANCH   8  12
ATOM     12  C   UNL     1      44.629 131.407  18.156  1.00  0.00    -0.012 A 
ATOM     13  C   UNL     1      43.261 131.797  18.184  1.00  0.00     0.011 A 
ATOM     14  C   UNL     1      45.260 131.007  19.358  1.00  0.00     0.019 A 
ATOM     15  C   UNL     1      42.533 131.788  19.387  1.00  0.00     0.027 A 
ATOM     16  C   UNL     1      44.507 131.011  20.530  1.00  0.00    -0.000 A 
ATOM     17  C   UNL     1      43.193 131.388  20.545  1.00  0.00     0.045 A 
ATOM     18  C   UNL     1      44.856 130.680  21.821  1.00  0.00     0.028 A 
ATOM     19  N   UNL     1      42.687 131.309  21.788  1.00  0.00    -0.361 N 
ATOM     20  C   UNL     1      43.702 130.877  22.571  1.00  0.00     0.083 A 
ATOM     21  H   UNL     1      41.714 131.537  22.091  1.00  0.00     0.166 HD
ENDBRANCH   8  12
TORSDOF 1
ENDMDL
MODEL 7
REMARK VINA RESULT:      -7.8      1.711      2.088
REMARK SMILES O=C1[N-]Cc2[nH+]cc(-c3ccc4[nH]ccc4c3)cc21
REMARK SMILES IDX 1 1 2 2 3 3 4 4 5 5 6 6 7 7 8 8 18 9 19 10 9 12 10 13 17 14
REMARK SMILES IDX 11 15 16 16 12 17 15 18 13 19 14 20
REMARK H PARENT 6 11 13 21
ROOT
ATOM      1  O   UNL     1      45.702 128.645  21.988  1.00  0.00    -0.315 OA
ATOM      2  C   UNL     1      44.879 129.583  21.823  1.00  0.00     0.089 C 
ATOM      3  N   UNL     1      43.978 130.034  22.830  1.00  0.00    -0.641 NA
ATOM      4  C   UNL     1      43.191 131.134  22.258  1.00  0.00    -0.006 C 
ATOM      5  C   UNL     1      43.723 131.263  20.862  1.00  0.00     0.171 A 
ATOM      6  N   UNL     1      43.329 132.148  19.911  1.00  0.00    -0.215 N 
ATOM      7  C   UNL     1      43.925 132.132  18.681  1.00  0.00     0.315 A 
ATOM      8  C   UNL     1      44.955 131.200  18.385  1.00  0.00     0.046 A 
ATOM      9  C   UNL     1      45.352 130.288  19.386  1.00  0.00     0.031 A 
ATOM     10  C   UNL     1      44.710 130.350  20.617  1.00  0.00     0.065 A 
ATOM     11  H   UNL     1      42.570 132.836  20.116  1.00  0.00     0.453 HD
ENDROOT
BRANCH   8  12
ATOM     12  C   UNL     1      45.603 131.186  17.049  1.00  0.00    -0.012 A 
ATOM     13  C   UNL     1      45.570 132.343  16.223  1.00  0.00     0.011 A 
ATOM     14  C   UNL     1      46.258 130.021  16.584  1.00  0.00     0.019 A 
ATOM     15  C   UNL     1      46.179 132.342  14.956  1.00  0.00     0.027 A 
ATOM     16  C   UNL     1      46.850 130.058  15.324  1.00  0.00    -0.000 A 
ATOM     17  C   UNL     1      46.812 131.175  14.538  1.00  0.00     0.045 A 
ATOM     18  C   UNL     1      47.539 129.087  14.629  1.00  0.00     0.028 A 
ATOM     19  N   UNL     1      47.448 130.963  13.373  1.00  0.00    -0.361 N 
ATOM     20  C   UNL     1      47.894 129.686  13.425  1.00  0.00     0.083 A 
ATOM     21  H   UNL     1      47.572 131.639  12.587  1.00  0.00     0.166 HD
ENDBRANCH   8  12
TORSDOF 1
ENDMDL
MODEL 8
REMARK VINA RESULT:      -7.7      2.222      3.214
REMARK SMILES O=C1[N-]Cc2[nH+]cc(-c3ccc4[nH]ccc4c3)cc21
REMARK SMILES IDX 1 1 2 2 3 3 4 4 5 5 6 6 7 7 8 8 18 9 19 10 9 12 10 13 17 14
REMARK SMILES IDX 11 15 16 16 12 17 15 18 13 19 14 20
REMARK H PARENT 6 11 13 21
ROOT
ATOM      1  O   UNL     1      44.626 129.612  23.857  1.00  0.00    -0.315 OA
ATOM      2  C   UNL     1      43.782 130.497  23.559  1.00  0.00     0.089 C 
ATOM      3  N   UNL     1      42.900 131.101  24.501  1.00  0.00    -0.641 NA
ATOM      4  C   UNL     1      42.078 132.077  23.775  1.00  0.00    -0.006 C 
ATOM      5  C   UNL     1      42.569 131.973  22.362  1.00  0.00     0.171 A 
ATOM      6  N   UNL     1      42.133 132.677  21.287  1.00  0.00    -0.215 N 
ATOM      7  C   UNL     1      42.696 132.460  20.060  1.00  0.00     0.315 A 
ATOM      8  C   UNL     1      43.733 131.505  19.895  1.00  0.00     0.046 A 
ATOM      9  C   UNL     1      44.174 130.782  21.025  1.00  0.00     0.031 A 
ATOM     10  C   UNL     1      43.565 131.045  22.246  1.00  0.00     0.065 A 
ATOM     11  H   UNL     1      41.368 133.380  21.394  1.00  0.00     0.453 HD
ENDROOT
BRANCH   8  12
ATOM     12  C   UNL     1      44.344 131.272  18.563  1.00  0.00    -0.012 A 
ATOM     13  C   UNL     1      45.605 130.624  18.454  1.00  0.00     0.011 A 
ATOM     14  C   UNL     1      43.679 131.695  17.387  1.00  0.00     0.019 A 
ATOM     15  C   UNL     1      46.195 130.399  17.197  1.00  0.00     0.027 A 
ATOM     16  C   UNL     1      44.293 131.455  16.160  1.00  0.00    -0.000 A 
ATOM     17  C   UNL     1      45.506 130.832  16.067  1.00  0.00     0.045 A 
ATOM     18  C   UNL     1      43.885 131.756  14.879  1.00  0.00     0.028 A 
ATOM     19  N   UNL     1      45.889 130.718  14.785  1.00  0.00    -0.361 N 
ATOM     20  C   UNL     1      44.900 131.283  14.054  1.00  0.00     0.083 A 
ATOM     21  H   UNL     1      46.768 130.286  14.422  1.00  0.00     0.166 HD
ENDBRANCH   8  12
TORSDOF 1
ENDMDL
MODEL 9
REMARK VINA RESULT:      -7.6      1.958      2.739
REMARK SMILES O=C1[N-]Cc2[nH+]cc(-c3ccc4[nH]ccc4c3)cc21
REMARK SMILES IDX 1 1 2 2 3 3 4 4 5 5 6 6 7 7 8 8 18 9 19 10 9 12 10 13 17 14
REMARK SMILES IDX 11 15 16 16 12 17 15 18 13 19 14 20
REMARK H PARENT 6 11 13 21
ROOT
ATOM      1  O   UNL     1      44.951 129.128  23.280  1.00  0.00    -0.315 OA
ATOM      2  C   UNL     1      44.118 130.063  23.156  1.00  0.00     0.089 C 
ATOM      3  N   UNL     1      43.366 130.604  24.238  1.00  0.00    -0.641 NA
ATOM      4  C   UNL     1      42.515 131.669  23.695  1.00  0.00    -0.006 C 
ATOM      5  C   UNL     1      42.850 131.683  22.234  1.00  0.00     0.171 A 
ATOM      6  N   UNL     1      42.333 132.499  21.280  1.00  0.00    -0.215 N 
ATOM      7  C   UNL     1      42.755 132.380  19.985  1.00  0.00     0.315 A 
ATOM      8  C   UNL     1      43.729 131.411  19.624  1.00  0.00     0.046 A 
ATOM      9  C   UNL     1      44.256 130.572  20.629  1.00  0.00     0.031 A 
ATOM     10  C   UNL     1      43.789 130.738  21.928  1.00  0.00     0.065 A 
ATOM     11  H   UNL     1      41.614 133.213  21.532  1.00  0.00     0.453 HD
ENDROOT
BRANCH   8  12
ATOM     12  C   UNL     1      44.187 131.286  18.218  1.00  0.00    -0.012 A 
ATOM     13  C   UNL     1      43.398 131.805  17.155  1.00  0.00     0.011 A 
ATOM     14  C   UNL     1      45.415 130.646  17.920  1.00  0.00     0.019 A 
ATOM     15  C   UNL     1      43.821 131.691  15.819  1.00  0.00     0.027 A 
ATOM     16  C   UNL     1      45.801 130.552  16.585  1.00  0.00    -0.000 A 
ATOM     17  C   UNL     1      45.033 131.054  15.571  1.00  0.00     0.045 A 
ATOM     18  C   UNL     1      46.922 129.988  16.013  1.00  0.00     0.028 A 
ATOM     19  N   UNL     1      45.615 130.839  14.379  1.00  0.00    -0.361 N 
ATOM     20  C   UNL     1      46.770 130.187  14.645  1.00  0.00     0.083 A 
ATOM     21  H   UNL     1      45.252 131.115  13.440  1.00  0.00     0.166 HD
ENDBRANCH   8  12
TORSDOF 1
ENDMDL


