REMARK SMILES NNc1ccc2cc(-c3ncnc4c3COC4)[nH]c2c1F
REMARK SMILES IDX 2 1 1 3 3 6 4 7 20 8 5 9 19 10 6 11 18 12 7 13 8 14 21 15
REMARK SMILES IDX 9 17 10 18 14 19 11 20 13 21 15 22 12 23 17 24 16 25
REMARK H PARENT 2 2 1 4 1 5 18 16
ROOT
ATOM      1  N   UNL     1       0.547  -5.132   0.964  1.00  0.00    -0.321 N 
ATOM      2  H   UNL     1       0.794  -5.849   0.243  1.00  0.00     0.181 HD
ENDROOT
BRANCH   1   3
ATOM      3  N   UNL     1       0.255  -5.554   2.271  1.00  0.00    -0.250 NA
ATOM      4  H   UNL     1      -0.766  -5.391   2.426  1.00  0.00     0.143 HD
ATOM      5  H   UNL     1       0.399  -6.588   2.313  1.00  0.00     0.143 HD
ENDBRANCH   1   3
BRANCH   1   6
ATOM      6  C   UNL     1       0.556  -3.740   0.606  1.00  0.00     0.087 A 
ATOM      7  C   UNL     1       0.313  -2.735   1.582  1.00  0.00     0.031 A 
ATOM      8  C   UNL     1       0.813  -3.360  -0.732  1.00  0.00     0.171 A 
ATOM      9  C   UNL     1       0.324  -1.373   1.230  1.00  0.00     0.013 A 
ATOM     10  C   UNL     1       0.815  -2.001  -1.044  1.00  0.00     0.084 A 
ATOM     11  C   UNL     1       0.579  -1.045  -0.098  1.00  0.00     0.003 A 
ATOM     12  N   UNL     1       1.036  -1.438  -2.243  1.00  0.00    -0.351 N 
ATOM     13  C   UNL     1       0.651   0.183  -0.717  1.00  0.00     0.038 A 
ATOM     14  C   UNL     1       0.937  -0.097  -2.058  1.00  0.00     0.066 A 
ATOM     15  F   UNL     1       1.050  -4.286  -1.696  1.00  0.00    -0.202 F 
ATOM     16  H   UNL     1       1.241  -1.940  -3.136  1.00  0.00     0.167 HD
BRANCH  14  17
ATOM     17  C   UNL     1       1.126   0.871  -3.169  1.00  0.00     0.096 A 
ATOM     18  N   UNL     1       1.461   0.383  -4.401  1.00  0.00    -0.234 NA
ATOM     19  C   UNL     1       0.976   2.266  -3.051  1.00  0.00     0.030 A 
ATOM     20  C   UNL     1       1.644   1.203  -5.477  1.00  0.00     0.222 A 
ATOM     21  C   UNL     1       1.160   3.050  -4.130  1.00  0.00     0.076 A 
ATOM     22  C   UNL     1       0.621   3.147  -1.917  1.00  0.00     0.200 C 
ATOM     23  N   UNL     1       1.492   2.549  -5.344  1.00  0.00    -0.239 NA
ATOM     24  C   UNL     1       0.939   4.458  -3.781  1.00  0.00     0.217 C 
ATOM     25  O   UNL     1       0.590   4.484  -2.405  1.00  0.00    -0.370 OA
ENDBRANCH  14  17
ENDBRANCH   1   6
TORSDOF 3


