MODEL 1
REMARK VINA RESULT:      -8.7      0.000      0.000
REMARK SMILES C#CCOCn1nc2cc(-c3c[nH+]c(F)cc3C)ccc2c1C
REMARK SMILES IDX 4 1 3 2 2 3 1 4 5 5 6 6 7 7 22 8 8 9 21 10 9 11 20 12 10 13
REMARK SMILES IDX 19 14 23 15 11 16 12 17 17 18 13 19 16 20 14 21 18 22 15 24
REMARK H PARENT 13 23
ROOT
ATOM      1  O   UNL     1      42.564 130.957  23.417  1.00  0.00    -0.347 OA
ENDROOT
BRANCH   1   2
ATOM      2  C   UNL     1      43.071 129.646  23.292  1.00  0.00     0.251 C 
BRANCH   2   3
ATOM      3  C   UNL     1      42.007 128.697  23.617  1.00  0.00    -0.078 C 
ATOM      4  C   UNL     1      41.130 127.913  23.885  1.00  0.00     0.006 C 
ENDBRANCH   2   3
ENDBRANCH   1   2
BRANCH   1   5
ATOM      5  C   UNL     1      43.527 131.894  22.976  1.00  0.00     0.306 C 
BRANCH   5   6
ATOM      6  N   UNL     1      43.664 131.844  21.520  1.00  0.00    -0.243 N 
ATOM      7  N   UNL     1      44.725 131.329  20.909  1.00  0.00    -0.170 NA
ATOM      8  C   UNL     1      42.752 132.262  20.606  1.00  0.00     0.046 A 
ATOM      9  C   UNL     1      44.485 131.411  19.589  1.00  0.00     0.093 A 
ATOM     10  C   UNL     1      43.260 131.977  19.357  1.00  0.00     0.023 A 
ATOM     11  C   UNL     1      45.303 130.979  18.548  1.00  0.00     0.039 A 
ATOM     12  C   UNL     1      42.758 132.149  18.069  1.00  0.00     0.013 A 
ATOM     13  C   UNL     1      44.829 131.133  17.225  1.00  0.00    -0.010 A 
ATOM     14  C   UNL     1      43.561 131.727  16.994  1.00  0.00     0.010 A 
ATOM     15  C   UNL     1      41.391 132.810  20.916  1.00  0.00     0.067 C 
BRANCH  13  16
ATOM     16  C   UNL     1      45.671 130.698  16.088  1.00  0.00     0.049 A 
ATOM     17  C   UNL     1      46.832 129.954  16.348  1.00  0.00     0.317 A 
ATOM     18  C   UNL     1      45.342 131.000  14.745  1.00  0.00    -0.028 A 
ATOM     19  N   UNL     1      47.643 129.559  15.330  1.00  0.00    -0.186 N 
ATOM     20  C   UNL     1      46.212 130.593  13.724  1.00  0.00     0.118 A 
ATOM     21  C   UNL     1      47.361 129.867  14.037  1.00  0.00     0.358 A 
ATOM     22  C   UNL     1      44.094 131.760  14.379  1.00  0.00     0.045 C 
ATOM     23  H   UNL     1      48.506 129.012  15.550  1.00  0.00     0.456 HD
ATOM     24  F   UNL     1      48.197 129.465  13.048  1.00  0.00    -0.136 F 
ENDBRANCH  13  16
ENDBRANCH   5   6
ENDBRANCH   1   5
TORSDOF 5
ENDMDL
MODEL 2
REMARK VINA RESULT:      -7.7      1.126      1.132
REMARK SMILES C#CCOCn1nc2cc(-c3c[nH+]c(F)cc3C)ccc2c1C
REMARK SMILES IDX 4 1 3 2 2 3 1 4 5 5 6 6 7 7 22 8 8 9 21 10 9 11 20 12 10 13
REMARK SMILES IDX 19 14 23 15 11 16 12 17 17 18 13 19 16 20 14 21 18 22 15 24
REMARK H PARENT 13 23
ROOT
ATOM      1  O   UNL     1      44.554 129.593  23.849  1.00  0.00    -0.347 OA
ENDROOT
BRANCH   1   2
ATOM      2  C   UNL     1      44.115 128.727  22.824  1.00  0.00     0.251 C 
BRANCH   2   3
ATOM      3  C   UNL     1      43.640 127.483  23.430  1.00  0.00    -0.078 C 
ATOM      4  C   UNL     1      43.248 126.459  23.930  1.00  0.00     0.006 C 
ENDBRANCH   2   3
ENDBRANCH   1   2
BRANCH   1   5
ATOM      5  C   UNL     1      44.312 130.938  23.485  1.00  0.00     0.306 C 
BRANCH   5   6
ATOM      6  N   UNL     1      44.315 131.084  22.029  1.00  0.00    -0.243 N 
ATOM      7  N   UNL     1      45.289 130.618  21.256  1.00  0.00    -0.170 NA
ATOM      8  C   UNL     1      43.347 131.660  21.271  1.00  0.00     0.046 A 
ATOM      9  C   UNL     1      44.935 130.891  19.987  1.00  0.00     0.093 A 
ATOM     10  C   UNL     1      43.726 131.530  19.952  1.00  0.00     0.023 A 
ATOM     11  C   UNL     1      45.633 130.575  18.825  1.00  0.00     0.039 A 
ATOM     12  C   UNL     1      43.119 131.899  18.753  1.00  0.00     0.013 A 
ATOM     13  C   UNL     1      45.052 130.929  17.586  1.00  0.00    -0.010 A 
ATOM     14  C   UNL     1      43.800 131.599  17.559  1.00  0.00     0.010 A 
ATOM     15  C   UNL     1      42.049 132.212  21.781  1.00  0.00     0.067 C 
BRANCH  13  16
ATOM     16  C   UNL     1      45.764 130.623  16.325  1.00  0.00     0.049 A 
ATOM     17  C   UNL     1      46.968 129.904  16.383  1.00  0.00     0.317 A 
ATOM     18  C   UNL     1      45.270 131.024  15.061  1.00  0.00    -0.028 A 
ATOM     19  N   UNL     1      47.664 129.627  15.247  1.00  0.00    -0.186 N 
ATOM     20  C   UNL     1      46.024 130.737  13.914  1.00  0.00     0.118 A 
ATOM     21  C   UNL     1      47.222 130.031  14.027  1.00  0.00     0.358 A 
ATOM     22  C   UNL     1      43.967 131.764  14.910  1.00  0.00     0.045 C 
ATOM     23  H   UNL     1      48.561 129.097  15.317  1.00  0.00     0.456 HD
ATOM     24  F   UNL     1      47.945 129.746  12.916  1.00  0.00    -0.136 F 
ENDBRANCH  13  16
ENDBRANCH   5   6
ENDBRANCH   1   5
TORSDOF 5
ENDMDL
MODEL 3
REMARK VINA RESULT:      -7.6      1.360      1.532
REMARK SMILES C#CCOCn1nc2cc(-c3c[nH+]c(F)cc3C)ccc2c1C
REMARK SMILES IDX 4 1 3 2 2 3 1 4 5 5 6 6 7 7 22 8 8 9 21 10 9 11 20 12 10 13
REMARK SMILES IDX 19 14 23 15 11 16 12 17 17 18 13 19 16 20 14 21 18 22 15 24
REMARK H PARENT 13 23
ROOT
ATOM      1  O   UNL     1      43.281 129.570  23.109  1.00  0.00    -0.347 OA
ENDROOT
BRANCH   1   2
ATOM      2  C   UNL     1      43.884 128.864  24.173  1.00  0.00     0.251 C 
BRANCH   2   3
ATOM      3  C   UNL     1      44.750 127.825  23.616  1.00  0.00    -0.078 C 
ATOM      4  C   UNL     1      45.463 126.967  23.158  1.00  0.00     0.006 C 
ENDBRANCH   2   3
ENDBRANCH   1   2
BRANCH   1   5
ATOM      5  C   UNL     1      44.000 130.759  22.847  1.00  0.00     0.306 C 
BRANCH   5   6
ATOM      6  N   UNL     1      44.179 130.944  21.406  1.00  0.00    -0.243 N 
ATOM      7  N   UNL     1      45.211 130.444  20.735  1.00  0.00    -0.170 NA
ATOM      8  C   UNL     1      43.337 131.592  20.561  1.00  0.00     0.046 A 
ATOM      9  C   UNL     1      45.021 130.770  19.443  1.00  0.00     0.093 A 
ATOM     10  C   UNL     1      43.859 131.477  19.291  1.00  0.00     0.023 A 
ATOM     11  C   UNL     1      45.832 130.447  18.359  1.00  0.00     0.039 A 
ATOM     12  C   UNL     1      43.416 131.910  18.043  1.00  0.00     0.013 A 
ATOM     13  C   UNL     1      45.417 130.865  17.073  1.00  0.00    -0.010 A 
ATOM     14  C   UNL     1      44.214 131.604  16.926  1.00  0.00     0.010 A 
ATOM     15  C   UNL     1      42.020 132.202  20.937  1.00  0.00     0.067 C 
BRANCH  13  16
ATOM     16  C   UNL     1      46.254 130.553  15.893  1.00  0.00     0.049 A 
ATOM     17  C   UNL     1      46.726 129.242  15.723  1.00  0.00     0.317 A 
ATOM     18  C   UNL     1      46.590 131.529  14.925  1.00  0.00    -0.028 A 
ATOM     19  N   UNL     1      47.519 128.925  14.664  1.00  0.00    -0.186 N 
ATOM     20  C   UNL     1      47.424 131.170  13.857  1.00  0.00     0.118 A 
ATOM     21  C   UNL     1      47.878 129.856  13.741  1.00  0.00     0.358 A 
ATOM     22  C   UNL     1      46.091 132.948  15.014  1.00  0.00     0.045 C 
ATOM     23  H   UNL     1      47.864 127.944  14.563  1.00  0.00     0.456 HD
ATOM     24  F   UNL     1      48.678 129.507  12.703  1.00  0.00    -0.136 F 
ENDBRANCH  13  16
ENDBRANCH   5   6
ENDBRANCH   1   5
TORSDOF 5
ENDMDL
MODEL 4
REMARK VINA RESULT:      -7.3      1.212      1.534
REMARK SMILES C#CCOCn1nc2cc(-c3c[nH+]c(F)cc3C)ccc2c1C
REMARK SMILES IDX 4 1 3 2 2 3 1 4 5 5 6 6 7 7 22 8 8 9 21 10 9 11 20 12 10 13
REMARK SMILES IDX 19 14 23 15 11 16 12 17 17 18 13 19 16 20 14 21 18 22 15 24
REMARK H PARENT 13 23
ROOT
ATOM      1  O   UNL     1      43.860 130.678  23.364  1.00  0.00    -0.347 OA
ENDROOT
BRANCH   1   2
ATOM      2  C   UNL     1      43.001 129.563  23.257  1.00  0.00     0.251 C 
BRANCH   2   3
ATOM      3  C   UNL     1      43.811 128.362  23.055  1.00  0.00    -0.078 C 
ATOM      4  C   UNL     1      44.480 127.373  22.887  1.00  0.00     0.006 C 
ENDBRANCH   2   3
ENDBRANCH   1   2
BRANCH   1   5
ATOM      5  C   UNL     1      43.239 131.823  22.811  1.00  0.00     0.306 C 
BRANCH   5   6
ATOM      6  N   UNL     1      43.378 131.830  21.355  1.00  0.00    -0.243 N 
ATOM      7  N   UNL     1      44.521 131.556  20.735  1.00  0.00    -0.170 NA
ATOM      8  C   UNL     1      42.397 132.070  20.448  1.00  0.00     0.046 A 
ATOM      9  C   UNL     1      44.265 131.613  19.416  1.00  0.00     0.093 A 
ATOM     10  C   UNL     1      42.949 131.920  19.194  1.00  0.00     0.023 A 
ATOM     11  C   UNL     1      45.151 131.379  18.368  1.00  0.00     0.039 A 
ATOM     12  C   UNL     1      42.418 132.011  17.909  1.00  0.00     0.013 A 
ATOM     13  C   UNL     1      44.652 131.458  17.048  1.00  0.00    -0.010 A 
ATOM     14  C   UNL     1      43.288 131.784  16.827  1.00  0.00     0.010 A 
ATOM     15  C   UNL     1      40.954 132.321  20.767  1.00  0.00     0.067 C 
BRANCH  13  16
ATOM     16  C   UNL     1      45.561 131.228  15.903  1.00  0.00     0.049 A 
ATOM     17  C   UNL     1      46.233 132.323  15.339  1.00  0.00     0.317 A 
ATOM     18  C   UNL     1      45.783 129.940  15.360  1.00  0.00    -0.028 A 
ATOM     19  N   UNL     1      47.056 132.154  14.269  1.00  0.00    -0.186 N 
ATOM     20  C   UNL     1      46.624 129.806  14.247  1.00  0.00     0.118 A 
ATOM     21  C   UNL     1      47.258 130.930  13.715  1.00  0.00     0.358 A 
ATOM     22  C   UNL     1      45.131 128.709  15.933  1.00  0.00     0.045 C 
ATOM     23  H   UNL     1      47.540 132.986  13.863  1.00  0.00     0.456 HD
ATOM     24  F   UNL     1      48.078 130.798  12.643  1.00  0.00    -0.136 F 
ENDBRANCH  13  16
ENDBRANCH   5   6
ENDBRANCH   1   5
TORSDOF 5
ENDMDL
MODEL 5
REMARK VINA RESULT:      -6.9      1.799      2.095
REMARK SMILES C#CCOCn1nc2cc(-c3c[nH+]c(F)cc3C)ccc2c1C
REMARK SMILES IDX 4 1 3 2 2 3 1 4 5 5 6 6 7 7 22 8 8 9 21 10 9 11 20 12 10 13
REMARK SMILES IDX 19 14 23 15 11 16 12 17 17 18 13 19 16 20 14 21 18 22 15 24
REMARK H PARENT 13 23
ROOT
ATOM      1  O   UNL     1      44.340 129.107  23.889  1.00  0.00    -0.347 OA
ENDROOT
BRANCH   1   2
ATOM      2  C   UNL     1      44.095 128.474  22.651  1.00  0.00     0.251 C 
BRANCH   2   3
ATOM      3  C   UNL     1      44.751 127.167  22.653  1.00  0.00    -0.078 C 
ATOM      4  C   UNL     1      45.293 126.090  22.653  1.00  0.00     0.006 C 
ENDBRANCH   2   3
ENDBRANCH   1   2
BRANCH   1   5
ATOM      5  C   UNL     1      44.588 130.485  23.688  1.00  0.00     0.306 C 
BRANCH   5   6
ATOM      6  N   UNL     1      44.465 130.828  22.271  1.00  0.00    -0.243 N 
ATOM      7  N   UNL     1      45.380 130.504  21.365  1.00  0.00    -0.170 NA
ATOM      8  C   UNL     1      43.425 131.470  21.680  1.00  0.00     0.046 A 
ATOM      9  C   UNL     1      44.915 130.935  20.179  1.00  0.00     0.093 A 
ATOM     10  C   UNL     1      43.693 131.533  20.330  1.00  0.00     0.023 A 
ATOM     11  C   UNL     1      45.519 130.803  18.931  1.00  0.00     0.039 A 
ATOM     12  C   UNL     1      42.980 132.042  19.246  1.00  0.00     0.013 A 
ATOM     13  C   UNL     1      44.827 131.303  17.804  1.00  0.00    -0.010 A 
ATOM     14  C   UNL     1      43.564 131.929  17.971  1.00  0.00     0.010 A 
ATOM     15  C   UNL     1      42.163 131.905  22.364  1.00  0.00     0.067 C 
BRANCH  13  16
ATOM     16  C   UNL     1      45.437 131.195  16.460  1.00  0.00     0.049 A 
ATOM     17  C   UNL     1      45.954 132.351  15.854  1.00  0.00     0.317 A 
ATOM     18  C   UNL     1      45.525 129.965  15.765  1.00  0.00    -0.028 A 
ATOM     19  N   UNL     1      46.498 132.296  14.609  1.00  0.00    -0.186 N 
ATOM     20  C   UNL     1      46.076 129.950  14.476  1.00  0.00     0.118 A 
ATOM     21  C   UNL     1      46.562 131.130  13.913  1.00  0.00     0.358 A 
ATOM     22  C   UNL     1      45.030 128.674  16.362  1.00  0.00     0.045 C 
ATOM     23  H   UNL     1      46.869 133.171  14.177  1.00  0.00     0.456 HD
ATOM     24  F   UNL     1      47.104 131.112  12.670  1.00  0.00    -0.136 F 
ENDBRANCH  13  16
ENDBRANCH   5   6
ENDBRANCH   1   5
TORSDOF 5
ENDMDL
MODEL 6
REMARK VINA RESULT:      -6.2      2.044      2.230
REMARK SMILES C#CCOCn1nc2cc(-c3c[nH+]c(F)cc3C)ccc2c1C
REMARK SMILES IDX 4 1 3 2 2 3 1 4 5 5 6 6 7 7 22 8 8 9 21 10 9 11 20 12 10 13
REMARK SMILES IDX 19 14 23 15 11 16 12 17 17 18 13 19 16 20 14 21 18 22 15 24
REMARK H PARENT 13 23
ROOT
ATOM      1  O   UNL     1      44.379 127.884  22.893  1.00  0.00    -0.347 OA
ENDROOT
BRANCH   1   2
ATOM      2  C   UNL     1      45.547 127.098  22.784  1.00  0.00     0.251 C 
BRANCH   2   3
ATOM      3  C   UNL     1      45.191 125.695  22.991  1.00  0.00    -0.078 C 
ATOM      4  C   UNL     1      44.896 124.538  23.162  1.00  0.00     0.006 C 
ENDBRANCH   2   3
ENDBRANCH   1   2
BRANCH   1   5
ATOM      5  C   UNL     1      44.721 129.256  22.949  1.00  0.00     0.306 C 
BRANCH   5   6
ATOM      6  N   UNL     1      44.805 129.819  21.601  1.00  0.00    -0.243 N 
ATOM      7  N   UNL     1      45.580 129.309  20.649  1.00  0.00    -0.170 NA
ATOM      8  C   UNL     1      44.108 130.881  21.121  1.00  0.00     0.046 A 
ATOM      9  C   UNL     1      45.368 130.048  19.546  1.00  0.00     0.093 A 
ATOM     10  C   UNL     1      44.449 131.032  19.794  1.00  0.00     0.023 A 
ATOM     11  C   UNL     1      45.942 129.880  18.288  1.00  0.00     0.039 A 
ATOM     12  C   UNL     1      44.030 131.919  18.805  1.00  0.00     0.013 A 
ATOM     13  C   UNL     1      45.542 130.758  17.255  1.00  0.00    -0.010 A 
ATOM     14  C   UNL     1      44.594 131.780  17.524  1.00  0.00     0.010 A 
ATOM     15  C   UNL     1      43.065 131.653  21.872  1.00  0.00     0.067 C 
BRANCH  13  16
ATOM     16  C   UNL     1      46.136 130.624  15.906  1.00  0.00     0.049 A 
ATOM     17  C   UNL     1      47.356 129.944  15.765  1.00  0.00     0.317 A 
ATOM     18  C   UNL     1      45.512 131.150  14.749  1.00  0.00    -0.028 A 
ATOM     19  N   UNL     1      47.944 129.823  14.545  1.00  0.00    -0.186 N 
ATOM     20  C   UNL     1      46.157 131.022  13.511  1.00  0.00     0.118 A 
ATOM     21  C   UNL     1      47.376 130.349  13.428  1.00  0.00     0.358 A 
ATOM     22  C   UNL     1      44.184 131.858  14.810  1.00  0.00     0.045 C 
ATOM     23  H   UNL     1      48.855 129.319  14.467  1.00  0.00     0.456 HD
ATOM     24  F   UNL     1      47.995 130.218  12.228  1.00  0.00    -0.136 F 
ENDBRANCH  13  16
ENDBRANCH   5   6
ENDBRANCH   1   5
TORSDOF 5
ENDMDL
MODEL 7
REMARK VINA RESULT:      -6.0      1.750      1.911
REMARK SMILES C#CCOCn1nc2cc(-c3c[nH+]c(F)cc3C)ccc2c1C
REMARK SMILES IDX 4 1 3 2 2 3 1 4 5 5 6 6 7 7 22 8 8 9 21 10 9 11 20 12 10 13
REMARK SMILES IDX 19 14 23 15 11 16 12 17 17 18 13 19 16 20 14 21 18 22 15 24
REMARK H PARENT 13 23
ROOT
ATOM      1  O   UNL     1      45.365 128.962  22.750  1.00  0.00    -0.347 OA
ENDROOT
BRANCH   1   2
ATOM      2  C   UNL     1      44.424 128.103  23.358  1.00  0.00     0.251 C 
BRANCH   2   3
ATOM      3  C   UNL     1      45.141 127.033  24.051  1.00  0.00    -0.078 C 
ATOM      4  C   UNL     1      45.731 126.152  24.624  1.00  0.00     0.006 C 
ENDBRANCH   2   3
ENDBRANCH   1   2
BRANCH   1   5
ATOM      5  C   UNL     1      44.796 130.241  22.549  1.00  0.00     0.306 C 
BRANCH   5   6
ATOM      6  N   UNL     1      44.800 130.588  21.128  1.00  0.00    -0.243 N 
ATOM      7  N   UNL     1      45.711 130.132  20.274  1.00  0.00    -0.170 NA
ATOM      8  C   UNL     1      43.894 131.363  20.480  1.00  0.00     0.046 A 
ATOM      9  C   UNL     1      45.377 130.616  19.064  1.00  0.00     0.093 A 
ATOM     10  C   UNL     1      44.244 131.379  19.147  1.00  0.00     0.023 A 
ATOM     11  C   UNL     1      46.025 130.392  17.852  1.00  0.00     0.039 A 
ATOM     12  C   UNL     1      43.670 131.973  18.025  1.00  0.00     0.013 A 
ATOM     13  C   UNL     1      45.473 130.975  16.688  1.00  0.00    -0.010 A 
ATOM     14  C   UNL     1      44.302 131.772  16.785  1.00  0.00     0.010 A 
ATOM     15  C   UNL     1      42.669 131.974  21.092  1.00  0.00     0.067 C 
BRANCH  13  16
ATOM     16  C   UNL     1      46.136 130.774  15.381  1.00  0.00     0.049 A 
ATOM     17  C   UNL     1      47.409 130.184  15.348  1.00  0.00     0.317 A 
ATOM     18  C   UNL     1      45.528 131.149  14.159  1.00  0.00    -0.028 A 
ATOM     19  N   UNL     1      48.060 130.007  14.167  1.00  0.00    -0.186 N 
ATOM     20  C   UNL     1      46.237 130.968  12.962  1.00  0.00     0.118 A 
ATOM     21  C   UNL     1      47.506 130.390  12.986  1.00  0.00     0.358 A 
ATOM     22  C   UNL     1      44.149 131.751  14.105  1.00  0.00     0.045 C 
ATOM     23  H   UNL     1      49.010 129.572  14.170  1.00  0.00     0.456 HD
ATOM     24  F   UNL     1      48.187 130.206  11.828  1.00  0.00    -0.136 F 
ENDBRANCH  13  16
ENDBRANCH   5   6
ENDBRANCH   1   5
TORSDOF 5
ENDMDL
MODEL 8
REMARK VINA RESULT:      -5.9      2.020      2.478
REMARK SMILES C#CCOCn1nc2cc(-c3c[nH+]c(F)cc3C)ccc2c1C
REMARK SMILES IDX 4 1 3 2 2 3 1 4 5 5 6 6 7 7 22 8 8 9 21 10 9 11 20 12 10 13
REMARK SMILES IDX 19 14 23 15 11 16 12 17 17 18 13 19 16 20 14 21 18 22 15 24
REMARK H PARENT 13 23
ROOT
ATOM      1  O   UNL     1      44.550 127.331  23.135  1.00  0.00    -0.347 OA
ENDROOT
BRANCH   1   2
ATOM      2  C   UNL     1      43.166 127.090  23.280  1.00  0.00     0.251 C 
BRANCH   2   3
ATOM      3  C   UNL     1      42.981 125.840  24.017  1.00  0.00    -0.078 C 
ATOM      4  C   UNL     1      42.827 124.810  24.624  1.00  0.00     0.006 C 
ENDBRANCH   2   3
ENDBRANCH   1   2
BRANCH   1   5
ATOM      5  C   UNL     1      44.829 128.700  23.357  1.00  0.00     0.306 C 
BRANCH   5   6
ATOM      6  N   UNL     1      44.790 129.443  22.096  1.00  0.00    -0.243 N 
ATOM      7  N   UNL     1      45.514 129.107  21.034  1.00  0.00    -0.170 NA
ATOM      8  C   UNL     1      44.013 130.520  21.814  1.00  0.00     0.046 A 
ATOM      9  C   UNL     1      45.190 129.974  20.059  1.00  0.00     0.093 A 
ATOM     10  C   UNL     1      44.249 130.865  20.501  1.00  0.00     0.023 A 
ATOM     11  C   UNL     1      45.678 130.007  18.756  1.00  0.00     0.039 A 
ATOM     12  C   UNL     1      43.721 131.853  19.673  1.00  0.00     0.013 A 
ATOM     13  C   UNL     1      45.166 130.993  17.881  1.00  0.00    -0.010 A 
ATOM     14  C   UNL     1      44.196 131.918  18.350  1.00  0.00     0.010 A 
ATOM     15  C   UNL     1      42.995 131.128  22.731  1.00  0.00     0.067 C 
BRANCH  13  16
ATOM     16  C   UNL     1      45.664 131.072  16.490  1.00  0.00     0.049 A 
ATOM     17  C   UNL     1      46.141 132.302  16.008  1.00  0.00     0.317 A 
ATOM     18  C   UNL     1      45.686 129.950  15.629  1.00  0.00    -0.028 A 
ATOM     19  N   UNL     1      46.582 132.419  14.727  1.00  0.00    -0.186 N 
ATOM     20  C   UNL     1      46.131 130.113  14.309  1.00  0.00     0.118 A 
ATOM     21  C   UNL     1      46.580 131.360  13.876  1.00  0.00     0.358 A 
ATOM     22  C   UNL     1      45.230 128.587  16.081  1.00  0.00     0.045 C 
ATOM     23  H   UNL     1      46.924 133.347  14.390  1.00  0.00     0.456 HD
ATOM     24  F   UNL     1      47.020 131.514  12.602  1.00  0.00    -0.136 F 
ENDBRANCH  13  16
ENDBRANCH   5   6
ENDBRANCH   1   5
TORSDOF 5
ENDMDL
MODEL 9
REMARK VINA RESULT:      -5.8      1.238      1.689
REMARK SMILES C#CCOCn1nc2cc(-c3c[nH+]c(F)cc3C)ccc2c1C
REMARK SMILES IDX 4 1 3 2 2 3 1 4 5 5 6 6 7 7 22 8 8 9 21 10 9 11 20 12 10 13
REMARK SMILES IDX 19 14 23 15 11 16 12 17 17 18 13 19 16 20 14 21 18 22 15 24
REMARK H PARENT 13 23
ROOT
ATOM      1  O   UNL     1      42.640 130.195  22.128  1.00  0.00    -0.347 OA
ENDROOT
BRANCH   1   2
ATOM      2  C   UNL     1      43.345 129.749  23.267  1.00  0.00     0.251 C 
BRANCH   2   3
ATOM      3  C   UNL     1      43.832 130.914  24.004  1.00  0.00    -0.078 C 
ATOM      4  C   UNL     1      44.232 131.875  24.613  1.00  0.00     0.006 C 
ENDBRANCH   2   3
ENDBRANCH   1   2
BRANCH   1   5
ATOM      5  C   UNL     1      43.097 131.477  21.745  1.00  0.00     0.306 C 
BRANCH   5   6
ATOM      6  N   UNL     1      43.501 131.479  20.338  1.00  0.00    -0.243 N 
ATOM      7  N   UNL     1      44.610 130.892  19.902  1.00  0.00    -0.170 NA
ATOM      8  C   UNL     1      42.818 132.025  19.299  1.00  0.00     0.046 A 
ATOM      9  C   UNL     1      44.631 131.056  18.567  1.00  0.00     0.093 A 
ATOM     10  C   UNL     1      43.525 131.748  18.150  1.00  0.00     0.023 A 
ATOM     11  C   UNL     1      45.590 130.594  17.670  1.00  0.00     0.039 A 
ATOM     12  C   UNL     1      43.292 132.026  16.805  1.00  0.00     0.013 A 
ATOM     13  C   UNL     1      45.390 130.852  16.294  1.00  0.00    -0.010 A 
ATOM     14  C   UNL     1      44.244 131.577  15.872  1.00  0.00     0.010 A 
ATOM     15  C   UNL     1      41.475 132.687  19.388  1.00  0.00     0.067 C 
BRANCH  13  16
ATOM     16  C   UNL     1      46.389 130.390  15.306  1.00  0.00     0.049 A 
ATOM     17  C   UNL     1      47.459 129.594  15.745  1.00  0.00     0.317 A 
ATOM     18  C   UNL     1      46.301 130.715  13.932  1.00  0.00    -0.028 A 
ATOM     19  N   UNL     1      48.411 129.172  14.870  1.00  0.00    -0.186 N 
ATOM     20  C   UNL     1      47.311 130.278  13.063  1.00  0.00     0.118 A 
ATOM     21  C   UNL     1      48.361 129.501  13.552  1.00  0.00     0.358 A 
ATOM     22  C   UNL     1      45.164 131.531  13.375  1.00  0.00     0.045 C 
ATOM     23  H   UNL     1      49.202 128.587  15.222  1.00  0.00     0.456 HD
ATOM     24  F   UNL     1      49.332 129.070  12.709  1.00  0.00    -0.136 F 
ENDBRANCH  13  16
ENDBRANCH   5   6
ENDBRANCH   1   5
TORSDOF 5
ENDMDL


