MODEL 1
REMARK VINA RESULT:      -8.0      0.000      0.000
REMARK SMILES CC[C@](C)(N)CC(=O)n1[nH+]c2cc(-c3c[nH+]c(F)cc3C)ccc2c1C
REMARK SMILES IDX 6 1 3 2 4 3 2 4 1 5 5 6 7 9 8 10 9 11 10 12 25 13 11 14
REMARK SMILES IDX 24 15 12 16 23 17 13 18 22 19 26 21 14 22 15 23 20 24 16 25
REMARK SMILES IDX 19 26 17 27 21 28 18 30
REMARK H PARENT 5 7 5 8 10 20 16 29
ROOT
ATOM      1  C   UNL     1      44.175 130.425  24.045  1.00  0.00     0.128 C 
ENDROOT
BRANCH   1   2
ATOM      2  C   UNL     1      43.322 129.258  23.466  1.00  0.00     0.021 C 
ATOM      3  C   UNL     1      43.089 128.177  24.545  1.00  0.00     0.028 C 
BRANCH   2   4
ATOM      4  C   UNL     1      44.025 128.636  22.218  1.00  0.00     0.019 C 
ATOM      5  C   UNL     1      45.049 127.537  22.524  1.00  0.00     0.006 C 
ENDBRANCH   2   4
BRANCH   2   6
ATOM      6  N   UNL     1      42.012 129.786  23.054  1.00  0.00    -0.325 NA
ATOM      7  H   UNL     1      41.843 129.564  22.044  1.00  0.00     0.119 HD
ATOM      8  H   UNL     1      42.010 130.829  23.143  1.00  0.00     0.119 HD
ENDBRANCH   2   6
ENDBRANCH   1   2
BRANCH   1   9
ATOM      9  C   UNL     1      44.120 131.671  23.197  1.00  0.00     0.284 C 
ATOM     10  O   UNL     1      44.083 132.791  23.777  1.00  0.00    -0.268 OA
BRANCH   9  11
ATOM     11  N   UNL     1      44.156 131.612  21.756  1.00  0.00    -0.090 N 
ATOM     12  N   UNL     1      45.177 131.131  21.049  1.00  0.00    -0.116 N 
ATOM     13  C   UNL     1      43.179 132.023  20.900  1.00  0.00     0.097 A 
ATOM     14  C   UNL     1      44.859 131.225  19.748  1.00  0.00     0.237 A 
ATOM     15  C   UNL     1      43.615 131.776  19.610  1.00  0.00     0.074 A 
ATOM     16  C   UNL     1      45.623 130.838  18.650  1.00  0.00     0.091 A 
ATOM     17  C   UNL     1      43.037 131.979  18.359  1.00  0.00     0.018 A 
ATOM     18  C   UNL     1      45.077 131.041  17.362  1.00  0.00    -0.005 A 
ATOM     19  C   UNL     1      43.780 131.602  17.226  1.00  0.00     0.010 A 
ATOM     20  H   UNL     1      46.059 130.728  21.435  1.00  0.00     0.489 HD
ATOM     21  C   UNL     1      41.869 132.638  21.296  1.00  0.00     0.072 C 
BRANCH  18  22
ATOM     22  C   UNL     1      45.848 130.637  16.164  1.00  0.00     0.049 A 
ATOM     23  C   UNL     1      47.073 129.975  16.337  1.00  0.00     0.317 A 
ATOM     24  C   UNL     1      45.395 130.900  14.850  1.00  0.00    -0.028 A 
ATOM     25  N   UNL     1      47.797 129.567  15.261  1.00  0.00    -0.186 N 
ATOM     26  C   UNL     1      46.159 130.446  13.765  1.00  0.00     0.118 A 
ATOM     27  C   UNL     1      47.364 129.781  13.991  1.00  0.00     0.358 A 
ATOM     28  C   UNL     1      44.110 131.638  14.580  1.00  0.00     0.045 C 
ATOM     29  H   UNL     1      48.703 129.070  15.416  1.00  0.00     0.456 HD
ATOM     30  F   UNL     1      48.106 129.352  12.941  1.00  0.00    -0.136 F 
ENDBRANCH  18  22
ENDBRANCH   9  11
ENDBRANCH   1   9
TORSDOF 6
ENDMDL
MODEL 2
REMARK VINA RESULT:      -7.8      1.275      1.359
REMARK SMILES CC[C@](C)(N)CC(=O)n1[nH+]c2cc(-c3c[nH+]c(F)cc3C)ccc2c1C
REMARK SMILES IDX 6 1 3 2 4 3 2 4 1 5 5 6 7 9 8 10 9 11 10 12 25 13 11 14
REMARK SMILES IDX 24 15 12 16 23 17 13 18 22 19 26 21 14 22 15 23 20 24 16 25
REMARK SMILES IDX 19 26 17 27 21 28 18 30
REMARK H PARENT 5 7 5 8 10 20 16 29
ROOT
ATOM      1  C   UNL     1      44.773 129.623  23.773  1.00  0.00     0.128 C 
ENDROOT
BRANCH   1   2
ATOM      2  C   UNL     1      44.207 128.190  23.553  1.00  0.00     0.021 C 
ATOM      3  C   UNL     1      42.663 128.208  23.608  1.00  0.00     0.028 C 
BRANCH   2   4
ATOM      4  C   UNL     1      44.776 127.208  24.625  1.00  0.00     0.019 C 
ATOM      5  C   UNL     1      45.170 125.822  24.101  1.00  0.00     0.006 C 
ENDBRANCH   2   4
BRANCH   2   6
ATOM      6  N   UNL     1      44.612 127.717  22.219  1.00  0.00    -0.325 NA
ATOM      7  H   UNL     1      44.290 128.397  21.491  1.00  0.00     0.119 HD
ATOM      8  H   UNL     1      44.144 126.804  22.014  1.00  0.00     0.119 HD
ENDBRANCH   2   6
ENDBRANCH   1   2
BRANCH   1   9
ATOM      9  C   UNL     1      43.995 130.683  23.032  1.00  0.00     0.284 C 
ATOM     10  O   UNL     1      43.245 131.450  23.695  1.00  0.00    -0.268 OA
BRANCH   9  11
ATOM     11  N   UNL     1      44.127 130.865  21.607  1.00  0.00    -0.090 N 
ATOM     12  N   UNL     1      45.118 130.362  20.873  1.00  0.00    -0.116 N 
ATOM     13  C   UNL     1      43.282 131.559  20.794  1.00  0.00     0.097 A 
ATOM     14  C   UNL     1      44.911 130.724  19.597  1.00  0.00     0.237 A 
ATOM     15  C   UNL     1      43.771 131.473  19.503  1.00  0.00     0.074 A 
ATOM     16  C   UNL     1      45.690 130.418  18.483  1.00  0.00     0.091 A 
ATOM     17  C   UNL     1      43.319 131.972  18.283  1.00  0.00     0.018 A 
ATOM     18  C   UNL     1      45.272 130.918  17.229  1.00  0.00    -0.005 A 
ATOM     19  C   UNL     1      44.081 131.684  17.136  1.00  0.00     0.010 A 
ATOM     20  H   UNL     1      45.903 129.770  21.221  1.00  0.00     0.489 HD
ATOM     21  C   UNL     1      42.047 132.290  21.232  1.00  0.00     0.072 C 
BRANCH  18  22
ATOM     22  C   UNL     1      46.063 130.612  16.015  1.00  0.00     0.049 A 
ATOM     23  C   UNL     1      46.457 129.286  15.778  1.00  0.00     0.317 A 
ATOM     24  C   UNL     1      46.442 131.611  15.088  1.00  0.00    -0.028 A 
ATOM     25  N   UNL     1      47.161 128.962  14.661  1.00  0.00    -0.186 N 
ATOM     26  C   UNL     1      47.152 131.237  13.938  1.00  0.00     0.118 A 
ATOM     27  C   UNL     1      47.507 129.902  13.743  1.00  0.00     0.358 A 
ATOM     28  C   UNL     1      46.092 133.062  15.289  1.00  0.00     0.045 C 
ATOM     29  H   UNL     1      47.437 127.967  14.504  1.00  0.00     0.456 HD
ATOM     30  F   UNL     1      48.203 129.544  12.635  1.00  0.00    -0.136 F 
ENDBRANCH  18  22
ENDBRANCH   9  11
ENDBRANCH   1   9
TORSDOF 6
ENDMDL
MODEL 3
REMARK VINA RESULT:      -7.0      1.150      1.329
REMARK SMILES CC[C@](C)(N)CC(=O)n1[nH+]c2cc(-c3c[nH+]c(F)cc3C)ccc2c1C
REMARK SMILES IDX 6 1 3 2 4 3 2 4 1 5 5 6 7 9 8 10 9 11 10 12 25 13 11 14
REMARK SMILES IDX 24 15 12 16 23 17 13 18 22 19 26 21 14 22 15 23 20 24 16 25
REMARK SMILES IDX 19 26 17 27 21 28 18 30
REMARK H PARENT 5 7 5 8 10 20 16 29
ROOT
ATOM      1  C   UNL     1      44.274 129.780  24.578  1.00  0.00     0.128 C 
ENDROOT
BRANCH   1   2
ATOM      2  C   UNL     1      43.272 128.787  23.921  1.00  0.00     0.021 C 
ATOM      3  C   UNL     1      41.819 129.263  24.146  1.00  0.00     0.028 C 
BRANCH   2   4
ATOM      4  C   UNL     1      43.467 127.350  24.501  1.00  0.00     0.019 C 
ATOM      5  C   UNL     1      42.630 126.254  23.831  1.00  0.00     0.006 C 
ENDBRANCH   2   4
BRANCH   2   6
ATOM      6  N   UNL     1      43.522 128.748  22.471  1.00  0.00    -0.325 NA
ATOM      7  H   UNL     1      44.330 129.371  22.235  1.00  0.00     0.119 HD
ATOM      8  H   UNL     1      42.688 129.121  21.961  1.00  0.00     0.119 HD
ENDBRANCH   2   6
ENDBRANCH   1   2
BRANCH   1   9
ATOM      9  C   UNL     1      44.357 131.100  23.851  1.00  0.00     0.284 C 
ATOM     10  O   UNL     1      44.523 132.149  24.531  1.00  0.00    -0.268 OA
BRANCH   9  11
ATOM     11  N   UNL     1      44.298 131.179  22.412  1.00  0.00    -0.090 N 
ATOM     12  N   UNL     1      45.266 130.766  21.597  1.00  0.00    -0.116 N 
ATOM     13  C   UNL     1      43.271 131.674  21.666  1.00  0.00     0.097 A 
ATOM     14  C   UNL     1      44.865 130.986  20.334  1.00  0.00     0.237 A 
ATOM     15  C   UNL     1      43.620 131.551  20.332  1.00  0.00     0.074 A 
ATOM     16  C   UNL     1      45.552 130.705  19.156  1.00  0.00     0.091 A 
ATOM     17  C   UNL     1      42.963 131.876  19.148  1.00  0.00     0.018 A 
ATOM     18  C   UNL     1      44.925 131.032  17.932  1.00  0.00    -0.005 A 
ATOM     19  C   UNL     1      43.627 131.607  17.937  1.00  0.00     0.010 A 
ATOM     20  H   UNL     1      46.168 130.325  21.883  1.00  0.00     0.489 HD
ATOM     21  C   UNL     1      41.996 132.252  22.204  1.00  0.00     0.072 C 
BRANCH  18  22
ATOM     22  C   UNL     1      45.612 130.743  16.653  1.00  0.00     0.049 A 
ATOM     23  C   UNL     1      45.988 129.422  16.368  1.00  0.00     0.317 A 
ATOM     24  C   UNL     1      45.909 131.755  15.710  1.00  0.00    -0.028 A 
ATOM     25  N   UNL     1      46.598 129.114  15.192  1.00  0.00    -0.186 N 
ATOM     26  C   UNL     1      46.521 131.397  14.500  1.00  0.00     0.118 A 
ATOM     27  C   UNL     1      46.863 130.066  14.259  1.00  0.00     0.358 A 
ATOM     28  C   UNL     1      45.572 133.202  15.957  1.00  0.00     0.045 C 
ATOM     29  H   UNL     1      46.862 128.122  15.000  1.00  0.00     0.456 HD
ATOM     30  F   UNL     1      47.464 129.724  13.094  1.00  0.00    -0.136 F 
ENDBRANCH  18  22
ENDBRANCH   9  11
ENDBRANCH   1   9
TORSDOF 6
ENDMDL
MODEL 4
REMARK VINA RESULT:      -5.9      1.399      2.013
REMARK SMILES CC[C@](C)(N)CC(=O)n1[nH+]c2cc(-c3c[nH+]c(F)cc3C)ccc2c1C
REMARK SMILES IDX 6 1 3 2 4 3 2 4 1 5 5 6 7 9 8 10 9 11 10 12 25 13 11 14
REMARK SMILES IDX 24 15 12 16 23 17 13 18 22 19 26 21 14 22 15 23 20 24 16 25
REMARK SMILES IDX 19 26 17 27 21 28 18 30
REMARK H PARENT 5 7 5 8 10 20 16 29
ROOT
ATOM      1  C   UNL     1      44.030 130.407  24.623  1.00  0.00     0.128 C 
ENDROOT
BRANCH   1   2
ATOM      2  C   UNL     1      43.881 129.084  23.816  1.00  0.00     0.021 C 
ATOM      3  C   UNL     1      44.692 129.162  22.503  1.00  0.00     0.028 C 
BRANCH   2   4
ATOM      4  C   UNL     1      42.377 128.801  23.507  1.00  0.00     0.019 C 
ATOM      5  C   UNL     1      41.941 127.339  23.661  1.00  0.00     0.006 C 
ENDBRANCH   2   4
BRANCH   2   6
ATOM      6  N   UNL     1      44.414 127.974  24.620  1.00  0.00    -0.325 NA
ATOM      7  H   UNL     1      45.345 127.679  24.243  1.00  0.00     0.119 HD
ATOM      8  H   UNL     1      43.777 127.147  24.543  1.00  0.00     0.119 HD
ENDBRANCH   2   6
ENDBRANCH   1   2
BRANCH   1   9
ATOM      9  C   UNL     1      44.482 131.568  23.771  1.00  0.00     0.284 C 
ATOM     10  O   UNL     1      45.124 132.503  24.323  1.00  0.00    -0.268 OA
BRANCH   9  11
ATOM     11  N   UNL     1      44.240 131.606  22.349  1.00  0.00    -0.090 N 
ATOM     12  N   UNL     1      45.165 131.363  21.423  1.00  0.00    -0.116 N 
ATOM     13  C   UNL     1      43.058 131.887  21.733  1.00  0.00     0.097 A 
ATOM     14  C   UNL     1      44.583 131.480  20.218  1.00  0.00     0.237 A 
ATOM     15  C   UNL     1      43.262 131.804  20.367  1.00  0.00     0.074 A 
ATOM     16  C   UNL     1      45.165 131.307  18.965  1.00  0.00     0.091 A 
ATOM     17  C   UNL     1      42.421 131.977  19.271  1.00  0.00     0.018 A 
ATOM     18  C   UNL     1      44.348 131.487  17.827  1.00  0.00    -0.005 A 
ATOM     19  C   UNL     1      42.975 131.812  17.988  1.00  0.00     0.010 A 
ATOM     20  H   UNL     1      46.160 131.104  21.597  1.00  0.00     0.489 HD
ATOM     21  C   UNL     1      41.770 132.229  22.422  1.00  0.00     0.072 C 
BRANCH  18  22
ATOM     22  C   UNL     1      44.920 131.306  16.474  1.00  0.00     0.049 A 
ATOM     23  C   UNL     1      44.363 132.018  15.400  1.00  0.00     0.317 A 
ATOM     24  C   UNL     1      46.007 130.435  16.223  1.00  0.00    -0.028 A 
ATOM     25  N   UNL     1      44.878 131.896  14.148  1.00  0.00    -0.186 N 
ATOM     26  C   UNL     1      46.524 130.350  14.922  1.00  0.00     0.118 A 
ATOM     27  C   UNL     1      45.941 131.089  13.892  1.00  0.00     0.358 A 
ATOM     28  C   UNL     1      46.636 129.608  17.313  1.00  0.00     0.045 C 
ATOM     29  H   UNL     1      44.450 132.442  13.366  1.00  0.00     0.456 HD
ATOM     30  F   UNL     1      46.436 130.999  12.633  1.00  0.00    -0.136 F 
ENDBRANCH  18  22
ENDBRANCH   9  11
ENDBRANCH   1   9
TORSDOF 6
ENDMDL
MODEL 5
REMARK VINA RESULT:      -5.8      1.279      1.635
REMARK SMILES CC[C@](C)(N)CC(=O)n1[nH+]c2cc(-c3c[nH+]c(F)cc3C)ccc2c1C
REMARK SMILES IDX 6 1 3 2 4 3 2 4 1 5 5 6 7 9 8 10 9 11 10 12 25 13 11 14
REMARK SMILES IDX 24 15 12 16 23 17 13 18 22 19 26 21 14 22 15 23 20 24 16 25
REMARK SMILES IDX 19 26 17 27 21 28 18 30
REMARK H PARENT 5 7 5 8 10 20 16 29
ROOT
ATOM      1  C   UNL     1      45.040 129.431  24.082  1.00  0.00     0.128 C 
ENDROOT
BRANCH   1   2
ATOM      2  C   UNL     1      44.278 128.086  23.898  1.00  0.00     0.021 C 
ATOM      3  C   UNL     1      44.158 127.739  22.397  1.00  0.00     0.028 C 
BRANCH   2   4
ATOM      4  C   UNL     1      42.862 128.168  24.551  1.00  0.00     0.019 C 
ATOM      5  C   UNL     1      41.999 129.350  24.096  1.00  0.00     0.006 C 
ENDBRANCH   2   4
BRANCH   2   6
ATOM      6  N   UNL     1      45.039 127.014  24.558  1.00  0.00    -0.325 NA
ATOM      7  H   UNL     1      44.631 126.820  25.502  1.00  0.00     0.119 HD
ATOM      8  H   UNL     1      46.027 127.326  24.709  1.00  0.00     0.119 HD
ENDBRANCH   2   6
ENDBRANCH   1   2
BRANCH   1   9
ATOM      9  C   UNL     1      44.350 130.595  23.413  1.00  0.00     0.284 C 
ATOM     10  O   UNL     1      43.751 131.435  24.139  1.00  0.00    -0.268 OA
BRANCH   9  11
ATOM     11  N   UNL     1      44.402 130.789  21.985  1.00  0.00    -0.090 N 
ATOM     12  N   UNL     1      45.370 130.325  21.198  1.00  0.00    -0.116 N 
ATOM     13  C   UNL     1      43.493 131.459  21.222  1.00  0.00     0.097 A 
ATOM     14  C   UNL     1      45.086 130.687  19.936  1.00  0.00     0.237 A 
ATOM     15  C   UNL     1      43.917 131.397  19.906  1.00  0.00     0.074 A 
ATOM     16  C   UNL     1      45.815 130.414  18.782  1.00  0.00     0.091 A 
ATOM     17  C   UNL     1      43.386 131.887  18.715  1.00  0.00     0.018 A 
ATOM     18  C   UNL     1      45.317 130.906  17.554  1.00  0.00    -0.005 A 
ATOM     19  C   UNL     1      44.098 131.632  17.529  1.00  0.00     0.010 A 
ATOM     20  H   UNL     1      46.192 129.758  21.499  1.00  0.00     0.489 HD
ATOM     21  C   UNL     1      42.259 132.145  21.729  1.00  0.00     0.072 C 
BRANCH  18  22
ATOM     22  C   UNL     1      46.054 130.634  16.299  1.00  0.00     0.049 A 
ATOM     23  C   UNL     1      46.539 129.338  16.064  1.00  0.00     0.317 A 
ATOM     24  C   UNL     1      46.292 131.637  15.330  1.00  0.00    -0.028 A 
ATOM     25  N   UNL     1      47.197 129.045  14.912  1.00  0.00    -0.186 N 
ATOM     26  C   UNL     1      46.958 131.292  14.145  1.00  0.00     0.118 A 
ATOM     27  C   UNL     1      47.408 129.986  13.954  1.00  0.00     0.358 A 
ATOM     28  C   UNL     1      45.838 133.060  15.524  1.00  0.00     0.045 C 
ATOM     29  H   UNL     1      47.542 128.071  14.757  1.00  0.00     0.456 HD
ATOM     30  F   UNL     1      48.061 129.657  12.812  1.00  0.00    -0.136 F 
ENDBRANCH  18  22
ENDBRANCH   9  11
ENDBRANCH   1   9
TORSDOF 6
ENDMDL
MODEL 6
REMARK VINA RESULT:      -5.6      1.416      2.201
REMARK SMILES CC[C@](C)(N)CC(=O)n1[nH+]c2cc(-c3c[nH+]c(F)cc3C)ccc2c1C
REMARK SMILES IDX 6 1 3 2 4 3 2 4 1 5 5 6 7 9 8 10 9 11 10 12 25 13 11 14
REMARK SMILES IDX 24 15 12 16 23 17 13 18 22 19 26 21 14 22 15 23 20 24 16 25
REMARK SMILES IDX 19 26 17 27 21 28 18 30
REMARK H PARENT 5 7 5 8 10 20 16 29
ROOT
ATOM      1  C   UNL     1      44.354 131.494  22.163  1.00  0.00     0.128 C 
ENDROOT
BRANCH   1   2
ATOM      2  C   UNL     1      43.584 131.012  23.427  1.00  0.00     0.021 C 
ATOM      3  C   UNL     1      43.868 131.952  24.620  1.00  0.00     0.028 C 
BRANCH   2   4
ATOM      4  C   UNL     1      43.986 129.546  23.784  1.00  0.00     0.019 C 
ATOM      5  C   UNL     1      44.631 128.748  22.646  1.00  0.00     0.006 C 
ENDBRANCH   2   4
BRANCH   2   6
ATOM      6  N   UNL     1      42.140 131.049  23.147  1.00  0.00    -0.325 NA
ATOM      7  H   UNL     1      41.709 130.126  23.391  1.00  0.00     0.119 HD
ATOM      8  H   UNL     1      41.985 131.198  22.122  1.00  0.00     0.119 HD
ENDBRANCH   2   6
ENDBRANCH   1   2
BRANCH   1   9
ATOM      9  C   UNL     1      43.438 131.926  21.044  1.00  0.00     0.284 C 
ATOM     10  O   UNL     1      42.363 132.514  21.343  1.00  0.00    -0.268 OA
BRANCH   9  11
ATOM     11  N   UNL     1      43.784 131.724  19.658  1.00  0.00    -0.090 N 
ATOM     12  N   UNL     1      44.949 131.237  19.238  1.00  0.00    -0.116 N 
ATOM     13  C   UNL     1      42.998 131.989  18.577  1.00  0.00     0.097 A 
ATOM     14  C   UNL     1      44.914 131.182  17.897  1.00  0.00     0.237 A 
ATOM     15  C   UNL     1      43.709 131.641  17.442  1.00  0.00     0.074 A 
ATOM     16  C   UNL     1      45.909 130.733  17.032  1.00  0.00     0.091 A 
ATOM     17  C   UNL     1      43.405 131.684  16.084  1.00  0.00     0.018 A 
ATOM     18  C   UNL     1      45.644 130.772  15.644  1.00  0.00    -0.005 A 
ATOM     19  C   UNL     1      44.387 131.239  15.179  1.00  0.00     0.010 A 
ATOM     20  H   UNL     1      45.743 130.928  19.841  1.00  0.00     0.489 HD
ATOM     21  C   UNL     1      41.612 132.563  18.620  1.00  0.00     0.072 C 
BRANCH  18  22
ATOM     22  C   UNL     1      46.668 130.298  14.686  1.00  0.00     0.049 A 
ATOM     23  C   UNL     1      46.948 128.924  14.617  1.00  0.00     0.317 A 
ATOM     24  C   UNL     1      47.379 131.181  13.840  1.00  0.00    -0.028 A 
ATOM     25  N   UNL     1      47.863 128.448  13.732  1.00  0.00    -0.186 N 
ATOM     26  C   UNL     1      48.302 130.651  12.926  1.00  0.00     0.118 A 
ATOM     27  C   UNL     1      48.533 129.276  12.889  1.00  0.00     0.358 A 
ATOM     28  C   UNL     1      47.165 132.671  13.880  1.00  0.00     0.045 C 
ATOM     29  H   UNL     1      48.048 127.420  13.695  1.00  0.00     0.456 HD
ATOM     30  F   UNL     1      49.433 128.767  12.011  1.00  0.00    -0.136 F 
ENDBRANCH  18  22
ENDBRANCH   9  11
ENDBRANCH   1   9
TORSDOF 6
ENDMDL
MODEL 7
REMARK VINA RESULT:      -5.4      1.310      1.969
REMARK SMILES CC[C@](C)(N)CC(=O)n1[nH+]c2cc(-c3c[nH+]c(F)cc3C)ccc2c1C
REMARK SMILES IDX 6 1 3 2 4 3 2 4 1 5 5 6 7 9 8 10 9 11 10 12 25 13 11 14
REMARK SMILES IDX 24 15 12 16 23 17 13 18 22 19 26 21 14 22 15 23 20 24 16 25
REMARK SMILES IDX 19 26 17 27 21 28 18 30
REMARK H PARENT 5 7 5 8 10 20 16 29
ROOT
ATOM      1  C   UNL     1      43.780 130.797  23.769  1.00  0.00     0.128 C 
ENDROOT
BRANCH   1   2
ATOM      2  C   UNL     1      43.553 129.295  23.430  1.00  0.00     0.021 C 
ATOM      3  C   UNL     1      44.507 128.850  22.298  1.00  0.00     0.028 C 
BRANCH   2   4
ATOM      4  C   UNL     1      42.068 129.047  23.015  1.00  0.00     0.019 C 
ATOM      5  C   UNL     1      41.257 128.170  23.975  1.00  0.00     0.006 C 
ENDBRANCH   2   4
BRANCH   2   6
ATOM      6  N   UNL     1      43.849 128.488  24.623  1.00  0.00    -0.325 NA
ATOM      7  H   UNL     1      43.032 128.511  25.278  1.00  0.00     0.119 HD
ATOM      8  H   UNL     1      44.663 128.903  25.135  1.00  0.00     0.119 HD
ENDBRANCH   2   6
ENDBRANCH   1   2
BRANCH   1   9
ATOM      9  C   UNL     1      42.951 131.725  22.914  1.00  0.00     0.284 C 
ATOM     10  O   UNL     1      42.134 132.497  23.486  1.00  0.00    -0.268 OA
BRANCH   9  11
ATOM     11  N   UNL     1      43.107 131.779  21.481  1.00  0.00    -0.090 N 
ATOM     12  N   UNL     1      44.181 131.345  20.825  1.00  0.00    -0.116 N 
ATOM     13  C   UNL     1      42.207 132.269  20.583  1.00  0.00     0.097 A 
ATOM     14  C   UNL     1      43.973 131.546  19.514  1.00  0.00     0.237 A 
ATOM     15  C   UNL     1      42.748 132.120  19.318  1.00  0.00     0.074 A 
ATOM     16  C   UNL     1      44.824 131.239  18.455  1.00  0.00     0.091 A 
ATOM     17  C   UNL     1      42.276 132.429  18.044  1.00  0.00     0.018 A 
ATOM     18  C   UNL     1      44.388 131.549  17.147  1.00  0.00    -0.005 A 
ATOM     19  C   UNL     1      43.110 132.134  16.950  1.00  0.00     0.010 A 
ATOM     20  H   UNL     1      45.026 130.902  21.248  1.00  0.00     0.489 HD
ATOM     21  C   UNL     1      40.872 132.866  20.917  1.00  0.00     0.072 C 
BRANCH  18  22
ATOM     22  C   UNL     1      45.254 131.233  15.989  1.00  0.00     0.049 A 
ATOM     23  C   UNL     1      44.970 131.824  14.747  1.00  0.00     0.317 A 
ATOM     24  C   UNL     1      46.356 130.351  16.087  1.00  0.00    -0.028 A 
ATOM     25  N   UNL     1      45.758 131.578  13.667  1.00  0.00    -0.186 N 
ATOM     26  C   UNL     1      47.157 130.136  14.956  1.00  0.00     0.118 A 
ATOM     27  C   UNL     1      46.839 130.759  13.749  1.00  0.00     0.358 A 
ATOM     28  C   UNL     1      46.704 129.648  17.372  1.00  0.00     0.045 C 
ATOM     29  H   UNL     1      45.530 132.036  12.756  1.00  0.00     0.456 HD
ATOM     30  F   UNL     1      47.609 130.543  12.654  1.00  0.00    -0.136 F 
ENDBRANCH  18  22
ENDBRANCH   9  11
ENDBRANCH   1   9
TORSDOF 6
ENDMDL
MODEL 8
REMARK VINA RESULT:      -5.3      1.788      2.129
REMARK SMILES CC[C@](C)(N)CC(=O)n1[nH+]c2cc(-c3c[nH+]c(F)cc3C)ccc2c1C
REMARK SMILES IDX 6 1 3 2 4 3 2 4 1 5 5 6 7 9 8 10 9 11 10 12 25 13 11 14
REMARK SMILES IDX 24 15 12 16 23 17 13 18 22 19 26 21 14 22 15 23 20 24 16 25
REMARK SMILES IDX 19 26 17 27 21 28 18 30
REMARK H PARENT 5 7 5 8 10 20 16 29
ROOT
ATOM      1  C   UNL     1      45.715 128.156  23.564  1.00  0.00     0.128 C 
ENDROOT
BRANCH   1   2
ATOM      2  C   UNL     1      45.102 126.798  23.113  1.00  0.00     0.021 C 
ATOM      3  C   UNL     1      43.583 126.776  23.390  1.00  0.00     0.028 C 
BRANCH   2   4
ATOM      4  C   UNL     1      45.804 125.612  23.847  1.00  0.00     0.019 C 
ATOM      5  C   UNL     1      44.870 124.679  24.625  1.00  0.00     0.006 C 
ENDBRANCH   2   4
BRANCH   2   6
ATOM      6  N   UNL     1      45.306 126.642  21.664  1.00  0.00    -0.325 NA
ATOM      7  H   UNL     1      46.331 126.648  21.448  1.00  0.00     0.119 HD
ATOM      8  H   UNL     1      44.883 127.456  21.160  1.00  0.00     0.119 HD
ENDBRANCH   2   6
ENDBRANCH   1   2
BRANCH   1   9
ATOM      9  C   UNL     1      44.888 129.345  23.139  1.00  0.00     0.284 C 
ATOM     10  O   UNL     1      44.198 129.938  24.012  1.00  0.00    -0.268 OA
BRANCH   9  11
ATOM     11  N   UNL     1      44.908 129.838  21.783  1.00  0.00    -0.090 N 
ATOM     12  N   UNL     1      45.736 129.401  20.837  1.00  0.00    -0.116 N 
ATOM     13  C   UNL     1      44.105 130.805  21.258  1.00  0.00     0.097 A 
ATOM     14  C   UNL     1      45.466 130.075  19.707  1.00  0.00     0.237 A 
ATOM     15  C   UNL     1      44.448 130.963  19.927  1.00  0.00     0.074 A 
ATOM     16  C   UNL     1      46.078 129.944  18.464  1.00  0.00     0.091 A 
ATOM     17  C   UNL     1      43.962 131.787  18.914  1.00  0.00     0.018 A 
ATOM     18  C   UNL     1      45.622 130.772  17.413  1.00  0.00    -0.005 A 
ATOM     19  C   UNL     1      44.558 131.683  17.644  1.00  0.00     0.010 A 
ATOM     20  H   UNL     1      46.453 128.650  20.942  1.00  0.00     0.489 HD
ATOM     21  C   UNL     1      43.044 131.562  22.000  1.00  0.00     0.072 C 
BRANCH  18  22
ATOM     22  C   UNL     1      46.237 130.663  16.071  1.00  0.00     0.049 A 
ATOM     23  C   UNL     1      46.737 129.420  15.653  1.00  0.00     0.317 A 
ATOM     24  C   UNL     1      46.343 131.770  15.195  1.00  0.00    -0.028 A 
ATOM     25  N   UNL     1      47.285 129.275  14.417  1.00  0.00    -0.186 N 
ATOM     26  C   UNL     1      46.897 131.577  13.921  1.00  0.00     0.118 A 
ATOM     27  C   UNL     1      47.368 130.317  13.549  1.00  0.00     0.358 A 
ATOM     28  C   UNL     1      45.865 133.144  15.583  1.00  0.00     0.045 C 
ATOM     29  H   UNL     1      47.644 128.338  14.127  1.00  0.00     0.456 HD
ATOM     30  F   UNL     1      47.912 130.136  12.321  1.00  0.00    -0.136 F 
ENDBRANCH  18  22
ENDBRANCH   9  11
ENDBRANCH   1   9
TORSDOF 6
ENDMDL
MODEL 9
REMARK VINA RESULT:      -5.1      2.126      2.788
REMARK SMILES CC[C@](C)(N)CC(=O)n1[nH+]c2cc(-c3c[nH+]c(F)cc3C)ccc2c1C
REMARK SMILES IDX 6 1 3 2 4 3 2 4 1 5 5 6 7 9 8 10 9 11 10 12 25 13 11 14
REMARK SMILES IDX 24 15 12 16 23 17 13 18 22 19 26 21 14 22 15 23 20 24 16 25
REMARK SMILES IDX 19 26 17 27 21 28 18 30
REMARK H PARENT 5 7 5 8 10 20 16 29
ROOT
ATOM      1  C   UNL     1      45.947 126.811  23.321  1.00  0.00     0.128 C 
ENDROOT
BRANCH   1   2
ATOM      2  C   UNL     1      45.003 125.662  23.780  1.00  0.00     0.021 C 
ATOM      3  C   UNL     1      45.785 124.629  24.621  1.00  0.00     0.028 C 
BRANCH   2   4
ATOM      4  C   UNL     1      44.345 124.970  22.545  1.00  0.00     0.019 C 
ATOM      5  C   UNL     1      42.982 124.319  22.808  1.00  0.00     0.006 C 
ENDBRANCH   2   4
BRANCH   2   6
ATOM      6  N   UNL     1      43.939 126.230  24.624  1.00  0.00    -0.325 NA
ATOM      7  H   UNL     1      43.767 127.227  24.354  1.00  0.00     0.119 HD
ATOM      8  H   UNL     1      44.248 126.232  25.624  1.00  0.00     0.119 HD
ENDBRANCH   2   6
ENDBRANCH   1   2
BRANCH   1   9
ATOM      9  C   UNL     1      45.277 128.164  23.332  1.00  0.00     0.284 C 
ATOM     10  O   UNL     1      44.784 128.579  24.416  1.00  0.00    -0.268 OA
BRANCH   9  11
ATOM     11  N   UNL     1      45.232 128.998  22.156  1.00  0.00    -0.090 N 
ATOM     12  N   UNL     1      45.631 128.614  20.946  1.00  0.00    -0.116 N 
ATOM     13  C   UNL     1      44.784 130.283  22.089  1.00  0.00     0.097 A 
ATOM     14  C   UNL     1      45.436 129.640  20.101  1.00  0.00     0.237 A 
ATOM     15  C   UNL     1      44.905 130.705  20.776  1.00  0.00     0.074 A 
ATOM     16  C   UNL     1      45.703 129.688  18.736  1.00  0.00     0.091 A 
ATOM     17  C   UNL     1      44.596 131.901  20.133  1.00  0.00     0.018 A 
ATOM     18  C   UNL     1      45.417 130.889  18.049  1.00  0.00    -0.005 A 
ATOM     19  C   UNL     1      44.854 131.986  18.752  1.00  0.00     0.010 A 
ATOM     20  H   UNL     1      46.005 127.675  20.689  1.00  0.00     0.489 HD
ATOM     21  C   UNL     1      44.260 131.091  23.239  1.00  0.00     0.072 C 
BRANCH  18  22
ATOM     22  C   UNL     1      45.676 130.985  16.595  1.00  0.00     0.049 A 
ATOM     23  C   UNL     1      46.948 130.647  16.108  1.00  0.00     0.317 A 
ATOM     24  C   UNL     1      44.686 131.411  15.677  1.00  0.00    -0.028 A 
ATOM     25  N   UNL     1      47.216 130.698  14.776  1.00  0.00    -0.186 N 
ATOM     26  C   UNL     1      44.993 131.432  14.308  1.00  0.00     0.118 A 
ATOM     27  C   UNL     1      46.270 131.074  13.875  1.00  0.00     0.358 A 
ATOM     28  C   UNL     1      43.309 131.826  16.122  1.00  0.00     0.045 C 
ATOM     29  H   UNL     1      48.168 130.435  14.438  1.00  0.00     0.456 HD
ATOM     30  F   UNL     1      46.568 131.105  12.553  1.00  0.00    -0.136 F 
ENDBRANCH  18  22
ENDBRANCH   9  11
ENDBRANCH   1   9
TORSDOF 6
ENDMDL


