MODEL 1
REMARK VINA RESULT:      -3.6      0.000      0.000
REMARK SMILES Cc1cc(-c2cccc3[nH+]coc23)cc(O/C(S)=N/c2ccc(-n3ccc[nH+]3)cc2)c1F
REMARK SMILES IDX 17 1 18 2 19 4 20 5 21 6 30 7 22 8 29 9 23 10 24 11 25 12
REMARK SMILES IDX 28 13 26 14 27 15 16 17 15 18 14 19 31 20 4 21 2 22 3 23
REMARK SMILES IDX 32 24 1 25 5 26 6 27 13 28 7 29 9 30 12 31 8 32 10 33 11 34
REMARK H PARENT 18 3 28 16 10 35
ROOT
ATOM      1  C   UNL     1      46.168 132.675  22.184  1.00  0.00     0.253 C 
ENDROOT
BRANCH   1   2
ATOM      2  S   UNL     1      45.736 133.247  23.831  1.00  0.00    -0.084 SA
ATOM      3  H   UNL     1      46.765 132.494  24.426  1.00  0.00     0.113 HD
ENDBRANCH   1   2
BRANCH   1   4
ATOM      4  N   UNL     1      47.104 133.243  21.478  1.00  0.00    -0.208 NA
BRANCH   4   5
ATOM      5  C   UNL     1      48.148 134.098  21.966  1.00  0.00     0.068 A 
ATOM      6  C   UNL     1      48.945 133.729  23.060  1.00  0.00     0.031 A 
ATOM      7  C   UNL     1      48.446 135.272  21.267  1.00  0.00     0.031 A 
ATOM      8  C   UNL     1      49.988 134.557  23.486  1.00  0.00     0.035 A 
ATOM      9  C   UNL     1      49.487 136.103  21.690  1.00  0.00     0.035 A 
ATOM     10  C   UNL     1      50.267 135.757  22.809  1.00  0.00     0.104 A 
BRANCH  10  11
ATOM     11  N   UNL     1      51.342 136.610  23.249  1.00  0.00    -0.130 N 
ATOM     12  C   UNL     1      51.439 137.943  23.059  1.00  0.00     0.163 A 
ATOM     13  N   UNL     1      52.410 136.199  23.917  1.00  0.00    -0.126 N 
ATOM     14  C   UNL     1      52.618 138.387  23.629  1.00  0.00     0.097 A 
ATOM     15  C   UNL     1      53.203 137.256  24.163  1.00  0.00     0.335 A 
ATOM     16  H   UNL     1      52.592 135.218  24.227  1.00  0.00     0.488 HD
ENDBRANCH  10  11
ENDBRANCH   4   5
ENDBRANCH   1   4
BRANCH   1  17
ATOM     17  O   UNL     1      45.396 131.643  21.635  1.00  0.00    -0.431 OA
BRANCH  17  18
ATOM     18  C   UNL     1      44.716 131.702  20.409  1.00  0.00     0.166 A 
ATOM     19  C   UNL     1      45.383 131.551  19.180  1.00  0.00     0.059 A 
ATOM     20  C   UNL     1      43.327 131.880  20.420  1.00  0.00     0.168 A 
ATOM     21  C   UNL     1      44.677 131.622  17.968  1.00  0.00    -0.010 A 
ATOM     22  C   UNL     1      42.606 131.936  19.217  1.00  0.00    -0.011 A 
ATOM     23  C   UNL     1      43.287 131.820  17.996  1.00  0.00     0.015 A 
ATOM     24  F   UNL     1      42.683 132.011  21.609  1.00  0.00    -0.203 F 
ATOM     25  C   UNL     1      41.121 132.157  19.240  1.00  0.00     0.048 C 
BRANCH  21  26
ATOM     26  C   UNL     1      45.392 131.478  16.676  1.00  0.00     0.032 A 
ATOM     27  C   UNL     1      45.926 132.601  15.999  1.00  0.00     0.013 A 
ATOM     28  C   UNL     1      45.566 130.231  16.062  1.00  0.00     0.212 A 
ATOM     29  C   UNL     1      46.603 132.449  14.766  1.00  0.00     0.008 A 
ATOM     30  C   UNL     1      46.221 130.090  14.873  1.00  0.00     0.249 A 
ATOM     31  O   UNL     1      45.157 129.049  16.456  1.00  0.00    -0.403 OA
ATOM     32  C   UNL     1      46.757 131.176  14.188  1.00  0.00     0.083 A 
ATOM     33  N   UNL     1      46.225 128.797  14.522  1.00  0.00    -0.176 N 
ATOM     34  C   UNL     1      45.555 128.190  15.530  1.00  0.00     0.521 A 
ATOM     35  H   UNL     1      46.639 128.359  13.669  1.00  0.00     0.457 HD
ENDBRANCH  21  26
ENDBRANCH  17  18
ENDBRANCH   1  17
TORSDOF 7
ENDMDL
MODEL 2
REMARK VINA RESULT:      -2.5      1.468      1.939
REMARK SMILES Cc1cc(-c2cccc3[nH+]coc23)cc(O/C(S)=N/c2ccc(-n3ccc[nH+]3)cc2)c1F
REMARK SMILES IDX 17 1 18 2 19 4 20 5 21 6 30 7 22 8 29 9 23 10 24 11 25 12
REMARK SMILES IDX 28 13 26 14 27 15 16 17 15 18 14 19 31 20 4 21 2 22 3 23
REMARK SMILES IDX 32 24 1 25 5 26 6 27 13 28 7 29 9 30 12 31 8 32 10 33 11 34
REMARK H PARENT 18 3 28 16 10 35
ROOT
ATOM      1  C   UNL     1      44.564 131.077  22.973  1.00  0.00     0.253 C 
ENDROOT
BRANCH   1   2
ATOM      2  S   UNL     1      43.486 129.866  23.747  1.00  0.00    -0.084 SA
ATOM      3  H   UNL     1      42.356 130.348  23.062  1.00  0.00     0.113 HD
ENDBRANCH   1   2
BRANCH   1   4
ATOM      4  N   UNL     1      44.826 132.226  23.530  1.00  0.00    -0.208 NA
BRANCH   4   5
ATOM      5  C   UNL     1      46.009 133.017  23.348  1.00  0.00     0.068 A 
ATOM      6  C   UNL     1      46.617 133.681  24.424  1.00  0.00     0.031 A 
ATOM      7  C   UNL     1      46.627 133.036  22.094  1.00  0.00     0.031 A 
ATOM      8  C   UNL     1      47.797 134.405  24.231  1.00  0.00     0.035 A 
ATOM      9  C   UNL     1      47.807 133.758  21.897  1.00  0.00     0.035 A 
ATOM     10  C   UNL     1      48.402 134.458  22.963  1.00  0.00     0.104 A 
BRANCH  10  11
ATOM     11  N   UNL     1      49.619 135.205  22.764  1.00  0.00    -0.130 N 
ATOM     12  C   UNL     1      50.777 135.049  23.441  1.00  0.00     0.163 A 
ATOM     13  N   UNL     1      49.777 136.170  21.870  1.00  0.00    -0.126 N 
ATOM     14  C   UNL     1      51.700 135.955  22.953  1.00  0.00     0.097 A 
ATOM     15  C   UNL     1      51.032 136.645  21.960  1.00  0.00     0.335 A 
ATOM     16  H   UNL     1      49.055 136.490  21.188  1.00  0.00     0.488 HD
ENDBRANCH  10  11
ENDBRANCH   4   5
ENDBRANCH   1   4
BRANCH   1  17
ATOM     17  O   UNL     1      45.050 130.785  21.693  1.00  0.00    -0.431 OA
BRANCH  17  18
ATOM     18  C   UNL     1      44.474 131.214  20.488  1.00  0.00     0.166 A 
ATOM     19  C   UNL     1      45.144 131.093  19.258  1.00  0.00     0.059 A 
ATOM     20  C   UNL     1      43.177 131.742  20.516  1.00  0.00     0.168 A 
ATOM     21  C   UNL     1      44.545 131.539  18.067  1.00  0.00    -0.010 A 
ATOM     22  C   UNL     1      42.559 132.175  19.332  1.00  0.00    -0.011 A 
ATOM     23  C   UNL     1      43.251 132.084  18.116  1.00  0.00     0.015 A 
ATOM     24  F   UNL     1      42.526 131.844  21.703  1.00  0.00    -0.203 F 
ATOM     25  C   UNL     1      41.180 132.768  19.377  1.00  0.00     0.048 C 
BRANCH  21  26
ATOM     26  C   UNL     1      45.267 131.423  16.777  1.00  0.00     0.032 A 
ATOM     27  C   UNL     1      45.811 132.560  16.131  1.00  0.00     0.013 A 
ATOM     28  C   UNL     1      45.439 130.191  16.134  1.00  0.00     0.212 A 
ATOM     29  C   UNL     1      46.495 132.434  14.899  1.00  0.00     0.008 A 
ATOM     30  C   UNL     1      46.100 130.076  14.946  1.00  0.00     0.249 A 
ATOM     31  O   UNL     1      45.021 129.001  16.496  1.00  0.00    -0.403 OA
ATOM     32  C   UNL     1      46.646 131.175  14.291  1.00  0.00     0.083 A 
ATOM     33  N   UNL     1      46.100 128.792  14.563  1.00  0.00    -0.176 N 
ATOM     34  C   UNL     1      45.421 128.163  15.552  1.00  0.00     0.521 A 
ATOM     35  H   UNL     1      46.518 128.373  13.702  1.00  0.00     0.457 HD
ENDBRANCH  21  26
ENDBRANCH  17  18
ENDBRANCH   1  17
TORSDOF 7
ENDMDL
MODEL 3
REMARK VINA RESULT:      -2.5      4.898      8.775
REMARK SMILES Cc1cc(-c2cccc3[nH+]coc23)cc(O/C(S)=N/c2ccc(-n3ccc[nH+]3)cc2)c1F
REMARK SMILES IDX 17 1 18 2 19 4 20 5 21 6 30 7 22 8 29 9 23 10 24 11 25 12
REMARK SMILES IDX 28 13 26 14 27 15 16 17 15 18 14 19 31 20 4 21 2 22 3 23
REMARK SMILES IDX 32 24 1 25 5 26 6 27 13 28 7 29 9 30 12 31 8 32 10 33 11 34
REMARK H PARENT 18 3 28 16 10 35
ROOT
ATOM      1  C   UNL     1      45.372 131.336  22.002  1.00  0.00     0.253 C 
ENDROOT
BRANCH   1   2
ATOM      2  S   UNL     1      45.813 133.067  21.807  1.00  0.00    -0.084 SA
ATOM      3  H   UNL     1      46.952 132.752  21.043  1.00  0.00     0.113 HD
ENDBRANCH   1   2
BRANCH   1   4
ATOM      4  N   UNL     1      45.549 130.466  21.047  1.00  0.00    -0.208 NA
BRANCH   4   5
ATOM      5  C   UNL     1      45.202 130.629  19.664  1.00  0.00     0.068 A 
ATOM      6  C   UNL     1      44.070 131.360  19.274  1.00  0.00     0.031 A 
ATOM      7  C   UNL     1      46.073 130.140  18.684  1.00  0.00     0.031 A 
ATOM      8  C   UNL     1      43.781 131.546  17.919  1.00  0.00     0.035 A 
ATOM      9  C   UNL     1      45.788 130.324  17.329  1.00  0.00     0.035 A 
ATOM     10  C   UNL     1      44.633 131.024  16.931  1.00  0.00     0.104 A 
BRANCH  10  11
ATOM     11  N   UNL     1      44.335 131.216  15.533  1.00  0.00    -0.130 N 
ATOM     12  C   UNL     1      43.301 131.917  15.021  1.00  0.00     0.163 A 
ATOM     13  N   UNL     1      45.049 130.722  14.533  1.00  0.00    -0.126 N 
ATOM     14  C   UNL     1      43.367 131.859  13.642  1.00  0.00     0.097 A 
ATOM     15  C   UNL     1      44.486 131.097  13.370  1.00  0.00     0.335 A 
ATOM     16  H   UNL     1      45.922 130.158  14.630  1.00  0.00     0.488 HD
ENDBRANCH  10  11
ENDBRANCH   4   5
ENDBRANCH   1   4
BRANCH   1  17
ATOM     17  O   UNL     1      44.740 130.959  23.193  1.00  0.00    -0.431 OA
BRANCH  17  18
ATOM     18  C   UNL     1      44.083 129.739  23.413  1.00  0.00     0.166 A 
ATOM     19  C   UNL     1      44.740 128.504  23.267  1.00  0.00     0.059 A 
ATOM     20  C   UNL     1      42.746 129.762  23.826  1.00  0.00     0.168 A 
ATOM     21  C   UNL     1      44.055 127.297  23.487  1.00  0.00    -0.010 A 
ATOM     22  C   UNL     1      42.053 128.565  24.066  1.00  0.00    -0.011 A 
ATOM     23  C   UNL     1      42.707 127.338  23.882  1.00  0.00     0.015 A 
ATOM     24  F   UNL     1      42.118 130.957  23.980  1.00  0.00    -0.203 F 
ATOM     25  C   UNL     1      40.610 128.601  24.480  1.00  0.00     0.048 C 
BRANCH  21  26
ATOM     26  C   UNL     1      44.752 125.999  23.314  1.00  0.00     0.032 A 
ATOM     27  C   UNL     1      44.118 124.899  22.687  1.00  0.00     0.013 A 
ATOM     28  C   UNL     1      46.061 125.796  23.768  1.00  0.00     0.212 A 
ATOM     29  C   UNL     1      44.794 123.666  22.532  1.00  0.00     0.008 A 
ATOM     30  C   UNL     1      46.708 124.605  23.615  1.00  0.00     0.249 A 
ATOM     31  O   UNL     1      46.859 126.627  24.396  1.00  0.00    -0.403 OA
ATOM     32  C   UNL     1      46.111 123.509  23.000  1.00  0.00     0.083 A 
ATOM     33  N   UNL     1      47.933 124.696  24.151  1.00  0.00    -0.176 N 
ATOM     34  C   UNL     1      47.982 125.964  24.622  1.00  0.00     0.521 A 
ATOM     35  H   UNL     1      48.674 123.961  24.201  1.00  0.00     0.457 HD
ENDBRANCH  21  26
ENDBRANCH  17  18
ENDBRANCH   1  17
TORSDOF 7
ENDMDL
MODEL 4
REMARK VINA RESULT:      -2.5      1.643      2.161
REMARK SMILES Cc1cc(-c2cccc3[nH+]coc23)cc(O/C(S)=N/c2ccc(-n3ccc[nH+]3)cc2)c1F
REMARK SMILES IDX 17 1 18 2 19 4 20 5 21 6 30 7 22 8 29 9 23 10 24 11 25 12
REMARK SMILES IDX 28 13 26 14 27 15 16 17 15 18 14 19 31 20 4 21 2 22 3 23
REMARK SMILES IDX 32 24 1 25 5 26 6 27 13 28 7 29 9 30 12 31 8 32 10 33 11 34
REMARK H PARENT 18 3 28 16 10 35
ROOT
ATOM      1  C   UNL     1      44.859 131.129  23.004  1.00  0.00     0.253 C 
ENDROOT
BRANCH   1   2
ATOM      2  S   UNL     1      44.040 129.826  23.930  1.00  0.00    -0.084 SA
ATOM      3  H   UNL     1      45.038 128.888  23.607  1.00  0.00     0.113 HD
ENDBRANCH   1   2
BRANCH   1   4
ATOM      4  N   UNL     1      45.151 132.280  23.540  1.00  0.00    -0.208 NA
BRANCH   4   5
ATOM      5  C   UNL     1      46.379 133.008  23.392  1.00  0.00     0.068 A 
ATOM      6  C   UNL     1      46.981 133.179  22.136  1.00  0.00     0.031 A 
ATOM      7  C   UNL     1      46.925 133.654  24.506  1.00  0.00     0.031 A 
ATOM      8  C   UNL     1      48.150 133.935  22.010  1.00  0.00     0.035 A 
ATOM      9  C   UNL     1      48.093 134.410  24.385  1.00  0.00     0.035 A 
ATOM     10  C   UNL     1      48.723 134.554  23.134  1.00  0.00     0.104 A 
BRANCH  10  11
ATOM     11  N   UNL     1      49.929 135.334  23.004  1.00  0.00    -0.130 N 
ATOM     12  C   UNL     1      51.081 135.152  23.684  1.00  0.00     0.163 A 
ATOM     13  N   UNL     1      50.080 136.360  22.180  1.00  0.00    -0.126 N 
ATOM     14  C   UNL     1      51.993 136.105  23.272  1.00  0.00     0.097 A 
ATOM     15  C   UNL     1      51.325 136.849  22.320  1.00  0.00     0.335 A 
ATOM     16  H   UNL     1      49.361 136.714  21.511  1.00  0.00     0.488 HD
ENDBRANCH  10  11
ENDBRANCH   4   5
ENDBRANCH   1   4
BRANCH   1  17
ATOM     17  O   UNL     1      45.095 130.904  21.642  1.00  0.00    -0.431 OA
BRANCH  17  18
ATOM     18  C   UNL     1      44.285 131.360  20.591  1.00  0.00     0.166 A 
ATOM     19  C   UNL     1      44.615 131.130  19.243  1.00  0.00     0.059 A 
ATOM     20  C   UNL     1      43.098 132.033  20.903  1.00  0.00     0.168 A 
ATOM     21  C   UNL     1      43.789 131.605  18.211  1.00  0.00    -0.010 A 
ATOM     22  C   UNL     1      42.253 132.499  19.883  1.00  0.00    -0.011 A 
ATOM     23  C   UNL     1      42.610 132.295  18.542  1.00  0.00     0.015 A 
ATOM     24  F   UNL     1      42.774 132.242  22.206  1.00  0.00    -0.203 F 
ATOM     25  C   UNL     1      40.997 133.245  20.228  1.00  0.00     0.048 C 
BRANCH  21  26
ATOM     26  C   UNL     1      44.153 131.371  16.793  1.00  0.00     0.032 A 
ATOM     27  C   UNL     1      43.345 131.853  15.734  1.00  0.00     0.013 A 
ATOM     28  C   UNL     1      45.305 130.660  16.432  1.00  0.00     0.212 A 
ATOM     29  C   UNL     1      43.705 131.619  14.385  1.00  0.00     0.008 A 
ATOM     30  C   UNL     1      45.646 130.439  15.131  1.00  0.00     0.249 A 
ATOM     31  O   UNL     1      46.203 130.092  17.202  1.00  0.00    -0.403 OA
ATOM     32  C   UNL     1      44.873 130.902  14.071  1.00  0.00     0.083 A 
ATOM     33  N   UNL     1      46.780 129.725  15.086  1.00  0.00    -0.176 N 
ATOM     34  C   UNL     1      47.088 129.534  16.391  1.00  0.00     0.521 A 
ATOM     35  H   UNL     1      47.301 129.389  14.246  1.00  0.00     0.457 HD
ENDBRANCH  21  26
ENDBRANCH  17  18
ENDBRANCH   1  17
TORSDOF 7
ENDMDL
MODEL 5
REMARK VINA RESULT:      -1.3      4.844      8.858
REMARK SMILES Cc1cc(-c2cccc3[nH+]coc23)cc(O/C(S)=N/c2ccc(-n3ccc[nH+]3)cc2)c1F
REMARK SMILES IDX 17 1 18 2 19 4 20 5 21 6 30 7 22 8 29 9 23 10 24 11 25 12
REMARK SMILES IDX 28 13 26 14 27 15 16 17 15 18 14 19 31 20 4 21 2 22 3 23
REMARK SMILES IDX 32 24 1 25 5 26 6 27 13 28 7 29 9 30 12 31 8 32 10 33 11 34
REMARK H PARENT 18 3 28 16 10 35
ROOT
ATOM      1  C   UNL     1      43.154 131.854  19.099  1.00  0.00     0.253 C 
ENDROOT
BRANCH   1   2
ATOM      2  S   UNL     1      41.619 132.787  19.081  1.00  0.00    -0.084 SA
ATOM      3  H   UNL     1      41.731 133.058  17.705  1.00  0.00     0.113 HD
ENDBRANCH   1   2
BRANCH   1   4
ATOM      4  N   UNL     1      43.340 130.813  18.337  1.00  0.00    -0.208 NA
BRANCH   4   5
ATOM      5  C   UNL     1      44.280 130.695  17.260  1.00  0.00     0.068 A 
ATOM      6  C   UNL     1      44.467 131.734  16.334  1.00  0.00     0.031 A 
ATOM      7  C   UNL     1      45.103 129.566  17.197  1.00  0.00     0.031 A 
ATOM      8  C   UNL     1      45.424 131.615  15.323  1.00  0.00     0.035 A 
ATOM      9  C   UNL     1      46.062 129.444  16.188  1.00  0.00     0.035 A 
ATOM     10  C   UNL     1      46.228 130.465  15.234  1.00  0.00     0.104 A 
BRANCH  10  11
ATOM     11  N   UNL     1      47.216 130.343  14.191  1.00  0.00    -0.130 N 
ATOM     12  C   UNL     1      47.486 131.252  13.230  1.00  0.00     0.163 A 
ATOM     13  N   UNL     1      48.015 129.300  14.024  1.00  0.00    -0.126 N 
ATOM     14  C   UNL     1      48.496 130.758  12.425  1.00  0.00     0.097 A 
ATOM     15  C   UNL     1      48.805 129.523  12.959  1.00  0.00     0.335 A 
ATOM     16  H   UNL     1      48.046 128.454  14.636  1.00  0.00     0.488 HD
ENDBRANCH  10  11
ENDBRANCH   4   5
ENDBRANCH   1   4
BRANCH   1  17
ATOM     17  O   UNL     1      44.127 132.228  20.035  1.00  0.00    -0.431 OA
BRANCH  17  18
ATOM     18  C   UNL     1      44.274 131.676  21.316  1.00  0.00     0.166 A 
ATOM     19  C   UNL     1      43.770 130.405  21.642  1.00  0.00     0.059 A 
ATOM     20  C   UNL     1      44.977 132.406  22.283  1.00  0.00     0.168 A 
ATOM     21  C   UNL     1      43.926 129.881  22.936  1.00  0.00    -0.010 A 
ATOM     22  C   UNL     1      45.156 131.888  23.576  1.00  0.00    -0.011 A 
ATOM     23  C   UNL     1      44.617 130.634  23.900  1.00  0.00     0.015 A 
ATOM     24  F   UNL     1      45.475 133.628  21.962  1.00  0.00    -0.203 F 
ATOM     25  C   UNL     1      45.885 132.692  24.613  1.00  0.00     0.048 C 
BRANCH  21  26
ATOM     26  C   UNL     1      43.377 128.546  23.275  1.00  0.00     0.032 A 
ATOM     27  C   UNL     1      44.123 127.362  23.052  1.00  0.00     0.013 A 
ATOM     28  C   UNL     1      42.097 128.389  23.822  1.00  0.00     0.212 A 
ATOM     29  C   UNL     1      43.584 126.095  23.377  1.00  0.00     0.008 A 
ATOM     30  C   UNL     1      41.583 127.165  24.134  1.00  0.00     0.249 A 
ATOM     31  O   UNL     1      41.199 129.303  24.104  1.00  0.00    -0.403 OA
ATOM     32  C   UNL     1      42.294 125.987  23.928  1.00  0.00     0.083 A 
ATOM     33  N   UNL     1      40.346 127.317  24.625  1.00  0.00    -0.176 N 
ATOM     34  C   UNL     1      40.150 128.656  24.587  1.00  0.00     0.521 A 
ATOM     35  H   UNL     1      39.684 126.578  24.953  1.00  0.00     0.457 HD
ENDBRANCH  21  26
ENDBRANCH  17  18
ENDBRANCH   1  17
TORSDOF 7
ENDMDL
MODEL 6
REMARK VINA RESULT:      -0.6      4.689      7.596
REMARK SMILES Cc1cc(-c2cccc3[nH+]coc23)cc(O/C(S)=N/c2ccc(-n3ccc[nH+]3)cc2)c1F
REMARK SMILES IDX 17 1 18 2 19 4 20 5 21 6 30 7 22 8 29 9 23 10 24 11 25 12
REMARK SMILES IDX 28 13 26 14 27 15 16 17 15 18 14 19 31 20 4 21 2 22 3 23
REMARK SMILES IDX 32 24 1 25 5 26 6 27 13 28 7 29 9 30 12 31 8 32 10 33 11 34
REMARK H PARENT 18 3 28 16 10 35
ROOT
ATOM      1  C   UNL     1      42.700 129.533  22.918  1.00  0.00     0.253 C 
ENDROOT
BRANCH   1   2
ATOM      2  S   UNL     1      41.245 129.585  23.970  1.00  0.00    -0.084 SA
ATOM      3  H   UNL     1      40.936 130.900  23.576  1.00  0.00     0.113 HD
ENDBRANCH   1   2
BRANCH   1   4
ATOM      4  N   UNL     1      43.871 129.183  23.373  1.00  0.00    -0.208 NA
BRANCH   4   5
ATOM      5  C   UNL     1      44.584 127.976  23.067  1.00  0.00     0.068 A 
ATOM      6  C   UNL     1      45.984 127.956  22.976  1.00  0.00     0.031 A 
ATOM      7  C   UNL     1      43.874 126.774  22.968  1.00  0.00     0.031 A 
ATOM      8  C   UNL     1      46.658 126.757  22.727  1.00  0.00     0.035 A 
ATOM      9  C   UNL     1      44.545 125.574  22.719  1.00  0.00     0.035 A 
ATOM     10  C   UNL     1      45.946 125.553  22.589  1.00  0.00     0.104 A 
BRANCH  10  11
ATOM     11  N   UNL     1      46.643 124.317  22.332  1.00  0.00    -0.130 N 
ATOM     12  C   UNL     1      47.117 123.455  23.256  1.00  0.00     0.163 A 
ATOM     13  N   UNL     1      46.920 123.843  21.127  1.00  0.00    -0.126 N 
ATOM     14  C   UNL     1      47.720 122.396  22.604  1.00  0.00     0.097 A 
ATOM     15  C   UNL     1      47.574 122.675  21.260  1.00  0.00     0.335 A 
ATOM     16  H   UNL     1      46.651 124.287  20.221  1.00  0.00     0.488 HD
ENDBRANCH  10  11
ENDBRANCH   4   5
ENDBRANCH   1   4
BRANCH   1  17
ATOM     17  O   UNL     1      42.559 129.974  21.596  1.00  0.00    -0.431 OA
BRANCH  17  18
ATOM     18  C   UNL     1      43.541 130.651  20.857  1.00  0.00     0.166 A 
ATOM     19  C   UNL     1      43.548 130.646  19.450  1.00  0.00     0.059 A 
ATOM     20  C   UNL     1      44.516 131.381  21.547  1.00  0.00     0.168 A 
ATOM     21  C   UNL     1      44.548 131.327  18.736  1.00  0.00    -0.010 A 
ATOM     22  C   UNL     1      45.511 132.081  20.847  1.00  0.00    -0.011 A 
ATOM     23  C   UNL     1      45.531 132.039  19.445  1.00  0.00     0.015 A 
ATOM     24  F   UNL     1      44.498 131.396  22.905  1.00  0.00    -0.203 F 
ATOM     25  C   UNL     1      46.570 132.836  21.598  1.00  0.00     0.048 C 
BRANCH  21  26
ATOM     26  C   UNL     1      44.558 131.302  17.253  1.00  0.00     0.032 A 
ATOM     27  C   UNL     1      43.565 131.972  16.497  1.00  0.00     0.013 A 
ATOM     28  C   UNL     1      45.539 130.611  16.531  1.00  0.00     0.212 A 
ATOM     29  C   UNL     1      43.586 131.937  15.083  1.00  0.00     0.008 A 
ATOM     30  C   UNL     1      45.555 130.582  15.168  1.00  0.00     0.249 A 
ATOM     31  O   UNL     1      46.547 129.897  16.975  1.00  0.00    -0.403 OA
ATOM     32  C   UNL     1      44.594 131.233  14.400  1.00  0.00     0.083 A 
ATOM     33  N   UNL     1      46.592 129.841  14.753  1.00  0.00    -0.176 N 
ATOM     34  C   UNL     1      47.177 129.438  15.906  1.00  0.00     0.521 A 
ATOM     35  H   UNL     1      46.879 129.620  13.774  1.00  0.00     0.457 HD
ENDBRANCH  21  26
ENDBRANCH  17  18
ENDBRANCH   1  17
TORSDOF 7
ENDMDL


