REMARK SMILES N#Cc1c(F)cc(F)cc1-c1ccc(C(N)=O)cc1
REMARK SMILES IDX 3 1 4 2 5 3 6 4 7 5 8 6 9 7 10 8 2 9 1 10 11 11 12 12 19 13
REMARK SMILES IDX 13 14 18 15 14 16 15 17 16 18 17 19
REMARK H PARENT 16 20 16 21
ROOT
ATOM      1  C   UNL     1       1.406  -1.428   0.432  1.00  0.00     0.096 A 
ATOM      2  C   UNL     1       2.071  -2.520   1.014  1.00  0.00     0.144 A 
ATOM      3  F   UNL     1       2.669  -2.397   2.227  1.00  0.00    -0.205 F 
ATOM      4  C   UNL     1       2.132  -3.745   0.345  1.00  0.00     0.080 A 
ATOM      5  C   UNL     1       1.537  -3.889  -0.909  1.00  0.00     0.126 A 
ATOM      6  F   UNL     1       1.602  -5.079  -1.556  1.00  0.00    -0.207 F 
ATOM      7  C   UNL     1       0.873  -2.811  -1.498  1.00  0.00     0.049 A 
ATOM      8  C   UNL     1       0.791  -1.573  -0.836  1.00  0.00     0.005 A 
ENDROOT
BRANCH   1   9
ATOM      9  C   UNL     1       1.408  -0.161   1.127  1.00  0.00     0.103 C 
ATOM     10  N   UNL     1       1.409   0.854   1.683  1.00  0.00    -0.192 NA
ENDBRANCH   1   9
BRANCH   8  11
ATOM     11  C   UNL     1       0.065  -0.458  -1.490  1.00  0.00    -0.017 A 
ATOM     12  C   UNL     1       0.411  -0.057  -2.789  1.00  0.00     0.009 A 
ATOM     13  C   UNL     1      -0.990   0.192  -0.832  1.00  0.00     0.009 A 
ATOM     14  C   UNL     1      -0.278   0.986  -3.415  1.00  0.00     0.014 A 
ATOM     15  C   UNL     1      -1.681   1.235  -1.457  1.00  0.00     0.014 A 
ATOM     16  C   UNL     1      -1.336   1.640  -2.760  1.00  0.00     0.039 A 
BRANCH  16  17
ATOM     17  C   UNL     1      -2.054   2.748  -3.436  1.00  0.00     0.248 C 
ATOM     18  N   UNL     1      -3.380   3.125  -3.054  1.00  0.00    -0.366 N 
ATOM     19  O   UNL     1      -1.494   3.369  -4.379  1.00  0.00    -0.270 OA
ATOM     20  H   UNL     1      -3.838   3.947  -3.507  1.00  0.00     0.159 HD
ATOM     21  H   UNL     1      -3.947   2.549  -2.395  1.00  0.00     0.159 HD
ENDBRANCH  16  17
ENDBRANCH   8  11
TORSDOF 3


