MODEL 1
REMARK VINA RESULT:      -5.4      0.000      0.000
REMARK SMILES C=Cc1cccc(-c2ccc3c(c2)[C@H]([N-]C(=O)Nc2cc(F)cc(OC)c2)CC3)c1
REMARK SMILES IDX 15 1 14 2 8 3 9 4 13 5 10 6 12 7 11 8 29 9 28 10 7 11 3 12
REMARK SMILES IDX 4 13 30 14 5 15 6 16 2 17 1 18 16 19 18 20 17 21 19 23 20 24
REMARK SMILES IDX 27 25 21 26 24 27 23 28 22 29 25 30 26 31
REMARK H PARENT 18 22
ROOT
ATOM      1  N   UNL     1      43.582 131.211  20.150  1.00  0.00    -0.423 NA
ENDROOT
BRANCH   1   2
ATOM      2  C   UNL     1      43.406 131.791  21.485  1.00  0.00     0.025 C 
ATOM      3  C   UNL     1      42.405 128.736  23.585  1.00  0.00    -0.018 A 
ATOM      4  C   UNL     1      43.352 128.916  24.623  1.00  0.00     0.009 A 
ATOM      5  C   UNL     1      42.353 129.681  22.537  1.00  0.00     0.013 A 
ATOM      6  C   UNL     1      44.237 130.003  24.602  1.00  0.00     0.004 A 
ATOM      7  C   UNL     1      43.254 130.749  22.536  1.00  0.00    -0.042 A 
ATOM      8  C   UNL     1      44.172 130.905  23.540  1.00  0.00    -0.045 A 
ATOM      9  C   UNL     1      45.058 132.072  23.317  1.00  0.00     0.036 C 
ATOM     10  C   UNL     1      44.638 132.607  21.933  1.00  0.00     0.012 C 
BRANCH   3  11
ATOM     11  C   UNL     1      41.512 127.548  23.573  1.00  0.00    -0.018 A 
ATOM     12  C   UNL     1      41.210 125.116  23.546  1.00  0.00    -0.026 A 
ATOM     13  C   UNL     1      39.821 125.303  23.615  1.00  0.00     0.008 A 
ATOM     14  C   UNL     1      42.050 126.248  23.508  1.00  0.00     0.016 A 
ATOM     15  C   UNL     1      39.281 126.588  23.670  1.00  0.00     0.001 A 
ATOM     16  C   UNL     1      40.117 127.703  23.651  1.00  0.00     0.009 A 
BRANCH  12  17
ATOM     17  C   UNL     1      41.737 123.731  23.488  1.00  0.00     0.000 C 
ATOM     18  C   UNL     1      43.008 123.426  23.222  1.00  0.00     0.009 C 
ENDBRANCH  12  17
ENDBRANCH   3  11
ENDBRANCH   1   2
BRANCH   1  19
ATOM     19  C   UNL     1      44.657 131.474  19.238  1.00  0.00     0.157 C 
ATOM     20  N   UNL     1      45.133 130.464  18.340  1.00  0.00    -0.424 N 
ATOM     21  O   UNL     1      45.173 132.622  19.212  1.00  0.00    -0.299 OA
ATOM     22  H   UNL     1      45.446 129.557  18.752  1.00  0.00     0.029 HD
BRANCH  20  23
ATOM     23  C   UNL     1      45.096 130.598  16.908  1.00  0.00    -0.035 A 
ATOM     24  C   UNL     1      44.075 131.359  16.319  1.00  0.00     0.043 A 
ATOM     25  C   UNL     1      46.098 130.045  16.087  1.00  0.00     0.050 A 
ATOM     26  C   UNL     1      44.042 131.550  14.936  1.00  0.00     0.127 A 
ATOM     27  C   UNL     1      46.075 130.248  14.694  1.00  0.00     0.122 A 
ATOM     28  C   UNL     1      45.035 130.994  14.128  1.00  0.00     0.085 A 
ATOM     29  F   UNL     1      43.050 132.286  14.378  1.00  0.00    -0.207 F 
BRANCH  27  30
ATOM     30  O   UNL     1      47.068 129.741  13.842  1.00  0.00    -0.497 OA
ATOM     31  C   UNL     1      48.420 129.516  14.227  1.00  0.00     0.278 C 
ENDBRANCH  27  30
ENDBRANCH  20  23
ENDBRANCH   1  19
TORSDOF 6
ENDMDL
MODEL 2
REMARK VINA RESULT:      -5.2      2.691      3.436
REMARK SMILES C=Cc1cccc(-c2ccc3c(c2)[C@H]([N-]C(=O)Nc2cc(F)cc(OC)c2)CC3)c1
REMARK SMILES IDX 15 1 14 2 8 3 9 4 13 5 10 6 12 7 11 8 29 9 28 10 7 11 3 12
REMARK SMILES IDX 4 13 30 14 5 15 6 16 2 17 1 18 16 19 18 20 17 21 19 23 20 24
REMARK SMILES IDX 27 25 21 26 24 27 23 28 22 29 25 30 26 31
REMARK H PARENT 18 22
ROOT
ATOM      1  N   UNL     1      44.823 131.534  20.424  1.00  0.00    -0.423 NA
ENDROOT
BRANCH   1   2
ATOM      2  C   UNL     1      43.656 131.209  21.250  1.00  0.00     0.025 C 
ATOM      3  C   UNL     1      44.810 128.047  23.097  1.00  0.00    -0.018 A 
ATOM      4  C   UNL     1      44.483 128.476  24.406  1.00  0.00     0.009 A 
ATOM      5  C   UNL     1      44.523 128.898  22.007  1.00  0.00     0.013 A 
ATOM      6  C   UNL     1      43.902 129.734  24.621  1.00  0.00     0.004 A 
ATOM      7  C   UNL     1      43.952 130.150  22.251  1.00  0.00    -0.042 A 
ATOM      8  C   UNL     1      43.651 130.557  23.523  1.00  0.00    -0.045 A 
ATOM      9  C   UNL     1      43.101 131.933  23.559  1.00  0.00     0.036 C 
ATOM     10  C   UNL     1      43.186 132.412  22.096  1.00  0.00     0.012 C 
BRANCH   3  11
ATOM     11  C   UNL     1      45.488 126.743  22.876  1.00  0.00    -0.018 A 
ATOM     12  C   UNL     1      47.498 125.346  22.988  1.00  0.00    -0.026 A 
ATOM     13  C   UNL     1      46.750 124.257  22.517  1.00  0.00     0.008 A 
ATOM     14  C   UNL     1      46.861 126.593  23.149  1.00  0.00     0.016 A 
ATOM     15  C   UNL     1      45.390 124.399  22.236  1.00  0.00     0.001 A 
ATOM     16  C   UNL     1      44.762 125.631  22.415  1.00  0.00     0.009 A 
BRANCH  12  17
ATOM     17  C   UNL     1      48.940 125.145  23.272  1.00  0.00     0.000 C 
ATOM     18  C   UNL     1      49.912 125.919  22.786  1.00  0.00     0.009 C 
ENDBRANCH  12  17
ENDBRANCH   3  11
ENDBRANCH   1   2
BRANCH   1  19
ATOM     19  C   UNL     1      45.321 130.778  19.311  1.00  0.00     0.157 C 
ATOM     20  N   UNL     1      44.461 130.391  18.232  1.00  0.00    -0.424 N 
ATOM     21  O   UNL     1      46.541 130.471  19.275  1.00  0.00    -0.299 OA
ATOM     22  H   UNL     1      43.602 129.847  18.467  1.00  0.00     0.029 HD
BRANCH  20  23
ATOM     23  C   UNL     1      44.666 130.809  16.870  1.00  0.00    -0.035 A 
ATOM     24  C   UNL     1      43.555 131.148  16.085  1.00  0.00     0.043 A 
ATOM     25  C   UNL     1      45.958 130.954  16.328  1.00  0.00     0.050 A 
ATOM     26  C   UNL     1      43.726 131.606  14.777  1.00  0.00     0.127 A 
ATOM     27  C   UNL     1      46.134 131.428  15.014  1.00  0.00     0.122 A 
ATOM     28  C   UNL     1      45.009 131.741  14.243  1.00  0.00     0.085 A 
ATOM     29  F   UNL     1      42.644 131.929  14.026  1.00  0.00    -0.207 F 
BRANCH  27  30
ATOM     30  O   UNL     1      47.402 131.615  14.443  1.00  0.00    -0.497 OA
ATOM     31  C   UNL     1      47.751 131.240  13.115  1.00  0.00     0.278 C 
ENDBRANCH  27  30
ENDBRANCH  20  23
ENDBRANCH   1  19
TORSDOF 6
ENDMDL
MODEL 3
REMARK VINA RESULT:      -5.0      3.566      7.170
REMARK SMILES C=Cc1cccc(-c2ccc3c(c2)[C@H]([N-]C(=O)Nc2cc(F)cc(OC)c2)CC3)c1
REMARK SMILES IDX 15 1 14 2 8 3 9 4 13 5 10 6 12 7 11 8 29 9 28 10 7 11 3 12
REMARK SMILES IDX 4 13 30 14 5 15 6 16 2 17 1 18 16 19 18 20 17 21 19 23 20 24
REMARK SMILES IDX 27 25 21 26 24 27 23 28 22 29 25 30 26 31
REMARK H PARENT 18 22
ROOT
ATOM      1  N   UNL     1      43.829 132.308  19.820  1.00  0.00    -0.423 NA
ENDROOT
BRANCH   1   2
ATOM      2  C   UNL     1      44.245 131.408  20.901  1.00  0.00     0.025 C 
ATOM      3  C   UNL     1      46.857 133.515  22.768  1.00  0.00    -0.018 A 
ATOM      4  C   UNL     1      46.318 133.355  24.067  1.00  0.00     0.009 A 
ATOM      5  C   UNL     1      46.232 132.860  21.683  1.00  0.00     0.013 A 
ATOM      6  C   UNL     1      45.170 132.577  24.274  1.00  0.00     0.004 A 
ATOM      7  C   UNL     1      45.083 132.098  21.917  1.00  0.00    -0.042 A 
ATOM      8  C   UNL     1      44.566 131.962  23.178  1.00  0.00    -0.045 A 
ATOM      9  C   UNL     1      43.322 131.156  23.192  1.00  0.00     0.036 C 
ATOM     10  C   UNL     1      43.042 130.866  21.704  1.00  0.00     0.012 C 
BRANCH   3  11
ATOM     11  C   UNL     1      48.033 134.393  22.539  1.00  0.00    -0.018 A 
ATOM     12  C   UNL     1      50.330 135.056  23.081  1.00  0.00    -0.026 A 
ATOM     13  C   UNL     1      50.279 136.015  22.058  1.00  0.00     0.008 A 
ATOM     14  C   UNL     1      49.193 134.258  23.326  1.00  0.00     0.016 A 
ATOM     15  C   UNL     1      49.130 136.161  21.280  1.00  0.00     0.001 A 
ATOM     16  C   UNL     1      48.016 135.357  21.515  1.00  0.00     0.009 A 
BRANCH  12  17
ATOM     17  C   UNL     1      51.573 134.938  23.881  1.00  0.00     0.000 C 
ATOM     18  C   UNL     1      52.278 133.813  24.004  1.00  0.00     0.009 C 
ENDBRANCH  12  17
ENDBRANCH   3  11
ENDBRANCH   1   2
BRANCH   1  19
ATOM     19  C   UNL     1      43.485 131.932  18.479  1.00  0.00     0.157 C 
ATOM     20  N   UNL     1      44.237 132.411  17.358  1.00  0.00    -0.424 N 
ATOM     21  O   UNL     1      42.518 131.148  18.291  1.00  0.00    -0.299 OA
ATOM     22  H   UNL     1      44.340 133.444  17.248  1.00  0.00     0.029 HD
BRANCH  20  23
ATOM     23  C   UNL     1      44.940 131.544  16.449  1.00  0.00    -0.035 A 
ATOM     24  C   UNL     1      44.612 130.181  16.414  1.00  0.00     0.043 A 
ATOM     25  C   UNL     1      45.898 132.042  15.544  1.00  0.00     0.050 A 
ATOM     26  C   UNL     1      45.240 129.325  15.507  1.00  0.00     0.127 A 
ATOM     27  C   UNL     1      46.523 131.183  14.620  1.00  0.00     0.122 A 
ATOM     28  C   UNL     1      46.194 129.823  14.618  1.00  0.00     0.085 A 
ATOM     29  F   UNL     1      44.916 128.009  15.484  1.00  0.00    -0.207 F 
BRANCH  27  30
ATOM     30  O   UNL     1      47.461 131.640  13.682  1.00  0.00    -0.497 OA
ATOM     31  C   UNL     1      48.149 130.803  12.758  1.00  0.00     0.278 C 
ENDBRANCH  27  30
ENDBRANCH  20  23
ENDBRANCH   1  19
TORSDOF 6
ENDMDL
MODEL 4
REMARK VINA RESULT:      -3.5      3.829      8.198
REMARK SMILES C=Cc1cccc(-c2ccc3c(c2)[C@H]([N-]C(=O)Nc2cc(F)cc(OC)c2)CC3)c1
REMARK SMILES IDX 15 1 14 2 8 3 9 4 13 5 10 6 12 7 11 8 29 9 28 10 7 11 3 12
REMARK SMILES IDX 4 13 30 14 5 15 6 16 2 17 1 18 16 19 18 20 17 21 19 23 20 24
REMARK SMILES IDX 27 25 21 26 24 27 23 28 22 29 25 30 26 31
REMARK H PARENT 18 22
ROOT
ATOM      1  N   UNL     1      44.696 129.031  23.639  1.00  0.00    -0.423 NA
ENDROOT
BRANCH   1   2
ATOM      2  C   UNL     1      44.546 130.489  23.650  1.00  0.00     0.025 C 
ATOM      3  C   UNL     1      44.123 131.304  19.921  1.00  0.00    -0.018 A 
ATOM      4  C   UNL     1      42.951 132.090  20.043  1.00  0.00     0.009 A 
ATOM      5  C   UNL     1      44.717 130.778  21.090  1.00  0.00     0.013 A 
ATOM      6  C   UNL     1      42.377 132.327  21.300  1.00  0.00     0.004 A 
ATOM      7  C   UNL     1      44.118 131.022  22.329  1.00  0.00    -0.042 A 
ATOM      8  C   UNL     1      42.979 131.775  22.430  1.00  0.00    -0.045 A 
ATOM      9  C   UNL     1      42.487 131.866  23.826  1.00  0.00     0.036 C 
ATOM     10  C   UNL     1      43.441 130.954  24.624  1.00  0.00     0.012 C 
BRANCH   3  11
ATOM     11  C   UNL     1      44.693 130.996  18.584  1.00  0.00    -0.018 A 
ATOM     12  C   UNL     1      44.456 130.883  16.147  1.00  0.00    -0.026 A 
ATOM     13  C   UNL     1      45.795 130.476  16.051  1.00  0.00     0.008 A 
ATOM     14  C   UNL     1      43.906 131.126  17.422  1.00  0.00     0.016 A 
ATOM     15  C   UNL     1      46.578 130.336  17.197  1.00  0.00     0.001 A 
ATOM     16  C   UNL     1      46.034 130.595  18.455  1.00  0.00     0.009 A 
BRANCH  12  17
ATOM     17  C   UNL     1      43.664 131.017  14.900  1.00  0.00     0.000 C 
ATOM     18  C   UNL     1      43.876 131.956  13.978  1.00  0.00     0.009 C 
ENDBRANCH  12  17
ENDBRANCH   3  11
ENDBRANCH   1   2
BRANCH   1  19
ATOM     19  C   UNL     1      45.038 128.215  22.509  1.00  0.00     0.157 C 
ATOM     20  N   UNL     1      46.107 127.264  22.577  1.00  0.00    -0.424 N 
ATOM     21  O   UNL     1      44.369 128.324  21.449  1.00  0.00    -0.299 OA
ATOM     22  H   UNL     1      47.050 127.612  22.857  1.00  0.00     0.029 HD
BRANCH  20  23
ATOM     23  C   UNL     1      45.919 125.849  22.389  1.00  0.00    -0.035 A 
ATOM     24  C   UNL     1      47.014 125.058  22.014  1.00  0.00     0.043 A 
ATOM     25  C   UNL     1      44.680 125.228  22.642  1.00  0.00     0.050 A 
ATOM     26  C   UNL     1      46.875 123.676  21.875  1.00  0.00     0.127 A 
ATOM     27  C   UNL     1      44.540 123.832  22.514  1.00  0.00     0.122 A 
ATOM     28  C   UNL     1      45.643 123.067  22.120  1.00  0.00     0.085 A 
ATOM     29  F   UNL     1      47.941 122.922  21.510  1.00  0.00    -0.207 F 
BRANCH  27  30
ATOM     30  O   UNL     1      43.333 123.168  22.784  1.00  0.00    -0.497 OA
ATOM     31  C   UNL     1      42.308 123.677  23.631  1.00  0.00     0.278 C 
ENDBRANCH  27  30
ENDBRANCH  20  23
ENDBRANCH   1  19
TORSDOF 6
ENDMDL
MODEL 5
REMARK VINA RESULT:      -3.1      3.512      8.200
REMARK SMILES C=Cc1cccc(-c2ccc3c(c2)[C@H]([N-]C(=O)Nc2cc(F)cc(OC)c2)CC3)c1
REMARK SMILES IDX 15 1 14 2 8 3 9 4 13 5 10 6 12 7 11 8 29 9 28 10 7 11 3 12
REMARK SMILES IDX 4 13 30 14 5 15 6 16 2 17 1 18 16 19 18 20 17 21 19 23 20 24
REMARK SMILES IDX 27 25 21 26 24 27 23 28 22 29 25 30 26 31
REMARK H PARENT 18 22
ROOT
ATOM      1  N   UNL     1      44.185 130.847  22.186  1.00  0.00    -0.423 NA
ENDROOT
BRANCH   1   2
ATOM      2  C   UNL     1      43.785 132.105  21.548  1.00  0.00     0.025 C 
ATOM      3  C   UNL     1      44.310 131.341  17.821  1.00  0.00    -0.018 A 
ATOM      4  C   UNL     1      43.034 131.760  17.372  1.00  0.00     0.009 A 
ATOM      5  C   UNL     1      44.628 131.468  19.192  1.00  0.00     0.013 A 
ATOM      6  C   UNL     1      42.092 132.273  18.275  1.00  0.00     0.004 A 
ATOM      7  C   UNL     1      43.667 131.974  20.071  1.00  0.00    -0.042 A 
ATOM      8  C   UNL     1      42.432 132.365  19.625  1.00  0.00    -0.045 A 
ATOM      9  C   UNL     1      41.553 132.822  20.728  1.00  0.00     0.036 C 
ATOM     10  C   UNL     1      42.384 132.570  22.002  1.00  0.00     0.012 C 
BRANCH   3  11
ATOM     11  C   UNL     1      45.283 130.734  16.876  1.00  0.00    -0.018 A 
ATOM     12  C   UNL     1      46.474 130.774  14.735  1.00  0.00    -0.026 A 
ATOM     13  C   UNL     1      47.173 129.619  15.119  1.00  0.00     0.008 A 
ATOM     14  C   UNL     1      45.516 131.317  15.615  1.00  0.00     0.016 A 
ATOM     15  C   UNL     1      46.941 129.032  16.363  1.00  0.00     0.001 A 
ATOM     16  C   UNL     1      46.006 129.584  17.237  1.00  0.00     0.009 A 
BRANCH  12  17
ATOM     17  C   UNL     1      46.754 131.361  13.402  1.00  0.00     0.000 C 
ATOM     18  C   UNL     1      47.927 131.263  12.774  1.00  0.00     0.009 C 
ENDBRANCH  12  17
ENDBRANCH   3  11
ENDBRANCH   1   2
BRANCH   1  19
ATOM     19  C   UNL     1      45.161 129.914  21.701  1.00  0.00     0.157 C 
ATOM     20  N   UNL     1      45.790 128.974  22.580  1.00  0.00    -0.424 N 
ATOM     21  O   UNL     1      45.448 129.909  20.475  1.00  0.00    -0.299 OA
ATOM     22  H   UNL     1      46.283 129.350  23.420  1.00  0.00     0.029 HD
BRANCH  20  23
ATOM     23  C   UNL     1      45.682 127.548  22.420  1.00  0.00    -0.035 A 
ATOM     24  C   UNL     1      44.410 126.967  22.316  1.00  0.00     0.043 A 
ATOM     25  C   UNL     1      46.821 126.729  22.295  1.00  0.00     0.050 A 
ATOM     26  C   UNL     1      44.274 125.593  22.108  1.00  0.00     0.127 A 
ATOM     27  C   UNL     1      46.686 125.345  22.073  1.00  0.00     0.122 A 
ATOM     28  C   UNL     1      45.407 124.786  21.992  1.00  0.00     0.085 A 
ATOM     29  F   UNL     1      43.038 125.042  22.010  1.00  0.00    -0.207 F 
BRANCH  27  30
ATOM     30  O   UNL     1      47.793 124.497  21.913  1.00  0.00    -0.497 OA
ATOM     31  C   UNL     1      47.747 123.080  22.047  1.00  0.00     0.278 C 
ENDBRANCH  27  30
ENDBRANCH  20  23
ENDBRANCH   1  19
TORSDOF 6
ENDMDL
MODEL 6
REMARK VINA RESULT:      -3.1      3.308      7.161
REMARK SMILES C=Cc1cccc(-c2ccc3c(c2)[C@H]([N-]C(=O)Nc2cc(F)cc(OC)c2)CC3)c1
REMARK SMILES IDX 15 1 14 2 8 3 9 4 13 5 10 6 12 7 11 8 29 9 28 10 7 11 3 12
REMARK SMILES IDX 4 13 30 14 5 15 6 16 2 17 1 18 16 19 18 20 17 21 19 23 20 24
REMARK SMILES IDX 27 25 21 26 24 27 23 28 22 29 25 30 26 31
REMARK H PARENT 18 22
ROOT
ATOM      1  N   UNL     1      43.984 131.329  20.017  1.00  0.00    -0.423 NA
ENDROOT
BRANCH   1   2
ATOM      2  C   UNL     1      44.181 130.761  21.354  1.00  0.00     0.025 C 
ATOM      3  C   UNL     1      46.481 133.348  23.016  1.00  0.00    -0.018 A 
ATOM      4  C   UNL     1      45.720 133.531  24.196  1.00  0.00     0.009 A 
ATOM      5  C   UNL     1      46.038 132.413  22.055  1.00  0.00     0.013 A 
ATOM      6  C   UNL     1      44.534 132.812  24.400  1.00  0.00     0.004 A 
ATOM      7  C   UNL     1      44.847 131.717  22.279  1.00  0.00    -0.042 A 
ATOM      8  C   UNL     1      44.115 131.912  23.420  1.00  0.00    -0.045 A 
ATOM      9  C   UNL     1      42.866 131.113  23.431  1.00  0.00     0.036 C 
ATOM     10  C   UNL     1      42.843 130.428  22.050  1.00  0.00     0.012 C 
BRANCH   3  11
ATOM     11  C   UNL     1      47.702 134.159  22.770  1.00  0.00    -0.018 A 
ATOM     12  C   UNL     1      50.000 134.774  23.358  1.00  0.00    -0.026 A 
ATOM     13  C   UNL     1      50.032 135.647  22.261  1.00  0.00     0.008 A 
ATOM     14  C   UNL     1      48.822 134.043  23.616  1.00  0.00     0.016 A 
ATOM     15  C   UNL     1      48.923 135.774  21.423  1.00  0.00     0.001 A 
ATOM     16  C   UNL     1      47.767 135.035  21.672  1.00  0.00     0.009 A 
BRANCH  12  17
ATOM     17  C   UNL     1      51.204 134.674  24.220  1.00  0.00     0.000 C 
ATOM     18  C   UNL     1      52.411 135.119  23.870  1.00  0.00     0.009 C 
ENDBRANCH  12  17
ENDBRANCH   3  11
ENDBRANCH   1   2
BRANCH   1  19
ATOM     19  C   UNL     1      45.010 131.708  19.089  1.00  0.00     0.157 C 
ATOM     20  N   UNL     1      45.810 130.724  18.424  1.00  0.00    -0.424 N 
ATOM     21  O   UNL     1      45.191 132.929  18.840  1.00  0.00    -0.299 OA
ATOM     22  H   UNL     1      46.329 130.039  19.017  1.00  0.00     0.029 HD
BRANCH  20  23
ATOM     23  C   UNL     1      45.844 130.568  16.993  1.00  0.00    -0.035 A 
ATOM     24  C   UNL     1      46.955 129.951  16.400  1.00  0.00     0.043 A 
ATOM     25  C   UNL     1      44.759 130.953  16.182  1.00  0.00     0.050 A 
ATOM     26  C   UNL     1      46.993 129.739  15.020  1.00  0.00     0.127 A 
ATOM     27  C   UNL     1      44.790 130.728  14.792  1.00  0.00     0.122 A 
ATOM     28  C   UNL     1      45.917 130.129  14.220  1.00  0.00     0.085 A 
ATOM     29  F   UNL     1      48.073 129.144  14.457  1.00  0.00    -0.207 F 
BRANCH  27  30
ATOM     30  O   UNL     1      43.719 131.068  13.950  1.00  0.00    -0.497 OA
ATOM     31  C   UNL     1      42.728 132.042  14.263  1.00  0.00     0.278 C 
ENDBRANCH  27  30
ENDBRANCH  20  23
ENDBRANCH   1  19
TORSDOF 6
ENDMDL
MODEL 7
REMARK VINA RESULT:      -2.8      3.799      8.606
REMARK SMILES C=Cc1cccc(-c2ccc3c(c2)[C@H]([N-]C(=O)Nc2cc(F)cc(OC)c2)CC3)c1
REMARK SMILES IDX 15 1 14 2 8 3 9 4 13 5 10 6 12 7 11 8 29 9 28 10 7 11 3 12
REMARK SMILES IDX 4 13 30 14 5 15 6 16 2 17 1 18 16 19 18 20 17 21 19 23 20 24
REMARK SMILES IDX 27 25 21 26 24 27 23 28 22 29 25 30 26 31
REMARK H PARENT 18 22
ROOT
ATOM      1  N   UNL     1      46.047 130.185  21.336  1.00  0.00    -0.423 NA
ENDROOT
BRANCH   1   2
ATOM      2  C   UNL     1      45.354 131.476  21.388  1.00  0.00     0.025 C 
ATOM      3  C   UNL     1      43.744 131.688  17.908  1.00  0.00    -0.018 A 
ATOM      4  C   UNL     1      42.430 131.991  18.338  1.00  0.00     0.009 A 
ATOM      5  C   UNL     1      44.764 131.544  18.875  1.00  0.00     0.013 A 
ATOM      6  C   UNL     1      42.138 132.125  19.703  1.00  0.00     0.004 A 
ATOM      7  C   UNL     1      44.443 131.674  20.229  1.00  0.00    -0.042 A 
ATOM      8  C   UNL     1      43.165 131.955  20.632  1.00  0.00    -0.045 A 
ATOM      9  C   UNL     1      43.036 132.000  22.108  1.00  0.00     0.036 C 
ATOM     10  C   UNL     1      44.432 131.595  22.622  1.00  0.00     0.012 C 
BRANCH   3  11
ATOM     11  C   UNL     1      44.040 131.479  16.467  1.00  0.00    -0.018 A 
ATOM     12  C   UNL     1      45.424 130.493  14.702  1.00  0.00    -0.026 A 
ATOM     13  C   UNL     1      44.557 131.032  13.740  1.00  0.00     0.008 A 
ATOM     14  C   UNL     1      45.167 130.736  16.066  1.00  0.00     0.016 A 
ATOM     15  C   UNL     1      43.443 131.778  14.128  1.00  0.00     0.001 A 
ATOM     16  C   UNL     1      43.183 132.000  15.480  1.00  0.00     0.009 A 
BRANCH  12  17
ATOM     17  C   UNL     1      46.595 129.708  14.240  1.00  0.00     0.000 C 
ATOM     18  C   UNL     1      47.736 129.598  14.921  1.00  0.00     0.009 C 
ENDBRANCH  12  17
ENDBRANCH   3  11
ENDBRANCH   1   2
BRANCH   1  19
ATOM     19  C   UNL     1      45.445 128.899  21.131  1.00  0.00     0.157 C 
ATOM     20  N   UNL     1      46.217 127.696  21.220  1.00  0.00    -0.424 N 
ATOM     21  O   UNL     1      44.211 128.830  20.891  1.00  0.00    -0.299 OA
ATOM     22  H   UNL     1      47.061 127.614  20.611  1.00  0.00     0.029 HD
BRANCH  20  23
ATOM     23  C   UNL     1      45.950 126.655  22.178  1.00  0.00    -0.035 A 
ATOM     24  C   UNL     1      47.012 126.124  22.924  1.00  0.00     0.043 A 
ATOM     25  C   UNL     1      44.640 126.206  22.437  1.00  0.00     0.050 A 
ATOM     26  C   UNL     1      46.777 125.151  23.897  1.00  0.00     0.127 A 
ATOM     27  C   UNL     1      44.399 125.234  23.427  1.00  0.00     0.122 A 
ATOM     28  C   UNL     1      45.477 124.705  24.144  1.00  0.00     0.085 A 
ATOM     29  F   UNL     1      47.812 124.644  24.611  1.00  0.00    -0.207 F 
BRANCH  27  30
ATOM     30  O   UNL     1      43.108 124.780  23.738  1.00  0.00    -0.497 OA
ATOM     31  C   UNL     1      42.828 123.679  24.596  1.00  0.00     0.278 C 
ENDBRANCH  27  30
ENDBRANCH  20  23
ENDBRANCH   1  19
TORSDOF 6
ENDMDL


