REMARK SMILES CC1=CCC=C[C@H]1C(=O)Oc1ccc(N(C(=O)CC#N)c2ccc3cc[nH]c3c2)c(F)c1
REMARK SMILES IDX 11 1 12 2 13 3 14 4 30 5 31 6 32 7 10 8 8 9 9 10 7 11 2 12
REMARK SMILES IDX 3 13 4 14 6 15 5 16 1 17 15 18 16 19 17 20 18 21 19 22 20 23
REMARK SMILES IDX 21 24 22 25 29 26 23 27 28 28 24 29 27 30 25 31 26 32
REMARK H PARENT 27 33
ROOT
ATOM      1  C   UNL     1      -1.593   0.765  -0.768  1.00  0.00     0.133 A 
ATOM      2  C   UNL     1      -0.926   1.042   0.440  1.00  0.00     0.049 A 
ATOM      3  C   UNL     1       0.304   1.705   0.430  1.00  0.00     0.034 A 
ATOM      4  C   UNL     1       0.875   2.127  -0.783  1.00  0.00     0.085 A 
ATOM      5  C   UNL     1       0.191   1.881  -1.984  1.00  0.00     0.151 A 
ATOM      6  F   UNL     1       0.731   2.253  -3.173  1.00  0.00    -0.205 F 
ATOM      7  C   UNL     1      -1.032   1.205  -1.972  1.00  0.00     0.088 A 
ENDROOT
BRANCH   1   8
ATOM      8  O   UNL     1      -2.823   0.093  -0.817  1.00  0.00    -0.426 OA
BRANCH   8   9
ATOM      9  C   UNL     1      -3.289  -0.837   0.124  1.00  0.00     0.322 C 
ATOM     10  O   UNL     1      -2.511  -1.347   0.978  1.00  0.00    -0.251 OA
BRANCH   9  11
ATOM     11  C   UNL     1      -4.720  -1.281   0.059  1.00  0.00     0.147 C 
ATOM     12  C   UNL     1      -4.796  -2.764  -0.259  1.00  0.00    -0.059 C 
ATOM     13  C   UNL     1      -5.042  -3.669   0.710  1.00  0.00    -0.023 C 
ATOM     14  C   UNL     1      -5.207  -3.266   2.151  1.00  0.00     0.054 C 
ATOM     15  C   UNL     1      -5.430  -0.925   1.344  1.00  0.00    -0.012 C 
ATOM     16  C   UNL     1      -5.661  -1.838   2.299  1.00  0.00    -0.026 C 
ATOM     17  C   UNL     1      -4.538  -3.240  -1.661  1.00  0.00     0.040 C 
ENDBRANCH   9  11
ENDBRANCH   8   9
ENDBRANCH   1   8
BRANCH   4  18
ATOM     18  N   UNL     1       2.154   2.789  -0.788  1.00  0.00    -0.277 N 
BRANCH  18  19
ATOM     19  C   UNL     1       2.284   4.060  -1.456  1.00  0.00     0.245 C 
ATOM     20  O   UNL     1       1.310   4.861  -1.465  1.00  0.00    -0.273 OA
BRANCH  19  21
ATOM     21  C   UNL     1       3.542   4.440  -2.185  1.00  0.00     0.220 C 
BRANCH  21  22
ATOM     22  C   UNL     1       3.276   4.530  -3.623  1.00  0.00     0.072 C 
ATOM     23  N   UNL     1       3.066   4.605  -4.757  1.00  0.00    -0.198 NA
ENDBRANCH  21  22
ENDBRANCH  19  21
ENDBRANCH  18  19
BRANCH  18  24
ATOM     24  C   UNL     1       3.266   2.197  -0.083  1.00  0.00     0.051 A 
ATOM     25  C   UNL     1       4.143   3.004   0.689  1.00  0.00     0.027 A 
ATOM     26  C   UNL     1       3.475   0.799  -0.138  1.00  0.00     0.053 A 
ATOM     27  C   UNL     1       5.219   2.430   1.391  1.00  0.00     0.012 A 
ATOM     28  C   UNL     1       4.550   0.266   0.569  1.00  0.00     0.047 A 
ATOM     29  C   UNL     1       5.391   1.053   1.305  1.00  0.00    -0.000 A 
ATOM     30  N   UNL     1       4.907  -1.026   0.657  1.00  0.00    -0.361 N 
ATOM     31  C   UNL     1       6.328   0.226   1.886  1.00  0.00     0.028 A 
ATOM     32  C   UNL     1       5.996  -1.055   1.460  1.00  0.00     0.083 A 
ATOM     33  H   UNL     1       4.442  -1.844   0.204  1.00  0.00     0.166 HD
ENDBRANCH  18  24
ENDBRANCH   4  18
TORSDOF 8


