REMARK SMILES C/C(O)=N\c1cc(F)c(-c2ccc(C)cc2)cc1C=O
REMARK SMILES IDX 4 1 2 2 1 3 3 4 5 6 6 7 18 8 7 9 17 10 9 11 8 12 19 13 20 14
REMARK SMILES IDX 10 15 11 16 16 17 12 18 15 19 13 20 14 21
REMARK H PARENT 3 5
ROOT
ATOM      1  N   UNL     1      -2.738  -2.840   0.159  1.00  0.00    -0.218 NA
ENDROOT
BRANCH   1   2
ATOM      2  C   UNL     1      -2.557  -4.130   0.157  1.00  0.00     0.182 C 
ATOM      3  C   UNL     1      -1.191  -4.758   0.231  1.00  0.00     0.111 C 
BRANCH   2   4
ATOM      4  O   UNL     1      -3.676  -4.954   0.075  1.00  0.00    -0.497 OA
ATOM      5  H   UNL     1      -3.591  -5.963   0.078  1.00  0.00     0.294 HD
ENDBRANCH   2   4
ENDBRANCH   1   2
BRANCH   1   6
ATOM      6  C   UNL     1      -1.728  -1.827   0.311  1.00  0.00     0.080 A 
ATOM      7  C   UNL     1      -0.845  -1.864   1.401  1.00  0.00     0.069 A 
ATOM      8  C   UNL     1      -1.679  -0.739  -0.586  1.00  0.00     0.041 A 
ATOM      9  C   UNL     1       0.113  -0.865   1.579  1.00  0.00     0.133 A 
ATOM     10  C   UNL     1      -0.709   0.264  -0.401  1.00  0.00     0.025 A 
ATOM     11  C   UNL     1       0.191   0.210   0.676  1.00  0.00     0.018 A 
ATOM     12  F   UNL     1       0.979  -0.964   2.620  1.00  0.00    -0.206 F 
BRANCH   8  13
ATOM     13  C   UNL     1      -2.624  -0.655  -1.722  1.00  0.00     0.262 C 
ATOM     14  O   UNL     1      -2.588   0.313  -2.528  1.00  0.00    -0.298 OA
ENDBRANCH   8  13
BRANCH  11  15
ATOM     15  C   UNL     1       1.201   1.282   0.851  1.00  0.00    -0.015 A 
ATOM     16  C   UNL     1       1.389   1.892   2.103  1.00  0.00     0.009 A 
ATOM     17  C   UNL     1       1.976   1.711  -0.241  1.00  0.00     0.009 A 
ATOM     18  C   UNL     1       2.337   2.908   2.260  1.00  0.00     0.004 A 
ATOM     19  C   UNL     1       2.924   2.725  -0.082  1.00  0.00     0.004 A 
ATOM     20  C   UNL     1       3.100   3.340   1.166  1.00  0.00    -0.051 A 
ATOM     21  C   UNL     1       4.145   4.401   1.345  1.00  0.00     0.044 C 
ENDBRANCH  11  15
ENDBRANCH   1   6
TORSDOF 5


