MODEL 1
REMARK VINA RESULT:      -5.8      0.000      0.000
REMARK SMILES C#Cc1c[nH+]cc(Nc2cc(C)cc(-n3nc4ccccc4n3)c2N=[N+]=[N-])c1
REMARK SMILES IDX 9 1 10 2 11 3 12 4 13 5 14 6 24 7 8 8 7 10 3 11 28 12 4 13
REMARK SMILES IDX 5 14 6 15 2 17 1 18 25 19 26 20 27 21 15 22 16 23 23 24
REMARK SMILES IDX 17 25 22 26 18 27 21 28 19 29 20 30
REMARK H PARENT 8 9 5 16
ROOT
ATOM      1  C   UNL     1      44.067 131.467  20.978  1.00  0.00     0.051 A 
ATOM      2  C   UNL     1      42.779 131.987  20.814  1.00  0.00     0.030 A 
ATOM      3  C   UNL     1      42.253 132.197  19.537  1.00  0.00    -0.047 A 
ATOM      4  C   UNL     1      40.876 132.772  19.375  1.00  0.00     0.044 C 
ATOM      5  C   UNL     1      43.037 131.919  18.414  1.00  0.00     0.034 A 
ATOM      6  C   UNL     1      44.349 131.430  18.546  1.00  0.00     0.098 A 
ATOM      7  C   UNL     1      44.883 131.219  19.844  1.00  0.00     0.089 A 
ENDROOT
BRANCH   1   8
ATOM      8  N   UNL     1      44.507 131.163  22.310  1.00  0.00    -0.350 N 
ATOM      9  H   UNL     1      44.929 131.942  22.865  1.00  0.00     0.167 HD
BRANCH   8  10
ATOM     10  C   UNL     1      44.210 129.924  22.981  1.00  0.00     0.105 A 
ATOM     11  C   UNL     1      44.617 127.547  23.254  1.00  0.00     0.090 A 
ATOM     12  C   UNL     1      44.895 128.758  22.614  1.00  0.00     0.056 A 
ATOM     13  C   UNL     1      43.653 127.516  24.266  1.00  0.00     0.323 A 
ATOM     14  N   UNL     1      42.998 128.655  24.620  1.00  0.00    -0.215 N 
ATOM     15  C   UNL     1      43.253 129.844  24.009  1.00  0.00     0.332 A 
ATOM     16  H   UNL     1      42.285 128.616  25.381  1.00  0.00     0.453 HD
BRANCH  11  17
ATOM     17  C   UNL     1      45.313 126.346  22.875  1.00  0.00    -0.064 C 
ATOM     18  C   UNL     1      45.897 125.340  22.558  1.00  0.00     0.010 C 
ENDBRANCH  11  17
ENDBRANCH   8  10
ENDBRANCH   1   8
BRANCH   7  19
ATOM     19  N   UNL     1      46.235 130.744  19.975  1.00  0.00    -0.056 NA
BRANCH  19  20
ATOM     20  N   UNL     1      47.140 131.417  20.471  1.00  0.00     0.006 N 
ATOM     21  N   UNL     1      48.038 132.096  20.966  1.00  0.00    -0.003 NA
ENDBRANCH  19  20
ENDBRANCH   7  19
BRANCH   6  22
ATOM     22  N   UNL     1      45.122 131.174  17.353  1.00  0.00    -0.150 N 
ATOM     23  N   UNL     1      45.429 132.122  16.466  1.00  0.00    -0.148 NA
ATOM     24  N   UNL     1      45.632 129.986  17.027  1.00  0.00    -0.148 NA
ATOM     25  C   UNL     1      46.161 131.500  15.532  1.00  0.00     0.113 A 
ATOM     26  C   UNL     1      46.285 130.191  15.875  1.00  0.00     0.113 A 
ATOM     27  C   UNL     1      46.739 132.023  14.378  1.00  0.00     0.032 A 
ATOM     28  C   UNL     1      46.998 129.283  15.098  1.00  0.00     0.032 A 
ATOM     29  C   UNL     1      47.468 131.136  13.562  1.00  0.00     0.002 A 
ATOM     30  C   UNL     1      47.598 129.772  13.920  1.00  0.00     0.002 A 
ENDBRANCH   6  22
TORSDOF 6
ENDMDL
MODEL 2
REMARK VINA RESULT:      -4.9      1.510      2.183
REMARK SMILES C#Cc1c[nH+]cc(Nc2cc(C)cc(-n3nc4ccccc4n3)c2N=[N+]=[N-])c1
REMARK SMILES IDX 9 1 10 2 11 3 12 4 13 5 14 6 24 7 8 8 7 10 3 11 28 12 4 13
REMARK SMILES IDX 5 14 6 15 2 17 1 18 25 19 26 20 27 21 15 22 16 23 23 24
REMARK SMILES IDX 17 25 22 26 18 27 21 28 19 29 20 30
REMARK H PARENT 8 9 5 16
ROOT
ATOM      1  C   UNL     1      43.758 131.395  21.929  1.00  0.00     0.051 A 
ATOM      2  C   UNL     1      42.588 132.153  22.043  1.00  0.00     0.030 A 
ATOM      3  C   UNL     1      41.935 132.633  20.905  1.00  0.00    -0.047 A 
ATOM      4  C   UNL     1      40.691 133.461  21.043  1.00  0.00     0.044 C 
ATOM      5  C   UNL     1      42.479 132.383  19.642  1.00  0.00     0.034 A 
ATOM      6  C   UNL     1      43.673 131.654  19.495  1.00  0.00     0.098 A 
ATOM      7  C   UNL     1      44.336 131.169  20.652  1.00  0.00     0.089 A 
ENDROOT
BRANCH   1   8
ATOM      8  N   UNL     1      44.316 130.832  23.124  1.00  0.00    -0.350 N 
ATOM      9  H   UNL     1      44.846 131.475  23.756  1.00  0.00     0.167 HD
BRANCH   8  10
ATOM     10  C   UNL     1      44.011 129.505  23.595  1.00  0.00     0.105 A 
ATOM     11  C   UNL     1      42.363 127.842  24.232  1.00  0.00     0.090 A 
ATOM     12  C   UNL     1      42.674 129.125  23.774  1.00  0.00     0.056 A 
ATOM     13  C   UNL     1      43.399 126.944  24.502  1.00  0.00     0.323 A 
ATOM     14  N   UNL     1      44.693 127.319  24.318  1.00  0.00    -0.215 N 
ATOM     15  C   UNL     1      45.020 128.564  23.874  1.00  0.00     0.332 A 
ATOM     16  H   UNL     1      45.456 126.634  24.519  1.00  0.00     0.453 HD
BRANCH  11  17
ATOM     17  C   UNL     1      40.991 127.451  24.425  1.00  0.00    -0.064 C 
ATOM     18  C   UNL     1      39.842 127.124  24.586  1.00  0.00     0.010 C 
ENDBRANCH  11  17
ENDBRANCH   8  10
ENDBRANCH   1   8
BRANCH   7  19
ATOM     19  N   UNL     1      45.571 130.447  20.499  1.00  0.00    -0.056 NA
BRANCH  19  20
ATOM     20  N   UNL     1      46.677 130.985  20.564  1.00  0.00     0.006 N 
ATOM     21  N   UNL     1      47.785 131.516  20.625  1.00  0.00    -0.003 NA
ENDBRANCH  19  20
ENDBRANCH   7  19
BRANCH   6  22
ATOM     22  N   UNL     1      44.199 131.437  18.168  1.00  0.00    -0.150 N 
ATOM     23  N   UNL     1      43.538 131.768  17.058  1.00  0.00    -0.148 NA
ATOM     24  N   UNL     1      45.399 130.917  17.910  1.00  0.00    -0.148 NA
ATOM     25  C   UNL     1      44.357 131.433  16.051  1.00  0.00     0.113 A 
ATOM     26  C   UNL     1      45.497 130.911  16.574  1.00  0.00     0.113 A 
ATOM     27  C   UNL     1      44.160 131.564  14.679  1.00  0.00     0.032 A 
ATOM     28  C   UNL     1      46.548 130.472  15.774  1.00  0.00     0.032 A 
ATOM     29  C   UNL     1      45.199 131.129  13.834  1.00  0.00     0.002 A 
ATOM     30  C   UNL     1      46.388 130.586  14.378  1.00  0.00     0.002 A 
ENDBRANCH   6  22
TORSDOF 6
ENDMDL
MODEL 3
REMARK VINA RESULT:      -4.9      1.084      1.849
REMARK SMILES C#Cc1c[nH+]cc(Nc2cc(C)cc(-n3nc4ccccc4n3)c2N=[N+]=[N-])c1
REMARK SMILES IDX 9 1 10 2 11 3 12 4 13 5 14 6 24 7 8 8 7 10 3 11 28 12 4 13
REMARK SMILES IDX 5 14 6 15 2 17 1 18 25 19 26 20 27 21 15 22 16 23 23 24
REMARK SMILES IDX 17 25 22 26 18 27 21 28 19 29 20 30
REMARK H PARENT 8 9 5 16
ROOT
ATOM      1  C   UNL     1      43.795 131.557  20.816  1.00  0.00     0.051 A 
ATOM      2  C   UNL     1      42.542 132.113  20.539  1.00  0.00     0.030 A 
ATOM      3  C   UNL     1      42.120 132.297  19.221  1.00  0.00    -0.047 A 
ATOM      4  C   UNL     1      40.780 132.912  18.937  1.00  0.00     0.044 C 
ATOM      5  C   UNL     1      42.974 131.955  18.169  1.00  0.00     0.034 A 
ATOM      6  C   UNL     1      44.255 131.427  18.415  1.00  0.00     0.098 A 
ATOM      7  C   UNL     1      44.684 131.243  19.754  1.00  0.00     0.089 A 
ENDROOT
BRANCH   1   8
ATOM      8  N   UNL     1      44.125 131.284  22.186  1.00  0.00    -0.350 N 
ATOM      9  H   UNL     1      44.429 132.092  22.776  1.00  0.00     0.167 HD
BRANCH   8  10
ATOM     10  C   UNL     1      43.860 130.023  22.831  1.00  0.00     0.105 A 
ATOM     11  C   UNL     1      42.281 128.494  23.857  1.00  0.00     0.090 A 
ATOM     12  C   UNL     1      42.553 129.712  23.228  1.00  0.00     0.056 A 
ATOM     13  C   UNL     1      43.325 127.591  24.078  1.00  0.00     0.323 A 
ATOM     14  N   UNL     1      44.589 127.900  23.681  1.00  0.00    -0.215 N 
ATOM     15  C   UNL     1      44.877 129.081  23.068  1.00  0.00     0.332 A 
ATOM     16  H   UNL     1      45.357 127.212  23.849  1.00  0.00     0.453 HD
BRANCH  11  17
ATOM     17  C   UNL     1      40.940 128.173  24.274  1.00  0.00    -0.064 C 
ATOM     18  C   UNL     1      39.818 127.906  24.623  1.00  0.00     0.010 C 
ENDBRANCH  11  17
ENDBRANCH   8  10
ENDBRANCH   1   8
BRANCH   7  19
ATOM     19  N   UNL     1      46.004 130.727  20.001  1.00  0.00    -0.056 NA
BRANCH  19  20
ATOM     20  N   UNL     1      46.912 131.406  20.483  1.00  0.00     0.006 N 
ATOM     21  N   UNL     1      47.817 132.090  20.959  1.00  0.00    -0.003 NA
ENDBRANCH  19  20
ENDBRANCH   7  19
BRANCH   6  22
ATOM     22  N   UNL     1      45.103 131.105  17.292  1.00  0.00    -0.150 N 
ATOM     23  N   UNL     1      45.469 132.000  16.373  1.00  0.00    -0.148 NA
ATOM     24  N   UNL     1      45.633 129.901  17.069  1.00  0.00    -0.148 NA
ATOM     25  C   UNL     1      46.260 131.327  15.526  1.00  0.00     0.113 A 
ATOM     26  C   UNL     1      46.360 130.041  15.952  1.00  0.00     0.113 A 
ATOM     27  C   UNL     1      46.913 131.784  14.384  1.00  0.00     0.032 A 
ATOM     28  C   UNL     1      47.121 129.091  15.277  1.00  0.00     0.032 A 
ATOM     29  C   UNL     1      47.693 130.853  13.670  1.00  0.00     0.002 A 
ATOM     30  C   UNL     1      47.797 129.513  14.114  1.00  0.00     0.002 A 
ENDBRANCH   6  22
TORSDOF 6
ENDMDL
MODEL 4
REMARK VINA RESULT:      -4.3      1.225      2.227
REMARK SMILES C#Cc1c[nH+]cc(Nc2cc(C)cc(-n3nc4ccccc4n3)c2N=[N+]=[N-])c1
REMARK SMILES IDX 9 1 10 2 11 3 12 4 13 5 14 6 24 7 8 8 7 10 3 11 28 12 4 13
REMARK SMILES IDX 5 14 6 15 2 17 1 18 25 19 26 20 27 21 15 22 16 23 23 24
REMARK SMILES IDX 17 25 22 26 18 27 21 28 19 29 20 30
REMARK H PARENT 8 9 5 16
ROOT
ATOM      1  C   UNL     1      43.671 131.680  20.472  1.00  0.00     0.051 A 
ATOM      2  C   UNL     1      42.367 132.030  20.105  1.00  0.00     0.030 A 
ATOM      3  C   UNL     1      41.975 132.013  18.764  1.00  0.00    -0.047 A 
ATOM      4  C   UNL     1      40.579 132.408  18.382  1.00  0.00     0.044 C 
ATOM      5  C   UNL     1      42.907 131.678  17.778  1.00  0.00     0.034 A 
ATOM      6  C   UNL     1      44.236 131.356  18.111  1.00  0.00     0.098 A 
ATOM      7  C   UNL     1      44.633 131.376  19.473  1.00  0.00     0.089 A 
ENDROOT
BRANCH   1   8
ATOM      8  N   UNL     1      43.980 131.603  21.871  1.00  0.00    -0.350 N 
ATOM      9  H   UNL     1      44.205 132.498  22.363  1.00  0.00     0.167 HD
BRANCH   8  10
ATOM     10  C   UNL     1      43.794 130.413  22.661  1.00  0.00     0.105 A 
ATOM     11  C   UNL     1      42.308 128.899  23.839  1.00  0.00     0.090 A 
ATOM     12  C   UNL     1      42.504 130.050  23.070  1.00  0.00     0.056 A 
ATOM     13  C   UNL     1      43.412 128.116  24.188  1.00  0.00     0.323 A 
ATOM     14  N   UNL     1      44.659 128.473  23.780  1.00  0.00    -0.215 N 
ATOM     15  C   UNL     1      44.873 129.590  23.032  1.00  0.00     0.332 A 
ATOM     16  H   UNL     1      45.472 127.874  24.046  1.00  0.00     0.453 HD
BRANCH  11  17
ATOM     17  C   UNL     1      40.985 128.526  24.266  1.00  0.00    -0.064 C 
ATOM     18  C   UNL     1      39.878 128.213  24.625  1.00  0.00     0.010 C 
ENDBRANCH  11  17
ENDBRANCH   8  10
ENDBRANCH   1   8
BRANCH   7  19
ATOM     19  N   UNL     1      45.999 131.073  19.808  1.00  0.00    -0.056 NA
BRANCH  19  20
ATOM     20  N   UNL     1      46.659 131.737  20.608  1.00  0.00     0.006 N 
ATOM     21  N   UNL     1      47.321 132.405  21.400  1.00  0.00    -0.003 NA
ENDBRANCH  19  20
ENDBRANCH   7  19
BRANCH   6  22
ATOM     22  N   UNL     1      45.162 131.032  17.052  1.00  0.00    -0.150 N 
ATOM     23  N   UNL     1      45.644 129.804  16.854  1.00  0.00    -0.148 NA
ATOM     24  N   UNL     1      45.607 131.905  16.149  1.00  0.00    -0.148 NA
ATOM     25  C   UNL     1      46.438 129.910  15.780  1.00  0.00     0.113 A 
ATOM     26  C   UNL     1      46.416 131.198  15.348  1.00  0.00     0.113 A 
ATOM     27  C   UNL     1      47.190 128.926  15.144  1.00  0.00     0.032 A 
ATOM     28  C   UNL     1      47.143 131.623  14.240  1.00  0.00     0.032 A 
ATOM     29  C   UNL     1      47.943 129.315  14.019  1.00  0.00     0.002 A 
ATOM     30  C   UNL     1      47.920 130.657  13.568  1.00  0.00     0.002 A 
ENDBRANCH   6  22
TORSDOF 6
ENDMDL


