MODEL 1
REMARK VINA RESULT:      -9.8      0.000      0.000
REMARK SMILES c1cc(-c2ccc([C@@H]3CO3)cn2)c2occc2c1
REMARK SMILES IDX 4 1 5 2 6 3 7 4 11 5 12 6 3 7 1 8 2 9 18 10 17 11 13 12
REMARK SMILES IDX 16 13 14 14 15 15 8 16 9 17 10 18
REMARK H PARENT
ROOT
ATOM      1  C   UNL     1      45.452 130.987  17.466  1.00  0.00     0.074 A 
ATOM      2  C   UNL     1      45.786 129.718  16.961  1.00  0.00     0.029 A 
ATOM      3  C   UNL     1      46.225 129.594  15.642  1.00  0.00     0.010 A 
ATOM      4  C   UNL     1      46.348 130.730  14.834  1.00  0.00     0.001 A 
ATOM      5  C   UNL     1      45.999 131.976  15.366  1.00  0.00     0.118 A 
ATOM      6  N   UNL     1      45.572 132.074  16.652  1.00  0.00    -0.256 NA
ENDROOT
BRANCH   1   7
ATOM      7  C   UNL     1      44.981 131.170  18.863  1.00  0.00     0.043 A 
ATOM      8  C   UNL     1      45.296 130.984  21.296  1.00  0.00     0.002 A 
ATOM      9  C   UNL     1      45.775 130.807  19.979  1.00  0.00     0.014 A 
ATOM     10  C   UNL     1      44.018 131.518  21.526  1.00  0.00     0.012 A 
ATOM     11  C   UNL     1      43.252 131.860  20.416  1.00  0.00     0.021 A 
ATOM     12  C   UNL     1      43.708 131.694  19.135  1.00  0.00     0.143 A 
ATOM     13  C   UNL     1      41.988 132.394  20.331  1.00  0.00     0.050 A 
ATOM     14  O   UNL     1      42.800 132.098  18.280  1.00  0.00    -0.464 OA
ATOM     15  C   UNL     1      41.756 132.523  18.967  1.00  0.00     0.196 A 
ENDBRANCH   1   7
BRANCH   4  16
ATOM     16  C   UNL     1      46.788 130.601  13.406  1.00  0.00     0.176 C 
ATOM     17  C   UNL     1      48.157 130.082  13.189  1.00  0.00     0.198 C 
ATOM     18  O   UNL     1      47.868 131.458  13.114  1.00  0.00    -0.368 OA
ENDBRANCH   4  16
TORSDOF 2
ENDMDL
MODEL 2
REMARK VINA RESULT:      -9.7      0.643      1.133
REMARK SMILES c1cc(-c2ccc([C@@H]3CO3)cn2)c2occc2c1
REMARK SMILES IDX 4 1 5 2 6 3 7 4 11 5 12 6 3 7 1 8 2 9 18 10 17 11 13 12
REMARK SMILES IDX 16 13 14 14 15 15 8 16 9 17 10 18
REMARK H PARENT
ROOT
ATOM      1  C   UNL     1      45.460 130.998  17.472  1.00  0.00     0.074 A 
ATOM      2  C   UNL     1      45.516 132.095  16.594  1.00  0.00     0.029 A 
ATOM      3  C   UNL     1      45.958 131.907  15.284  1.00  0.00     0.010 A 
ATOM      4  C   UNL     1      46.326 130.631  14.843  1.00  0.00     0.001 A 
ATOM      5  C   UNL     1      46.267 129.563  15.746  1.00  0.00     0.118 A 
ATOM      6  N   UNL     1      45.836 129.769  17.019  1.00  0.00    -0.256 NA
ENDROOT
BRANCH   1   7
ATOM      7  C   UNL     1      44.997 131.147  18.876  1.00  0.00     0.043 A 
ATOM      8  C   UNL     1      45.314 130.881  21.301  1.00  0.00     0.002 A 
ATOM      9  C   UNL     1      45.787 130.736  19.978  1.00  0.00     0.014 A 
ATOM     10  C   UNL     1      44.047 131.432  21.551  1.00  0.00     0.012 A 
ATOM     11  C   UNL     1      43.284 131.821  20.454  1.00  0.00     0.021 A 
ATOM     12  C   UNL     1      43.734 131.685  19.168  1.00  0.00     0.143 A 
ATOM     13  C   UNL     1      42.030 132.380  20.389  1.00  0.00     0.050 A 
ATOM     14  O   UNL     1      42.831 132.132  18.328  1.00  0.00    -0.464 OA
ATOM     15  C   UNL     1      41.797 132.555  19.031  1.00  0.00     0.196 A 
ENDBRANCH   1   7
BRANCH   4  16
ATOM     16  C   UNL     1      46.832 130.427  13.447  1.00  0.00     0.176 C 
ATOM     17  C   UNL     1      48.244 129.998  13.321  1.00  0.00     0.198 C 
ATOM     18  O   UNL     1      47.858 131.338  13.125  1.00  0.00    -0.368 OA
ENDBRANCH   4  16
TORSDOF 2
ENDMDL
MODEL 3
REMARK VINA RESULT:      -9.2      1.233      2.476
REMARK SMILES c1cc(-c2ccc([C@@H]3CO3)cn2)c2occc2c1
REMARK SMILES IDX 4 1 5 2 6 3 7 4 11 5 12 6 3 7 1 8 2 9 18 10 17 11 13 12
REMARK SMILES IDX 16 13 14 14 15 15 8 16 9 17 10 18
REMARK H PARENT
ROOT
ATOM      1  C   UNL     1      44.820 131.253  16.738  1.00  0.00     0.074 A 
ATOM      2  C   UNL     1      45.604 132.238  16.113  1.00  0.00     0.029 A 
ATOM      3  C   UNL     1      46.336 131.914  14.968  1.00  0.00     0.010 A 
ATOM      4  C   UNL     1      46.272 130.620  14.439  1.00  0.00     0.001 A 
ATOM      5  C   UNL     1      45.488 129.662  15.092  1.00  0.00     0.118 A 
ATOM      6  N   UNL     1      44.787 129.999  16.206  1.00  0.00    -0.256 NA
ENDROOT
BRANCH   1   7
ATOM      7  C   UNL     1      44.024 131.550  17.957  1.00  0.00     0.043 A 
ATOM      8  C   UNL     1      41.959 132.299  19.065  1.00  0.00     0.002 A 
ATOM      9  C   UNL     1      42.687 132.016  17.889  1.00  0.00     0.014 A 
ATOM     10  C   UNL     1      42.549 132.131  20.329  1.00  0.00     0.012 A 
ATOM     11  C   UNL     1      43.864 131.680  20.372  1.00  0.00     0.021 A 
ATOM     12  C   UNL     1      44.578 131.402  19.238  1.00  0.00     0.143 A 
ATOM     13  C   UNL     1      44.688 131.426  21.443  1.00  0.00     0.050 A 
ATOM     14  O   UNL     1      45.782 130.990  19.555  1.00  0.00    -0.464 OA
ATOM     15  C   UNL     1      45.879 130.995  20.872  1.00  0.00     0.196 A 
ENDBRANCH   1   7
BRANCH   4  16
ATOM     16  C   UNL     1      47.080 130.255  13.229  1.00  0.00     0.176 C 
ATOM     17  C   UNL     1      48.413 129.664  13.489  1.00  0.00     0.198 C 
ATOM     18  O   UNL     1      48.260 131.020  13.139  1.00  0.00    -0.368 OA
ENDBRANCH   4  16
TORSDOF 2
ENDMDL
MODEL 4
REMARK VINA RESULT:      -9.1      1.139      2.241
REMARK SMILES c1cc(-c2ccc([C@@H]3CO3)cn2)c2occc2c1
REMARK SMILES IDX 4 1 5 2 6 3 7 4 11 5 12 6 3 7 1 8 2 9 18 10 17 11 13 12
REMARK SMILES IDX 16 13 14 14 15 15 8 16 9 17 10 18
REMARK H PARENT
ROOT
ATOM      1  C   UNL     1      44.748 131.294  16.709  1.00  0.00     0.074 A 
ATOM      2  C   UNL     1      44.650 130.056  16.051  1.00  0.00     0.029 A 
ATOM      3  C   UNL     1      45.382 129.835  14.883  1.00  0.00     0.010 A 
ATOM      4  C   UNL     1      46.221 130.837  14.382  1.00  0.00     0.001 A 
ATOM      5  C   UNL     1      46.288 132.060  15.057  1.00  0.00     0.118 A 
ATOM      6  N   UNL     1      45.565 132.255  16.191  1.00  0.00    -0.256 NA
ENDROOT
BRANCH   1   7
ATOM      7  C   UNL     1      43.990 131.576  17.955  1.00  0.00     0.043 A 
ATOM      8  C   UNL     1      41.964 132.324  19.135  1.00  0.00     0.002 A 
ATOM      9  C   UNL     1      42.656 132.056  17.933  1.00  0.00     0.014 A 
ATOM     10  C   UNL     1      42.587 132.127  20.378  1.00  0.00     0.012 A 
ATOM     11  C   UNL     1      43.899 131.664  20.376  1.00  0.00     0.021 A 
ATOM     12  C   UNL     1      44.578 131.399  19.217  1.00  0.00     0.143 A 
ATOM     13  C   UNL     1      44.750 131.382  21.419  1.00  0.00     0.050 A 
ATOM     14  O   UNL     1      45.787 130.971  19.492  1.00  0.00    -0.464 OA
ATOM     15  C   UNL     1      45.920 130.951  20.806  1.00  0.00     0.196 A 
ENDBRANCH   1   7
BRANCH   4  16
ATOM     16  C   UNL     1      46.986 130.620  13.110  1.00  0.00     0.176 C 
ATOM     17  C   UNL     1      48.315 129.983  13.249  1.00  0.00     0.198 C 
ATOM     18  O   UNL     1      48.176 131.374  13.082  1.00  0.00    -0.368 OA
ENDBRANCH   4  16
TORSDOF 2
ENDMDL
MODEL 5
REMARK VINA RESULT:      -8.1      1.244      2.313
REMARK SMILES c1cc(-c2ccc([C@@H]3CO3)cn2)c2occc2c1
REMARK SMILES IDX 4 1 5 2 6 3 7 4 11 5 12 6 3 7 1 8 2 9 18 10 17 11 13 12
REMARK SMILES IDX 16 13 14 14 15 15 8 16 9 17 10 18
REMARK H PARENT
ROOT
ATOM      1  C   UNL     1      44.449 131.271  17.346  1.00  0.00     0.074 A 
ATOM      2  C   UNL     1      45.638 130.534  17.488  1.00  0.00     0.029 A 
ATOM      3  C   UNL     1      46.367 130.176  16.353  1.00  0.00     0.010 A 
ATOM      4  C   UNL     1      45.925 130.566  15.084  1.00  0.00     0.001 A 
ATOM      5  C   UNL     1      44.733 131.292  14.979  1.00  0.00     0.118 A 
ATOM      6  N   UNL     1      44.038 131.627  16.097  1.00  0.00    -0.256 NA
ENDROOT
BRANCH   1   7
ATOM      7  C   UNL     1      43.639 131.676  18.524  1.00  0.00     0.043 A 
ATOM      8  C   UNL     1      41.645 132.709  19.529  1.00  0.00     0.002 A 
ATOM      9  C   UNL     1      42.387 132.327  18.390  1.00  0.00     0.014 A 
ATOM     10  C   UNL     1      42.136 132.455  20.820  1.00  0.00     0.012 A 
ATOM     11  C   UNL     1      43.370 131.823  20.929  1.00  0.00     0.021 A 
ATOM     12  C   UNL     1      44.097 131.448  19.831  1.00  0.00     0.143 A 
ATOM     13  C   UNL     1      44.091 131.452  22.040  1.00  0.00     0.050 A 
ATOM     14  O   UNL     1      45.212 130.869  20.208  1.00  0.00    -0.464 OA
ATOM     15  C   UNL     1      45.238 130.857  21.528  1.00  0.00     0.196 A 
ENDBRANCH   1   7
BRANCH   4  16
ATOM     16  C   UNL     1      46.685 130.159  13.857  1.00  0.00     0.176 C 
ATOM     17  C   UNL     1      47.807 131.040  13.461  1.00  0.00     0.198 C 
ATOM     18  O   UNL     1      46.554 131.107  12.822  1.00  0.00    -0.368 OA
ENDBRANCH   4  16
TORSDOF 2
ENDMDL
MODEL 6
REMARK VINA RESULT:      -7.8      1.351      2.494
REMARK SMILES c1cc(-c2ccc([C@@H]3CO3)cn2)c2occc2c1
REMARK SMILES IDX 4 1 5 2 6 3 7 4 11 5 12 6 3 7 1 8 2 9 18 10 17 11 13 12
REMARK SMILES IDX 16 13 14 14 15 15 8 16 9 17 10 18
REMARK H PARENT
ROOT
ATOM      1  C   UNL     1      44.445 131.301  17.491  1.00  0.00     0.074 A 
ATOM      2  C   UNL     1      43.982 131.632  16.206  1.00  0.00     0.029 A 
ATOM      3  C   UNL     1      44.735 131.272  15.087  1.00  0.00     0.010 A 
ATOM      4  C   UNL     1      45.934 130.569  15.246  1.00  0.00     0.001 A 
ATOM      5  C   UNL     1      46.370 130.263  16.540  1.00  0.00     0.118 A 
ATOM      6  N   UNL     1      45.623 130.627  17.615  1.00  0.00    -0.256 NA
ENDROOT
BRANCH   1   7
ATOM      7  C   UNL     1      43.679 131.662  18.711  1.00  0.00     0.043 A 
ATOM      8  C   UNL     1      41.784 132.761  19.833  1.00  0.00     0.002 A 
ATOM      9  C   UNL     1      42.485 132.424  18.654  1.00  0.00     0.014 A 
ATOM     10  C   UNL     1      42.260 132.352  21.089  1.00  0.00     0.012 A 
ATOM     11  C   UNL     1      43.438 131.612  21.124  1.00  0.00     0.021 A 
ATOM     12  C   UNL     1      44.124 131.279  19.986  1.00  0.00     0.143 A 
ATOM     13  C   UNL     1      44.132 131.083  22.186  1.00  0.00     0.050 A 
ATOM     14  O   UNL     1      45.189 130.578  20.294  1.00  0.00    -0.464 OA
ATOM     15  C   UNL     1      45.222 130.445  21.607  1.00  0.00     0.196 A 
ENDBRANCH   1   7
BRANCH   4  16
ATOM     16  C   UNL     1      46.765 130.206  14.051  1.00  0.00     0.176 C 
ATOM     17  C   UNL     1      47.673 131.260  13.544  1.00  0.00     0.198 C 
ATOM     18  O   UNL     1      46.435 130.992  12.928  1.00  0.00    -0.368 OA
ENDBRANCH   4  16
TORSDOF 2
ENDMDL
MODEL 7
REMARK VINA RESULT:      -7.4      1.864      6.151
REMARK SMILES c1cc(-c2ccc([C@@H]3CO3)cn2)c2occc2c1
REMARK SMILES IDX 4 1 5 2 6 3 7 4 11 5 12 6 3 7 1 8 2 9 18 10 17 11 13 12
REMARK SMILES IDX 16 13 14 14 15 15 8 16 9 17 10 18
REMARK H PARENT
ROOT
ATOM      1  C   UNL     1      45.156 130.912  18.331  1.00  0.00     0.074 A 
ATOM      2  C   UNL     1      45.923 130.376  19.381  1.00  0.00     0.029 A 
ATOM      3  C   UNL     1      45.545 130.618  20.703  1.00  0.00     0.010 A 
ATOM      4  C   UNL     1      44.400 131.374  20.978  1.00  0.00     0.001 A 
ATOM      5  C   UNL     1      43.666 131.899  19.909  1.00  0.00     0.118 A 
ATOM      6  N   UNL     1      44.053 131.654  18.630  1.00  0.00    -0.256 NA
ENDROOT
BRANCH   1   7
ATOM      7  C   UNL     1      45.517 130.682  16.908  1.00  0.00     0.043 A 
ATOM      8  C   UNL     1      47.047 129.852  15.169  1.00  0.00     0.002 A 
ATOM      9  C   UNL     1      46.727 130.047  16.531  1.00  0.00     0.014 A 
ATOM     10  C   UNL     1      46.174 130.289  14.160  1.00  0.00     0.012 A 
ATOM     11  C   UNL     1      44.996 130.916  14.552  1.00  0.00     0.021 A 
ATOM     12  C   UNL     1      44.676 131.110  15.869  1.00  0.00     0.143 A 
ATOM     13  C   UNL     1      43.969 131.440  13.803  1.00  0.00     0.050 A 
ATOM     14  O   UNL     1      43.516 131.715  15.965  1.00  0.00    -0.464 OA
ATOM     15  C   UNL     1      43.067 131.927  14.742  1.00  0.00     0.196 A 
ENDBRANCH   1   7
BRANCH   4  16
ATOM     16  C   UNL     1      44.006 131.665  22.396  1.00  0.00     0.176 C 
ATOM     17  C   UNL     1      43.063 130.710  23.020  1.00  0.00     0.198 C 
ATOM     18  O   UNL     1      42.629 131.948  22.507  1.00  0.00    -0.368 OA
ENDBRANCH   4  16
TORSDOF 2
ENDMDL
MODEL 8
REMARK VINA RESULT:      -7.4      2.047      6.530
REMARK SMILES c1cc(-c2ccc([C@@H]3CO3)cn2)c2occc2c1
REMARK SMILES IDX 4 1 5 2 6 3 7 4 11 5 12 6 3 7 1 8 2 9 18 10 17 11 13 12
REMARK SMILES IDX 16 13 14 14 15 15 8 16 9 17 10 18
REMARK H PARENT
ROOT
ATOM      1  C   UNL     1      44.658 131.211  18.124  1.00  0.00     0.074 A 
ATOM      2  C   UNL     1      45.721 130.661  18.861  1.00  0.00     0.029 A 
ATOM      3  C   UNL     1      45.683 130.694  20.257  1.00  0.00     0.010 A 
ATOM      4  C   UNL     1      44.583 131.255  20.915  1.00  0.00     0.001 A 
ATOM      5  C   UNL     1      43.546 131.801  20.150  1.00  0.00     0.118 A 
ATOM      6  N   UNL     1      43.605 131.761  18.793  1.00  0.00    -0.256 NA
ENDROOT
BRANCH   1   7
ATOM      7  C   UNL     1      44.652 131.199  16.639  1.00  0.00     0.043 A 
ATOM      8  C   UNL     1      43.614 131.732  14.473  1.00  0.00     0.002 A 
ATOM      9  C   UNL     1      43.596 131.768  15.884  1.00  0.00     0.014 A 
ATOM     10  C   UNL     1      44.679 131.126  13.787  1.00  0.00     0.012 A 
ATOM     11  C   UNL     1      45.701 130.566  14.546  1.00  0.00     0.021 A 
ATOM     12  C   UNL     1      45.693 130.597  15.916  1.00  0.00     0.143 A 
ATOM     13  C   UNL     1      46.850 129.917  14.161  1.00  0.00     0.050 A 
ATOM     14  O   UNL     1      46.769 130.010  16.384  1.00  0.00    -0.464 OA
ATOM     15  C   UNL     1      47.483 129.591  15.355  1.00  0.00     0.196 A 
ENDBRANCH   1   7
BRANCH   4  16
ATOM     16  C   UNL     1      44.549 131.324  22.413  1.00  0.00     0.176 C 
ATOM     17  C   UNL     1      44.020 130.128  23.108  1.00  0.00     0.198 C 
ATOM     18  O   UNL     1      43.230 131.276  22.907  1.00  0.00    -0.368 OA
ENDBRANCH   4  16
TORSDOF 2
ENDMDL
MODEL 9
REMARK VINA RESULT:      -7.4      1.916      6.215
REMARK SMILES c1cc(-c2ccc([C@@H]3CO3)cn2)c2occc2c1
REMARK SMILES IDX 4 1 5 2 6 3 7 4 11 5 12 6 3 7 1 8 2 9 18 10 17 11 13 12
REMARK SMILES IDX 16 13 14 14 15 15 8 16 9 17 10 18
REMARK H PARENT
ROOT
ATOM      1  C   UNL     1      45.157 130.905  18.279  1.00  0.00     0.074 A 
ATOM      2  C   UNL     1      44.045 131.694  18.622  1.00  0.00     0.029 A 
ATOM      3  C   UNL     1      43.727 131.889  19.967  1.00  0.00     0.010 A 
ATOM      4  C   UNL     1      44.521 131.315  20.966  1.00  0.00     0.001 A 
ATOM      5  C   UNL     1      45.615 130.529  20.588  1.00  0.00     0.118 A 
ATOM      6  N   UNL     1      45.905 130.350  19.273  1.00  0.00    -0.256 NA
ENDROOT
BRANCH   1   7
ATOM      7  C   UNL     1      45.537 130.670  16.862  1.00  0.00     0.043 A 
ATOM      8  C   UNL     1      47.090 129.834  15.146  1.00  0.00     0.002 A 
ATOM      9  C   UNL     1      46.752 130.035  16.503  1.00  0.00     0.014 A 
ATOM     10  C   UNL     1      46.230 130.266  14.124  1.00  0.00     0.012 A 
ATOM     11  C   UNL     1      45.046 130.894  14.498  1.00  0.00     0.021 A 
ATOM     12  C   UNL     1      44.709 131.092  15.810  1.00  0.00     0.143 A 
ATOM     13  C   UNL     1      44.028 131.413  13.734  1.00  0.00     0.050 A 
ATOM     14  O   UNL     1      43.547 131.696  15.888  1.00  0.00    -0.464 OA
ATOM     15  C   UNL     1      43.114 131.903  14.658  1.00  0.00     0.196 A 
ENDBRANCH   1   7
BRANCH   4  16
ATOM     16  C   UNL     1      44.167 131.493  22.412  1.00  0.00     0.176 C 
ATOM     17  C   UNL     1      43.191 130.528  22.968  1.00  0.00     0.198 C 
ATOM     18  O   UNL     1      42.808 131.826  22.580  1.00  0.00    -0.368 OA
ENDBRANCH   4  16
TORSDOF 2
ENDMDL


