MODEL 1
REMARK VINA RESULT:      -3.7      0.000      0.000
REMARK SMILES C=CCn1cc(N(c2ccc3[nH]ccc3c2)c2cccc3c2CCC3)cn1
REMARK SMILES IDX 4 1 5 2 6 3 26 4 27 5 3 6 2 7 1 8 7 9 8 10 9 11 16 12 10 13
REMARK SMILES IDX 15 14 11 15 14 16 12 17 13 18 17 20 18 21 22 22 19 23 21 24
REMARK SMILES IDX 23 25 20 26 25 27 24 28
REMARK H PARENT 12 19
ROOT
ATOM      1  N   UNL     1      47.380 134.308  21.506  1.00  0.00    -0.267 N 
ATOM      2  C   UNL     1      46.210 133.767  21.117  1.00  0.00     0.135 A 
ATOM      3  C   UNL     1      46.379 132.400  21.075  1.00  0.00     0.084 A 
ATOM      4  C   UNL     1      47.691 132.171  21.445  1.00  0.00     0.161 A 
ATOM      5  N   UNL     1      48.283 133.356  21.696  1.00  0.00    -0.179 NA
ENDROOT
BRANCH   1   6
ATOM      6  C   UNL     1      47.675 135.734  21.591  1.00  0.00     0.171 C 
BRANCH   6   7
ATOM      7  C   UNL     1      49.139 135.977  21.355  1.00  0.00    -0.011 C 
ATOM      8  C   UNL     1      49.567 136.968  20.568  1.00  0.00     0.006 C 
ENDBRANCH   6   7
ENDBRANCH   1   6
BRANCH   3   9
ATOM      9  N   UNL     1      45.419 131.424  20.624  1.00  0.00    -0.307 N 
BRANCH   9  10
ATOM     10  C   UNL     1      44.923 131.442  19.270  1.00  0.00     0.047 A 
ATOM     11  C   UNL     1      43.570 131.780  19.003  1.00  0.00     0.029 A 
ATOM     12  C   UNL     1      45.793 131.148  18.194  1.00  0.00     0.037 A 
ATOM     13  C   UNL     1      43.082 131.812  17.685  1.00  0.00     0.029 A 
ATOM     14  C   UNL     1      45.276 131.191  16.902  1.00  0.00     0.001 A 
ATOM     15  C   UNL     1      43.969 131.509  16.655  1.00  0.00     0.045 A 
ATOM     16  C   UNL     1      45.879 130.951  15.687  1.00  0.00     0.028 A 
ATOM     17  N   UNL     1      43.712 131.484  15.337  1.00  0.00    -0.361 N 
ATOM     18  C   UNL     1      44.877 131.142  14.741  1.00  0.00     0.083 A 
ATOM     19  H   UNL     1      42.802 131.685  14.866  1.00  0.00     0.166 HD
ENDBRANCH   9  10
BRANCH   9  20
ATOM     20  C   UNL     1      44.971 130.398  21.526  1.00  0.00     0.050 A 
ATOM     21  C   UNL     1      45.490 129.093  21.432  1.00  0.00     0.027 A 
ATOM     22  C   UNL     1      43.993 130.660  22.502  1.00  0.00    -0.021 A 
ATOM     23  C   UNL     1      45.047 128.088  22.306  1.00  0.00     0.002 A 
ATOM     24  C   UNL     1      43.558 129.669  23.349  1.00  0.00    -0.043 A 
ATOM     25  C   UNL     1      43.267 131.934  22.733  1.00  0.00     0.038 C 
ATOM     26  C   UNL     1      44.075 128.374  23.275  1.00  0.00     0.004 A 
ATOM     27  C   UNL     1      42.506 130.144  24.275  1.00  0.00     0.036 C 
ATOM     28  C   UNL     1      42.245 131.596  23.834  1.00  0.00     0.010 C 
ENDBRANCH   9  20
ENDBRANCH   3   9
TORSDOF 5
ENDMDL
MODEL 2
REMARK VINA RESULT:      -3.4      0.571      1.886
REMARK SMILES C=CCn1cc(N(c2ccc3[nH]ccc3c2)c2cccc3c2CCC3)cn1
REMARK SMILES IDX 4 1 5 2 6 3 26 4 27 5 3 6 2 7 1 8 7 9 8 10 9 11 16 12 10 13
REMARK SMILES IDX 15 14 11 15 14 16 12 17 13 18 17 20 18 21 22 22 19 23 21 24
REMARK SMILES IDX 23 25 20 26 25 27 24 28
REMARK H PARENT 12 19
ROOT
ATOM      1  N   UNL     1      47.740 134.202  21.778  1.00  0.00    -0.267 N 
ATOM      2  C   UNL     1      46.426 133.968  21.601  1.00  0.00     0.135 A 
ATOM      3  C   UNL     1      46.278 132.626  21.322  1.00  0.00     0.084 A 
ATOM      4  C   UNL     1      47.554 132.095  21.337  1.00  0.00     0.161 A 
ATOM      5  N   UNL     1      48.431 133.083  21.610  1.00  0.00    -0.179 NA
ENDROOT
BRANCH   1   6
ATOM      6  C   UNL     1      48.353 135.508  21.996  1.00  0.00     0.171 C 
BRANCH   6   7
ATOM      7  C   UNL     1      48.157 136.382  20.789  1.00  0.00    -0.011 C 
ATOM      8  C   UNL     1      49.072 137.284  20.421  1.00  0.00     0.006 C 
ENDBRANCH   6   7
ENDBRANCH   1   6
BRANCH   3   9
ATOM      9  N   UNL     1      45.056 131.946  20.973  1.00  0.00    -0.307 N 
BRANCH   9  10
ATOM     10  C   UNL     1      44.632 131.840  19.599  1.00  0.00     0.047 A 
ATOM     11  C   UNL     1      43.252 131.867  19.267  1.00  0.00     0.029 A 
ATOM     12  C   UNL     1      45.594 131.736  18.568  1.00  0.00     0.037 A 
ATOM     13  C   UNL     1      42.831 131.778  17.929  1.00  0.00     0.029 A 
ATOM     14  C   UNL     1      45.142 131.650  17.255  1.00  0.00     0.001 A 
ATOM     15  C   UNL     1      43.810 131.669  16.944  1.00  0.00     0.045 A 
ATOM     16  C   UNL     1      45.840 131.537  16.072  1.00  0.00     0.028 A 
ATOM     17  N   UNL     1      43.627 131.573  15.618  1.00  0.00    -0.361 N 
ATOM     18  C   UNL     1      44.866 131.493  15.080  1.00  0.00     0.083 A 
ATOM     19  H   UNL     1      42.719 131.564  15.103  1.00  0.00     0.166 HD
ENDBRANCH   9  10
BRANCH   9  20
ATOM     20  C   UNL     1      44.262 131.337  22.005  1.00  0.00     0.050 A 
ATOM     21  C   UNL     1      43.365 132.115  22.763  1.00  0.00     0.027 A 
ATOM     22  C   UNL     1      44.373 129.967  22.301  1.00  0.00    -0.021 A 
ATOM     23  C   UNL     1      42.594 131.523  23.777  1.00  0.00     0.002 A 
ATOM     24  C   UNL     1      43.622 129.397  23.300  1.00  0.00    -0.043 A 
ATOM     25  C   UNL     1      45.294 128.982  21.679  1.00  0.00     0.038 C 
ATOM     26  C   UNL     1      42.719 130.153  24.050  1.00  0.00     0.004 A 
ATOM     27  C   UNL     1      43.914 127.956  23.470  1.00  0.00     0.036 C 
ATOM     28  C   UNL     1      45.060 127.687  22.478  1.00  0.00     0.010 C 
ENDBRANCH   9  20
ENDBRANCH   3   9
TORSDOF 5
ENDMDL
MODEL 3
REMARK VINA RESULT:      -3.1      1.011      2.143
REMARK SMILES C=CCn1cc(N(c2ccc3[nH]ccc3c2)c2cccc3c2CCC3)cn1
REMARK SMILES IDX 4 1 5 2 6 3 26 4 27 5 3 6 2 7 1 8 7 9 8 10 9 11 16 12 10 13
REMARK SMILES IDX 15 14 11 15 14 16 12 17 13 18 17 20 18 21 22 22 19 23 21 24
REMARK SMILES IDX 23 25 20 26 25 27 24 28
REMARK H PARENT 12 19
ROOT
ATOM      1  N   UNL     1      47.760 133.710  21.865  1.00  0.00    -0.267 N 
ATOM      2  C   UNL     1      46.429 133.522  21.785  1.00  0.00     0.135 A 
ATOM      3  C   UNL     1      46.218 132.300  21.183  1.00  0.00     0.084 A 
ATOM      4  C   UNL     1      47.475 131.792  20.912  1.00  0.00     0.161 A 
ATOM      5  N   UNL     1      48.400 132.679  21.332  1.00  0.00    -0.179 NA
ENDROOT
BRANCH   1   6
ATOM      6  C   UNL     1      48.424 134.916  22.346  1.00  0.00     0.171 C 
BRANCH   6   7
ATOM      7  C   UNL     1      49.562 134.555  23.259  1.00  0.00    -0.011 C 
ATOM      8  C   UNL     1      49.373 134.337  24.563  1.00  0.00     0.006 C 
ENDBRANCH   6   7
ENDBRANCH   1   6
BRANCH   3   9
ATOM      9  N   UNL     1      44.949 131.728  20.811  1.00  0.00    -0.307 N 
BRANCH   9  10
ATOM     10  C   UNL     1      44.535 131.678  19.431  1.00  0.00     0.047 A 
ATOM     11  C   UNL     1      43.169 131.853  19.082  1.00  0.00     0.029 A 
ATOM     12  C   UNL     1      45.494 131.480  18.410  1.00  0.00     0.037 A 
ATOM     13  C   UNL     1      42.759 131.818  17.737  1.00  0.00     0.029 A 
ATOM     14  C   UNL     1      45.053 131.452  17.091  1.00  0.00     0.001 A 
ATOM     15  C   UNL     1      43.734 131.613  16.764  1.00  0.00     0.045 A 
ATOM     16  C   UNL     1      45.750 131.275  15.916  1.00  0.00     0.028 A 
ATOM     17  N   UNL     1      43.560 131.548  15.435  1.00  0.00    -0.361 N 
ATOM     18  C   UNL     1      44.790 131.341  14.911  1.00  0.00     0.083 A 
ATOM     19  H   UNL     1      42.662 131.638  14.909  1.00  0.00     0.166 HD
ENDBRANCH   9  10
BRANCH   9  20
ATOM     20  C   UNL     1      44.095 131.171  21.824  1.00  0.00     0.050 A 
ATOM     21  C   UNL     1      43.109 131.967  22.437  1.00  0.00     0.027 A 
ATOM     22  C   UNL     1      44.234 129.837  22.245  1.00  0.00    -0.021 A 
ATOM     23  C   UNL     1      42.279 131.427  23.433  1.00  0.00     0.002 A 
ATOM     24  C   UNL     1      43.424 129.318  23.226  1.00  0.00    -0.043 A 
ATOM     25  C   UNL     1      45.242 128.847  21.787  1.00  0.00     0.038 C 
ATOM     26  C   UNL     1      42.433 130.092  23.833  1.00  0.00     0.004 A 
ATOM     27  C   UNL     1      43.757 127.911  23.543  1.00  0.00     0.036 C 
ATOM     28  C   UNL     1      44.992 127.613  22.674  1.00  0.00     0.010 C 
ENDBRANCH   9  20
ENDBRANCH   3   9
TORSDOF 5
ENDMDL
MODEL 4
REMARK VINA RESULT:      -3.0      1.700      5.815
REMARK SMILES C=CCn1cc(N(c2ccc3[nH]ccc3c2)c2cccc3c2CCC3)cn1
REMARK SMILES IDX 4 1 5 2 6 3 26 4 27 5 3 6 2 7 1 8 7 9 8 10 9 11 16 12 10 13
REMARK SMILES IDX 15 14 11 15 14 16 12 17 13 18 17 20 18 21 22 22 19 23 21 24
REMARK SMILES IDX 23 25 20 26 25 27 24 28
REMARK H PARENT 12 19
ROOT
ATOM      1  N   UNL     1      44.738 131.414  18.220  1.00  0.00    -0.267 N 
ATOM      2  C   UNL     1      45.296 131.185  19.423  1.00  0.00     0.135 A 
ATOM      3  C   UNL     1      44.352 131.487  20.382  1.00  0.00     0.084 A 
ATOM      4  C   UNL     1      43.232 131.906  19.689  1.00  0.00     0.161 A 
ATOM      5  N   UNL     1      43.498 131.859  18.368  1.00  0.00    -0.179 NA
ENDROOT
BRANCH   1   6
ATOM      6  C   UNL     1      45.416 131.317  16.932  1.00  0.00     0.171 C 
BRANCH   6   7
ATOM      7  C   UNL     1      45.772 129.887  16.638  1.00  0.00    -0.011 C 
ATOM      8  C   UNL     1      45.288 129.249  15.569  1.00  0.00     0.006 C 
ENDBRANCH   6   7
ENDBRANCH   1   6
BRANCH   3   9
ATOM      9  N   UNL     1      44.539 131.478  21.811  1.00  0.00    -0.307 N 
BRANCH   9  10
ATOM     10  C   UNL     1      45.510 132.340  22.438  1.00  0.00     0.047 A 
ATOM     11  C   UNL     1      45.419 132.639  23.823  1.00  0.00     0.029 A 
ATOM     12  C   UNL     1      46.577 132.873  21.679  1.00  0.00     0.037 A 
ATOM     13  C   UNL     1      46.370 133.468  24.444  1.00  0.00     0.029 A 
ATOM     14  C   UNL     1      47.500 133.689  22.326  1.00  0.00     0.001 A 
ATOM     15  C   UNL     1      47.401 133.978  23.660  1.00  0.00     0.045 A 
ATOM     16  C   UNL     1      48.617 134.337  21.846  1.00  0.00     0.028 A 
ATOM     17  N   UNL     1      48.404 134.781  24.051  1.00  0.00    -0.361 N 
ATOM     18  C   UNL     1      49.150 135.003  22.944  1.00  0.00     0.083 A 
ATOM     19  H   UNL     1      48.576 135.157  25.009  1.00  0.00     0.166 HD
ENDBRANCH   9  10
BRANCH   9  20
ATOM     20  C   UNL     1      43.725 130.619  22.629  1.00  0.00     0.050 A 
ATOM     21  C   UNL     1      42.621 131.143  23.327  1.00  0.00     0.027 A 
ATOM     22  C   UNL     1      44.020 129.252  22.772  1.00  0.00    -0.021 A 
ATOM     23  C   UNL     1      41.830 130.308  24.133  1.00  0.00     0.002 A 
ATOM     24  C   UNL     1      43.247 128.443  23.569  1.00  0.00    -0.043 A 
ATOM     25  C   UNL     1      45.165 128.510  22.186  1.00  0.00     0.038 C 
ATOM     26  C   UNL     1      42.141 128.946  24.256  1.00  0.00     0.004 A 
ATOM     27  C   UNL     1      43.747 127.050  23.608  1.00  0.00     0.036 C 
ATOM     28  C   UNL     1      45.043 127.094  22.778  1.00  0.00     0.010 C 
ENDBRANCH   9  20
ENDBRANCH   3   9
TORSDOF 5
ENDMDL
MODEL 5
REMARK VINA RESULT:      -2.9      1.015      2.196
REMARK SMILES C=CCn1cc(N(c2ccc3[nH]ccc3c2)c2cccc3c2CCC3)cn1
REMARK SMILES IDX 4 1 5 2 6 3 26 4 27 5 3 6 2 7 1 8 7 9 8 10 9 11 16 12 10 13
REMARK SMILES IDX 15 14 11 15 14 16 12 17 13 18 17 20 18 21 22 22 19 23 21 24
REMARK SMILES IDX 23 25 20 26 25 27 24 28
REMARK H PARENT 12 19
ROOT
ATOM      1  N   UNL     1      48.032 133.621  22.081  1.00  0.00    -0.267 N 
ATOM      2  C   UNL     1      47.335 132.481  21.913  1.00  0.00     0.135 A 
ATOM      3  C   UNL     1      46.247 132.774  21.120  1.00  0.00     0.084 A 
ATOM      4  C   UNL     1      46.336 134.125  20.842  1.00  0.00     0.161 A 
ATOM      5  N   UNL     1      47.433 134.620  21.449  1.00  0.00    -0.179 NA
ENDROOT
BRANCH   1   6
ATOM      6  C   UNL     1      49.205 133.786  22.932  1.00  0.00     0.171 C 
BRANCH   6   7
ATOM      7  C   UNL     1      49.586 135.238  23.016  1.00  0.00    -0.011 C 
ATOM      8  C   UNL     1      50.842 135.646  22.811  1.00  0.00     0.006 C 
ENDBRANCH   6   7
ENDBRANCH   1   6
BRANCH   3   9
ATOM      9  N   UNL     1      45.178 131.879  20.756  1.00  0.00    -0.307 N 
BRANCH   9  10
ATOM     10  C   UNL     1      44.917 131.558  19.374  1.00  0.00     0.047 A 
ATOM     11  C   UNL     1      43.697 131.950  18.762  1.00  0.00     0.029 A 
ATOM     12  C   UNL     1      45.891 130.873  18.611  1.00  0.00     0.037 A 
ATOM     13  C   UNL     1      43.441 131.652  17.412  1.00  0.00     0.029 A 
ATOM     14  C   UNL     1      45.604 130.596  17.277  1.00  0.00     0.001 A 
ATOM     15  C   UNL     1      44.423 130.970  16.698  1.00  0.00     0.045 A 
ATOM     16  C   UNL     1      46.350 129.951  16.316  1.00  0.00     0.028 A 
ATOM     17  N   UNL     1      44.382 130.592  15.410  1.00  0.00    -0.361 N 
ATOM     18  C   UNL     1      45.559 129.968  15.171  1.00  0.00     0.083 A 
ATOM     19  H   UNL     1      43.605 130.747  14.729  1.00  0.00     0.166 HD
ENDBRANCH   9  10
BRANCH   9  20
ATOM     20  C   UNL     1      44.377 131.272  21.784  1.00  0.00     0.050 A 
ATOM     21  C   UNL     1      43.439 132.040  22.499  1.00  0.00     0.027 A 
ATOM     22  C   UNL     1      44.522 129.913  22.117  1.00  0.00    -0.021 A 
ATOM     23  C   UNL     1      42.662 131.451  23.510  1.00  0.00     0.002 A 
ATOM     24  C   UNL     1      43.764 129.345  23.111  1.00  0.00    -0.043 A 
ATOM     25  C   UNL     1      45.487 128.942  21.542  1.00  0.00     0.038 C 
ATOM     26  C   UNL     1      42.821 130.092  23.820  1.00  0.00     0.004 A 
ATOM     27  C   UNL     1      44.095 127.918  23.325  1.00  0.00     0.036 C 
ATOM     28  C   UNL     1      45.272 127.660  22.368  1.00  0.00     0.010 C 
ENDBRANCH   9  20
ENDBRANCH   3   9
TORSDOF 5
ENDMDL
MODEL 6
REMARK VINA RESULT:      -2.6      1.664      5.743
REMARK SMILES C=CCn1cc(N(c2ccc3[nH]ccc3c2)c2cccc3c2CCC3)cn1
REMARK SMILES IDX 4 1 5 2 6 3 26 4 27 5 3 6 2 7 1 8 7 9 8 10 9 11 16 12 10 13
REMARK SMILES IDX 15 14 11 15 14 16 12 17 13 18 17 20 18 21 22 22 19 23 21 24
REMARK SMILES IDX 23 25 20 26 25 27 24 28
REMARK H PARENT 12 19
ROOT
ATOM      1  N   UNL     1      44.710 131.411  18.232  1.00  0.00    -0.267 N 
ATOM      2  C   UNL     1      44.362 132.003  19.390  1.00  0.00     0.135 A 
ATOM      3  C   UNL     1      45.119 131.434  20.391  1.00  0.00     0.084 A 
ATOM      4  C   UNL     1      45.911 130.485  19.771  1.00  0.00     0.161 A 
ATOM      5  N   UNL     1      45.635 130.487  18.451  1.00  0.00    -0.179 NA
ENDROOT
BRANCH   1   6
ATOM      6  C   UNL     1      44.087 131.643  16.934  1.00  0.00     0.171 C 
BRANCH   6   7
ATOM      7  C   UNL     1      44.958 131.102  15.835  1.00  0.00    -0.011 C 
ATOM      8  C   UNL     1      45.880 131.859  15.234  1.00  0.00     0.006 C 
ENDBRANCH   6   7
ENDBRANCH   1   6
BRANCH   3   9
ATOM      9  N   UNL     1      45.018 131.693  21.805  1.00  0.00    -0.307 N 
BRANCH   9  10
ATOM     10  C   UNL     1      45.954 132.568  22.467  1.00  0.00     0.047 A 
ATOM     11  C   UNL     1      45.812 132.860  23.850  1.00  0.00     0.029 A 
ATOM     12  C   UNL     1      47.038 133.120  21.747  1.00  0.00     0.037 A 
ATOM     13  C   UNL     1      46.728 133.701  24.506  1.00  0.00     0.029 A 
ATOM     14  C   UNL     1      47.926 133.947  22.428  1.00  0.00     0.001 A 
ATOM     15  C   UNL     1      47.777 134.230  23.758  1.00  0.00     0.045 A 
ATOM     16  C   UNL     1      49.048 134.614  21.987  1.00  0.00     0.028 A 
ATOM     17  N   UNL     1      48.754 135.046  24.185  1.00  0.00    -0.361 N 
ATOM     18  C   UNL     1      49.534 135.285  23.105  1.00  0.00     0.083 A 
ATOM     19  H   UNL     1      48.888 135.422  25.150  1.00  0.00     0.166 HD
ENDBRANCH   9  10
BRANCH   9  20
ATOM     20  C   UNL     1      43.952 131.097  22.563  1.00  0.00     0.050 A 
ATOM     21  C   UNL     1      42.888 131.889  23.035  1.00  0.00     0.027 A 
ATOM     22  C   UNL     1      43.953 129.726  22.873  1.00  0.00    -0.021 A 
ATOM     23  C   UNL     1      41.850 131.310  23.783  1.00  0.00     0.002 A 
ATOM     24  C   UNL     1      42.938 129.167  23.612  1.00  0.00    -0.043 A 
ATOM     25  C   UNL     1      44.999 128.726  22.537  1.00  0.00     0.038 C 
ATOM     26  C   UNL     1      41.870 129.938  24.075  1.00  0.00     0.004 A 
ATOM     27  C   UNL     1      43.148 127.722  23.853  1.00  0.00     0.036 C 
ATOM     28  C   UNL     1      44.526 127.435  23.230  1.00  0.00     0.010 C 
ENDBRANCH   9  20
ENDBRANCH   3   9
TORSDOF 5
ENDMDL
MODEL 7
REMARK VINA RESULT:      -2.0      1.643      5.794
REMARK SMILES C=CCn1cc(N(c2ccc3[nH]ccc3c2)c2cccc3c2CCC3)cn1
REMARK SMILES IDX 4 1 5 2 6 3 26 4 27 5 3 6 2 7 1 8 7 9 8 10 9 11 16 12 10 13
REMARK SMILES IDX 15 14 11 15 14 16 12 17 13 18 17 20 18 21 22 22 19 23 21 24
REMARK SMILES IDX 23 25 20 26 25 27 24 28
REMARK H PARENT 12 19
ROOT
ATOM      1  N   UNL     1      43.803 131.347  17.938  1.00  0.00    -0.267 N 
ATOM      2  C   UNL     1      44.621 131.134  18.985  1.00  0.00     0.135 A 
ATOM      3  C   UNL     1      43.921 131.451  20.130  1.00  0.00     0.084 A 
ATOM      4  C   UNL     1      42.671 131.862  19.705  1.00  0.00     0.161 A 
ATOM      5  N   UNL     1      42.629 131.796  18.359  1.00  0.00    -0.179 NA
ENDROOT
BRANCH   1   6
ATOM      6  C   UNL     1      44.169 131.231  16.531  1.00  0.00     0.171 C 
BRANCH   6   7
ATOM      7  C   UNL     1      45.404 132.040  16.247  1.00  0.00    -0.011 C 
ATOM      8  C   UNL     1      46.130 131.846  15.143  1.00  0.00     0.006 C 
ENDBRANCH   6   7
ENDBRANCH   1   6
BRANCH   3   9
ATOM      9  N   UNL     1      44.429 131.461  21.478  1.00  0.00    -0.307 N 
BRANCH   9  10
ATOM     10  C   UNL     1      45.557 132.282  21.839  1.00  0.00     0.047 A 
ATOM     11  C   UNL     1      46.557 132.595  20.880  1.00  0.00     0.029 A 
ATOM     12  C   UNL     1      45.662 132.805  23.149  1.00  0.00     0.037 A 
ATOM     13  C   UNL     1      47.654 133.406  21.221  1.00  0.00     0.029 A 
ATOM     14  C   UNL     1      46.760 133.604  23.452  1.00  0.00     0.001 A 
ATOM     15  C   UNL     1      47.723 133.894  22.523  1.00  0.00     0.045 A 
ATOM     16  C   UNL     1      47.116 134.233  24.625  1.00  0.00     0.028 A 
ATOM     17  N   UNL     1      48.675 134.680  23.052  1.00  0.00    -0.361 N 
ATOM     18  C   UNL     1      48.308 134.890  24.337  1.00  0.00     0.083 A 
ATOM     19  H   UNL     1      49.524 135.054  22.574  1.00  0.00     0.166 HD
ENDBRANCH   9  10
BRANCH   9  20
ATOM     20  C   UNL     1      43.784 130.665  22.487  1.00  0.00     0.050 A 
ATOM     21  C   UNL     1      42.815 131.239  23.332  1.00  0.00     0.027 A 
ATOM     22  C   UNL     1      44.116 129.311  22.673  1.00  0.00    -0.021 A 
ATOM     23  C   UNL     1      42.191 130.465  24.324  1.00  0.00     0.002 A 
ATOM     24  C   UNL     1      43.507 128.562  23.650  1.00  0.00    -0.043 A 
ATOM     25  C   UNL     1      45.147 128.528  21.946  1.00  0.00     0.038 C 
ATOM     26  C   UNL     1      42.535 129.115  24.486  1.00  0.00     0.004 A 
ATOM     27  C   UNL     1      44.022 127.176  23.699  1.00  0.00     0.036 C 
ATOM     28  C   UNL     1      45.149 127.158  22.650  1.00  0.00     0.010 C 
ENDBRANCH   9  20
ENDBRANCH   3   9
TORSDOF 5
ENDMDL
MODEL 8
REMARK VINA RESULT:      -2.0      1.834      5.601
REMARK SMILES C=CCn1cc(N(c2ccc3[nH]ccc3c2)c2cccc3c2CCC3)cn1
REMARK SMILES IDX 4 1 5 2 6 3 26 4 27 5 3 6 2 7 1 8 7 9 8 10 9 11 16 12 10 13
REMARK SMILES IDX 15 14 11 15 14 16 12 17 13 18 17 20 18 21 22 22 19 23 21 24
REMARK SMILES IDX 23 25 20 26 25 27 24 28
REMARK H PARENT 12 19
ROOT
ATOM      1  N   UNL     1      47.124 133.608  22.882  1.00  0.00    -0.267 N 
ATOM      2  C   UNL     1      46.260 132.578  22.949  1.00  0.00     0.135 A 
ATOM      3  C   UNL     1      45.657 132.462  21.715  1.00  0.00     0.084 A 
ATOM      4  C   UNL     1      46.197 133.467  20.936  1.00  0.00     0.161 A 
ATOM      5  N   UNL     1      47.086 134.159  21.677  1.00  0.00    -0.179 NA
ENDROOT
BRANCH   1   6
ATOM      6  C   UNL     1      47.903 134.142  23.994  1.00  0.00     0.171 C 
BRANCH   6   7
ATOM      7  C   UNL     1      49.372 133.966  23.730  1.00  0.00    -0.011 C 
ATOM      8  C   UNL     1      50.118 134.953  23.226  1.00  0.00     0.006 C 
ENDBRANCH   6   7
ENDBRANCH   1   6
BRANCH   3   9
ATOM      9  N   UNL     1      44.598 131.553  21.353  1.00  0.00    -0.307 N 
BRANCH   9  10
ATOM     10  C   UNL     1      44.204 130.483  22.236  1.00  0.00     0.047 A 
ATOM     11  C   UNL     1      43.259 130.714  23.270  1.00  0.00     0.029 A 
ATOM     12  C   UNL     1      44.740 129.186  22.058  1.00  0.00     0.037 A 
ATOM     13  C   UNL     1      42.860 129.672  24.126  1.00  0.00     0.029 A 
ATOM     14  C   UNL     1      44.322 128.180  22.923  1.00  0.00     0.001 A 
ATOM     15  C   UNL     1      43.417 128.412  23.923  1.00  0.00     0.045 A 
ATOM     16  C   UNL     1      44.673 126.849  22.987  1.00  0.00     0.028 A 
ATOM     17  N   UNL     1      43.175 127.290  24.619  1.00  0.00    -0.361 N 
ATOM     18  C   UNL     1      43.941 126.331  24.050  1.00  0.00     0.083 A 
ATOM     19  H   UNL     1      42.529 127.177  25.431  1.00  0.00     0.166 HD
ENDBRANCH   9  10
BRANCH   9  20
ATOM     20  C   UNL     1      43.902 131.733  20.108  1.00  0.00     0.050 A 
ATOM     21  C   UNL     1      42.593 132.250  20.095  1.00  0.00     0.027 A 
ATOM     22  C   UNL     1      44.494 131.379  18.882  1.00  0.00    -0.021 A 
ATOM     23  C   UNL     1      41.908 132.418  18.880  1.00  0.00     0.002 A 
ATOM     24  C   UNL     1      43.815 131.538  17.698  1.00  0.00    -0.043 A 
ATOM     25  C   UNL     1      45.827 130.760  18.670  1.00  0.00     0.038 C 
ATOM     26  C   UNL     1      42.521 132.062  17.670  1.00  0.00     0.004 A 
ATOM     27  C   UNL     1      44.602 131.075  16.533  1.00  0.00     0.036 C 
ATOM     28  C   UNL     1      45.882 130.489  17.155  1.00  0.00     0.010 C 
ENDBRANCH   9  20
ENDBRANCH   3   9
TORSDOF 5
ENDMDL
MODEL 9
REMARK VINA RESULT:      -2.0      1.391      2.438
REMARK SMILES C=CCn1cc(N(c2ccc3[nH]ccc3c2)c2cccc3c2CCC3)cn1
REMARK SMILES IDX 4 1 5 2 6 3 26 4 27 5 3 6 2 7 1 8 7 9 8 10 9 11 16 12 10 13
REMARK SMILES IDX 15 14 11 15 14 16 12 17 13 18 17 20 18 21 22 22 19 23 21 24
REMARK SMILES IDX 23 25 20 26 25 27 24 28
REMARK H PARENT 12 19
ROOT
ATOM      1  N   UNL     1      47.383 133.951  22.385  1.00  0.00    -0.267 N 
ATOM      2  C   UNL     1      46.651 133.218  21.525  1.00  0.00     0.135 A 
ATOM      3  C   UNL     1      45.631 132.631  22.244  1.00  0.00     0.084 A 
ATOM      4  C   UNL     1      45.805 133.045  23.551  1.00  0.00     0.161 A 
ATOM      5  N   UNL     1      46.889 133.845  23.611  1.00  0.00    -0.179 NA
ENDROOT
BRANCH   1   6
ATOM      6  C   UNL     1      48.616 134.661  22.066  1.00  0.00     0.171 C 
BRANCH   6   7
ATOM      7  C   UNL     1      49.767 134.078  22.837  1.00  0.00    -0.011 C 
ATOM      8  C   UNL     1      49.836 134.167  24.168  1.00  0.00     0.006 C 
ENDBRANCH   6   7
ENDBRANCH   1   6
BRANCH   3   9
ATOM      9  N   UNL     1      44.658 131.689  21.751  1.00  0.00    -0.307 N 
BRANCH   9  10
ATOM     10  C   UNL     1      44.306 131.650  20.354  1.00  0.00     0.047 A 
ATOM     11  C   UNL     1      42.948 131.761  19.949  1.00  0.00     0.029 A 
ATOM     12  C   UNL     1      45.316 131.526  19.372  1.00  0.00     0.037 A 
ATOM     13  C   UNL     1      42.598 131.736  18.588  1.00  0.00     0.029 A 
ATOM     14  C   UNL     1      44.933 131.506  18.034  1.00  0.00     0.001 A 
ATOM     15  C   UNL     1      43.622 131.606  17.654  1.00  0.00     0.045 A 
ATOM     16  C   UNL     1      45.687 131.393  16.887  1.00  0.00     0.028 A 
ATOM     17  N   UNL     1      43.508 131.562  16.317  1.00  0.00    -0.361 N 
ATOM     18  C   UNL     1      44.768 131.432  15.843  1.00  0.00     0.083 A 
ATOM     19  H   UNL     1      42.630 131.618  15.755  1.00  0.00     0.166 HD
ENDBRANCH   9  10
BRANCH   9  20
ATOM     20  C   UNL     1      44.050 130.755  22.659  1.00  0.00     0.050 A 
ATOM     21  C   UNL     1      43.236 131.214  23.711  1.00  0.00     0.027 A 
ATOM     22  C   UNL     1      44.268 129.371  22.537  1.00  0.00    -0.021 A 
ATOM     23  C   UNL     1      42.648 130.303  24.603  1.00  0.00     0.002 A 
ATOM     24  C   UNL     1      43.696 128.486  23.419  1.00  0.00    -0.043 A 
ATOM     25  C   UNL     1      45.136 128.678  21.552  1.00  0.00     0.038 C 
ATOM     26  C   UNL     1      42.876 128.927  24.459  1.00  0.00     0.004 A 
ATOM     27  C   UNL     1      44.079 127.084  23.136  1.00  0.00     0.036 C 
ATOM     28  C   UNL     1      45.081 127.197  21.973  1.00  0.00     0.010 C 
ENDBRANCH   9  20
ENDBRANCH   3   9
TORSDOF 5
ENDMDL


