MODEL 1
REMARK VINA RESULT:      -5.1      0.000      0.000
REMARK SMILES C=C[C@@H]1CN[C@@H](c2c[nH+]c3ocnc3c2)N(C(=S)[NH2+]c2cc(F)c(Cl)cc2F)C1
REMARK SMILES IDX 17 1 18 2 16 3 3 4 4 5 29 6 5 7 6 8 2 10 1 11 7 12 8 13
REMARK SMILES IDX 15 14 9 15 14 16 10 17 13 18 11 19 12 20 19 22 20 25 21 26
REMARK SMILES IDX 27 27 22 28 26 29 24 30 28 31 23 32 25 33
REMARK H PARENT 5 9 9 21 19 23 19 24
ROOT
ATOM      1  C   UNL     1      45.428 130.881  19.656  1.00  0.00     0.275 C 
ATOM      2  S   UNL     1      46.326 129.780  18.828  1.00  0.00     0.004 S 
ENDROOT
BRANCH   1   3
ATOM      3  N   UNL     1      44.424 131.654  18.960  1.00  0.00    -0.297 N 
ATOM      4  C   UNL     1      42.435 133.036  19.518  1.00  0.00     0.045 C 
ATOM      5  C   UNL     1      41.772 132.123  18.463  1.00  0.00     0.092 C 
ATOM      6  C   UNL     1      43.981 132.953  19.482  1.00  0.00     0.133 C 
ATOM      7  N   UNL     1      42.659 131.951  17.310  1.00  0.00    -0.292 NA
ATOM      8  C   UNL     1      43.844 131.158  17.694  1.00  0.00     0.193 C 
ATOM      9  H   UNL     1      42.136 131.421  16.574  1.00  0.00     0.125 HD
BRANCH   4  10
ATOM     10  C   UNL     1      41.886 132.761  20.902  1.00  0.00    -0.028 C 
ATOM     11  C   UNL     1      40.760 133.323  21.358  1.00  0.00     0.004 C 
ENDBRANCH   4  10
BRANCH   8  12
ATOM     12  C   UNL     1      44.878 131.235  16.596  1.00  0.00     0.056 A 
ATOM     13  C   UNL     1      45.386 132.494  16.174  1.00  0.00     0.317 A 
ATOM     14  C   UNL     1      45.331 130.061  15.948  1.00  0.00     0.053 A 
ATOM     15  N   UNL     1      46.320 132.571  15.177  1.00  0.00    -0.177 N 
ATOM     16  C   UNL     1      46.285 130.206  14.952  1.00  0.00     0.179 A 
ATOM     17  C   UNL     1      46.750 131.425  14.596  1.00  0.00     0.399 A 
ATOM     18  N   UNL     1      46.880 129.255  14.212  1.00  0.00    -0.209 NA
ATOM     19  O   UNL     1      47.632 131.294  13.646  1.00  0.00    -0.391 OA
ATOM     20  C   UNL     1      47.708 129.990  13.420  1.00  0.00     0.316 A 
ATOM     21  H   UNL     1      46.693 133.496  14.868  1.00  0.00     0.457 HD
ENDBRANCH   8  12
ENDBRANCH   1   3
BRANCH   1  22
ATOM     22  N   UNL     1      45.700 131.107  21.054  1.00  0.00    -0.254 N 
ATOM     23  H   UNL     1      46.728 131.091  21.233  1.00  0.00     0.360 HD
ATOM     24  H   UNL     1      45.371 132.060  21.339  1.00  0.00     0.360 HD
BRANCH  22  25
ATOM     25  C   UNL     1      45.033 130.112  21.857  1.00  0.00     0.175 A 
ATOM     26  C   UNL     1      45.340 128.750  21.695  1.00  0.00     0.112 A 
ATOM     27  C   UNL     1      44.074 130.488  22.819  1.00  0.00     0.185 A 
ATOM     28  C   UNL     1      44.719 127.784  22.495  1.00  0.00     0.147 A 
ATOM     29  C   UNL     1      43.457 129.519  23.614  1.00  0.00     0.069 A 
ATOM     30  C   UNL     1      43.785 128.169  23.461  1.00  0.00     0.080 A 
ATOM     31  F   UNL     1      43.745 131.792  22.992  1.00  0.00    -0.200 F 
ATOM     32  F   UNL     1      45.034 126.475  22.328  1.00  0.00    -0.205 F 
ATOM     33  Cl  UNL     1      43.020 126.967  24.486  1.00  0.00    -0.081 Cl
ENDBRANCH  22  25
ENDBRANCH   1  22
TORSDOF 5
ENDMDL
MODEL 2
REMARK VINA RESULT:      -5.1      0.741      1.709
REMARK SMILES C=C[C@@H]1CN[C@@H](c2c[nH+]c3ocnc3c2)N(C(=S)[NH2+]c2cc(F)c(Cl)cc2F)C1
REMARK SMILES IDX 17 1 18 2 16 3 3 4 4 5 29 6 5 7 6 8 2 10 1 11 7 12 8 13
REMARK SMILES IDX 15 14 9 15 14 16 10 17 13 18 11 19 12 20 19 22 20 25 21 26
REMARK SMILES IDX 27 27 22 28 26 29 24 30 28 31 23 32 25 33
REMARK H PARENT 5 9 9 21 19 23 19 24
ROOT
ATOM      1  C   UNL     1      45.434 130.763  19.723  1.00  0.00     0.275 C 
ATOM      2  S   UNL     1      46.225 129.577  18.902  1.00  0.00     0.004 S 
ENDROOT
BRANCH   1   3
ATOM      3  N   UNL     1      44.470 131.590  19.032  1.00  0.00    -0.297 N 
ATOM      4  C   UNL     1      42.553 133.067  19.600  1.00  0.00     0.045 C 
ATOM      5  C   UNL     1      41.845 132.195  18.539  1.00  0.00     0.092 C 
ATOM      6  C   UNL     1      44.093 132.906  19.563  1.00  0.00     0.133 C 
ATOM      7  N   UNL     1      42.723 131.987  17.385  1.00  0.00    -0.292 NA
ATOM      8  C   UNL     1      43.866 131.133  17.763  1.00  0.00     0.193 C 
ATOM      9  H   UNL     1      42.173 131.489  16.646  1.00  0.00     0.125 HD
BRANCH   4  10
ATOM     10  C   UNL     1      41.991 132.810  20.982  1.00  0.00    -0.028 C 
ATOM     11  C   UNL     1      40.796 133.269  21.373  1.00  0.00     0.004 C 
ENDBRANCH   4  10
BRANCH   8  12
ATOM     12  C   UNL     1      44.903 131.165  16.665  1.00  0.00     0.056 A 
ATOM     13  C   UNL     1      45.380 132.407  16.164  1.00  0.00     0.317 A 
ATOM     14  C   UNL     1      45.389 129.964  16.096  1.00  0.00     0.053 A 
ATOM     15  N   UNL     1      46.316 132.443  15.166  1.00  0.00    -0.177 N 
ATOM     16  C   UNL     1      46.344 130.068  15.096  1.00  0.00     0.179 A 
ATOM     17  C   UNL     1      46.778 131.274  14.663  1.00  0.00     0.399 A 
ATOM     18  N   UNL     1      46.966 129.087  14.420  1.00  0.00    -0.209 NA
ATOM     19  O   UNL     1      47.668 131.103  13.725  1.00  0.00    -0.391 OA
ATOM     20  C   UNL     1      47.778 129.791  13.584  1.00  0.00     0.316 A 
ATOM     21  H   UNL     1      46.667 133.355  14.799  1.00  0.00     0.457 HD
ENDBRANCH   8  12
ENDBRANCH   1   3
BRANCH   1  22
ATOM     22  N   UNL     1      45.762 131.005  21.106  1.00  0.00    -0.254 N 
ATOM     23  H   UNL     1      46.733 130.683  21.312  1.00  0.00     0.360 HD
ATOM     24  H   UNL     1      45.748 132.033  21.309  1.00  0.00     0.360 HD
BRANCH  22  25
ATOM     25  C   UNL     1      44.816 130.336  21.965  1.00  0.00     0.175 A 
ATOM     26  C   UNL     1      43.807 131.070  22.613  1.00  0.00     0.112 A 
ATOM     27  C   UNL     1      44.882 128.943  22.161  1.00  0.00     0.185 A 
ATOM     28  C   UNL     1      42.867 130.421  23.421  1.00  0.00     0.147 A 
ATOM     29  C   UNL     1      43.941 128.300  22.969  1.00  0.00     0.069 A 
ATOM     30  C   UNL     1      42.928 129.034  23.592  1.00  0.00     0.080 A 
ATOM     31  F   UNL     1      45.850 128.206  21.561  1.00  0.00    -0.200 F 
ATOM     32  F   UNL     1      41.897 131.145  24.033  1.00  0.00    -0.205 F 
ATOM     33  Cl  UNL     1      41.738 128.209  24.583  1.00  0.00    -0.081 Cl
ENDBRANCH  22  25
ENDBRANCH   1  22
TORSDOF 5
ENDMDL
MODEL 3
REMARK VINA RESULT:      -2.4      1.012      1.518
REMARK SMILES C=C[C@@H]1CN[C@@H](c2c[nH+]c3ocnc3c2)N(C(=S)[NH2+]c2cc(F)c(Cl)cc2F)C1
REMARK SMILES IDX 17 1 18 2 16 3 3 4 4 5 29 6 5 7 6 8 2 10 1 11 7 12 8 13
REMARK SMILES IDX 15 14 9 15 14 16 10 17 13 18 11 19 12 20 19 22 20 25 21 26
REMARK SMILES IDX 27 27 22 28 26 29 24 30 28 31 23 32 25 33
REMARK H PARENT 5 9 9 21 19 23 19 24
ROOT
ATOM      1  C   UNL     1      45.123 131.103  20.420  1.00  0.00     0.275 C 
ATOM      2  S   UNL     1      46.526 130.516  19.795  1.00  0.00     0.004 S 
ENDROOT
BRANCH   1   3
ATOM      3  N   UNL     1      44.135 131.684  19.538  1.00  0.00    -0.297 N 
ATOM      4  C   UNL     1      42.150 133.170  19.704  1.00  0.00     0.045 C 
ATOM      5  C   UNL     1      41.495 132.027  18.896  1.00  0.00     0.092 C 
ATOM      6  C   UNL     1      43.695 133.074  19.716  1.00  0.00     0.133 C 
ATOM      7  N   UNL     1      42.398 131.572  17.836  1.00  0.00    -0.292 NA
ATOM      8  C   UNL     1      43.570 130.894  18.424  1.00  0.00     0.193 C 
ATOM      9  H   UNL     1      41.881 130.879  17.246  1.00  0.00     0.125 HD
BRANCH   4  10
ATOM     10  C   UNL     1      41.577 133.247  21.104  1.00  0.00    -0.028 C 
ATOM     11  C   UNL     1      41.934 132.403  22.078  1.00  0.00     0.004 C 
ENDBRANCH   4  10
BRANCH   8  12
ATOM     12  C   UNL     1      44.622 130.692  17.358  1.00  0.00     0.056 A 
ATOM     13  C   UNL     1      45.241 129.423  17.192  1.00  0.00     0.317 A 
ATOM     14  C   UNL     1      45.031 131.768  16.535  1.00  0.00     0.053 A 
ATOM     15  N   UNL     1      46.197 129.234  16.231  1.00  0.00    -0.177 N 
ATOM     16  C   UNL     1      45.997 131.509  15.574  1.00  0.00     0.179 A 
ATOM     17  C   UNL     1      46.546 130.280  15.443  1.00  0.00     0.399 A 
ATOM     18  N   UNL     1      46.531 132.348  14.670  1.00  0.00    -0.209 NA
ATOM     19  O   UNL     1      47.421 130.296  14.478  1.00  0.00    -0.391 OA
ATOM     20  C   UNL     1      47.407 131.537  14.016  1.00  0.00     0.316 A 
ATOM     21  H   UNL     1      46.651 128.302  16.108  1.00  0.00     0.457 HD
ENDBRANCH   8  12
ENDBRANCH   1   3
BRANCH   1  22
ATOM     22  N   UNL     1      44.925 131.090  21.848  1.00  0.00    -0.254 N 
ATOM     23  H   UNL     1      45.766 131.469  22.336  1.00  0.00     0.360 HD
ATOM     24  H   UNL     1      44.129 131.719  22.111  1.00  0.00     0.360 HD
BRANCH  22  25
ATOM     25  C   UNL     1      44.642 129.750  22.298  1.00  0.00     0.175 A 
ATOM     26  C   UNL     1      45.345 128.658  21.758  1.00  0.00     0.112 A 
ATOM     27  C   UNL     1      43.667 129.513  23.287  1.00  0.00     0.185 A 
ATOM     28  C   UNL     1      45.097 127.360  22.215  1.00  0.00     0.147 A 
ATOM     29  C   UNL     1      43.422 128.213  23.739  1.00  0.00     0.069 A 
ATOM     30  C   UNL     1      44.142 127.137  23.213  1.00  0.00     0.080 A 
ATOM     31  F   UNL     1      42.960 130.541  23.819  1.00  0.00    -0.200 F 
ATOM     32  F   UNL     1      45.791 126.321  21.687  1.00  0.00    -0.205 F 
ATOM     33  Cl  UNL     1      43.843 125.515  23.810  1.00  0.00    -0.081 Cl
ENDBRANCH  22  25
ENDBRANCH   1  22
TORSDOF 5
ENDMDL


