REMARK SMILES CC(=O)c1ccc(/C(N=[N+]=[N-])=N/[C@@H]2C=CCC2)c(F)c1[O-]
REMARK SMILES IDX 8 1 12 2 13 3 15 4 14 5 16 6 17 7 9 8 10 9 11 10 7 11 6 12
REMARK SMILES IDX 18 13 5 14 20 15 4 16 19 17 21 18 2 19 3 20 1 21
REMARK H PARENT
ROOT
ATOM      1  C   UNL     1       0.750  -0.831  -0.930  1.00  0.00     0.132 C 
ENDROOT
BRANCH   1   2
ATOM      2  N   UNL     1       1.509   0.155  -0.550  1.00  0.00    -0.275 NA
BRANCH   2   3
ATOM      3  C   UNL     1       2.937   0.272  -0.848  1.00  0.00     0.128 C 
ATOM      4  C   UNL     1       4.497  -0.039   0.866  1.00  0.00    -0.029 C 
ATOM      5  C   UNL     1       3.722  -0.669   0.001  1.00  0.00    -0.005 C 
ATOM      6  C   UNL     1       4.379   1.437   0.760  1.00  0.00     0.029 C 
ATOM      7  C   UNL     1       3.454   1.660  -0.441  1.00  0.00     0.035 C 
ENDBRANCH   2   3
ENDBRANCH   1   2
BRANCH   1   8
ATOM      8  N   UNL     1       1.302  -1.900  -1.716  1.00  0.00    -0.041 NA
BRANCH   8   9
ATOM      9  N   UNL     1       0.691  -2.950  -1.922  1.00  0.00     0.007 N 
ATOM     10  N   UNL     1       0.082  -3.998  -2.127  1.00  0.00    -0.003 NA
ENDBRANCH   8   9
ENDBRANCH   1   8
BRANCH   1  11
ATOM     11  C   UNL     1      -0.681  -0.817  -0.542  1.00  0.00     0.037 A 
ATOM     12  C   UNL     1      -1.672  -1.129  -1.483  1.00  0.00     0.014 A 
ATOM     13  C   UNL     1      -1.066  -0.461   0.763  1.00  0.00     0.125 A 
ATOM     14  C   UNL     1      -3.022  -1.097  -1.129  1.00  0.00     0.012 A 
ATOM     15  C   UNL     1      -2.419  -0.434   1.125  1.00  0.00    -0.060 A 
ATOM     16  C   UNL     1      -3.418  -0.741   0.173  1.00  0.00     0.012 A 
ATOM     17  F   UNL     1      -0.126  -0.172   1.700  1.00  0.00    -0.207 F 
ATOM     18  O   UNL     1      -2.748  -0.124   2.439  1.00  0.00    -0.870 OA
BRANCH  16  19
ATOM     19  C   UNL     1      -4.870  -0.712   0.497  1.00  0.00     0.159 C 
ATOM     20  O   UNL     1      -5.662  -1.451  -0.148  1.00  0.00    -0.295 OA
ATOM     21  C   UNL     1      -5.437   0.168   1.569  1.00  0.00     0.093 C 
ENDBRANCH  16  19
ENDBRANCH   1  11
TORSDOF 6


