MODEL 1
REMARK VINA RESULT:       0.6      0.000      0.000
REMARK SMILES CC(C)(C)c1cccc(/N=C(\O)NC(=O)c2ccc(-c3cc(F)cc(F)c3O)cc2)c1
REMARK SMILES IDX 11 1 13 2 14 4 15 5 12 6 10 8 9 9 8 10 31 11 7 12 5 13 6 14
REMARK SMILES IDX 2 15 1 16 3 17 4 18 16 19 17 20 30 21 18 22 29 23 19 24
REMARK SMILES IDX 20 25 21 26 27 27 22 28 25 29 24 30 23 31 26 32 28 33
REMARK H PARENT 13 3 12 7 28 34
ROOT
ATOM      1  C   UNL     1      42.490 129.879  23.536  1.00  0.00     0.294 C 
ATOM      2  N   UNL     1      43.355 130.984  23.226  1.00  0.00    -0.276 N 
ATOM      3  H   UNL     1      43.261 131.843  23.813  1.00  0.00     0.175 HD
ATOM      4  C   UNL     1      44.285 130.998  22.129  1.00  0.00     0.259 C 
ATOM      5  O   UNL     1      44.166 130.161  21.192  1.00  0.00    -0.269 OA
ENDROOT
BRANCH   1   6
ATOM      6  O   UNL     1      41.523 130.030  24.529  1.00  0.00    -0.480 OA
ATOM      7  H   UNL     1      40.715 129.420  24.573  1.00  0.00     0.296 HD
ENDBRANCH   1   6
BRANCH   1   8
ATOM      8  N   UNL     1      42.642 128.736  22.930  1.00  0.00    -0.198 NA
BRANCH   8   9
ATOM      9  C   UNL     1      43.319 127.581  23.448  1.00  0.00     0.069 A 
ATOM     10  C   UNL     1      44.568 127.752  24.050  1.00  0.00     0.028 A 
ATOM     11  C   UNL     1      42.803 126.282  23.290  1.00  0.00     0.032 A 
ATOM     12  C   UNL     1      45.270 126.653  24.538  1.00  0.00     0.003 A 
ATOM     13  C   UNL     1      43.494 125.151  23.782  1.00  0.00    -0.040 A 
ATOM     14  C   UNL     1      44.742 125.366  24.415  1.00  0.00     0.004 A 
BRANCH  13  15
ATOM     15  C   UNL     1      42.885 123.745  23.598  1.00  0.00    -0.013 C 
ATOM     16  C   UNL     1      43.435 122.708  24.607  1.00  0.00     0.016 C 
ATOM     17  C   UNL     1      41.353 123.815  23.790  1.00  0.00     0.016 C 
ATOM     18  C   UNL     1      43.200 123.232  22.177  1.00  0.00     0.016 C 
ENDBRANCH  13  15
ENDBRANCH   8   9
ENDBRANCH   1   8
BRANCH   4  19
ATOM     19  C   UNL     1      45.366 132.012  22.059  1.00  0.00     0.040 A 
ATOM     20  C   UNL     1      45.545 132.803  20.909  1.00  0.00     0.014 A 
ATOM     21  C   UNL     1      46.214 132.217  23.160  1.00  0.00     0.014 A 
ATOM     22  C   UNL     1      46.562 133.760  20.858  1.00  0.00     0.010 A 
ATOM     23  C   UNL     1      47.233 133.172  23.108  1.00  0.00     0.010 A 
ATOM     24  C   UNL     1      47.422 133.948  21.952  1.00  0.00    -0.014 A 
BRANCH  24  25
ATOM     25  C   UNL     1      48.492 134.972  21.896  1.00  0.00     0.029 A 
ATOM     26  C   UNL     1      48.386 136.039  20.987  1.00  0.00     0.052 A 
ATOM     27  C   UNL     1      49.625 134.893  22.736  1.00  0.00     0.159 A 
ATOM     28  C   UNL     1      49.378 137.021  20.926  1.00  0.00     0.127 A 
ATOM     29  C   UNL     1      50.615 135.888  22.670  1.00  0.00     0.168 A 
ATOM     30  C   UNL     1      50.489 136.947  21.767  1.00  0.00     0.082 A 
ATOM     31  F   UNL     1      49.259 138.050  20.051  1.00  0.00    -0.207 F 
ATOM     32  F   UNL     1      51.706 135.826  23.473  1.00  0.00    -0.203 F 
BRANCH  27  33
ATOM     33  O   UNL     1      49.769 133.819  23.616  1.00  0.00    -0.504 OA
ATOM     34  H   UNL     1      49.359 132.911  23.428  1.00  0.00     0.293 HD
ENDBRANCH  27  33
ENDBRANCH  24  25
ENDBRANCH   4  19
TORSDOF 7
ENDMDL
MODEL 2
REMARK VINA RESULT:       2.0      5.824      7.226
REMARK SMILES CC(C)(C)c1cccc(/N=C(\O)NC(=O)c2ccc(-c3cc(F)cc(F)c3O)cc2)c1
REMARK SMILES IDX 11 1 13 2 14 4 15 5 12 6 10 8 9 9 8 10 31 11 7 12 5 13 6 14
REMARK SMILES IDX 2 15 1 16 3 17 4 18 16 19 17 20 30 21 18 22 29 23 19 24
REMARK SMILES IDX 20 25 21 26 27 27 22 28 25 29 24 30 23 31 26 32 28 33
REMARK H PARENT 13 3 12 7 28 34
ROOT
ATOM      1  C   UNL     1      42.461 131.943  20.301  1.00  0.00     0.294 C 
ATOM      2  N   UNL     1      43.088 131.486  19.091  1.00  0.00    -0.276 N 
ATOM      3  H   UNL     1      42.560 131.618  18.200  1.00  0.00     0.175 HD
ATOM      4  C   UNL     1      44.358 130.810  19.046  1.00  0.00     0.259 C 
ATOM      5  O   UNL     1      44.838 130.304  20.097  1.00  0.00    -0.269 OA
ENDROOT
BRANCH   1   6
ATOM      6  O   UNL     1      41.163 132.451  20.243  1.00  0.00    -0.480 OA
ATOM      7  H   UNL     1      40.992 133.438  20.085  1.00  0.00     0.296 HD
ENDBRANCH   1   6
BRANCH   1   8
ATOM      8  N   UNL     1      43.115 131.928  21.427  1.00  0.00    -0.198 NA
BRANCH   8   9
ATOM      9  C   UNL     1      42.966 130.967  22.484  1.00  0.00     0.069 A 
ATOM     10  C   UNL     1      42.132 131.279  23.559  1.00  0.00     0.028 A 
ATOM     11  C   UNL     1      43.700 129.767  22.507  1.00  0.00     0.032 A 
ATOM     12  C   UNL     1      41.984 130.386  24.618  1.00  0.00     0.003 A 
ATOM     13  C   UNL     1      43.564 128.841  23.568  1.00  0.00    -0.040 A 
ATOM     14  C   UNL     1      42.684 129.178  24.625  1.00  0.00     0.004 A 
BRANCH  13  15
ATOM     15  C   UNL     1      44.378 127.531  23.546  1.00  0.00    -0.013 C 
ATOM     16  C   UNL     1      43.518 126.276  23.828  1.00  0.00     0.016 C 
ATOM     17  C   UNL     1      45.029 127.349  22.157  1.00  0.00     0.016 C 
ATOM     18  C   UNL     1      45.481 127.596  24.624  1.00  0.00     0.016 C 
ENDBRANCH  13  15
ENDBRANCH   8   9
ENDBRANCH   1   8
BRANCH   4  19
ATOM     19  C   UNL     1      45.097 130.662  17.769  1.00  0.00     0.040 A 
ATOM     20  C   UNL     1      45.018 131.647  16.767  1.00  0.00     0.014 A 
ATOM     21  C   UNL     1      45.916 129.540  17.553  1.00  0.00     0.014 A 
ATOM     22  C   UNL     1      45.725 131.500  15.571  1.00  0.00     0.010 A 
ATOM     23  C   UNL     1      46.621 129.393  16.355  1.00  0.00     0.010 A 
ATOM     24  C   UNL     1      46.526 130.368  15.349  1.00  0.00    -0.014 A 
BRANCH  24  25
ATOM     25  C   UNL     1      47.282 130.223  14.082  1.00  0.00     0.029 A 
ATOM     26  C   UNL     1      46.874 130.939  12.943  1.00  0.00     0.052 A 
ATOM     27  C   UNL     1      48.405 129.371  13.994  1.00  0.00     0.159 A 
ATOM     28  C   UNL     1      47.579 130.825  11.742  1.00  0.00     0.127 A 
ATOM     29  C   UNL     1      49.110 129.266  12.782  1.00  0.00     0.168 A 
ATOM     30  C   UNL     1      48.696 129.992  11.663  1.00  0.00     0.082 A 
ATOM     31  F   UNL     1      47.180 131.528  10.653  1.00  0.00    -0.207 F 
ATOM     32  F   UNL     1      50.192 128.455  12.685  1.00  0.00    -0.203 F 
BRANCH  27  33
ATOM     33  O   UNL     1      48.801 128.619  15.101  1.00  0.00    -0.504 OA
ATOM     34  H   UNL     1      48.477 127.671  15.252  1.00  0.00     0.293 HD
ENDBRANCH  27  33
ENDBRANCH  24  25
ENDBRANCH   4  19
TORSDOF 7
ENDMDL
MODEL 3
REMARK VINA RESULT:       2.2      5.709      7.510
REMARK SMILES CC(C)(C)c1cccc(/N=C(\O)NC(=O)c2ccc(-c3cc(F)cc(F)c3O)cc2)c1
REMARK SMILES IDX 11 1 13 2 14 4 15 5 12 6 10 8 9 9 8 10 31 11 7 12 5 13 6 14
REMARK SMILES IDX 2 15 1 16 3 17 4 18 16 19 17 20 30 21 18 22 29 23 19 24
REMARK SMILES IDX 20 25 21 26 27 27 22 28 25 29 24 30 23 31 26 32 28 33
REMARK H PARENT 13 3 12 7 28 34
ROOT
ATOM      1  C   UNL     1      41.649 133.290  20.295  1.00  0.00     0.294 C 
ATOM      2  N   UNL     1      42.401 132.977  19.111  1.00  0.00    -0.276 N 
ATOM      3  H   UNL     1      42.818 133.777  18.585  1.00  0.00     0.175 HD
ATOM      4  C   UNL     1      42.556 131.648  18.581  1.00  0.00     0.259 C 
ATOM      5  O   UNL     1      41.779 130.727  18.954  1.00  0.00    -0.269 OA
ENDROOT
BRANCH   1   6
ATOM      6  O   UNL     1      41.440 134.626  20.634  1.00  0.00    -0.480 OA
ATOM      7  H   UNL     1      41.804 135.012  21.497  1.00  0.00     0.296 HD
ENDBRANCH   1   6
BRANCH   1   8
ATOM      8  N   UNL     1      41.212 132.336  21.067  1.00  0.00    -0.198 NA
BRANCH   8   9
ATOM      9  C   UNL     1      41.873 131.811  22.229  1.00  0.00     0.069 A 
ATOM     10  C   UNL     1      41.763 132.508  23.434  1.00  0.00     0.028 A 
ATOM     11  C   UNL     1      42.694 130.669  22.166  1.00  0.00     0.032 A 
ATOM     12  C   UNL     1      42.413 132.046  24.576  1.00  0.00     0.003 A 
ATOM     13  C   UNL     1      43.359 130.178  23.312  1.00  0.00    -0.040 A 
ATOM     14  C   UNL     1      43.198 130.893  24.524  1.00  0.00     0.004 A 
BRANCH  13  15
ATOM     15  C   UNL     1      44.238 128.915  23.201  1.00  0.00    -0.013 C 
ATOM     16  C   UNL     1      43.423 127.601  23.253  1.00  0.00     0.016 C 
ATOM     17  C   UNL     1      45.006 128.935  21.861  1.00  0.00     0.016 C 
ATOM     18  C   UNL     1      45.247 128.888  24.369  1.00  0.00     0.016 C 
ENDBRANCH  13  15
ENDBRANCH   8   9
ENDBRANCH   1   8
BRANCH   4  19
ATOM     19  C   UNL     1      43.597 131.349  17.567  1.00  0.00     0.040 A 
ATOM     20  C   UNL     1      43.354 131.554  16.196  1.00  0.00     0.014 A 
ATOM     21  C   UNL     1      44.859 130.880  17.968  1.00  0.00     0.014 A 
ATOM     22  C   UNL     1      44.344 131.276  15.251  1.00  0.00     0.010 A 
ATOM     23  C   UNL     1      45.849 130.599  17.021  1.00  0.00     0.010 A 
ATOM     24  C   UNL     1      45.598 130.787  15.652  1.00  0.00    -0.014 A 
BRANCH  24  25
ATOM     25  C   UNL     1      46.648 130.504  14.646  1.00  0.00     0.029 A 
ATOM     26  C   UNL     1      47.719 129.655  14.979  1.00  0.00     0.052 A 
ATOM     27  C   UNL     1      46.599 131.075  13.355  1.00  0.00     0.159 A 
ATOM     28  C   UNL     1      48.714 129.365  14.042  1.00  0.00     0.127 A 
ATOM     29  C   UNL     1      47.602 130.774  12.418  1.00  0.00     0.168 A 
ATOM     30  C   UNL     1      48.653 129.922  12.763  1.00  0.00     0.082 A 
ATOM     31  F   UNL     1      49.736 128.538  14.372  1.00  0.00    -0.207 F 
ATOM     32  F   UNL     1      47.565 131.314  11.175  1.00  0.00    -0.203 F 
BRANCH  27  33
ATOM     33  O   UNL     1      45.567 131.953  13.018  1.00  0.00    -0.504 OA
ATOM     34  H   UNL     1      44.924 131.760  12.259  1.00  0.00     0.293 HD
ENDBRANCH  27  33
ENDBRANCH  24  25
ENDBRANCH   4  19
TORSDOF 7
ENDMDL


