MODEL 1
REMARK VINA RESULT:      -8.0      0.000      0.000
REMARK SMILES Cc1cc(C#N)ccc1C(=O)N[C@H]1CC12CCC2
REMARK SMILES IDX 1 1 2 2 3 3 4 4 7 5 8 6 9 7 10 8 12 9 11 10 13 12 14 13
REMARK SMILES IDX 15 14 16 15 18 16 17 17 5 18 6 19
REMARK H PARENT 12 11
ROOT
ATOM      1  C   UNL     1      42.389 132.038  18.475  1.00  0.00     0.045 C 
ATOM      2  C   UNL     1      43.271 131.748  19.661  1.00  0.00    -0.037 A 
ATOM      3  C   UNL     1      42.699 131.755  20.946  1.00  0.00     0.023 A 
ATOM      4  C   UNL     1      43.484 131.514  22.078  1.00  0.00     0.052 A 
ATOM      5  C   UNL     1      44.849 131.256  21.935  1.00  0.00     0.020 A 
ATOM      6  C   UNL     1      45.429 131.231  20.666  1.00  0.00     0.015 A 
ATOM      7  C   UNL     1      44.655 131.467  19.516  1.00  0.00     0.042 A 
ENDROOT
BRANCH   7   8
ATOM      8  C   UNL     1      45.314 131.395  18.190  1.00  0.00     0.251 C 
ATOM      9  N   UNL     1      45.808 130.142  17.693  1.00  0.00    -0.349 N 
ATOM     10  O   UNL     1      45.418 132.432  17.480  1.00  0.00    -0.269 OA
ATOM     11  H   UNL     1      45.884 129.325  18.339  1.00  0.00     0.164 HD
BRANCH   9  12
ATOM     12  C   UNL     1      46.343 130.019  16.341  1.00  0.00     0.089 C 
ATOM     13  C   UNL     1      45.647 128.954  15.482  1.00  0.00     0.034 C 
ATOM     14  C   UNL     1      45.351 130.434  15.278  1.00  0.00    -0.007 C 
ATOM     15  C   UNL     1      45.585 130.998  13.907  1.00  0.00     0.009 C 
ATOM     16  C   UNL     1      43.912 130.862  15.360  1.00  0.00     0.009 C 
ATOM     17  C   UNL     1      44.111 131.456  13.950  1.00  0.00     0.001 C 
ENDBRANCH   9  12
ENDBRANCH   7   8
BRANCH   4  18
ATOM     18  C   UNL     1      42.888 131.531  23.387  1.00  0.00     0.099 C 
ATOM     19  N   UNL     1      42.407 131.544  24.441  1.00  0.00    -0.192 NA
ENDBRANCH   4  18
TORSDOF 3
ENDMDL
MODEL 2
REMARK VINA RESULT:      -7.5      1.347      2.385
REMARK SMILES Cc1cc(C#N)ccc1C(=O)N[C@H]1CC12CCC2
REMARK SMILES IDX 1 1 2 2 3 3 4 4 7 5 8 6 9 7 10 8 12 9 11 10 13 12 14 13
REMARK SMILES IDX 15 14 16 15 18 16 17 17 5 18 6 19
REMARK H PARENT 12 11
ROOT
ATOM      1  C   UNL     1      45.850 130.551  19.394  1.00  0.00     0.045 C 
ATOM      2  C   UNL     1      44.622 131.167  20.014  1.00  0.00    -0.037 A 
ATOM      3  C   UNL     1      44.491 131.151  21.415  1.00  0.00     0.023 A 
ATOM      4  C   UNL     1      43.358 131.689  22.032  1.00  0.00     0.052 A 
ATOM      5  C   UNL     1      42.347 132.257  21.255  1.00  0.00     0.020 A 
ATOM      6  C   UNL     1      42.467 132.294  19.864  1.00  0.00     0.015 A 
ATOM      7  C   UNL     1      43.601 131.761  19.226  1.00  0.00     0.042 A 
ENDROOT
BRANCH   7   8
ATOM      8  C   UNL     1      43.695 131.857  17.749  1.00  0.00     0.251 C 
ATOM      9  N   UNL     1      44.971 132.005  17.112  1.00  0.00    -0.349 N 
ATOM     10  O   UNL     1      42.651 131.780  17.045  1.00  0.00    -0.269 OA
ATOM     11  H   UNL     1      45.810 132.245  17.687  1.00  0.00     0.164 HD
BRANCH   9  12
ATOM     12  C   UNL     1      45.104 131.973  15.659  1.00  0.00     0.089 C 
ATOM     13  C   UNL     1      46.488 132.389  15.143  1.00  0.00     0.034 C 
ATOM     14  C   UNL     1      46.082 130.921  15.184  1.00  0.00    -0.007 C 
ATOM     15  C   UNL     1      46.128 130.161  13.891  1.00  0.00     0.009 C 
ATOM     16  C   UNL     1      46.986 129.980  15.930  1.00  0.00     0.009 C 
ATOM     17  C   UNL     1      47.059 129.168  14.620  1.00  0.00     0.001 C 
ENDBRANCH   9  12
ENDBRANCH   7   8
BRANCH   4  18
ATOM     18  C   UNL     1      43.234 131.660  23.465  1.00  0.00     0.099 C 
ATOM     19  N   UNL     1      43.136 131.637  24.619  1.00  0.00    -0.192 NA
ENDBRANCH   4  18
TORSDOF 3
ENDMDL
MODEL 3
REMARK VINA RESULT:      -7.3      1.945      6.887
REMARK SMILES Cc1cc(C#N)ccc1C(=O)N[C@H]1CC12CCC2
REMARK SMILES IDX 1 1 2 2 3 3 4 4 7 5 8 6 9 7 10 8 12 9 11 10 13 12 14 13
REMARK SMILES IDX 15 14 16 15 18 16 17 17 5 18 6 19
REMARK H PARENT 12 11
ROOT
ATOM      1  C   UNL     1      43.518 131.870  14.612  1.00  0.00     0.045 C 
ATOM      2  C   UNL     1      44.745 131.191  15.162  1.00  0.00    -0.037 A 
ATOM      3  C   UNL     1      45.727 130.737  14.263  1.00  0.00     0.023 A 
ATOM      4  C   UNL     1      46.872 130.081  14.727  1.00  0.00     0.052 A 
ATOM      5  C   UNL     1      47.050 129.880  16.096  1.00  0.00     0.020 A 
ATOM      6  C   UNL     1      46.093 130.337  17.004  1.00  0.00     0.015 A 
ATOM      7  C   UNL     1      44.937 131.002  16.556  1.00  0.00     0.042 A 
ENDROOT
BRANCH   7   8
ATOM      8  C   UNL     1      43.969 131.497  17.564  1.00  0.00     0.251 C 
ATOM      9  N   UNL     1      44.339 131.576  18.948  1.00  0.00    -0.349 N 
ATOM     10  O   UNL     1      42.823 131.879  17.202  1.00  0.00    -0.269 OA
ATOM     11  H   UNL     1      45.210 131.102  19.276  1.00  0.00     0.164 HD
BRANCH   9  12
ATOM     12  C   UNL     1      43.453 132.179  19.939  1.00  0.00     0.089 C 
ATOM     13  C   UNL     1      42.340 131.248  20.439  1.00  0.00     0.034 C 
ATOM     14  C   UNL     1      43.567 131.527  21.299  1.00  0.00    -0.007 C 
ATOM     15  C   UNL     1      43.331 132.100  22.665  1.00  0.00     0.009 C 
ATOM     16  C   UNL     1      44.351 130.339  21.780  1.00  0.00     0.009 C 
ATOM     17  C   UNL     1      44.131 130.894  23.203  1.00  0.00     0.001 C 
ENDBRANCH   9  12
ENDBRANCH   7   8
BRANCH   4  18
ATOM     18  C   UNL     1      47.864 129.616  13.795  1.00  0.00     0.099 C 
ATOM     19  N   UNL     1      48.664 129.241  13.045  1.00  0.00    -0.192 NA
ENDBRANCH   4  18
TORSDOF 3
ENDMDL
MODEL 4
REMARK VINA RESULT:      -6.9      1.494      2.139
REMARK SMILES Cc1cc(C#N)ccc1C(=O)N[C@H]1CC12CCC2
REMARK SMILES IDX 1 1 2 2 3 3 4 4 7 5 8 6 9 7 10 8 12 9 11 10 13 12 14 13
REMARK SMILES IDX 15 14 16 15 18 16 17 17 5 18 6 19
REMARK H PARENT 12 11
ROOT
ATOM      1  C   UNL     1      41.812 132.319  18.863  1.00  0.00     0.045 C 
ATOM      2  C   UNL     1      43.079 131.848  19.528  1.00  0.00    -0.037 A 
ATOM      3  C   UNL     1      43.095 131.705  20.928  1.00  0.00     0.023 A 
ATOM      4  C   UNL     1      44.256 131.293  21.590  1.00  0.00     0.052 A 
ATOM      5  C   UNL     1      45.411 131.011  20.858  1.00  0.00     0.020 A 
ATOM      6  C   UNL     1      45.408 131.134  19.467  1.00  0.00     0.015 A 
ATOM      7  C   UNL     1      44.249 131.544  18.783  1.00  0.00     0.042 A 
ENDROOT
BRANCH   7   8
ATOM      8  C   UNL     1      44.290 131.624  17.303  1.00  0.00     0.251 C 
ATOM      9  N   UNL     1      45.543 131.555  16.608  1.00  0.00    -0.349 N 
ATOM     10  O   UNL     1      43.217 131.726  16.648  1.00  0.00    -0.269 OA
ATOM     11  H   UNL     1      46.435 131.649  17.142  1.00  0.00     0.164 HD
BRANCH   9  12
ATOM     12  C   UNL     1      45.601 131.502  15.150  1.00  0.00     0.089 C 
ATOM     13  C   UNL     1      46.837 132.181  14.544  1.00  0.00     0.034 C 
ATOM     14  C   UNL     1      46.751 130.663  14.641  1.00  0.00    -0.007 C 
ATOM     15  C   UNL     1      46.887 129.885  13.365  1.00  0.00     0.009 C 
ATOM     16  C   UNL     1      47.871 129.957  15.353  1.00  0.00     0.009 C 
ATOM     17  C   UNL     1      48.044 129.135  14.058  1.00  0.00     0.001 C 
ENDBRANCH   9  12
ENDBRANCH   7   8
BRANCH   4  18
ATOM     18  C   UNL     1      44.260 131.157  23.022  1.00  0.00     0.099 C 
ATOM     19  N   UNL     1      44.264 131.049  24.175  1.00  0.00    -0.192 NA
ENDBRANCH   4  18
TORSDOF 3
ENDMDL
MODEL 5
REMARK VINA RESULT:      -6.8      1.939      6.989
REMARK SMILES Cc1cc(C#N)ccc1C(=O)N[C@H]1CC12CCC2
REMARK SMILES IDX 1 1 2 2 3 3 4 4 7 5 8 6 9 7 10 8 12 9 11 10 13 12 14 13
REMARK SMILES IDX 15 14 16 15 18 16 17 17 5 18 6 19
REMARK H PARENT 12 11
ROOT
ATOM      1  C   UNL     1      46.057 130.182  18.764  1.00  0.00     0.045 C 
ATOM      2  C   UNL     1      45.641 130.678  17.404  1.00  0.00    -0.037 A 
ATOM      3  C   UNL     1      46.474 130.406  16.302  1.00  0.00     0.023 A 
ATOM      4  C   UNL     1      46.139 130.867  15.024  1.00  0.00     0.052 A 
ATOM      5  C   UNL     1      44.964 131.597  14.834  1.00  0.00     0.020 A 
ATOM      6  C   UNL     1      44.120 131.862  15.914  1.00  0.00     0.015 A 
ATOM      7  C   UNL     1      44.438 131.404  17.205  1.00  0.00     0.042 A 
ENDROOT
BRANCH   7   8
ATOM      8  C   UNL     1      43.489 131.684  18.310  1.00  0.00     0.251 C 
ATOM      9  N   UNL     1      43.949 131.720  19.669  1.00  0.00    -0.349 N 
ATOM     10  O   UNL     1      42.277 131.919  18.056  1.00  0.00    -0.269 OA
ATOM     11  H   UNL     1      44.901 131.356  19.901  1.00  0.00     0.164 HD
BRANCH   9  12
ATOM     12  C   UNL     1      43.067 132.119  20.760  1.00  0.00     0.089 C 
ATOM     13  C   UNL     1      42.196 130.983  21.314  1.00  0.00     0.034 C 
ATOM     14  C   UNL     1      43.426 131.462  22.074  1.00  0.00    -0.007 C 
ATOM     15  C   UNL     1      43.220 131.942  23.480  1.00  0.00     0.009 C 
ATOM     16  C   UNL     1      44.458 130.428  22.430  1.00  0.00     0.009 C 
ATOM     17  C   UNL     1      44.276 130.892  23.890  1.00  0.00     0.001 C 
ENDBRANCH   9  12
ENDBRANCH   7   8
BRANCH   4  18
ATOM     18  C   UNL     1      47.003 130.588  13.908  1.00  0.00     0.099 C 
ATOM     19  N   UNL     1      47.699 130.364  13.010  1.00  0.00    -0.192 NA
ENDBRANCH   4  18
TORSDOF 3
ENDMDL
MODEL 6
REMARK VINA RESULT:      -6.6      1.141      1.767
REMARK SMILES Cc1cc(C#N)ccc1C(=O)N[C@H]1CC12CCC2
REMARK SMILES IDX 1 1 2 2 3 3 4 4 7 5 8 6 9 7 10 8 12 9 11 10 13 12 14 13
REMARK SMILES IDX 15 14 16 15 18 16 17 17 5 18 6 19
REMARK H PARENT 12 11
ROOT
ATOM      1  C   UNL     1      41.928 132.318  18.535  1.00  0.00     0.045 C 
ATOM      2  C   UNL     1      42.950 131.770  19.497  1.00  0.00    -0.037 A 
ATOM      3  C   UNL     1      42.538 131.428  20.799  1.00  0.00     0.023 A 
ATOM      4  C   UNL     1      43.457 130.937  21.732  1.00  0.00     0.052 A 
ATOM      5  C   UNL     1      44.796 130.775  21.371  1.00  0.00     0.020 A 
ATOM      6  C   UNL     1      45.218 131.095  20.079  1.00  0.00     0.015 A 
ATOM      7  C   UNL     1      44.308 131.587  19.126  1.00  0.00     0.042 A 
ENDROOT
BRANCH   7   8
ATOM      8  C   UNL     1      44.802 131.878  17.758  1.00  0.00     0.251 C 
ATOM      9  N   UNL     1      44.472 131.008  16.667  1.00  0.00    -0.349 N 
ATOM     10  O   UNL     1      45.493 132.912  17.545  1.00  0.00    -0.269 OA
ATOM     11  H   UNL     1      44.056 130.070  16.864  1.00  0.00     0.164 HD
BRANCH   9  12
ATOM     12  C   UNL     1      44.835 131.339  15.293  1.00  0.00     0.089 C 
ATOM     13  C   UNL     1      46.101 132.197  15.165  1.00  0.00     0.034 C 
ATOM     14  C   UNL     1      46.138 130.704  14.863  1.00  0.00    -0.007 C 
ATOM     15  C   UNL     1      46.606 130.292  13.498  1.00  0.00     0.009 C 
ATOM     16  C   UNL     1      47.148 129.879  15.610  1.00  0.00     0.009 C 
ATOM     17  C   UNL     1      47.660 129.430  14.225  1.00  0.00     0.001 C 
ENDBRANCH   9  12
ENDBRANCH   7   8
BRANCH   4  18
ATOM     18  C   UNL     1      43.024 130.599  23.061  1.00  0.00     0.099 C 
ATOM     19  N   UNL     1      42.674 130.326  24.131  1.00  0.00    -0.192 NA
ENDBRANCH   4  18
TORSDOF 3
ENDMDL
MODEL 7
REMARK VINA RESULT:      -6.5      2.130      6.989
REMARK SMILES Cc1cc(C#N)ccc1C(=O)N[C@H]1CC12CCC2
REMARK SMILES IDX 1 1 2 2 3 3 4 4 7 5 8 6 9 7 10 8 12 9 11 10 13 12 14 13
REMARK SMILES IDX 15 14 16 15 18 16 17 17 5 18 6 19
REMARK H PARENT 12 11
ROOT
ATOM      1  C   UNL     1      45.936 130.045  18.020  1.00  0.00     0.045 C 
ATOM      2  C   UNL     1      45.955 130.348  16.544  1.00  0.00    -0.037 A 
ATOM      3  C   UNL     1      47.012 129.844  15.764  1.00  0.00     0.023 A 
ATOM      4  C   UNL     1      47.084 130.120  14.395  1.00  0.00     0.052 A 
ATOM      5  C   UNL     1      46.094 130.896  13.790  1.00  0.00     0.020 A 
ATOM      6  C   UNL     1      45.030 131.392  14.546  1.00  0.00     0.015 A 
ATOM      7  C   UNL     1      44.940 131.122  15.923  1.00  0.00     0.042 A 
ENDROOT
BRANCH   7   8
ATOM      8  C   UNL     1      43.771 131.644  16.673  1.00  0.00     0.251 C 
ATOM      9  N   UNL     1      43.822 131.765  18.102  1.00  0.00    -0.349 N 
ATOM     10  O   UNL     1      42.737 132.011  16.052  1.00  0.00    -0.269 OA
ATOM     11  H   UNL     1      44.595 131.305  18.631  1.00  0.00     0.164 HD
BRANCH   9  12
ATOM     12  C   UNL     1      42.738 132.394  18.850  1.00  0.00     0.089 C 
ATOM     13  C   UNL     1      41.642 131.423  19.309  1.00  0.00     0.034 C 
ATOM     14  C   UNL     1      42.684 131.943  20.292  1.00  0.00    -0.007 C 
ATOM     15  C   UNL     1      42.180 132.660  21.510  1.00  0.00     0.009 C 
ATOM     16  C   UNL     1      43.478 130.918  21.054  1.00  0.00     0.009 C 
ATOM     17  C   UNL     1      42.982 131.628  22.332  1.00  0.00     0.001 C 
ENDBRANCH   9  12
ENDBRANCH   7   8
BRANCH   4  18
ATOM     18  C   UNL     1      48.174 129.603  13.611  1.00  0.00     0.099 C 
ATOM     19  N   UNL     1      49.052 129.188  12.980  1.00  0.00    -0.192 NA
ENDBRANCH   4  18
TORSDOF 3
ENDMDL
MODEL 8
REMARK VINA RESULT:      -6.4      0.420      1.659
REMARK SMILES Cc1cc(C#N)ccc1C(=O)N[C@H]1CC12CCC2
REMARK SMILES IDX 1 1 2 2 3 3 4 4 7 5 8 6 9 7 10 8 12 9 11 10 13 12 14 13
REMARK SMILES IDX 15 14 16 15 18 16 17 17 5 18 6 19
REMARK H PARENT 12 11
ROOT
ATOM      1  C   UNL     1      46.791 131.235  20.668  1.00  0.00     0.045 C 
ATOM      2  C   UNL     1      45.299 131.439  20.642  1.00  0.00    -0.037 A 
ATOM      3  C   UNL     1      44.610 131.551  21.864  1.00  0.00     0.023 A 
ATOM      4  C   UNL     1      43.222 131.718  21.888  1.00  0.00     0.052 A 
ATOM      5  C   UNL     1      42.509 131.783  20.690  1.00  0.00     0.020 A 
ATOM      6  C   UNL     1      43.178 131.689  19.469  1.00  0.00     0.015 A 
ATOM      7  C   UNL     1      44.574 131.524  19.424  1.00  0.00     0.042 A 
ENDROOT
BRANCH   7   8
ATOM      8  C   UNL     1      45.239 131.464  18.100  1.00  0.00     0.251 C 
ATOM      9  N   UNL     1      45.785 130.228  17.619  1.00  0.00    -0.349 N 
ATOM     10  O   UNL     1      45.302 132.497  17.379  1.00  0.00    -0.269 OA
ATOM     11  H   UNL     1      45.894 129.422  18.275  1.00  0.00     0.164 HD
BRANCH   9  12
ATOM     12  C   UNL     1      46.329 130.111  16.269  1.00  0.00     0.089 C 
ATOM     13  C   UNL     1      45.670 129.018  15.417  1.00  0.00     0.034 C 
ATOM     14  C   UNL     1      45.328 130.487  15.200  1.00  0.00    -0.007 C 
ATOM     15  C   UNL     1      45.549 131.047  13.826  1.00  0.00     0.009 C 
ATOM     16  C   UNL     1      43.876 130.870  15.275  1.00  0.00     0.009 C 
ATOM     17  C   UNL     1      44.061 131.460  13.860  1.00  0.00     0.001 C 
ENDBRANCH   9  12
ENDBRANCH   7   8
BRANCH   4  18
ATOM     18  C   UNL     1      42.530 131.824  23.145  1.00  0.00     0.099 C 
ATOM     19  N   UNL     1      41.973 131.910  24.157  1.00  0.00    -0.192 NA
ENDBRANCH   4  18
TORSDOF 3
ENDMDL
MODEL 9
REMARK VINA RESULT:      -6.4      1.309      2.314
REMARK SMILES Cc1cc(C#N)ccc1C(=O)N[C@H]1CC12CCC2
REMARK SMILES IDX 1 1 2 2 3 3 4 4 7 5 8 6 9 7 10 8 12 9 11 10 13 12 14 13
REMARK SMILES IDX 15 14 16 15 18 16 17 17 5 18 6 19
REMARK H PARENT 12 11
ROOT
ATOM      1  C   UNL     1      46.030 130.436  19.058  1.00  0.00     0.045 C 
ATOM      2  C   UNL     1      44.843 131.052  19.753  1.00  0.00    -0.037 A 
ATOM      3  C   UNL     1      44.878 131.193  21.152  1.00  0.00     0.023 A 
ATOM      4  C   UNL     1      43.789 131.737  21.841  1.00  0.00     0.052 A 
ATOM      5  C   UNL     1      42.658 132.153  21.137  1.00  0.00     0.020 A 
ATOM      6  C   UNL     1      42.613 132.033  19.746  1.00  0.00     0.015 A 
ATOM      7  C   UNL     1      43.699 131.492  19.036  1.00  0.00     0.042 A 
ENDROOT
BRANCH   7   8
ATOM      8  C   UNL     1      43.614 131.419  17.557  1.00  0.00     0.251 C 
ATOM      9  N   UNL     1      44.589 130.676  16.811  1.00  0.00    -0.349 N 
ATOM     10  O   UNL     1      42.666 131.988  16.952  1.00  0.00    -0.269 OA
ATOM     11  H   UNL     1      45.464 130.355  17.282  1.00  0.00     0.164 HD
BRANCH   9  12
ATOM     12  C   UNL     1      44.456 130.481  15.371  1.00  0.00     0.089 C 
ATOM     13  C   UNL     1      44.262 131.778  14.574  1.00  0.00     0.034 C 
ATOM     14  C   UNL     1      45.611 131.069  14.591  1.00  0.00    -0.007 C 
ATOM     15  C   UNL     1      46.189 130.662  13.268  1.00  0.00     0.009 C 
ATOM     16  C   UNL     1      46.803 131.877  15.020  1.00  0.00     0.009 C 
ATOM     17  C   UNL     1      47.435 131.481  13.669  1.00  0.00     0.001 C 
ENDBRANCH   9  12
ENDBRANCH   7   8
BRANCH   4  18
ATOM     18  C   UNL     1      43.835 131.870  23.273  1.00  0.00     0.099 C 
ATOM     19  N   UNL     1      43.872 131.978  24.426  1.00  0.00    -0.192 NA
ENDBRANCH   4  18
TORSDOF 3
ENDMDL


