MODEL 1
REMARK VINA RESULT:      -9.2      0.000      0.000
REMARK SMILES N#Cc1[nH+]c2cnc(/N=C3\[CH]C=CC3)cc2cc1-c1ccc([O-])cc1
REMARK SMILES IDX 8 1 7 2 6 3 5 4 16 5 15 6 17 7 18 8 3 9 4 10 9 12 10 13
REMARK SMILES IDX 11 14 12 15 13 16 14 17 19 18 20 19 25 20 21 21 24 22 22 23
REMARK SMILES IDX 23 24 2 25 1 26
REMARK H PARENT 4 11
ROOT
ATOM      1  C   UNL     1      43.650 131.772  20.987  1.00  0.00     0.152 A 
ATOM      2  N   UNL     1      42.433 132.171  20.528  1.00  0.00    -0.230 NA
ATOM      3  C   UNL     1      42.143 132.236  19.201  1.00  0.00     0.193 A 
ATOM      4  C   UNL     1      43.107 131.868  18.252  1.00  0.00     0.230 A 
ATOM      5  C   UNL     1      44.365 131.424  18.698  1.00  0.00     0.052 A 
ATOM      6  C   UNL     1      44.635 131.365  20.071  1.00  0.00     0.064 A 
ATOM      7  C   UNL     1      45.323 131.041  17.754  1.00  0.00     0.031 A 
ATOM      8  C   UNL     1      45.031 131.101  16.384  1.00  0.00     0.066 A 
ATOM      9  C   UNL     1      43.758 131.566  15.980  1.00  0.00     0.290 A 
ATOM     10  N   UNL     1      42.835 131.931  16.917  1.00  0.00    -0.194 N 
ATOM     11  H   UNL     1      41.899 132.273  16.600  1.00  0.00     0.455 HD
ENDROOT
BRANCH   1  12
ATOM     12  N   UNL     1      43.858 131.699  22.407  1.00  0.00    -0.237 NA
BRANCH  12  13
ATOM     13  C   UNL     1      43.686 130.653  23.162  1.00  0.00     0.032 C 
ATOM     14  C   UNL     1      42.590 130.473  24.160  1.00  0.00     0.069 C 
ATOM     15  C   UNL     1      42.838 129.079  24.624  1.00  0.00    -0.020 C 
ATOM     16  C   UNL     1      43.879 128.518  24.014  1.00  0.00    -0.025 C 
ATOM     17  C   UNL     1      44.522 129.430  23.029  1.00  0.00     0.079 C 
ENDBRANCH  12  13
ENDBRANCH   1  12
BRANCH   8  18
ATOM     18  C   UNL     1      46.065 130.677  15.408  1.00  0.00    -0.011 A 
ATOM     19  C   UNL     1      46.620 131.603  14.506  1.00  0.00     0.008 A 
ATOM     20  C   UNL     1      46.476 129.334  15.352  1.00  0.00     0.008 A 
ATOM     21  C   UNL     1      47.583 131.193  13.579  1.00  0.00    -0.008 A 
ATOM     22  C   UNL     1      47.440 128.929  14.423  1.00  0.00    -0.008 A 
ATOM     23  C   UNL     1      47.994 129.857  13.538  1.00  0.00    -0.109 A 
ATOM     24  O   UNL     1      48.952 129.452  12.616  1.00  0.00    -0.872 OA
ENDBRANCH   8  18
BRANCH   9  25
ATOM     25  C   UNL     1      43.424 131.708  14.582  1.00  0.00     0.170 C 
ATOM     26  N   UNL     1      43.154 131.823  13.462  1.00  0.00    -0.186 NA
ENDBRANCH   9  25
TORSDOF 4
ENDMDL
MODEL 2
REMARK VINA RESULT:      -8.5      0.266      1.265
REMARK SMILES N#Cc1[nH+]c2cnc(/N=C3\[CH]C=CC3)cc2cc1-c1ccc([O-])cc1
REMARK SMILES IDX 8 1 7 2 6 3 5 4 16 5 15 6 17 7 18 8 3 9 4 10 9 12 10 13
REMARK SMILES IDX 11 14 12 15 13 16 14 17 19 18 20 19 25 20 21 21 24 22 22 23
REMARK SMILES IDX 23 24 2 25 1 26
REMARK H PARENT 4 11
ROOT
ATOM      1  C   UNL     1      43.775 131.789  20.815  1.00  0.00     0.152 A 
ATOM      2  N   UNL     1      42.559 132.193  20.359  1.00  0.00    -0.230 NA
ATOM      3  C   UNL     1      42.261 132.247  19.034  1.00  0.00     0.193 A 
ATOM      4  C   UNL     1      43.216 131.864  18.083  1.00  0.00     0.230 A 
ATOM      5  C   UNL     1      44.474 131.415  18.524  1.00  0.00     0.052 A 
ATOM      6  C   UNL     1      44.752 131.367  19.896  1.00  0.00     0.064 A 
ATOM      7  C   UNL     1      45.423 131.017  17.579  1.00  0.00     0.031 A 
ATOM      8  C   UNL     1      45.123 131.065  16.210  1.00  0.00     0.066 A 
ATOM      9  C   UNL     1      43.850 131.535  15.809  1.00  0.00     0.290 A 
ATOM     10  N   UNL     1      42.936 131.916  16.749  1.00  0.00    -0.194 N 
ATOM     11  H   UNL     1      42.000 132.262  16.435  1.00  0.00     0.455 HD
ENDROOT
BRANCH   1  12
ATOM     12  N   UNL     1      43.993 131.729  22.234  1.00  0.00    -0.237 NA
BRANCH  12  13
ATOM     13  C   UNL     1      43.696 130.736  23.021  1.00  0.00     0.032 C 
ATOM     14  C   UNL     1      44.625 129.638  23.423  1.00  0.00     0.069 C 
ATOM     15  C   UNL     1      43.783 128.879  24.392  1.00  0.00    -0.020 C 
ATOM     16  C   UNL     1      42.580 129.421  24.553  1.00  0.00    -0.025 C 
ATOM     17  C   UNL     1      42.389 130.643  23.724  1.00  0.00     0.079 C 
ENDBRANCH  12  13
ENDBRANCH   1  12
BRANCH   8  18
ATOM     18  C   UNL     1      46.147 130.625  15.231  1.00  0.00    -0.011 A 
ATOM     19  C   UNL     1      46.602 129.295  15.220  1.00  0.00     0.008 A 
ATOM     20  C   UNL     1      46.699 131.547  14.324  1.00  0.00     0.008 A 
ATOM     21  C   UNL     1      47.578 128.891  14.304  1.00  0.00    -0.008 A 
ATOM     22  C   UNL     1      47.675 131.139  13.409  1.00  0.00    -0.008 A 
ATOM     23  C   UNL     1      48.114 129.811  13.398  1.00  0.00    -0.109 A 
ATOM     24  O   UNL     1      49.084 129.408  12.488  1.00  0.00    -0.872 OA
ENDBRANCH   8  18
BRANCH   9  25
ATOM     25  C   UNL     1      43.507 131.667  14.412  1.00  0.00     0.170 C 
ATOM     26  N   UNL     1      43.231 131.772  13.293  1.00  0.00    -0.186 NA
ENDBRANCH   9  25
TORSDOF 4
ENDMDL
MODEL 3
REMARK VINA RESULT:      -7.8      0.627      1.173
REMARK SMILES N#Cc1[nH+]c2cnc(/N=C3\[CH]C=CC3)cc2cc1-c1ccc([O-])cc1
REMARK SMILES IDX 8 1 7 2 6 3 5 4 16 5 15 6 17 7 18 8 3 9 4 10 9 12 10 13
REMARK SMILES IDX 11 14 12 15 13 16 14 17 19 18 20 19 25 20 21 21 24 22 22 23
REMARK SMILES IDX 23 24 2 25 1 26
REMARK H PARENT 4 11
ROOT
ATOM      1  C   UNL     1      44.077 131.082  21.214  1.00  0.00     0.152 A 
ATOM      2  N   UNL     1      42.865 131.597  20.869  1.00  0.00    -0.230 NA
ATOM      3  C   UNL     1      42.523 131.845  19.578  1.00  0.00     0.193 A 
ATOM      4  C   UNL     1      43.422 131.555  18.543  1.00  0.00     0.230 A 
ATOM      5  C   UNL     1      44.672 130.995  18.866  1.00  0.00     0.052 A 
ATOM      6  C   UNL     1      44.998 130.748  20.206  1.00  0.00     0.064 A 
ATOM      7  C   UNL     1      45.566 130.690  17.836  1.00  0.00     0.031 A 
ATOM      8  C   UNL     1      45.219 130.938  16.500  1.00  0.00     0.066 A 
ATOM      9  C   UNL     1      43.957 131.514  16.221  1.00  0.00     0.290 A 
ATOM     10  N   UNL     1      43.097 131.801  17.242  1.00  0.00    -0.194 N 
ATOM     11  H   UNL     1      42.168 132.227  17.017  1.00  0.00     0.455 HD
ENDROOT
BRANCH   1  12
ATOM     12  N   UNL     1      44.343 130.819  22.601  1.00  0.00    -0.237 NA
BRANCH  12  13
ATOM     13  C   UNL     1      44.154 129.692  23.225  1.00  0.00     0.032 C 
ATOM     14  C   UNL     1      43.280 129.496  24.419  1.00  0.00     0.069 C 
ATOM     15  C   UNL     1      43.373 128.021  24.615  1.00  0.00    -0.020 C 
ATOM     16  C   UNL     1      44.147 127.435  23.705  1.00  0.00    -0.025 C 
ATOM     17  C   UNL     1      44.717 128.407  22.731  1.00  0.00     0.079 C 
ENDBRANCH  12  13
ENDBRANCH   1  12
BRANCH   8  18
ATOM     18  C   UNL     1      46.184 130.592  15.427  1.00  0.00    -0.011 A 
ATOM     19  C   UNL     1      46.944 129.411  15.502  1.00  0.00     0.008 A 
ATOM     20  C   UNL     1      46.373 131.463  14.340  1.00  0.00     0.008 A 
ATOM     21  C   UNL     1      47.862 129.099  14.494  1.00  0.00    -0.008 A 
ATOM     22  C   UNL     1      47.293 131.147  13.335  1.00  0.00    -0.008 A 
ATOM     23  C   UNL     1      48.036 129.966  13.410  1.00  0.00    -0.109 A 
ATOM     24  O   UNL     1      48.949 129.654  12.410  1.00  0.00    -0.872 OA
ENDBRANCH   8  18
BRANCH   9  25
ATOM     25  C   UNL     1      43.570 131.850  14.871  1.00  0.00     0.170 C 
ATOM     26  N   UNL     1      43.262 132.119  13.788  1.00  0.00    -0.186 NA
ENDBRANCH   9  25
TORSDOF 4
ENDMDL
MODEL 4
REMARK VINA RESULT:      -7.7      0.652      1.084
REMARK SMILES N#Cc1[nH+]c2cnc(/N=C3\[CH]C=CC3)cc2cc1-c1ccc([O-])cc1
REMARK SMILES IDX 8 1 7 2 6 3 5 4 16 5 15 6 17 7 18 8 3 9 4 10 9 12 10 13
REMARK SMILES IDX 11 14 12 15 13 16 14 17 19 18 20 19 25 20 21 21 24 22 22 23
REMARK SMILES IDX 23 24 2 25 1 26
REMARK H PARENT 4 11
ROOT
ATOM      1  C   UNL     1      44.227 131.116  21.039  1.00  0.00     0.152 A 
ATOM      2  N   UNL     1      43.025 131.651  20.692  1.00  0.00    -0.230 NA
ATOM      3  C   UNL     1      42.683 131.892  19.399  1.00  0.00     0.193 A 
ATOM      4  C   UNL     1      43.574 131.573  18.365  1.00  0.00     0.230 A 
ATOM      5  C   UNL     1      44.814 130.993  18.690  1.00  0.00     0.052 A 
ATOM      6  C   UNL     1      45.139 130.754  20.032  1.00  0.00     0.064 A 
ATOM      7  C   UNL     1      45.698 130.659  17.661  1.00  0.00     0.031 A 
ATOM      8  C   UNL     1      45.353 130.900  16.324  1.00  0.00     0.066 A 
ATOM      9  C   UNL     1      44.101 131.497  16.042  1.00  0.00     0.290 A 
ATOM     10  N   UNL     1      43.250 131.812  17.062  1.00  0.00    -0.194 N 
ATOM     11  H   UNL     1      42.329 132.254  16.835  1.00  0.00     0.455 HD
ENDROOT
BRANCH   1  12
ATOM     12  N   UNL     1      44.491 130.863  22.428  1.00  0.00    -0.237 NA
BRANCH  12  13
ATOM     13  C   UNL     1      44.366 129.723  23.044  1.00  0.00     0.032 C 
ATOM     14  C   UNL     1      45.162 128.491  22.764  1.00  0.00     0.069 C 
ATOM     15  C   UNL     1      44.666 127.570  23.825  1.00  0.00    -0.020 C 
ATOM     16  C   UNL     1      43.752 128.140  24.606  1.00  0.00    -0.025 C 
ATOM     17  C   UNL     1      43.465 129.547  24.214  1.00  0.00     0.079 C 
ENDBRANCH  12  13
ENDBRANCH   1  12
BRANCH   8  18
ATOM     18  C   UNL     1      46.308 130.524  15.252  1.00  0.00    -0.011 A 
ATOM     19  C   UNL     1      46.675 131.453  14.262  1.00  0.00     0.008 A 
ATOM     20  C   UNL     1      46.831 129.220  15.198  1.00  0.00     0.008 A 
ATOM     21  C   UNL     1      47.565 131.087  13.248  1.00  0.00    -0.008 A 
ATOM     22  C   UNL     1      47.720 128.859  14.182  1.00  0.00    -0.008 A 
ATOM     23  C   UNL     1      48.089 129.791  13.207  1.00  0.00    -0.109 A 
ATOM     24  O   UNL     1      48.973 129.430  12.198  1.00  0.00    -0.872 OA
ENDBRANCH   8  18
BRANCH   9  25
ATOM     25  C   UNL     1      43.718 131.826  14.689  1.00  0.00     0.170 C 
ATOM     26  N   UNL     1      43.409 132.089  13.605  1.00  0.00    -0.186 NA
ENDBRANCH   9  25
TORSDOF 4
ENDMDL


