REMARK SMILES C/C(O)=C1/CC[C@H](c2cc3ccccc3[nH]2)C[N@H+]1C(=O)c1ncn[nH]1
REMARK SMILES IDX 4 1 5 2 6 3 7 4 17 5 18 6 2 8 1 9 3 10 19 12 20 13 21 14
REMARK SMILES IDX 22 15 25 16 23 17 24 18 8 20 9 21 16 22 10 23 15 24 11 25
REMARK SMILES IDX 14 26 12 27 13 28
REMARK H PARENT 18 7 3 11 25 19 16 29
ROOT
ATOM      1  C   UNL     1      -2.181  -0.945  -1.244  1.00  0.00     0.152 C 
ATOM      2  C   UNL     1      -1.223  -0.703  -2.407  1.00  0.00     0.102 C 
ATOM      3  C   UNL     1       0.247  -0.666  -1.990  1.00  0.00     0.026 C 
ATOM      4  C   UNL     1       0.443   0.171  -0.729  1.00  0.00     0.092 C 
ATOM      5  C   UNL     1      -0.413  -0.426   0.396  1.00  0.00     0.285 C 
ATOM      6  N   UNL     1      -1.859  -0.412   0.082  1.00  0.00    -0.232 N 
ATOM      7  H   UNL     1      -2.289  -1.034   0.805  1.00  0.00     0.363 HD
ENDROOT
BRANCH   1   8
ATOM      8  C   UNL     1      -3.420  -1.466  -1.493  1.00  0.00     0.146 C 
ATOM      9  C   UNL     1      -4.405  -1.741  -0.392  1.00  0.00     0.093 C 
BRANCH   8  10
ATOM     10  O   UNL     1      -3.859  -1.765  -2.788  1.00  0.00    -0.507 OA
ATOM     11  H   UNL     1      -3.391  -1.473  -3.636  1.00  0.00     0.293 HD
ENDBRANCH   8  10
ENDBRANCH   1   8
BRANCH   6  12
ATOM     12  C   UNL     1      -2.402   0.924   0.246  1.00  0.00     0.386 C 
ATOM     13  O   UNL     1      -2.413   1.734  -0.723  1.00  0.00    -0.221 OA
BRANCH  12  14
ATOM     14  C   UNL     1      -2.906   1.379   1.556  1.00  0.00     0.255 A 
ATOM     15  N   UNL     1      -2.901   0.625   2.673  1.00  0.00    -0.207 NA
ATOM     16  N   UNL     1      -3.421   2.599   1.784  1.00  0.00    -0.252 N 
ATOM     17  C   UNL     1      -3.444   1.461   3.583  1.00  0.00     0.246 A 
ATOM     18  N   UNL     1      -3.763   2.659   3.057  1.00  0.00    -0.162 NA
ATOM     19  H   UNL     1      -3.542   3.377   1.098  1.00  0.00     0.192 HD
ENDBRANCH  12  14
ENDBRANCH   6  12
BRANCH   4  20
ATOM     20  C   UNL     1       1.897   0.203  -0.333  1.00  0.00     0.025 A 
ATOM     21  C   UNL     1       2.669   1.359  -0.237  1.00  0.00     0.032 A 
ATOM     22  N   UNL     1       2.626  -0.895  -0.014  1.00  0.00    -0.358 N 
ATOM     23  C   UNL     1       3.915   0.923   0.155  1.00  0.00    -0.000 A 
ATOM     24  C   UNL     1       3.855  -0.441   0.281  1.00  0.00     0.046 A 
ATOM     25  C   UNL     1       5.087   1.634   0.408  1.00  0.00     0.010 A 
ATOM     26  C   UNL     1       4.964  -1.190   0.669  1.00  0.00     0.026 A 
ATOM     27  C   UNL     1       6.224   0.904   0.802  1.00  0.00     0.001 A 
ATOM     28  C   UNL     1       6.163  -0.501   0.932  1.00  0.00     0.002 A 
ATOM     29  H   UNL     1       2.304  -1.888   0.001  1.00  0.00     0.166 HD
ENDBRANCH   4  20
TORSDOF 5


