REMARK SMILES [H]/N=c1\[nH]cccc1Nc1ccc2c(c1)nnn2C
REMARK SMILES IDX 3 1 8 2 7 3 6 4 5 5 4 6 2 8 1 9 9 10 10 12 11 13 15 14 12 15
REMARK SMILES IDX 14 16 13 17 16 18 18 19 17 20 19 21
REMARK H PARENT 4 7 9 11
ROOT
ATOM      1  C   UNL     1       3.352   1.102  -0.107  1.00  0.00     0.146 A 
ATOM      2  C   UNL     1       2.822   0.754  -1.368  1.00  0.00     0.081 A 
ATOM      3  C   UNL     1       3.284   1.432  -2.503  1.00  0.00     0.031 A 
ATOM      4  C   UNL     1       4.213   2.463  -2.374  1.00  0.00     0.020 A 
ATOM      5  C   UNL     1       4.689   2.800  -1.107  1.00  0.00     0.084 A 
ATOM      6  N   UNL     1       4.260   2.119  -0.010  1.00  0.00    -0.345 N 
ATOM      7  H   UNL     1       4.650   2.387   0.922  1.00  0.00     0.167 HD
ENDROOT
BRANCH   1   8
ATOM      8  N   UNL     1       3.001   0.441   0.953  1.00  0.00    -0.283 NA
ATOM      9  H   UNL     1       3.381   0.664   1.900  1.00  0.00     0.189 HD
ENDBRANCH   1   8
BRANCH   2  10
ATOM     10  N   UNL     1       1.872  -0.312  -1.526  1.00  0.00    -0.352 N 
ATOM     11  H   UNL     1       2.028  -0.989  -2.308  1.00  0.00     0.167 HD
BRANCH  10  12
ATOM     12  C   UNL     1       0.663  -0.435  -0.757  1.00  0.00     0.041 A 
ATOM     13  C   UNL     1       0.009  -1.696  -0.690  1.00  0.00     0.028 A 
ATOM     14  C   UNL     1       0.088   0.687  -0.106  1.00  0.00     0.058 A 
ATOM     15  C   UNL     1      -1.188  -1.852   0.036  1.00  0.00     0.032 A 
ATOM     16  C   UNL     1      -1.093   0.489   0.601  1.00  0.00     0.115 A 
ATOM     17  C   UNL     1      -1.699  -0.724   0.671  1.00  0.00     0.089 A 
ATOM     18  N   UNL     1      -1.825   1.385   1.288  1.00  0.00    -0.130 NA
ATOM     19  N   UNL     1      -2.807  -0.572   1.410  1.00  0.00    -0.248 N 
ATOM     20  N   UNL     1      -2.867   0.706   1.769  1.00  0.00    -0.066 NA
ATOM     21  C   UNL     1      -3.804  -1.580   1.745  1.00  0.00     0.176 C 
ENDBRANCH  10  12
ENDBRANCH   2  10
TORSDOF 3


