REMARK SMILES COC[N-]/C(O)=N/c1c(N)cc(C)cc1-n1nc2ccccc2[nH+]1
REMARK SMILES IDX 5 1 6 2 7 4 8 5 9 6 15 7 11 8 14 9 12 10 13 11 10 12 16 15
REMARK SMILES IDX 17 16 24 17 18 18 23 19 19 20 22 21 20 22 21 23 4 25 3 26
REMARK SMILES IDX 2 27 1 28
REMARK H PARENT 6 3 10 13 10 14 24 24
ROOT
ATOM      1  C   UNL     1      -0.549   0.105   2.047  1.00  0.00     0.095 C 
ENDROOT
BRANCH   1   2
ATOM      2  O   UNL     1      -0.040  -0.833   2.944  1.00  0.00    -0.516 OA
ATOM      3  H   UNL     1      -0.602  -1.169   3.717  1.00  0.00     0.292 HD
ENDBRANCH   1   2
BRANCH   1   4
ATOM      4  N   UNL     1       0.181   0.534   1.059  1.00  0.00    -0.402 NA
BRANCH   4   5
ATOM      5  C   UNL     1       1.546   0.140   0.847  1.00  0.00     0.016 A 
ATOM      6  C   UNL     1       2.535   0.385   1.830  1.00  0.00     0.037 A 
ATOM      7  C   UNL     1       1.897  -0.543  -0.338  1.00  0.00     0.133 A 
ATOM      8  C   UNL     1       3.831  -0.119   1.651  1.00  0.00     0.029 A 
ATOM      9  C   UNL     1       3.197  -1.048  -0.489  1.00  0.00     0.038 A 
ATOM     10  C   UNL     1       4.168  -0.831   0.495  1.00  0.00    -0.047 A 
ATOM     11  C   UNL     1       5.547  -1.402   0.334  1.00  0.00     0.044 C 
BRANCH   6  12
ATOM     12  N   UNL     1       2.249   1.170   2.995  1.00  0.00    -0.398 N 
ATOM     13  H   UNL     1       1.355   1.698   3.096  1.00  0.00     0.156 HD
ATOM     14  H   UNL     1       2.968   1.293   3.742  1.00  0.00     0.156 HD
ENDBRANCH   6  12
BRANCH   7  15
ATOM     15  N   UNL     1       0.939  -0.755  -1.386  1.00  0.00    -0.013 N 
ATOM     16  N   UNL     1       0.835  -1.899  -2.062  1.00  0.00     0.054 NA
ATOM     17  N   UNL     1       0.126   0.187  -1.862  1.00  0.00    -0.161 N 
ATOM     18  C   UNL     1      -0.102  -1.665  -2.998  1.00  0.00     0.249 A 
ATOM     19  C   UNL     1      -0.534  -0.379  -2.880  1.00  0.00     0.198 A 
ATOM     20  C   UNL     1      -0.588  -2.521  -3.981  1.00  0.00     0.064 A 
ATOM     21  C   UNL     1      -1.480   0.172  -3.739  1.00  0.00     0.058 A 
ATOM     22  C   UNL     1      -1.558  -2.007  -4.864  1.00  0.00     0.005 A 
ATOM     23  C   UNL     1      -2.002  -0.666  -4.745  1.00  0.00     0.005 A 
ATOM     24  H   UNL     1       0.064   1.176  -1.531  1.00  0.00     0.340 HD
ENDBRANCH   7  15
ENDBRANCH   4   5
ENDBRANCH   1   4
BRANCH   1  25
ATOM     25  N   UNL     1      -1.884   0.588   2.232  1.00  0.00    -0.410 NA
BRANCH  25  26
ATOM     26  C   UNL     1      -2.563   1.534   1.351  1.00  0.00     0.167 C 
BRANCH  26  27
ATOM     27  O   UNL     1      -3.598   0.880   0.645  1.00  0.00    -0.385 OA
ATOM     28  C   UNL     1      -3.082   0.280  -0.520  1.00  0.00     0.194 C 
ENDBRANCH  26  27
ENDBRANCH  25  26
ENDBRANCH   1  25
TORSDOF 8


