REMARK SMILES CC(=O)c1ccc(-c2ccc(O)c(C(=O)[O-])c2)c2c[n-]nc12
REMARK SMILES IDX 4 1 5 2 6 3 7 4 18 5 19 6 20 7 21 8 22 9 2 10 1 11 3 12 8 13
REMARK SMILES IDX 9 14 17 15 10 16 13 17 11 18 14 19 15 20 16 21 12 22
REMARK H PARENT 12 23
ROOT
ATOM      1  C   UNL     1       1.361  -2.090  -1.612  1.00  0.00     0.042 A 
ATOM      2  C   UNL     1       2.146  -1.828  -0.463  1.00  0.00     0.014 A 
ATOM      3  C   UNL     1       1.849  -0.748   0.395  1.00  0.00     0.010 A 
ATOM      4  C   UNL     1       0.754   0.103   0.135  1.00  0.00    -0.011 A 
ATOM      5  C   UNL     1      -0.001  -0.171  -1.012  1.00  0.00    -0.014 A 
ATOM      6  C   UNL     1      -1.074   0.472  -1.590  1.00  0.00    -0.113 A 
ATOM      7  N   UNL     1      -1.402  -0.187  -2.723  1.00  0.00    -0.581 NA
ATOM      8  N   UNL     1      -0.576  -1.215  -2.884  1.00  0.00    -0.367 NA
ATOM      9  C   UNL     1       0.285  -1.216  -1.849  1.00  0.00     0.058 A 
ENDROOT
BRANCH   1  10
ATOM     10  C   UNL     1       1.701  -3.236  -2.501  1.00  0.00     0.161 C 
ATOM     11  C   UNL     1       0.815  -3.673  -3.629  1.00  0.00     0.093 C 
ATOM     12  O   UNL     1       2.774  -3.870  -2.311  1.00  0.00    -0.294 OA
ENDBRANCH   1  10
BRANCH   4  13
ATOM     13  C   UNL     1       0.439   1.231   1.043  1.00  0.00    -0.017 A 
ATOM     14  C   UNL     1       1.452   2.106   1.458  1.00  0.00     0.012 A 
ATOM     15  C   UNL     1      -0.869   1.421   1.518  1.00  0.00     0.022 A 
ATOM     16  C   UNL     1       1.160   3.164   2.317  1.00  0.00     0.047 A 
ATOM     17  C   UNL     1      -1.179   2.486   2.385  1.00  0.00     0.040 A 
ATOM     18  C   UNL     1      -0.146   3.365   2.784  1.00  0.00     0.124 A 
BRANCH  17  19
ATOM     19  C   UNL     1      -2.578   2.652   2.859  1.00  0.00     0.075 C 
ATOM     20  O   UNL     1      -2.890   3.581   3.649  1.00  0.00    -0.545 OA
ATOM     21  O   UNL     1      -3.571   1.777   2.433  1.00  0.00    -0.545 OA
ENDBRANCH  17  19
BRANCH  18  22
ATOM     22  O   UNL     1      -0.409   4.434   3.640  1.00  0.00    -0.507 OA
ATOM     23  H   UNL     1       0.321   5.072   3.936  1.00  0.00     0.293 HD
ENDBRANCH  18  22
ENDBRANCH   4  13
TORSDOF 4


