REMARK SMILES Cc1cc(Cl)ccc1C(=O)N[C@H]1CC12CCC2
REMARK SMILES IDX 1 1 2 2 3 3 4 4 5 5 6 6 7 7 8 8 9 9 11 10 10 11 12 13 13 14
REMARK SMILES IDX 14 15 15 16 17 17 16 18
REMARK H PARENT 11 12
ROOT
ATOM      1  C   UNL     1      -2.713  -2.403  -1.530  1.00  0.00     0.045 C 
ATOM      2  C   UNL     1      -1.345  -1.934  -1.955  1.00  0.00    -0.037 A 
ATOM      3  C   UNL     1      -0.723  -2.568  -3.046  1.00  0.00     0.024 A 
ATOM      4  C   UNL     1       0.553  -2.181  -3.461  1.00  0.00     0.041 A 
ATOM      5  Cl  UNL     1       1.317  -2.988  -4.819  1.00  0.00    -0.084 Cl
ATOM      6  C   UNL     1       1.221  -1.153  -2.797  1.00  0.00     0.021 A 
ATOM      7  C   UNL     1       0.613  -0.503  -1.721  1.00  0.00     0.015 A 
ATOM      8  C   UNL     1      -0.673  -0.875  -1.290  1.00  0.00     0.042 A 
ENDROOT
BRANCH   8   9
ATOM      9  C   UNL     1      -1.288  -0.129  -0.165  1.00  0.00     0.251 C 
ATOM     10  N   UNL     1      -0.485   0.302   0.943  1.00  0.00    -0.349 N 
ATOM     11  O   UNL     1      -2.516   0.153  -0.193  1.00  0.00    -0.269 OA
ATOM     12  H   UNL     1       0.482  -0.077   1.058  1.00  0.00     0.164 HD
BRANCH  10  13
ATOM     13  C   UNL     1      -1.036   1.147   1.997  1.00  0.00     0.089 C 
ATOM     14  C   UNL     1      -0.044   2.168   2.571  1.00  0.00     0.034 C 
ATOM     15  C   UNL     1      -1.129   2.601   1.594  1.00  0.00    -0.007 C 
ATOM     16  C   UNL     1      -2.076   3.671   2.051  1.00  0.00     0.009 C 
ATOM     17  C   UNL     1      -0.686   3.329   0.356  1.00  0.00     0.009 C 
ATOM     18  C   UNL     1      -1.649   4.453   0.791  1.00  0.00     0.001 C 
ENDBRANCH  10  13
ENDBRANCH   8   9
TORSDOF 2


