MODEL 1
REMARK VINA RESULT:      -9.8      0.000      0.000
REMARK SMILES Cc1ccc(-c2ccc(O)cc2)c2cn[nH]c12
REMARK SMILES IDX 6 1 7 2 8 3 9 4 11 5 12 6 5 7 2 8 3 9 17 10 4 11 16 12 13 13
REMARK SMILES IDX 15 14 14 15 1 16 10 18
REMARK H PARENT 16 17 10 19
ROOT
ATOM      1  C   UNL     1      45.525 130.991  17.182  1.00  0.00    -0.017 A 
ATOM      2  C   UNL     1      45.942 129.744  16.681  1.00  0.00     0.012 A 
ATOM      3  C   UNL     1      46.412 129.632  15.369  1.00  0.00     0.047 A 
ATOM      4  C   UNL     1      46.480 130.763  14.545  1.00  0.00     0.115 A 
ATOM      5  C   UNL     1      46.076 132.007  15.041  1.00  0.00     0.047 A 
ATOM      6  C   UNL     1      45.605 132.123  16.353  1.00  0.00     0.012 A 
ENDROOT
BRANCH   1   7
ATOM      7  C   UNL     1      45.037 131.109  18.575  1.00  0.00    -0.007 A 
ATOM      8  C   UNL     1      44.104 131.349  21.267  1.00  0.00    -0.025 A 
ATOM      9  C   UNL     1      45.381 130.815  20.992  1.00  0.00     0.006 A 
ATOM     10  C   UNL     1      43.325 131.739  20.173  1.00  0.00     0.069 A 
ATOM     11  C   UNL     1      45.841 130.695  19.662  1.00  0.00     0.010 A 
ATOM     12  N   UNL     1      42.075 132.233  20.172  1.00  0.00    -0.278 N 
ATOM     13  C   UNL     1      43.772 131.626  18.885  1.00  0.00     0.028 A 
ATOM     14  N   UNL     1      41.701 132.430  18.913  1.00  0.00    -0.183 NA
ATOM     15  C   UNL     1      42.720 132.064  18.100  1.00  0.00     0.144 A 
ATOM     16  C   UNL     1      43.594 131.467  22.673  1.00  0.00     0.046 C 
ATOM     17  H   UNL     1      41.471 132.424  21.002  1.00  0.00     0.190 HD
ENDBRANCH   1   7
BRANCH   4  18
ATOM     18  O   UNL     1      46.946 130.663  13.237  1.00  0.00    -0.508 OA
ATOM     19  H   UNL     1      47.551 131.370  12.835  1.00  0.00     0.293 HD
ENDBRANCH   4  18
TORSDOF 2
ENDMDL
MODEL 2
REMARK VINA RESULT:      -9.7      0.037      1.176
REMARK SMILES Cc1ccc(-c2ccc(O)cc2)c2cn[nH]c12
REMARK SMILES IDX 6 1 7 2 8 3 9 4 11 5 12 6 5 7 2 8 3 9 17 10 4 11 16 12 13 13
REMARK SMILES IDX 15 14 14 15 1 16 10 18
REMARK H PARENT 16 17 10 19
ROOT
ATOM      1  C   UNL     1      45.539 130.997  17.206  1.00  0.00    -0.017 A 
ATOM      2  C   UNL     1      45.608 132.127  16.372  1.00  0.00     0.012 A 
ATOM      3  C   UNL     1      46.078 132.010  15.060  1.00  0.00     0.047 A 
ATOM      4  C   UNL     1      46.476 130.761  14.564  1.00  0.00     0.115 A 
ATOM      5  C   UNL     1      46.401 129.633  15.385  1.00  0.00     0.047 A 
ATOM      6  C   UNL     1      45.932 129.746  16.698  1.00  0.00     0.012 A 
ENDROOT
BRANCH   1   7
ATOM      7  C   UNL     1      45.032 131.123  18.592  1.00  0.00    -0.007 A 
ATOM      8  C   UNL     1      44.062 131.380  21.269  1.00  0.00    -0.025 A 
ATOM      9  C   UNL     1      45.345 130.851  21.015  1.00  0.00     0.006 A 
ATOM     10  C   UNL     1      43.295 131.757  20.162  1.00  0.00     0.069 A 
ATOM     11  C   UNL     1      45.824 130.722  19.692  1.00  0.00     0.010 A 
ATOM     12  N   UNL     1      42.043 132.243  20.140  1.00  0.00    -0.278 N 
ATOM     13  C   UNL     1      43.760 131.636  18.881  1.00  0.00     0.028 A 
ATOM     14  N   UNL     1      41.684 132.428  18.875  1.00  0.00    -0.183 NA
ATOM     15  C   UNL     1      42.717 132.062  18.079  1.00  0.00     0.144 A 
ATOM     16  C   UNL     1      43.533 131.506  22.667  1.00  0.00     0.046 C 
ATOM     17  H   UNL     1      41.427 132.438  20.960  1.00  0.00     0.190 HD
ENDBRANCH   1   7
BRANCH   4  18
ATOM     18  O   UNL     1      46.946 130.633  13.259  1.00  0.00    -0.508 OA
ATOM     19  H   UNL     1      47.801 130.130  13.051  1.00  0.00     0.293 HD
ENDBRANCH   4  18
TORSDOF 2
ENDMDL
MODEL 3
REMARK VINA RESULT:      -8.9      1.585      2.687
REMARK SMILES Cc1ccc(-c2ccc(O)cc2)c2cn[nH]c12
REMARK SMILES IDX 6 1 7 2 8 3 9 4 11 5 12 6 5 7 2 8 3 9 17 10 4 11 16 12 13 13
REMARK SMILES IDX 15 14 14 15 1 16 10 18
REMARK H PARENT 16 17 10 19
ROOT
ATOM      1  C   UNL     1      45.390 130.967  16.372  1.00  0.00    -0.017 A 
ATOM      2  C   UNL     1      45.972 131.952  15.555  1.00  0.00     0.012 A 
ATOM      3  C   UNL     1      46.795 131.587  14.486  1.00  0.00     0.047 A 
ATOM      4  C   UNL     1      47.041 130.234  14.216  1.00  0.00     0.115 A 
ATOM      5  C   UNL     1      46.458 129.250  15.019  1.00  0.00     0.047 A 
ATOM      6  C   UNL     1      45.633 129.612  16.089  1.00  0.00     0.012 A 
ENDROOT
BRANCH   1   7
ATOM      7  C   UNL     1      44.510 131.357  17.498  1.00  0.00    -0.007 A 
ATOM      8  C   UNL     1      42.803 132.095  19.669  1.00  0.00    -0.025 A 
ATOM      9  C   UNL     1      42.348 132.174  18.336  1.00  0.00     0.006 A 
ATOM     10  C   UNL     1      44.114 131.654  19.872  1.00  0.00     0.069 A 
ATOM     11  C   UNL     1      43.192 131.811  17.263  1.00  0.00     0.010 A 
ATOM     12  N   UNL     1      44.784 131.532  21.031  1.00  0.00    -0.278 N 
ATOM     13  C   UNL     1      44.931 131.299  18.834  1.00  0.00     0.028 A 
ATOM     14  N   UNL     1      46.017 131.118  20.763  1.00  0.00    -0.183 NA
ATOM     15  C   UNL     1      46.138 130.968  19.422  1.00  0.00     0.144 A 
ATOM     16  C   UNL     1      41.924 132.493  20.818  1.00  0.00     0.046 C 
ATOM     17  H   UNL     1      44.428 131.736  21.990  1.00  0.00     0.190 HD
ENDBRANCH   1   7
BRANCH   4  18
ATOM     18  O   UNL     1      47.861 129.859  13.154  1.00  0.00    -0.508 OA
ATOM     19  H   UNL     1      48.867 129.794  13.258  1.00  0.00     0.293 HD
ENDBRANCH   4  18
TORSDOF 2
ENDMDL
MODEL 4
REMARK VINA RESULT:      -8.9      1.598      2.445
REMARK SMILES Cc1ccc(-c2ccc(O)cc2)c2cn[nH]c12
REMARK SMILES IDX 6 1 7 2 8 3 9 4 11 5 12 6 5 7 2 8 3 9 17 10 4 11 16 12 13 13
REMARK SMILES IDX 15 14 14 15 1 16 10 18
REMARK H PARENT 16 17 10 19
ROOT
ATOM      1  C   UNL     1      45.397 130.954  16.315  1.00  0.00    -0.017 A 
ATOM      2  C   UNL     1      45.652 129.595  16.057  1.00  0.00     0.012 A 
ATOM      3  C   UNL     1      46.485 129.221  14.998  1.00  0.00     0.047 A 
ATOM      4  C   UNL     1      47.079 130.200  14.190  1.00  0.00     0.115 A 
ATOM      5  C   UNL     1      46.838 131.553  14.448  1.00  0.00     0.047 A 
ATOM      6  C   UNL     1      46.004 131.930  15.507  1.00  0.00     0.012 A 
ENDROOT
BRANCH   1   7
ATOM      7  C   UNL     1      44.522 131.346  17.444  1.00  0.00    -0.007 A 
ATOM      8  C   UNL     1      42.825 132.089  19.621  1.00  0.00    -0.025 A 
ATOM      9  C   UNL     1      42.369 132.177  18.289  1.00  0.00     0.006 A 
ATOM     10  C   UNL     1      44.133 131.636  19.820  1.00  0.00     0.069 A 
ATOM     11  C   UNL     1      43.208 131.812  17.213  1.00  0.00     0.010 A 
ATOM     12  N   UNL     1      44.804 131.504  20.977  1.00  0.00    -0.278 N 
ATOM     13  C   UNL     1      44.945 131.279  18.779  1.00  0.00     0.028 A 
ATOM     14  N   UNL     1      46.033 131.081  20.705  1.00  0.00    -0.183 NA
ATOM     15  C   UNL     1      46.150 130.936  19.364  1.00  0.00     0.144 A 
ATOM     16  C   UNL     1      41.952 132.490  20.774  1.00  0.00     0.046 C 
ATOM     17  H   UNL     1      44.451 131.707  21.938  1.00  0.00     0.190 HD
ENDBRANCH   1   7
BRANCH   4  18
ATOM     18  O   UNL     1      47.911 129.840  13.132  1.00  0.00    -0.508 OA
ATOM     19  H   UNL     1      48.878 130.142  13.092  1.00  0.00     0.293 HD
ENDBRANCH   4  18
TORSDOF 2
ENDMDL
MODEL 5
REMARK VINA RESULT:      -7.5      3.475      6.098
REMARK SMILES Cc1ccc(-c2ccc(O)cc2)c2cn[nH]c12
REMARK SMILES IDX 6 1 7 2 8 3 9 4 11 5 12 6 5 7 2 8 3 9 17 10 4 11 16 12 13 13
REMARK SMILES IDX 15 14 14 15 1 16 10 18
REMARK H PARENT 16 17 10 19
ROOT
ATOM      1  C   UNL     1      44.412 131.666  17.887  1.00  0.00    -0.017 A 
ATOM      2  C   UNL     1      43.021 131.853  17.806  1.00  0.00     0.012 A 
ATOM      3  C   UNL     1      42.261 132.016  18.969  1.00  0.00     0.047 A 
ATOM      4  C   UNL     1      42.883 132.002  20.225  1.00  0.00     0.115 A 
ATOM      5  C   UNL     1      44.267 131.826  20.311  1.00  0.00     0.047 A 
ATOM      6  C   UNL     1      45.030 131.662  19.150  1.00  0.00     0.012 A 
ENDROOT
BRANCH   1   7
ATOM      7  C   UNL     1      45.215 131.504  16.654  1.00  0.00    -0.007 A 
ATOM      8  C   UNL     1      46.779 131.193  14.281  1.00  0.00    -0.025 A 
ATOM      9  C   UNL     1      46.567 132.471  14.842  1.00  0.00     0.006 A 
ATOM     10  C   UNL     1      46.187 130.105  14.928  1.00  0.00     0.069 A 
ATOM     11  C   UNL     1      45.792 132.624  16.013  1.00  0.00     0.010 A 
ATOM     12  N   UNL     1      46.208 128.809  14.571  1.00  0.00    -0.278 N 
ATOM     13  C   UNL     1      45.440 130.252  16.064  1.00  0.00     0.028 A 
ATOM     14  N   UNL     1      45.483 128.120  15.445  1.00  0.00    -0.183 NA
ATOM     15  C   UNL     1      44.997 128.979  16.371  1.00  0.00     0.144 A 
ATOM     16  C   UNL     1      47.584 131.016  13.027  1.00  0.00     0.046 C 
ATOM     17  H   UNL     1      46.690 128.389  13.746  1.00  0.00     0.190 HD
ENDBRANCH   1   7
BRANCH   4  18
ATOM     18  O   UNL     1      42.136 132.162  21.389  1.00  0.00    -0.508 OA
ATOM     19  H   UNL     1      41.176 132.485  21.363  1.00  0.00     0.293 HD
ENDBRANCH   4  18
TORSDOF 2
ENDMDL
MODEL 6
REMARK VINA RESULT:      -7.5      3.470      6.065
REMARK SMILES Cc1ccc(-c2ccc(O)cc2)c2cn[nH]c12
REMARK SMILES IDX 6 1 7 2 8 3 9 4 11 5 12 6 5 7 2 8 3 9 17 10 4 11 16 12 13 13
REMARK SMILES IDX 15 14 14 15 1 16 10 18
REMARK H PARENT 16 17 10 19
ROOT
ATOM      1  C   UNL     1      44.421 131.697  17.893  1.00  0.00    -0.017 A 
ATOM      2  C   UNL     1      45.053 131.688  19.149  1.00  0.00     0.012 A 
ATOM      3  C   UNL     1      44.302 131.840  20.319  1.00  0.00     0.047 A 
ATOM      4  C   UNL     1      42.911 131.995  20.248  1.00  0.00     0.115 A 
ATOM      5  C   UNL     1      42.276 131.995  19.002  1.00  0.00     0.047 A 
ATOM      6  C   UNL     1      43.025 131.843  17.830  1.00  0.00     0.012 A 
ENDROOT
BRANCH   1   7
ATOM      7  C   UNL     1      45.219 131.526  16.657  1.00  0.00    -0.007 A 
ATOM      8  C   UNL     1      46.772 131.197  14.279  1.00  0.00    -0.025 A 
ATOM      9  C   UNL     1      46.568 132.478  14.836  1.00  0.00     0.006 A 
ATOM     10  C   UNL     1      46.177 130.114  14.933  1.00  0.00     0.069 A 
ATOM     11  C   UNL     1      45.799 132.641  16.009  1.00  0.00     0.010 A 
ATOM     12  N   UNL     1      46.190 128.817  14.582  1.00  0.00    -0.278 N 
ATOM     13  C   UNL     1      45.435 130.270  16.072  1.00  0.00     0.028 A 
ATOM     14  N   UNL     1      45.465 128.135  15.460  1.00  0.00    -0.183 NA
ATOM     15  C   UNL     1      44.987 129.000  16.386  1.00  0.00     0.144 A 
ATOM     16  C   UNL     1      47.572 131.010  13.024  1.00  0.00     0.046 C 
ATOM     17  H   UNL     1      46.667 128.392  13.756  1.00  0.00     0.190 HD
ENDBRANCH   1   7
BRANCH   4  18
ATOM     18  O   UNL     1      42.152 132.147  21.406  1.00  0.00    -0.508 OA
ATOM     19  H   UNL     1      41.156 131.963  21.414  1.00  0.00     0.293 HD
ENDBRANCH   4  18
TORSDOF 2
ENDMDL
MODEL 7
REMARK VINA RESULT:      -7.4      3.317      5.740
REMARK SMILES Cc1ccc(-c2ccc(O)cc2)c2cn[nH]c12
REMARK SMILES IDX 6 1 7 2 8 3 9 4 11 5 12 6 5 7 2 8 3 9 17 10 4 11 16 12 13 13
REMARK SMILES IDX 15 14 14 15 1 16 10 18
REMARK H PARENT 16 17 10 19
ROOT
ATOM      1  C   UNL     1      44.121 131.418  18.459  1.00  0.00    -0.017 A 
ATOM      2  C   UNL     1      44.673 131.389  19.753  1.00  0.00     0.012 A 
ATOM      3  C   UNL     1      43.911 131.790  20.855  1.00  0.00     0.047 A 
ATOM      4  C   UNL     1      42.588 132.218  20.679  1.00  0.00     0.115 A 
ATOM      5  C   UNL     1      42.032 132.239  19.397  1.00  0.00     0.047 A 
ATOM      6  C   UNL     1      42.790 131.838  18.292  1.00  0.00     0.012 A 
ENDROOT
BRANCH   1   7
ATOM      7  C   UNL     1      44.927 130.982  17.296  1.00  0.00    -0.007 A 
ATOM      8  C   UNL     1      46.478 130.126  15.052  1.00  0.00    -0.025 A 
ATOM      9  C   UNL     1      46.937 129.912  16.369  1.00  0.00     0.006 A 
ATOM     10  C   UNL     1      45.250 130.778  14.901  1.00  0.00     0.069 A 
ATOM     11  C   UNL     1      46.171 130.336  17.478  1.00  0.00     0.010 A 
ATOM     12  N   UNL     1      44.626 131.130  13.764  1.00  0.00    -0.278 N 
ATOM     13  C   UNL     1      44.507 131.186  15.974  1.00  0.00     0.028 A 
ATOM     14  N   UNL     1      43.503 131.765  14.079  1.00  0.00    -0.183 NA
ATOM     15  C   UNL     1      43.404 131.817  15.428  1.00  0.00     0.144 A 
ATOM     16  C   UNL     1      47.288 129.697  13.864  1.00  0.00     0.046 C 
ATOM     17  H   UNL     1      44.951 130.960  12.787  1.00  0.00     0.190 HD
ENDBRANCH   1   7
BRANCH   4  18
ATOM     18  O   UNL     1      41.821 132.620  21.769  1.00  0.00    -0.508 OA
ATOM     19  H   UNL     1      40.934 132.178  21.984  1.00  0.00     0.293 HD
ENDBRANCH   4  18
TORSDOF 2
ENDMDL


