REMARK SMILES Nc1c(/C(O)=N/Cc2ccc[nH]2)ccc2cc[nH]c12
REMARK SMILES IDX 4 1 5 2 6 4 7 5 8 6 9 7 12 8 10 9 11 10 3 12 13 13 2 14
REMARK SMILES IDX 14 15 19 16 15 17 18 18 16 19 17 20 1 22
REMARK H PARENT 5 3 12 11 18 21 1 23 1 24
ROOT
ATOM      1  C   UNL     1       1.287  -0.499   2.009  1.00  0.00     0.216 C 
ENDROOT
BRANCH   1   2
ATOM      2  O   UNL     1       1.692  -1.564   2.820  1.00  0.00    -0.493 OA
ATOM      3  H   UNL     1       2.436  -1.490   3.502  1.00  0.00     0.295 HD
ENDBRANCH   1   2
BRANCH   1   4
ATOM      4  N   UNL     1       1.839   0.676   2.104  1.00  0.00    -0.245 NA
BRANCH   4   5
ATOM      5  C   UNL     1       2.920   1.024   3.019  1.00  0.00     0.199 C 
BRANCH   5   6
ATOM      6  C   UNL     1       3.276   2.463   2.833  1.00  0.00     0.037 A 
ATOM      7  C   UNL     1       4.219   2.948   1.948  1.00  0.00     0.025 A 
ATOM      8  N   UNL     1       2.647   3.479   3.451  1.00  0.00    -0.363 N 
ATOM      9  C   UNL     1       4.168   4.325   2.050  1.00  0.00     0.020 A 
ATOM     10  C   UNL     1       3.192   4.616   2.982  1.00  0.00     0.082 A 
ATOM     11  H   UNL     1       1.876   3.405   4.151  1.00  0.00     0.166 HD
ENDBRANCH   5   6
ENDBRANCH   4   5
ENDBRANCH   1   4
BRANCH   1  12
ATOM     12  C   UNL     1       0.183  -0.703   1.044  1.00  0.00     0.061 A 
ATOM     13  C   UNL     1      -0.767   0.339   0.870  1.00  0.00     0.016 A 
ATOM     14  C   UNL     1       0.025  -1.926   0.327  1.00  0.00     0.069 A 
ATOM     15  C   UNL     1      -1.875   0.175   0.025  1.00  0.00     0.011 A 
ATOM     16  C   UNL     1      -1.105  -2.053  -0.497  1.00  0.00     0.070 A 
ATOM     17  C   UNL     1      -2.014  -1.038  -0.636  1.00  0.00     0.002 A 
ATOM     18  N   UNL     1      -1.457  -3.101  -1.267  1.00  0.00    -0.359 N 
ATOM     19  C   UNL     1      -2.983  -1.458  -1.520  1.00  0.00     0.028 A 
ATOM     20  C   UNL     1      -2.603  -2.742  -1.889  1.00  0.00     0.083 A 
ATOM     21  H   UNL     1      -0.961  -4.012  -1.381  1.00  0.00     0.166 HD
BRANCH  14  22
ATOM     22  N   UNL     1       1.007  -2.971   0.384  1.00  0.00    -0.396 N 
ATOM     23  H   UNL     1       1.978  -2.790   0.721  1.00  0.00     0.156 HD
ATOM     24  H   UNL     1       0.813  -3.921   0.000  1.00  0.00     0.156 HD
ENDBRANCH  14  22
ENDBRANCH   1  12
TORSDOF 6


