MODEL 1
REMARK VINA RESULT:      -9.2      0.000      0.000
REMARK SMILES O=C(Oc1ccc([NH2+]c2ccc3cc[nH]c3c2)c(F)c1)[C@H](O)CC1CC1
REMARK SMILES IDX 3 1 2 2 1 3 21 4 22 5 23 7 24 8 25 9 26 10 4 11 5 12 20 13
REMARK SMILES IDX 6 14 18 15 7 16 19 17 8 18 9 21 10 22 17 23 11 24 16 25
REMARK SMILES IDX 12 26 15 27 13 28 14 29
REMARK H PARENT 22 6 8 19 8 20 15 30
ROOT
ATOM      1  O   UNL     1      45.165 131.791  17.449  1.00  0.00    -0.425 OA
ENDROOT
BRANCH   1   2
ATOM      2  C   UNL     1      44.726 130.947  16.421  1.00  0.00     0.340 C 
ATOM      3  O   UNL     1      43.794 131.297  15.646  1.00  0.00    -0.249 OA
BRANCH   2   4
ATOM      4  C   UNL     1      45.440 129.650  16.180  1.00  0.00     0.224 C 
BRANCH   4   5
ATOM      5  O   UNL     1      46.556 129.589  17.028  1.00  0.00    -0.381 OA
ATOM      6  H   UNL     1      46.332 128.951  17.755  1.00  0.00     0.211 HD
ENDBRANCH   4   5
BRANCH   4   7
ATOM      7  C   UNL     1      45.895 129.541  14.714  1.00  0.00     0.047 C 
BRANCH   7   8
ATOM      8  C   UNL     1      47.204 130.309  14.473  1.00  0.00    -0.008 C 
ATOM      9  C   UNL     1      47.234 131.116  13.184  1.00  0.00     0.004 C 
ATOM     10  C   UNL     1      48.047 129.837  13.297  1.00  0.00     0.004 C 
ENDBRANCH   7   8
ENDBRANCH   4   7
ENDBRANCH   2   4
ENDBRANCH   1   2
BRANCH   1  11
ATOM     11  C   UNL     1      44.936 131.590  18.818  1.00  0.00     0.134 A 
ATOM     12  C   UNL     1      45.916 131.058  19.674  1.00  0.00     0.053 A 
ATOM     13  C   UNL     1      43.700 131.973  19.349  1.00  0.00     0.093 A 
ATOM     14  C   UNL     1      45.645 130.883  21.033  1.00  0.00     0.075 A 
ATOM     15  C   UNL     1      43.423 131.798  20.708  1.00  0.00     0.187 A 
ATOM     16  C   UNL     1      44.396 131.250  21.565  1.00  0.00     0.170 A 
ATOM     17  F   UNL     1      42.208 132.166  21.186  1.00  0.00    -0.200 F 
BRANCH  16  18
ATOM     18  N   UNL     1      44.112 131.032  22.964  1.00  0.00    -0.279 N 
ATOM     19  H   UNL     1      44.989 131.136  23.527  1.00  0.00     0.358 HD
ATOM     20  H   UNL     1      43.443 131.755  23.319  1.00  0.00     0.358 HD
BRANCH  18  21
ATOM     21  C   UNL     1      43.565 129.711  23.147  1.00  0.00     0.136 A 
ATOM     22  C   UNL     1      44.390 128.564  22.995  1.00  0.00     0.069 A 
ATOM     23  C   UNL     1      42.208 129.549  23.520  1.00  0.00     0.094 A 
ATOM     24  C   UNL     1      43.873 127.274  23.203  1.00  0.00     0.016 A 
ATOM     25  C   UNL     1      41.730 128.256  23.719  1.00  0.00     0.051 A 
ATOM     26  C   UNL     1      42.534 127.160  23.565  1.00  0.00    -0.000 A 
ATOM     27  N   UNL     1      40.488 127.891  24.073  1.00  0.00    -0.361 N 
ATOM     28  C   UNL     1      41.768 126.046  23.833  1.00  0.00     0.028 A 
ATOM     29  C   UNL     1      40.505 126.540  24.144  1.00  0.00     0.083 A 
ATOM     30  H   UNL     1      39.673 128.518  24.258  1.00  0.00     0.166 HD
ENDBRANCH  18  21
ENDBRANCH  16  18
ENDBRANCH   1  11
TORSDOF 8
ENDMDL
MODEL 2
REMARK VINA RESULT:      -9.1      1.011      1.292
REMARK SMILES O=C(Oc1ccc([NH2+]c2ccc3cc[nH]c3c2)c(F)c1)[C@H](O)CC1CC1
REMARK SMILES IDX 3 1 2 2 1 3 21 4 22 5 23 7 24 8 25 9 26 10 4 11 5 12 20 13
REMARK SMILES IDX 6 14 18 15 7 16 19 17 8 18 9 21 10 22 17 23 11 24 16 25
REMARK SMILES IDX 12 26 15 27 13 28 14 29
REMARK H PARENT 22 6 8 19 8 20 15 30
ROOT
ATOM      1  O   UNL     1      43.895 132.014  17.626  1.00  0.00    -0.425 OA
ENDROOT
BRANCH   1   2
ATOM      2  C   UNL     1      44.403 131.343  16.505  1.00  0.00     0.340 C 
ATOM      3  O   UNL     1      43.951 130.216  16.164  1.00  0.00    -0.249 OA
BRANCH   2   4
ATOM      4  C   UNL     1      45.429 132.021  15.646  1.00  0.00     0.224 C 
BRANCH   4   5
ATOM      5  O   UNL     1      44.837 132.352  14.419  1.00  0.00    -0.381 OA
ATOM      6  H   UNL     1      45.206 131.726  13.743  1.00  0.00     0.211 HD
ENDBRANCH   4   5
BRANCH   4   7
ATOM      7  C   UNL     1      46.637 131.097  15.409  1.00  0.00     0.047 C 
BRANCH   7   8
ATOM      8  C   UNL     1      46.633 130.521  13.983  1.00  0.00    -0.008 C 
ATOM      9  C   UNL     1      47.856 129.685  13.637  1.00  0.00     0.004 C 
ATOM     10  C   UNL     1      47.691 131.073  13.039  1.00  0.00     0.004 C 
ENDBRANCH   7   8
ENDBRANCH   4   7
ENDBRANCH   2   4
ENDBRANCH   1   2
BRANCH   1  11
ATOM     11  C   UNL     1      44.125 131.653  18.961  1.00  0.00     0.134 A 
ATOM     12  C   UNL     1      45.268 130.939  19.360  1.00  0.00     0.053 A 
ATOM     13  C   UNL     1      43.199 132.055  19.929  1.00  0.00     0.093 A 
ATOM     14  C   UNL     1      45.459 130.607  20.704  1.00  0.00     0.075 A 
ATOM     15  C   UNL     1      43.384 131.725  21.274  1.00  0.00     0.187 A 
ATOM     16  C   UNL     1      44.520 130.995  21.676  1.00  0.00     0.170 A 
ATOM     17  F   UNL     1      42.458 132.119  22.184  1.00  0.00    -0.200 F 
BRANCH  16  18
ATOM     18  N   UNL     1      44.707 130.618  23.056  1.00  0.00    -0.279 N 
ATOM     19  H   UNL     1      45.728 130.586  23.283  1.00  0.00     0.358 HD
ATOM     20  H   UNL     1      44.282 131.333  23.693  1.00  0.00     0.358 HD
BRANCH  18  21
ATOM     21  C   UNL     1      44.113 129.325  23.290  1.00  0.00     0.136 A 
ATOM     22  C   UNL     1      44.846 128.138  23.020  1.00  0.00     0.069 A 
ATOM     23  C   UNL     1      42.806 129.230  23.828  1.00  0.00     0.094 A 
ATOM     24  C   UNL     1      44.287 126.874  23.275  1.00  0.00     0.016 A 
ATOM     25  C   UNL     1      42.284 127.960  24.068  1.00  0.00     0.051 A 
ATOM     26  C   UNL     1      43.000 126.825  23.801  1.00  0.00    -0.000 A 
ATOM     27  N   UNL     1      41.077 127.657  24.570  1.00  0.00    -0.361 N 
ATOM     28  C   UNL     1      42.211 125.749  24.148  1.00  0.00     0.028 A 
ATOM     29  C   UNL     1      41.027 126.305  24.621  1.00  0.00     0.083 A 
ATOM     30  H   UNL     1      40.328 128.323  24.864  1.00  0.00     0.166 HD
ENDBRANCH  18  21
ENDBRANCH  16  18
ENDBRANCH   1  11
TORSDOF 8
ENDMDL
MODEL 3
REMARK VINA RESULT:      -9.0      1.528      1.913
REMARK SMILES O=C(Oc1ccc([NH2+]c2ccc3cc[nH]c3c2)c(F)c1)[C@H](O)CC1CC1
REMARK SMILES IDX 3 1 2 2 1 3 21 4 22 5 23 7 24 8 25 9 26 10 4 11 5 12 20 13
REMARK SMILES IDX 6 14 18 15 7 16 19 17 8 18 9 21 10 22 17 23 11 24 16 25
REMARK SMILES IDX 12 26 15 27 13 28 14 29
REMARK H PARENT 22 6 8 19 8 20 15 30
ROOT
ATOM      1  O   UNL     1      43.132 131.507  16.802  1.00  0.00    -0.425 OA
ENDROOT
BRANCH   1   2
ATOM      2  C   UNL     1      43.978 131.507  15.686  1.00  0.00     0.340 C 
ATOM      3  O   UNL     1      43.517 131.659  14.521  1.00  0.00    -0.249 OA
BRANCH   2   4
ATOM      4  C   UNL     1      45.462 131.422  15.889  1.00  0.00     0.224 C 
BRANCH   4   5
ATOM      5  O   UNL     1      46.016 132.693  15.677  1.00  0.00    -0.381 OA
ATOM      6  H   UNL     1      45.369 133.201  15.122  1.00  0.00     0.211 HD
ENDBRANCH   4   5
BRANCH   4   7
ATOM      7  C   UNL     1      46.089 130.412  14.912  1.00  0.00     0.047 C 
BRANCH   7   8
ATOM      8  C   UNL     1      47.277 131.026  14.153  1.00  0.00    -0.008 C 
ATOM      9  C   UNL     1      47.173 130.938  12.639  1.00  0.00     0.004 C 
ATOM     10  C   UNL     1      48.154 130.048  13.384  1.00  0.00     0.004 C 
ENDBRANCH   7   8
ENDBRANCH   4   7
ENDBRANCH   2   4
ENDBRANCH   1   2
BRANCH   1  11
ATOM     11  C   UNL     1      43.553 131.525  18.140  1.00  0.00     0.134 A 
ATOM     12  C   UNL     1      44.807 131.032  18.540  1.00  0.00     0.053 A 
ATOM     13  C   UNL     1      42.705 132.092  19.097  1.00  0.00     0.093 A 
ATOM     14  C   UNL     1      45.187 131.079  19.883  1.00  0.00     0.075 A 
ATOM     15  C   UNL     1      43.080 132.139  20.443  1.00  0.00     0.187 A 
ATOM     16  C   UNL     1      44.328 131.631  20.850  1.00  0.00     0.170 A 
ATOM     17  F   UNL     1      42.226 132.683  21.347  1.00  0.00    -0.200 F 
BRANCH  16  18
ATOM     18  N   UNL     1      44.715 131.643  22.241  1.00  0.00    -0.279 N 
ATOM     19  H   UNL     1      45.758 131.626  22.323  1.00  0.00     0.358 HD
ATOM     20  H   UNL     1      44.393 132.526  22.703  1.00  0.00     0.358 HD
BRANCH  18  21
ATOM     21  C   UNL     1      44.151 130.496  22.909  1.00  0.00     0.136 A 
ATOM     22  C   UNL     1      43.013 130.641  23.747  1.00  0.00     0.069 A 
ATOM     23  C   UNL     1      44.705 129.210  22.703  1.00  0.00     0.094 A 
ATOM     24  C   UNL     1      42.437 129.525  24.378  1.00  0.00     0.016 A 
ATOM     25  C   UNL     1      44.108 128.126  23.343  1.00  0.00     0.051 A 
ATOM     26  C   UNL     1      43.014 128.280  24.151  1.00  0.00    -0.000 A 
ATOM     27  N   UNL     1      44.477 126.837  23.279  1.00  0.00    -0.361 N 
ATOM     28  C   UNL     1      42.671 127.031  24.622  1.00  0.00     0.028 A 
ATOM     29  C   UNL     1      43.601 126.162  24.060  1.00  0.00     0.083 A 
ATOM     30  H   UNL     1      45.273 126.433  22.738  1.00  0.00     0.166 HD
ENDBRANCH  18  21
ENDBRANCH  16  18
ENDBRANCH   1  11
TORSDOF 8
ENDMDL
MODEL 4
REMARK VINA RESULT:      -9.0      1.269      1.730
REMARK SMILES O=C(Oc1ccc([NH2+]c2ccc3cc[nH]c3c2)c(F)c1)[C@H](O)CC1CC1
REMARK SMILES IDX 3 1 2 2 1 3 21 4 22 5 23 7 24 8 25 9 26 10 4 11 5 12 20 13
REMARK SMILES IDX 6 14 18 15 7 16 19 17 8 18 9 21 10 22 17 23 11 24 16 25
REMARK SMILES IDX 12 26 15 27 13 28 14 29
REMARK H PARENT 22 6 8 19 8 20 15 30
ROOT
ATOM      1  O   UNL     1      43.755 131.308  16.917  1.00  0.00    -0.425 OA
ENDROOT
BRANCH   1   2
ATOM      2  C   UNL     1      44.747 131.278  15.928  1.00  0.00     0.340 C 
ATOM      3  O   UNL     1      45.407 132.313  15.638  1.00  0.00    -0.249 OA
BRANCH   2   4
ATOM      4  C   UNL     1      45.093 129.972  15.275  1.00  0.00     0.224 C 
BRANCH   4   5
ATOM      5  O   UNL     1      44.654 128.928  16.102  1.00  0.00    -0.381 OA
ATOM      6  H   UNL     1      45.022 128.087  15.724  1.00  0.00     0.211 HD
ENDBRANCH   4   5
BRANCH   4   7
ATOM      7  C   UNL     1      46.611 129.858  15.054  1.00  0.00     0.047 C 
BRANCH   7   8
ATOM      8  C   UNL     1      46.978 130.030  13.571  1.00  0.00    -0.008 C 
ATOM      9  C   UNL     1      48.469 129.962  13.277  1.00  0.00     0.004 C 
ATOM     10  C   UNL     1      47.743 131.296  13.215  1.00  0.00     0.004 C 
ENDBRANCH   7   8
ENDBRANCH   4   7
ENDBRANCH   2   4
ENDBRANCH   1   2
BRANCH   1  11
ATOM     11  C   UNL     1      43.988 131.349  18.299  1.00  0.00     0.134 A 
ATOM     12  C   UNL     1      45.200 130.922  18.870  1.00  0.00     0.053 A 
ATOM     13  C   UNL     1      42.990 131.871  19.128  1.00  0.00     0.093 A 
ATOM     14  C   UNL     1      45.390 130.988  20.252  1.00  0.00     0.075 A 
ATOM     15  C   UNL     1      43.174 131.938  20.512  1.00  0.00     0.187 A 
ATOM     16  C   UNL     1      44.380 131.496  21.089  1.00  0.00     0.170 A 
ATOM     17  F   UNL     1      42.179 132.437  21.287  1.00  0.00    -0.200 F 
BRANCH  16  18
ATOM     18  N   UNL     1      44.572 131.528  22.519  1.00  0.00    -0.279 N 
ATOM     19  H   UNL     1      45.594 131.542  22.743  1.00  0.00     0.358 HD
ATOM     20  H   UNL     1      44.166 132.404  22.924  1.00  0.00     0.358 HD
BRANCH  18  21
ATOM     21  C   UNL     1      43.955 130.369  23.117  1.00  0.00     0.136 A 
ATOM     22  C   UNL     1      42.783 130.508  23.907  1.00  0.00     0.069 A 
ATOM     23  C   UNL     1      44.492 129.079  22.885  1.00  0.00     0.094 A 
ATOM     24  C   UNL     1      42.156 129.381  24.467  1.00  0.00     0.016 A 
ATOM     25  C   UNL     1      43.844 127.985  23.455  1.00  0.00     0.051 A 
ATOM     26  C   UNL     1      42.718 128.133  24.218  1.00  0.00    -0.000 A 
ATOM     27  N   UNL     1      44.189 126.692  23.357  1.00  0.00    -0.361 N 
ATOM     28  C   UNL     1      42.328 126.875  24.625  1.00  0.00     0.028 A 
ATOM     29  C   UNL     1      43.264 126.007  24.071  1.00  0.00     0.083 A 
ATOM     30  H   UNL     1      45.001 126.291  22.837  1.00  0.00     0.166 HD
ENDBRANCH  18  21
ENDBRANCH  16  18
ENDBRANCH   1  11
TORSDOF 8
ENDMDL
MODEL 5
REMARK VINA RESULT:      -8.9      1.636      2.343
REMARK SMILES O=C(Oc1ccc([NH2+]c2ccc3cc[nH]c3c2)c(F)c1)[C@H](O)CC1CC1
REMARK SMILES IDX 3 1 2 2 1 3 21 4 22 5 23 7 24 8 25 9 26 10 4 11 5 12 20 13
REMARK SMILES IDX 6 14 18 15 7 16 19 17 8 18 9 21 10 22 17 23 11 24 16 25
REMARK SMILES IDX 12 26 15 27 13 28 14 29
REMARK H PARENT 22 6 8 19 8 20 15 30
ROOT
ATOM      1  O   UNL     1      43.769 131.550  16.815  1.00  0.00    -0.425 OA
ENDROOT
BRANCH   1   2
ATOM      2  C   UNL     1      44.790 131.892  15.919  1.00  0.00     0.340 C 
ATOM      3  O   UNL     1      45.887 132.359  16.332  1.00  0.00    -0.249 OA
BRANCH   2   4
ATOM      4  C   UNL     1      44.610 131.609  14.457  1.00  0.00     0.224 C 
BRANCH   4   5
ATOM      5  O   UNL     1      43.263 131.291  14.226  1.00  0.00    -0.381 OA
ATOM      6  H   UNL     1      43.097 131.429  13.257  1.00  0.00     0.211 HD
ENDBRANCH   4   5
BRANCH   4   7
ATOM      7  C   UNL     1      45.505 130.439  14.014  1.00  0.00     0.047 C 
BRANCH   7   8
ATOM      8  C   UNL     1      46.995 130.803  14.109  1.00  0.00    -0.008 C 
ATOM      9  C   UNL     1      47.674 131.041  12.769  1.00  0.00     0.004 C 
ATOM     10  C   UNL     1      47.970 129.774  13.555  1.00  0.00     0.004 C 
ENDBRANCH   7   8
ENDBRANCH   4   7
ENDBRANCH   2   4
ENDBRANCH   1   2
BRANCH   1  11
ATOM     11  C   UNL     1      43.886 131.536  18.212  1.00  0.00     0.134 A 
ATOM     12  C   UNL     1      42.812 131.860  19.060  1.00  0.00     0.053 A 
ATOM     13  C   UNL     1      45.106 131.147  18.774  1.00  0.00     0.093 A 
ATOM     14  C   UNL     1      42.973 131.825  20.447  1.00  0.00     0.075 A 
ATOM     15  C   UNL     1      45.273 131.112  20.162  1.00  0.00     0.187 A 
ATOM     16  C   UNL     1      44.205 131.451  21.014  1.00  0.00     0.170 A 
ATOM     17  F   UNL     1      46.475 130.744  20.672  1.00  0.00    -0.200 F 
BRANCH  16  18
ATOM     18  N   UNL     1      44.373 131.452  22.448  1.00  0.00    -0.279 N 
ATOM     19  H   UNL     1      45.390 131.498  22.689  1.00  0.00     0.358 HD
ATOM     20  H   UNL     1      43.928 132.302  22.868  1.00  0.00     0.358 HD
BRANCH  18  21
ATOM     21  C   UNL     1      43.790 130.257  23.004  1.00  0.00     0.136 A 
ATOM     22  C   UNL     1      42.540 130.315  23.678  1.00  0.00     0.069 A 
ATOM     23  C   UNL     1      44.440 129.009  22.848  1.00  0.00     0.094 A 
ATOM     24  C   UNL     1      41.948 129.149  24.196  1.00  0.00     0.016 A 
ATOM     25  C   UNL     1      43.824 127.875  23.373  1.00  0.00     0.051 A 
ATOM     26  C   UNL     1      42.622 127.945  24.023  1.00  0.00    -0.000 A 
ATOM     27  N   UNL     1      44.272 126.611  23.331  1.00  0.00    -0.361 N 
ATOM     28  C   UNL     1      42.290 126.665  24.413  1.00  0.00     0.028 A 
ATOM     29  C   UNL     1      43.337 125.866  23.967  1.00  0.00     0.083 A 
ATOM     30  H   UNL     1      45.158 126.267  22.898  1.00  0.00     0.166 HD
ENDBRANCH  18  21
ENDBRANCH  16  18
ENDBRANCH   1  11
TORSDOF 8
ENDMDL
MODEL 6
REMARK VINA RESULT:      -8.3      1.302      1.925
REMARK SMILES O=C(Oc1ccc([NH2+]c2ccc3cc[nH]c3c2)c(F)c1)[C@H](O)CC1CC1
REMARK SMILES IDX 3 1 2 2 1 3 21 4 22 5 23 7 24 8 25 9 26 10 4 11 5 12 20 13
REMARK SMILES IDX 6 14 18 15 7 16 19 17 8 18 9 21 10 22 17 23 11 24 16 25
REMARK SMILES IDX 12 26 15 27 13 28 14 29
REMARK H PARENT 22 6 8 19 8 20 15 30
ROOT
ATOM      1  O   UNL     1      45.409 130.846  16.986  1.00  0.00    -0.425 OA
ENDROOT
BRANCH   1   2
ATOM      2  C   UNL     1      45.406 131.888  16.050  1.00  0.00     0.340 C 
ATOM      3  O   UNL     1      46.005 132.974  16.284  1.00  0.00    -0.249 OA
BRANCH   2   4
ATOM      4  C   UNL     1      44.764 131.672  14.712  1.00  0.00     0.224 C 
BRANCH   4   5
ATOM      5  O   UNL     1      43.476 131.152  14.913  1.00  0.00    -0.381 OA
ATOM      6  H   UNL     1      43.175 130.785  14.041  1.00  0.00     0.211 HD
ENDBRANCH   4   5
BRANCH   4   7
ATOM      7  C   UNL     1      45.592 130.694  13.860  1.00  0.00     0.047 C 
BRANCH   7   8
ATOM      8  C   UNL     1      47.100 130.950  14.016  1.00  0.00    -0.008 C 
ATOM      9  C   UNL     1      47.858 131.075  12.704  1.00  0.00     0.004 C 
ATOM     10  C   UNL     1      48.018 129.827  13.556  1.00  0.00     0.004 C 
ENDBRANCH   7   8
ENDBRANCH   4   7
ENDBRANCH   2   4
ENDBRANCH   1   2
BRANCH   1  11
ATOM     11  C   UNL     1      45.165 130.988  18.359  1.00  0.00     0.134 A 
ATOM     12  C   UNL     1      46.056 130.508  19.335  1.00  0.00     0.053 A 
ATOM     13  C   UNL     1      44.011 131.667  18.764  1.00  0.00     0.093 A 
ATOM     14  C   UNL     1      45.775 130.679  20.692  1.00  0.00     0.075 A 
ATOM     15  C   UNL     1      43.724 131.840  20.121  1.00  0.00     0.187 A 
ATOM     16  C   UNL     1      44.606 131.346  21.101  1.00  0.00     0.170 A 
ATOM     17  F   UNL     1      42.588 132.491  20.477  1.00  0.00    -0.200 F 
BRANCH  16  18
ATOM     18  N   UNL     1      44.306 131.487  22.506  1.00  0.00    -0.279 N 
ATOM     19  H   UNL     1      45.172 131.746  23.033  1.00  0.00     0.358 HD
ATOM     20  H   UNL     1      43.620 132.264  22.658  1.00  0.00     0.358 HD
BRANCH  18  21
ATOM     21  C   UNL     1      43.775 130.246  23.015  1.00  0.00     0.136 A 
ATOM     22  C   UNL     1      42.493 130.211  23.627  1.00  0.00     0.069 A 
ATOM     23  C   UNL     1      44.512 129.046  22.872  1.00  0.00     0.094 A 
ATOM     24  C   UNL     1      41.954 129.001  24.097  1.00  0.00     0.016 A 
ATOM     25  C   UNL     1      43.946 127.865  23.348  1.00  0.00     0.051 A 
ATOM     26  C   UNL     1      42.712 127.846  23.939  1.00  0.00    -0.000 A 
ATOM     27  N   UNL     1      44.477 126.633  23.309  1.00  0.00    -0.361 N 
ATOM     28  C   UNL     1      42.446 126.540  24.293  1.00  0.00     0.028 A 
ATOM     29  C   UNL     1      43.563 125.818  23.886  1.00  0.00     0.083 A 
ATOM     30  H   UNL     1      45.403 126.355  22.915  1.00  0.00     0.166 HD
ENDBRANCH  18  21
ENDBRANCH  16  18
ENDBRANCH   1  11
TORSDOF 8
ENDMDL
MODEL 7
REMARK VINA RESULT:      -7.6      3.333      8.289
REMARK SMILES O=C(Oc1ccc([NH2+]c2ccc3cc[nH]c3c2)c(F)c1)[C@H](O)CC1CC1
REMARK SMILES IDX 3 1 2 2 1 3 21 4 22 5 23 7 24 8 25 9 26 10 4 11 5 12 20 13
REMARK SMILES IDX 6 14 18 15 7 16 19 17 8 18 9 21 10 22 17 23 11 24 16 25
REMARK SMILES IDX 12 26 15 27 13 28 14 29
REMARK H PARENT 22 6 8 19 8 20 15 30
ROOT
ATOM      1  O   UNL     1      43.980 131.507  22.140  1.00  0.00    -0.425 OA
ENDROOT
BRANCH   1   2
ATOM      2  C   UNL     1      43.534 130.453  22.948  1.00  0.00     0.340 C 
ATOM      3  O   UNL     1      42.317 130.345  23.261  1.00  0.00    -0.249 OA
BRANCH   2   4
ATOM      4  C   UNL     1      44.504 129.386  23.364  1.00  0.00     0.224 C 
BRANCH   4   5
ATOM      5  O   UNL     1      45.255 129.003  22.243  1.00  0.00    -0.381 OA
ATOM      6  H   UNL     1      45.492 128.047  22.369  1.00  0.00     0.211 HD
ENDBRANCH   4   5
BRANCH   4   7
ATOM      7  C   UNL     1      43.760 128.166  23.933  1.00  0.00     0.047 C 
BRANCH   7   8
ATOM      8  C   UNL     1      43.825 126.968  22.972  1.00  0.00    -0.008 C 
ATOM      9  C   UNL     1      43.266 125.672  23.539  1.00  0.00     0.004 C 
ATOM     10  C   UNL     1      44.767 125.842  23.372  1.00  0.00     0.004 C 
ENDBRANCH   7   8
ENDBRANCH   4   7
ENDBRANCH   2   4
ENDBRANCH   1   2
BRANCH   1  11
ATOM     11  C   UNL     1      43.814 131.591  20.750  1.00  0.00     0.134 A 
ATOM     12  C   UNL     1      42.551 131.506  20.138  1.00  0.00     0.053 A 
ATOM     13  C   UNL     1      44.945 131.806  19.956  1.00  0.00     0.093 A 
ATOM     14  C   UNL     1      42.433 131.603  18.749  1.00  0.00     0.075 A 
ATOM     15  C   UNL     1      44.833 131.901  18.566  1.00  0.00     0.187 A 
ATOM     16  C   UNL     1      43.572 131.800  17.947  1.00  0.00     0.170 A 
ATOM     17  F   UNL     1      45.953 132.095  17.825  1.00  0.00    -0.200 F 
BRANCH  16  18
ATOM     18  N   UNL     1      43.444 131.864  16.511  1.00  0.00    -0.279 N 
ATOM     19  H   UNL     1      42.533 131.444  16.213  1.00  0.00     0.358 HD
ATOM     20  H   UNL     1      43.434 132.860  16.187  1.00  0.00     0.358 HD
BRANCH  18  21
ATOM     21  C   UNL     1      44.536 131.150  15.896  1.00  0.00     0.136 A 
ATOM     22  C   UNL     1      44.764 129.782  16.204  1.00  0.00     0.069 A 
ATOM     23  C   UNL     1      45.366 131.799  14.949  1.00  0.00     0.094 A 
ATOM     24  C   UNL     1      45.806 129.069  15.586  1.00  0.00     0.016 A 
ATOM     25  C   UNL     1      46.388 131.062  14.356  1.00  0.00     0.051 A 
ATOM     26  C   UNL     1      46.599 129.746  14.664  1.00  0.00    -0.000 A 
ATOM     27  N   UNL     1      47.275 131.487  13.442  1.00  0.00    -0.361 N 
ATOM     28  C   UNL     1      47.671 129.313  13.913  1.00  0.00     0.028 A 
ATOM     29  C   UNL     1      48.063 130.421  13.168  1.00  0.00     0.083 A 
ATOM     30  H   UNL     1      47.346 132.441  13.026  1.00  0.00     0.166 HD
ENDBRANCH  18  21
ENDBRANCH  16  18
ENDBRANCH   1  11
TORSDOF 8
ENDMDL
MODEL 8
REMARK VINA RESULT:      -7.4      1.177      1.549
REMARK SMILES O=C(Oc1ccc([NH2+]c2ccc3cc[nH]c3c2)c(F)c1)[C@H](O)CC1CC1
REMARK SMILES IDX 3 1 2 2 1 3 21 4 22 5 23 7 24 8 25 9 26 10 4 11 5 12 20 13
REMARK SMILES IDX 6 14 18 15 7 16 19 17 8 18 9 21 10 22 17 23 11 24 16 25
REMARK SMILES IDX 12 26 15 27 13 28 14 29
REMARK H PARENT 22 6 8 19 8 20 15 30
ROOT
ATOM      1  O   UNL     1      44.508 131.017  16.092  1.00  0.00    -0.425 OA
ENDROOT
BRANCH   1   2
ATOM      2  C   UNL     1      45.143 129.893  15.548  1.00  0.00     0.340 C 
ATOM      3  O   UNL     1      44.526 128.801  15.410  1.00  0.00    -0.249 OA
BRANCH   2   4
ATOM      4  C   UNL     1      46.547 130.019  15.035  1.00  0.00     0.224 C 
BRANCH   4   5
ATOM      5  O   UNL     1      47.432 129.651  16.058  1.00  0.00    -0.381 OA
ATOM      6  H   UNL     1      47.013 128.893  16.543  1.00  0.00     0.211 HD
ENDBRANCH   4   5
BRANCH   4   7
ATOM      7  C   UNL     1      46.838 131.464  14.591  1.00  0.00     0.047 C 
BRANCH   7   8
ATOM      8  C   UNL     1      47.876 131.507  13.459  1.00  0.00    -0.008 C 
ATOM      9  C   UNL     1      47.403 130.906  12.144  1.00  0.00     0.004 C 
ATOM     10  C   UNL     1      48.416 130.160  12.997  1.00  0.00     0.004 C 
ENDBRANCH   7   8
ENDBRANCH   4   7
ENDBRANCH   2   4
ENDBRANCH   1   2
BRANCH   1  11
ATOM     11  C   UNL     1      44.336 131.269  17.460  1.00  0.00     0.134 A 
ATOM     12  C   UNL     1      45.368 131.078  18.395  1.00  0.00     0.053 A 
ATOM     13  C   UNL     1      43.103 131.765  17.896  1.00  0.00     0.093 A 
ATOM     14  C   UNL     1      45.152 131.350  19.748  1.00  0.00     0.075 A 
ATOM     15  C   UNL     1      42.881 132.037  19.249  1.00  0.00     0.187 A 
ATOM     16  C   UNL     1      43.907 131.831  20.191  1.00  0.00     0.170 A 
ATOM     17  F   UNL     1      41.668 132.503  19.639  1.00  0.00    -0.200 F 
BRANCH  16  18
ATOM     18  N   UNL     1      43.682 132.076  21.596  1.00  0.00    -0.279 N 
ATOM     19  H   UNL     1      44.490 132.605  22.001  1.00  0.00     0.358 HD
ATOM     20  H   UNL     1      42.834 132.674  21.732  1.00  0.00     0.358 HD
BRANCH  18  21
ATOM     21  C   UNL     1      43.524 130.820  22.287  1.00  0.00     0.136 A 
ATOM     22  C   UNL     1      44.650 129.989  22.533  1.00  0.00     0.069 A 
ATOM     23  C   UNL     1      42.249 130.424  22.759  1.00  0.00     0.094 A 
ATOM     24  C   UNL     1      44.510 128.778  23.234  1.00  0.00     0.016 A 
ATOM     25  C   UNL     1      42.148 129.219  23.450  1.00  0.00     0.051 A 
ATOM     26  C   UNL     1      43.240 128.426  23.678  1.00  0.00    -0.000 A 
ATOM     27  N   UNL     1      41.041 128.670  23.975  1.00  0.00    -0.361 N 
ATOM     28  C   UNL     1      42.808 127.321  24.380  1.00  0.00     0.028 A 
ATOM     29  C   UNL     1      41.439 127.509  24.546  1.00  0.00     0.083 A 
ATOM     30  H   UNL     1      40.072 129.057  23.953  1.00  0.00     0.166 HD
ENDBRANCH  18  21
ENDBRANCH  16  18
ENDBRANCH   1  11
TORSDOF 8
ENDMDL
MODEL 9
REMARK VINA RESULT:      -6.7      1.394      1.946
REMARK SMILES O=C(Oc1ccc([NH2+]c2ccc3cc[nH]c3c2)c(F)c1)[C@H](O)CC1CC1
REMARK SMILES IDX 3 1 2 2 1 3 21 4 22 5 23 7 24 8 25 9 26 10 4 11 5 12 20 13
REMARK SMILES IDX 6 14 18 15 7 16 19 17 8 18 9 21 10 22 17 23 11 24 16 25
REMARK SMILES IDX 12 26 15 27 13 28 14 29
REMARK H PARENT 22 6 8 19 8 20 15 30
ROOT
ATOM      1  O   UNL     1      44.571 131.837  17.028  1.00  0.00    -0.425 OA
ENDROOT
BRANCH   1   2
ATOM      2  C   UNL     1      43.589 131.703  16.038  1.00  0.00     0.340 C 
ATOM      3  O   UNL     1      42.363 131.707  16.335  1.00  0.00    -0.249 OA
BRANCH   2   4
ATOM      4  C   UNL     1      44.001 131.652  14.597  1.00  0.00     0.224 C 
BRANCH   4   5
ATOM      5  O   UNL     1      42.851 131.501  13.808  1.00  0.00    -0.381 OA
ATOM      6  H   UNL     1      43.107 131.738  12.878  1.00  0.00     0.211 HD
ENDBRANCH   4   5
BRANCH   4   7
ATOM      7  C   UNL     1      44.962 130.477  14.346  1.00  0.00     0.047 C 
BRANCH   7   8
ATOM      8  C   UNL     1      46.423 130.880  14.602  1.00  0.00    -0.008 C 
ATOM      9  C   UNL     1      47.255 131.073  13.344  1.00  0.00     0.004 C 
ATOM     10  C   UNL     1      47.476 129.850  14.220  1.00  0.00     0.004 C 
ENDBRANCH   7   8
ENDBRANCH   4   7
ENDBRANCH   2   4
ENDBRANCH   1   2
BRANCH   1  11
ATOM     11  C   UNL     1      44.365 131.667  18.404  1.00  0.00     0.134 A 
ATOM     12  C   UNL     1      43.085 131.717  18.984  1.00  0.00     0.053 A 
ATOM     13  C   UNL     1      45.472 131.399  19.216  1.00  0.00     0.093 A 
ATOM     14  C   UNL     1      42.927 131.534  20.360  1.00  0.00     0.075 A 
ATOM     15  C   UNL     1      45.320 131.217  20.593  1.00  0.00     0.187 A 
ATOM     16  C   UNL     1      44.042 131.283  21.180  1.00  0.00     0.170 A 
ATOM     17  F   UNL     1      46.418 130.973  21.352  1.00  0.00    -0.200 F 
BRANCH  16  18
ATOM     18  N   UNL     1      43.873 131.130  22.606  1.00  0.00    -0.279 N 
ATOM     19  H   UNL     1      44.703 131.522  23.109  1.00  0.00     0.358 HD
ATOM     20  H   UNL     1      43.041 131.674  22.936  1.00  0.00     0.358 HD
BRANCH  18  21
ATOM     21  C   UNL     1      43.718 129.734  22.928  1.00  0.00     0.136 A 
ATOM     22  C   UNL     1      44.757 128.810  22.637  1.00  0.00     0.069 A 
ATOM     23  C   UNL     1      42.543 129.280  23.575  1.00  0.00     0.094 A 
ATOM     24  C   UNL     1      44.628 127.451  22.977  1.00  0.00     0.016 A 
ATOM     25  C   UNL     1      42.449 127.927  23.898  1.00  0.00     0.051 A 
ATOM     26  C   UNL     1      43.456 127.047  23.608  1.00  0.00    -0.000 A 
ATOM     27  N   UNL     1      41.430 127.303  24.507  1.00  0.00    -0.361 N 
ATOM     28  C   UNL     1      43.058 125.805  24.054  1.00  0.00     0.028 A 
ATOM     29  C   UNL     1      41.796 126.004  24.605  1.00  0.00     0.083 A 
ATOM     30  H   UNL     1      40.536 127.728  24.841  1.00  0.00     0.166 HD
ENDBRANCH  18  21
ENDBRANCH  16  18
ENDBRANCH   1  11
TORSDOF 8
ENDMDL


