REMARK SMILES CC(=O)c1nc(N2CC[C@H](C)[C@H](c3cc4cc(F)ccc4[nH]3)[C@H]2F)c[nH]1
REMARK SMILES IDX 7 1 8 2 9 3 10 4 11 5 12 6 23 7 24 8 6 9 4 10 26 11 5 12
REMARK SMILES IDX 25 13 2 15 1 16 3 17 13 18 14 19 22 20 15 21 21 22 16 23
REMARK SMILES IDX 20 24 17 25 19 26 18 28
REMARK H PARENT 26 14 22 27
ROOT
ATOM      1  N   UNL     1      -0.544   1.636  -0.050  1.00  0.00    -0.325 N 
ATOM      2  C   UNL     1       0.334   1.967  -1.181  1.00  0.00     0.121 C 
ATOM      3  C   UNL     1       1.615   1.130  -1.130  1.00  0.00     0.026 C 
ATOM      4  C   UNL     1       2.296   1.246   0.244  1.00  0.00     0.001 C 
ATOM      5  C   UNL     1       3.593   0.425   0.283  1.00  0.00     0.008 C 
ATOM      6  C   UNL     1       1.327   0.876   1.400  1.00  0.00     0.094 C 
ATOM      7  C   UNL     1       0.022   1.693   1.308  1.00  0.00     0.273 C 
ATOM      8  F   UNL     1       0.279   3.015   1.632  1.00  0.00    -0.223 F 
ENDROOT
BRANCH   1   9
ATOM      9  C   UNL     1      -1.970   1.575  -0.252  1.00  0.00     0.149 A 
ATOM     10  C   UNL     1      -3.893   1.769  -1.133  1.00  0.00     0.175 A 
ATOM     11  N   UNL     1      -4.100   1.095   0.017  1.00  0.00    -0.340 N 
ATOM     12  N   UNL     1      -2.594   2.078  -1.337  1.00  0.00    -0.208 NA
ATOM     13  C   UNL     1      -2.889   0.965   0.579  1.00  0.00     0.131 A 
ATOM     14  H   UNL     1      -5.006   0.735   0.391  1.00  0.00     0.168 HD
BRANCH  10  15
ATOM     15  C   UNL     1      -4.966   2.123  -2.076  1.00  0.00     0.195 C 
ATOM     16  C   UNL     1      -4.657   2.865  -3.337  1.00  0.00     0.097 C 
ATOM     17  O   UNL     1      -6.157   1.799  -1.820  1.00  0.00    -0.291 OA
ENDBRANCH  10  15
ENDBRANCH   1   9
BRANCH   6  18
ATOM     18  C   UNL     1       1.048  -0.612   1.496  1.00  0.00     0.024 A 
ATOM     19  C   UNL     1       1.678  -1.469   2.398  1.00  0.00     0.032 A 
ATOM     20  N   UNL     1       0.192  -1.299   0.698  1.00  0.00    -0.358 N 
ATOM     21  C   UNL     1       1.166  -2.717   2.124  1.00  0.00     0.003 A 
ATOM     22  C   UNL     1       0.273  -2.579   1.095  1.00  0.00     0.046 A 
ATOM     23  C   UNL     1       1.433  -3.954   2.707  1.00  0.00     0.049 A 
ATOM     24  C   UNL     1      -0.419  -3.671   0.575  1.00  0.00     0.029 A 
ATOM     25  C   UNL     1       0.748  -5.077   2.204  1.00  0.00     0.123 A 
ATOM     26  C   UNL     1      -0.174  -4.936   1.143  1.00  0.00     0.041 A 
ATOM     27  H   UNL     1      -0.409  -0.931  -0.071  1.00  0.00     0.166 HD
ATOM     28  F   UNL     1       0.976  -6.301   2.741  1.00  0.00    -0.207 F 
ENDBRANCH   6  18
TORSDOF 3


