REMARK SMILES Cc1ccoc1NC(=O)N1CCC[C@H](c2ccc3ccc(C)c(F)c3[nH+]2)[C@H]1F
REMARK SMILES IDX 10 1 11 2 12 3 13 4 14 5 27 6 28 7 8 8 7 9 9 11 6 12 2 13
REMARK SMILES IDX 3 14 4 15 5 16 1 17 15 18 16 19 26 20 17 21 25 22 18 23
REMARK SMILES IDX 23 24 19 25 21 26 20 27 24 29 22 30
REMARK H PARENT 7 10 26 28
ROOT
ATOM      1  N   UNL     1      -2.815   0.287  -0.842  1.00  0.00    -0.293 N 
ATOM      2  C   UNL     1      -3.292   1.674  -0.823  1.00  0.00     0.124 C 
ATOM      3  C   UNL     1      -2.515   2.462   0.238  1.00  0.00     0.023 C 
ATOM      4  C   UNL     1      -0.998   2.321   0.032  1.00  0.00     0.021 C 
ATOM      5  C   UNL     1      -0.575   0.836  -0.013  1.00  0.00     0.140 C 
ATOM      6  C   UNL     1      -1.381   0.085  -1.089  1.00  0.00     0.280 C 
ATOM      7  F   UNL     1      -1.050  -1.262  -1.097  1.00  0.00    -0.223 F 
ENDROOT
BRANCH   1   8
ATOM      8  C   UNL     1      -3.684  -0.776  -0.412  1.00  0.00     0.326 C 
ATOM      9  N   UNL     1      -3.224  -1.760   0.527  1.00  0.00    -0.278 N 
ATOM     10  H   UNL     1      -2.319  -1.597   1.020  1.00  0.00     0.175 HD
ATOM     11  O   UNL     1      -4.872  -0.811  -0.835  1.00  0.00    -0.248 OA
BRANCH   9  12
ATOM     12  C   UNL     1      -3.971  -2.941   0.852  1.00  0.00     0.203 A 
ATOM     13  C   UNL     1      -3.597  -3.898   1.774  1.00  0.00     0.013 A 
ATOM     14  C   UNL     1      -4.597  -4.849   1.757  1.00  0.00     0.047 A 
ATOM     15  C   UNL     1      -5.517  -4.409   0.823  1.00  0.00     0.198 A 
ATOM     16  O   UNL     1      -5.117  -3.270   0.301  1.00  0.00    -0.448 OA
ATOM     17  C   UNL     1      -2.363  -3.913   2.617  1.00  0.00     0.050 C 
ENDBRANCH   9  12
ENDBRANCH   1   8
BRANCH   5  18
ATOM     18  C   UNL     1       0.918   0.697  -0.240  1.00  0.00     0.188 A 
ATOM     19  C   UNL     1       1.714   0.068   0.731  1.00  0.00     0.075 A 
ATOM     20  N   UNL     1       1.501   1.173  -1.383  1.00  0.00    -0.205 N 
ATOM     21  C   UNL     1       3.085  -0.065   0.525  1.00  0.00     0.021 A 
ATOM     22  C   UNL     1       2.844   1.056  -1.610  1.00  0.00     0.247 A 
ATOM     23  C   UNL     1       3.666   0.428  -0.647  1.00  0.00     0.049 A 
ATOM     24  C   UNL     1       3.421   1.554  -2.793  1.00  0.00     0.197 A 
ATOM     25  C   UNL     1       5.043   0.308  -0.873  1.00  0.00     0.015 A 
ATOM     26  C   UNL     1       4.802   1.422  -3.019  1.00  0.00    -0.008 A 
ATOM     27  C   UNL     1       5.607   0.805  -2.049  1.00  0.00     0.007 A 
ATOM     28  H   UNL     1       0.901   1.638  -2.101  1.00  0.00     0.454 HD
ATOM     29  F   UNL     1       2.644   2.168  -3.724  1.00  0.00    -0.199 F 
ATOM     30  C   UNL     1       5.417   1.973  -4.273  1.00  0.00     0.048 C 
ENDBRANCH   5  18
TORSDOF 3


