REMARK SMILES Cc1ccc(-c2cc3[nH]ccc3cc2N(N)C(=O)N2CCOCC2)cc1F
REMARK SMILES IDX 6 1 7 2 8 3 9 4 10 5 11 6 12 7 13 8 14 9 5 11 2 12 3 13
REMARK SMILES IDX 26 14 4 15 25 16 1 17 27 18 15 19 16 20 17 23 19 24 20 25
REMARK SMILES IDX 24 26 21 27 23 28 22 29 18 30
REMARK H PARENT 9 10 16 21 16 22
ROOT
ATOM      1  C   UNL     1      -1.327  -0.617   0.402  1.00  0.00     0.009 A 
ATOM      2  C   UNL     1      -2.125  -1.550   1.105  1.00  0.00     0.037 A 
ATOM      3  C   UNL     1      -2.510  -1.246   2.407  1.00  0.00     0.046 A 
ATOM      4  N   UNL     1      -3.266  -1.992   3.229  1.00  0.00    -0.361 N 
ATOM      5  C   UNL     1      -3.376  -1.281   4.375  1.00  0.00     0.083 A 
ATOM      6  C   UNL     1      -2.686  -0.077   4.276  1.00  0.00     0.028 A 
ATOM      7  C   UNL     1      -2.143  -0.077   3.010  1.00  0.00     0.002 A 
ATOM      8  C   UNL     1      -1.349   0.865   2.368  1.00  0.00     0.039 A 
ATOM      9  C   UNL     1      -0.908   0.589   1.055  1.00  0.00     0.071 A 
ATOM     10  H   UNL     1      -3.685  -2.928   3.028  1.00  0.00     0.166 HD
ENDROOT
BRANCH   1  11
ATOM     11  C   UNL     1      -0.989  -0.901  -1.012  1.00  0.00    -0.013 A 
ATOM     12  C   UNL     1      -0.351  -1.451  -3.700  1.00  0.00    -0.015 A 
ATOM     13  C   UNL     1      -0.907  -0.213  -3.342  1.00  0.00     0.007 A 
ATOM     14  C   UNL     1      -0.113  -2.413  -2.705  1.00  0.00     0.126 A 
ATOM     15  C   UNL     1      -1.234   0.056  -2.011  1.00  0.00     0.009 A 
ATOM     16  C   UNL     1      -0.443  -2.144  -1.373  1.00  0.00     0.048 A 
ATOM     17  C   UNL     1       0.034  -1.726  -5.124  1.00  0.00     0.047 C 
ATOM     18  F   UNL     1       0.445  -3.609  -3.021  1.00  0.00    -0.207 F 
ENDBRANCH   1  11
BRANCH   9  19
ATOM     19  N   UNL     1      -0.021   1.528   0.420  1.00  0.00    -0.229 N 
BRANCH  19  20
ATOM     20  N   UNL     1      -0.400   2.881   0.389  1.00  0.00    -0.239 NA
ATOM     21  H   UNL     1       0.410   3.449   0.720  1.00  0.00     0.144 HD
ATOM     22  H   UNL     1      -0.585   3.136  -0.606  1.00  0.00     0.144 HD
ENDBRANCH  19  20
BRANCH  19  23
ATOM     23  C   UNL     1       1.218   1.119  -0.199  1.00  0.00     0.339 C 
ATOM     24  N   UNL     1       1.994   0.015   0.312  1.00  0.00    -0.319 N 
ATOM     25  C   UNL     1       1.920  -0.389   1.721  1.00  0.00     0.150 C 
ATOM     26  C   UNL     1       2.797  -0.810  -0.597  1.00  0.00     0.150 C 
ATOM     27  C   UNL     1       3.305  -0.826   2.214  1.00  0.00     0.181 C 
ATOM     28  C   UNL     1       4.117  -1.186   0.079  1.00  0.00     0.181 C 
ATOM     29  O   UNL     1       3.879  -1.779   1.341  1.00  0.00    -0.378 OA
ATOM     30  O   UNL     1       1.641   1.765  -1.196  1.00  0.00    -0.247 OA
ENDBRANCH  19  23
ENDBRANCH   9  19
TORSDOF 4


